MODEL 1
REMARK VINA RESULT:     -10.6      0.000      0.000
REMARK SMILES C[C@H]1[NH2+]CC[C@H]1C(=O)N1CC(C(=O)NCCCCNC(=O)c2ccc(-c3c4nc(c(-c5ccc(S(=O)(=O)[O-])cc5)c5ccc([nH]5)c(-c5ccc(S(=O)(=O)[O-])cc5)c5nc(c(-c6ccc(S(=O)(=O)[O-])cc6)c6ccc3[nH]6)C=C5)C=C4)cc2)C1
REMARK SMILES IDX 17 1 16 2 15 3 14 4 12 5 13 6 11 8 7 9 8 10 9 11 10 12 82 13
REMARK SMILES IDX 6 14 1 15 2 16 3 17 4 18 5 21 18 22 19 23 20 24 21 26 22 27
REMARK SMILES IDX 23 28 81 29 24 30 80 31 25 32 26 33 27 34 74 35 28 36 79 37
REMARK SMILES IDX 73 38 75 39 29 40 78 41 72 42 71 43 30 45 60 46 41 47 59 48
REMARK SMILES IDX 42 49 45 50 58 51 76 52 43 53 44 54 57 56 77 57 46 58 31 59
REMARK SMILES IDX 32 60 40 61 33 62 39 63 34 64 35 65 36 66 37 67 38 68 61 69
REMARK SMILES IDX 62 70 70 71 63 72 69 73 64 74 65 75 66 76 67 77 68 78 47 79
REMARK SMILES IDX 48 80 56 81 49 82 55 83 50 84 51 85 52 86 53 87 54 88
REMARK H PARENT 14 7 3 19 3 20 19 25 75 44 45 55
REMARK Flexibility Score: inf
ROOT
ATOM      1  C   UNL A   1      40.775  21.094  27.460  1.00  0.00     0.023 C 
ENDROOT
BRANCH   1   2
ATOM      2  C   UNL A   1      41.525  19.765  27.359  1.00  0.00     0.023 C 
BRANCH   2   3
ATOM      3  C   UNL A   1      41.904  19.336  25.943  1.00  0.00     0.116 C 
BRANCH   3   4
ATOM      4  N   UNL A   1      43.123  18.551  25.903  1.00  0.00    -0.356 N 
ATOM      5  C   UNL A   1      44.378  18.849  25.430  1.00  0.00     0.226 C 
ATOM      6  O   UNL A   1      45.234  17.964  25.585  1.00  0.00    -0.275 OA
ATOM      7  H   UNL A   1      43.036  17.646  26.282  1.00  0.00     0.163 HD
BRANCH   5   8
ATOM      8  C   UNL A   1      44.713  20.172  24.734  1.00  0.00     0.117 C 
ATOM      9  C   UNL A   1      45.924  23.231  24.929  1.00  0.00     0.231 C 
ATOM     10  O   UNL A   1      45.841  23.535  23.740  1.00  0.00    -0.274 OA
ATOM     11  N   UNL A   1      45.603  21.967  25.390  1.00  0.00    -0.341 N 
ATOM     12  C   UNL A   1      46.118  20.746  24.726  1.00  0.00     0.134 C 
ATOM     13  C   UNL A   1      44.212  21.470  25.332  1.00  0.00     0.134 C 
BRANCH   9  14
ATOM     14  C   UNL A   1      46.379  24.232  25.979  1.00  0.00     0.142 C 
ATOM     15  C   UNL A   1      44.159  25.602  25.916  1.00  0.00     0.076 C 
ATOM     16  C   UNL A   1      45.682  25.592  26.007  1.00  0.00     0.192 C 
ATOM     17  N   UNL A   1      46.104  26.157  27.302  1.00  0.00    -0.343 N 
ATOM     18  C   UNL A   1      46.367  25.051  28.227  1.00  0.00     0.261 C 
ATOM     19  H   UNL A   1      45.363  26.749  27.677  1.00  0.00     0.346 HD
ATOM     20  H   UNL A   1      46.946  26.719  27.181  1.00  0.00     0.346 HD
ATOM     21  C   UNL A   1      46.287  23.762  27.423  1.00  0.00     0.081 C 
ENDBRANCH   9  14
ENDBRANCH   5   8
ENDBRANCH   3   4
ENDBRANCH   2   3
ENDBRANCH   1   2
BRANCH   1  22
ATOM     22  C   UNL A   1      40.675  21.898  26.167  1.00  0.00     0.116 C 
BRANCH  22  23
ATOM     23  N   UNL A   1      39.308  22.230  25.800  1.00  0.00    -0.352 N 
ATOM     24  C   UNL A   1      38.567  23.342  26.125  1.00  0.00     0.251 C 
ATOM     25  H   UNL A   1      38.846  21.565  25.239  1.00  0.00     0.163 HD
ATOM     26  O   UNL A   1      37.380  23.396  25.817  1.00  0.00    -0.269 OA
BRANCH  24  27
ATOM     27  C   UNL A   1      39.192  24.453  26.879  1.00  0.00     0.039 A 
ATOM     28  C   UNL A   1      40.016  25.352  26.197  1.00  0.00     0.014 A 
ATOM     29  C   UNL A   1      38.953  24.619  28.246  1.00  0.00     0.014 A 
ATOM     30  C   UNL A   1      40.539  26.460  26.868  1.00  0.00     0.010 A 
ATOM     31  C   UNL A   1      39.417  25.761  28.896  1.00  0.00     0.010 A 
ATOM     32  C   UNL A   1      40.210  26.697  28.214  1.00  0.00    -0.014 A 
BRANCH  32  33
ATOM     33  C   UNL A   1      40.672  27.920  28.919  1.00  0.00     0.031 A 
ATOM     34  C   UNL A   1      42.049  27.973  29.525  1.00  0.00     0.074 A 
ATOM     35  C   UNL A   1      39.830  28.962  29.074  1.00  0.00     0.049 A 
ATOM     36  N   UNL A   1      42.604  28.924  30.231  1.00  0.00    -0.248 NA
ATOM     37  C   UNL A   1      42.906  26.792  29.331  1.00  0.00     0.031 C 
ATOM     38  C   UNL A   1      38.456  29.024  28.567  1.00  0.00     0.029 A 
ATOM     39  N   UNL A   1      40.002  30.166  29.708  1.00  0.00    -0.354 N 
ATOM     40  C   UNL A   1      43.864  28.453  30.578  1.00  0.00     0.074 A 
ATOM     41  C   UNL A   1      43.973  27.112  30.048  1.00  0.00     0.031 C 
ATOM     42  C   UNL A   1      37.924  30.215  28.885  1.00  0.00     0.029 A 
ATOM     43  C   UNL A   1      38.898  30.985  29.652  1.00  0.00     0.049 A 
ATOM     44  H   UNL A   1      40.838  30.421  30.161  1.00  0.00     0.167 HD
ATOM     45  C   UNL A   1      44.851  29.085  31.259  1.00  0.00     0.031 A 
ATOM     46  C   UNL A   1      38.688  32.212  30.164  1.00  0.00     0.031 A 
ATOM     47  C   UNL A   1      44.745  30.422  31.780  1.00  0.00     0.049 A 
ATOM     48  C   UNL A   1      39.792  32.888  30.932  1.00  0.00     0.074 A 
ATOM     49  C   UNL A   1      45.706  31.166  32.443  1.00  0.00     0.029 A 
ATOM     50  N   UNL A   1      43.611  31.216  31.699  1.00  0.00    -0.354 N 
ATOM     51  N   UNL A   1      40.996  32.446  31.202  1.00  0.00    -0.248 NA
ATOM     52  C   UNL A   1      39.510  34.232  31.455  1.00  0.00     0.031 C 
ATOM     53  C   UNL A   1      45.137  32.392  32.804  1.00  0.00     0.029 A 
ATOM     54  C   UNL A   1      43.840  32.434  32.317  1.00  0.00     0.049 A 
ATOM     55  H   UNL A   1      42.766  30.953  31.266  1.00  0.00     0.167 HD
ATOM     56  C   UNL A   1      41.626  33.469  31.902  1.00  0.00     0.074 A 
ATOM     57  C   UNL A   1      40.673  34.556  32.003  1.00  0.00     0.031 C 
ATOM     58  C   UNL A   1      42.882  33.506  32.411  1.00  0.00     0.031 A 
BRANCH  45  59
ATOM     59  C   UNL A   1      46.133  28.327  31.481  1.00  0.00    -0.014 A 
ATOM     60  C   UNL A   1      47.171  28.364  30.531  1.00  0.00     0.010 A 
ATOM     61  C   UNL A   1      46.315  27.586  32.662  1.00  0.00     0.010 A 
ATOM     62  C   UNL A   1      48.345  27.635  30.735  1.00  0.00     0.020 A 
ATOM     63  C   UNL A   1      47.500  26.877  32.884  1.00  0.00     0.020 A 
ATOM     64  C   UNL A   1      48.499  26.889  31.908  1.00  0.00     0.054 A 
BRANCH  64  65
ATOM     65  S   UNL A   1      50.034  25.955  32.149  1.00  0.00     0.124 S 
ATOM     66  O   UNL A   1      50.441  25.688  30.771  1.00  0.00    -0.237 OA
ATOM     67  O   UNL A   1      50.875  26.901  32.878  1.00  0.00    -0.237 OA
ATOM     68  O   UNL A   1      49.613  24.784  32.911  1.00  0.00    -0.744 OA
ENDBRANCH  64  65
ENDBRANCH  45  59
BRANCH  46  69
ATOM     69  C   UNL A   1      37.384  32.896  29.947  1.00  0.00    -0.014 A 
ATOM     70  C   UNL A   1      37.136  33.589  28.749  1.00  0.00     0.010 A 
ATOM     71  C   UNL A   1      36.376  32.843  30.928  1.00  0.00     0.010 A 
ATOM     72  C   UNL A   1      35.913  34.231  28.541  1.00  0.00     0.020 A 
ATOM     73  C   UNL A   1      35.141  33.462  30.712  1.00  0.00     0.020 A 
ATOM     74  C   UNL A   1      34.921  34.161  29.523  1.00  0.00     0.054 A 
BRANCH  74  75
ATOM     75  S   UNL A   1      33.319  34.954  29.208  1.00  0.00     0.124 S 
ATOM     76  O   UNL A   1      32.716  34.956  30.537  1.00  0.00    -0.237 OA
ATOM     77  O   UNL A   1      33.711  36.261  28.687  1.00  0.00    -0.237 OA
ATOM     78  O   UNL A   1      32.687  34.067  28.233  1.00  0.00    -0.744 OA
ENDBRANCH  74  75
ENDBRANCH  46  69
BRANCH  58  79
ATOM     79  C   UNL A   1      43.315  34.775  33.096  1.00  0.00    -0.014 A 
ATOM     80  C   UNL A   1      43.698  35.909  32.358  1.00  0.00     0.010 A 
ATOM     81  C   UNL A   1      43.285  34.849  34.500  1.00  0.00     0.010 A 
ATOM     82  C   UNL A   1      44.073  37.085  33.014  1.00  0.00     0.020 A 
ATOM     83  C   UNL A   1      43.633  36.031  35.159  1.00  0.00     0.020 A 
ATOM     84  C   UNL A   1      44.038  37.138  34.411  1.00  0.00     0.054 A 
BRANCH  84  85
ATOM     85  S   UNL A   1      44.485  38.690  35.239  1.00  0.00     0.124 S 
ATOM     86  O   UNL A   1      45.935  38.716  35.071  1.00  0.00    -0.237 OA
ATOM     87  O   UNL A   1      43.744  39.687  34.471  1.00  0.00    -0.237 OA
ATOM     88  O   UNL A   1      44.019  38.497  36.610  1.00  0.00    -0.744 OA
ENDBRANCH  84  85
ENDBRANCH  58  79
ENDBRANCH  32  33
ENDBRANCH  24  27
ENDBRANCH  22  23
ENDBRANCH   1  22
TORSDOF 15
ENDMDL
MODEL 2
REMARK VINA RESULT:     -10.4      3.972     10.875
REMARK SMILES C[C@H]1[NH2+]CC[C@H]1C(=O)N1CC(C(=O)NCCCCNC(=O)c2ccc(-c3c4nc(c(-c5ccc(S(=O)(=O)[O-])cc5)c5ccc([nH]5)c(-c5ccc(S(=O)(=O)[O-])cc5)c5nc(c(-c6ccc(S(=O)(=O)[O-])cc6)c6ccc3[nH]6)C=C5)C=C4)cc2)C1
REMARK SMILES IDX 17 1 16 2 15 3 14 4 12 5 13 6 11 8 7 9 8 10 9 11 10 12 82 13
REMARK SMILES IDX 6 14 1 15 2 16 3 17 4 18 5 21 18 22 19 23 20 24 21 26 22 27
REMARK SMILES IDX 23 28 81 29 24 30 80 31 25 32 26 33 27 34 74 35 28 36 79 37
REMARK SMILES IDX 73 38 75 39 29 40 78 41 72 42 71 43 30 45 60 46 41 47 59 48
REMARK SMILES IDX 42 49 45 50 58 51 76 52 43 53 44 54 57 56 77 57 46 58 31 59
REMARK SMILES IDX 32 60 40 61 33 62 39 63 34 64 35 65 36 66 37 67 38 68 61 69
REMARK SMILES IDX 62 70 70 71 63 72 69 73 64 74 65 75 66 76 67 77 68 78 47 79
REMARK SMILES IDX 48 80 56 81 49 82 55 83 50 84 51 85 52 86 53 87 54 88
REMARK H PARENT 14 7 3 19 3 20 19 25 75 44 45 55
REMARK Flexibility Score: inf
ROOT
ATOM      1  C   UNL A   1      31.931  27.897  27.440  1.00  0.00     0.023 C 
ENDROOT
BRANCH   1   2
ATOM      2  C   UNL A   1      31.422  27.343  26.108  1.00  0.00     0.023 C 
BRANCH   2   3
ATOM      3  C   UNL A   1      32.153  27.852  24.868  1.00  0.00     0.116 C 
BRANCH   3   4
ATOM      4  N   UNL A   1      31.248  28.223  23.797  1.00  0.00    -0.356 N 
ATOM      5  C   UNL A   1      30.975  27.623  22.592  1.00  0.00     0.226 C 
ATOM      6  O   UNL A   1      30.100  28.173  21.904  1.00  0.00    -0.275 OA
ATOM      7  H   UNL A   1      30.739  29.050  23.964  1.00  0.00     0.163 HD
BRANCH   5   8
ATOM      8  C   UNL A   1      31.707  26.371  22.101  1.00  0.00     0.117 C 
ATOM      9  C   UNL A   1      33.864  23.952  22.700  1.00  0.00     0.231 C 
ATOM     10  O   UNL A   1      33.733  23.326  21.648  1.00  0.00    -0.274 OA
ATOM     11  N   UNL A   1      33.092  25.059  22.999  1.00  0.00    -0.341 N 
ATOM     12  C   UNL A   1      31.620  25.045  22.836  1.00  0.00     0.134 C 
ATOM     13  C   UNL A   1      33.216  26.305  22.212  1.00  0.00     0.134 C 
BRANCH   9  14
ATOM     14  C   UNL A   1      34.897  23.552  23.742  1.00  0.00     0.142 C 
ATOM     15  C   UNL A   1      33.643  21.369  24.430  1.00  0.00     0.076 C 
ATOM     16  C   UNL A   1      34.451  22.595  24.847  1.00  0.00     0.192 C 
ATOM     17  N   UNL A   1      35.726  22.165  25.451  1.00  0.00    -0.343 N 
ATOM     18  C   UNL A   1      36.770  22.231  24.426  1.00  0.00     0.261 C 
ATOM     19  H   UNL A   1      35.639  21.208  25.793  1.00  0.00     0.346 HD
ATOM     20  H   UNL A   1      35.965  22.774  26.234  1.00  0.00     0.346 HD
ATOM     21  C   UNL A   1      36.160  22.899  23.203  1.00  0.00     0.081 C 
ENDBRANCH   9  14
ENDBRANCH   5   8
ENDBRANCH   3   4
ENDBRANCH   2   3
ENDBRANCH   1   2
BRANCH   1  22
ATOM     22  C   UNL A   1      33.335  28.494  27.415  1.00  0.00     0.116 C 
BRANCH  22  23
ATOM     23  N   UNL A   1      33.347  29.942  27.554  1.00  0.00    -0.352 N 
ATOM     24  C   UNL A   1      34.365  30.765  27.977  1.00  0.00     0.251 C 
ATOM     25  H   UNL A   1      32.508  30.398  27.312  1.00  0.00     0.163 HD
ATOM     26  O   UNL A   1      34.152  31.963  28.140  1.00  0.00    -0.269 OA
BRANCH  24  27
ATOM     27  C   UNL A   1      35.701  30.198  28.270  1.00  0.00     0.039 A 
ATOM     28  C   UNL A   1      36.660  30.170  27.254  1.00  0.00     0.014 A 
ATOM     29  C   UNL A   1      36.015  29.716  29.544  1.00  0.00     0.014 A 
ATOM     30  C   UNL A   1      37.955  29.729  27.535  1.00  0.00     0.010 A 
ATOM     31  C   UNL A   1      37.324  29.342  29.840  1.00  0.00     0.010 A 
ATOM     32  C   UNL A   1      38.310  29.349  28.841  1.00  0.00    -0.014 A 
BRANCH  32  33
ATOM     33  C   UNL A   1      39.705  28.972  29.184  1.00  0.00     0.031 A 
ATOM     34  C   UNL A   1      40.618  29.966  29.851  1.00  0.00     0.074 A 
ATOM     35  C   UNL A   1      40.175  27.757  28.835  1.00  0.00     0.049 A 
ATOM     36  N   UNL A   1      41.882  29.841  30.168  1.00  0.00    -0.248 NA
ATOM     37  C   UNL A   1      40.041  31.277  30.185  1.00  0.00     0.031 C 
ATOM     38  C   UNL A   1      39.404  26.715  28.151  1.00  0.00     0.029 A 
ATOM     39  N   UNL A   1      41.415  27.195  29.001  1.00  0.00    -0.354 N 
ATOM     40  C   UNL A   1      42.255  31.060  30.722  1.00  0.00     0.074 A 
ATOM     41  C   UNL A   1      41.098  31.926  30.653  1.00  0.00     0.031 C 
ATOM     42  C   UNL A   1      40.181  25.632  27.984  1.00  0.00     0.029 A 
ATOM     43  C   UNL A   1      41.513  25.914  28.508  1.00  0.00     0.049 A 
ATOM     44  H   UNL A   1      42.165  27.664  29.433  1.00  0.00     0.167 HD
ATOM     45  C   UNL A   1      43.445  31.421  31.260  1.00  0.00     0.031 A 
ATOM     46  C   UNL A   1      42.557  25.064  28.476  1.00  0.00     0.031 A 
ATOM     47  C   UNL A   1      44.594  30.557  31.334  1.00  0.00     0.049 A 
ATOM     48  C   UNL A   1      43.875  25.493  29.062  1.00  0.00     0.074 A 
ATOM     49  C   UNL A   1      45.829  30.816  31.902  1.00  0.00     0.029 A 
ATOM     50  N   UNL A   1      44.649  29.268  30.827  1.00  0.00    -0.354 N 
ATOM     51  N   UNL A   1      44.190  26.630  29.632  1.00  0.00    -0.248 NA
ATOM     52  C   UNL A   1      44.973  24.517  29.010  1.00  0.00     0.031 C 
ATOM     53  C   UNL A   1      46.648  29.700  31.695  1.00  0.00     0.029 A 
ATOM     54  C   UNL A   1      45.904  28.726  31.049  1.00  0.00     0.049 A 
ATOM     55  H   UNL A   1      43.906  28.806  30.374  1.00  0.00     0.167 HD
ATOM     56  C   UNL A   1      45.516  26.498  30.031  1.00  0.00     0.074 A 
ATOM     57  C   UNL A   1      45.938  25.166  29.648  1.00  0.00     0.031 C 
ATOM     58  C   UNL A   1      46.310  27.398  30.661  1.00  0.00     0.031 A 
BRANCH  45  59
ATOM     59  C   UNL A   1      43.562  32.820  31.805  1.00  0.00    -0.014 A 
ATOM     60  C   UNL A   1      43.252  33.102  33.149  1.00  0.00     0.010 A 
ATOM     61  C   UNL A   1      44.007  33.863  30.974  1.00  0.00     0.010 A 
ATOM     62  C   UNL A   1      43.338  34.408  33.637  1.00  0.00     0.020 A 
ATOM     63  C   UNL A   1      44.122  35.168  31.466  1.00  0.00     0.020 A 
ATOM     64  C   UNL A   1      43.765  35.435  32.789  1.00  0.00     0.054 A 
BRANCH  64  65
ATOM     65  S   UNL A   1      43.871  37.120  33.450  1.00  0.00     0.124 S 
ATOM     66  O   UNL A   1      43.843  37.922  32.228  1.00  0.00    -0.237 OA
ATOM     67  O   UNL A   1      42.679  37.213  34.288  1.00  0.00    -0.237 OA
ATOM     68  O   UNL A   1      45.140  37.131  34.172  1.00  0.00    -0.744 OA
ENDBRANCH  64  65
ENDBRANCH  45  59
BRANCH  46  69
ATOM     69  C   UNL A   1      42.392  23.707  27.885  1.00  0.00    -0.014 A 
ATOM     70  C   UNL A   1      42.770  23.461  26.553  1.00  0.00     0.010 A 
ATOM     71  C   UNL A   1      41.874  22.650  28.656  1.00  0.00     0.010 A 
ATOM     72  C   UNL A   1      42.618  22.189  25.997  1.00  0.00     0.020 A 
ATOM     73  C   UNL A   1      41.745  21.369  28.111  1.00  0.00     0.020 A 
ATOM     74  C   UNL A   1      42.109  21.149  26.780  1.00  0.00     0.054 A 
BRANCH  74  75
ATOM     75  S   UNL A   1      41.974  19.491  26.054  1.00  0.00     0.124 S 
ATOM     76  O   UNL A   1      42.794  19.619  24.854  1.00  0.00    -0.237 OA
ATOM     77  O   UNL A   1      42.520  18.640  27.108  1.00  0.00    -0.237 OA
ATOM     78  O   UNL A   1      40.539  19.338  25.820  1.00  0.00    -0.744 OA
ENDBRANCH  74  75
ENDBRANCH  46  69
BRANCH  58  79
ATOM     79  C   UNL A   1      47.709  26.963  31.010  1.00  0.00    -0.014 A 
ATOM     80  C   UNL A   1      48.017  26.448  32.282  1.00  0.00     0.010 A 
ATOM     81  C   UNL A   1      48.716  27.021  30.031  1.00  0.00     0.010 A 
ATOM     82  C   UNL A   1      49.318  26.028  32.577  1.00  0.00     0.020 A 
ATOM     83  C   UNL A   1      50.011  26.576  30.313  1.00  0.00     0.020 A 
ATOM     84  C   UNL A   1      50.306  26.094  31.589  1.00  0.00     0.054 A 
BRANCH  84  85
ATOM     85  S   UNL A   1      51.974  25.500  31.982  1.00  0.00     0.124 S 
ATOM     86  O   UNL A   1      51.766  24.059  32.089  1.00  0.00    -0.237 OA
ATOM     87  O   UNL A   1      52.751  25.939  30.825  1.00  0.00    -0.237 OA
ATOM     88  O   UNL A   1      52.298  26.179  33.235  1.00  0.00    -0.744 OA
ENDBRANCH  84  85
ENDBRANCH  58  79
ENDBRANCH  32  33
ENDBRANCH  24  27
ENDBRANCH  22  23
ENDBRANCH   1  22
TORSDOF 15
ENDMDL
MODEL 3
REMARK VINA RESULT:     -10.4      3.876     10.777
REMARK SMILES C[C@H]1[NH2+]CC[C@H]1C(=O)N1CC(C(=O)NCCCCNC(=O)c2ccc(-c3c4nc(c(-c5ccc(S(=O)(=O)[O-])cc5)c5ccc([nH]5)c(-c5ccc(S(=O)(=O)[O-])cc5)c5nc(c(-c6ccc(S(=O)(=O)[O-])cc6)c6ccc3[nH]6)C=C5)C=C4)cc2)C1
REMARK SMILES IDX 17 1 16 2 15 3 14 4 12 5 13 6 11 8 7 9 8 10 9 11 10 12 82 13
REMARK SMILES IDX 6 14 1 15 2 16 3 17 4 18 5 21 18 22 19 23 20 24 21 26 22 27
REMARK SMILES IDX 23 28 81 29 24 30 80 31 25 32 26 33 27 34 74 35 28 36 79 37
REMARK SMILES IDX 73 38 75 39 29 40 78 41 72 42 71 43 30 45 60 46 41 47 59 48
REMARK SMILES IDX 42 49 45 50 58 51 76 52 43 53 44 54 57 56 77 57 46 58 31 59
REMARK SMILES IDX 32 60 40 61 33 62 39 63 34 64 35 65 36 66 37 67 38 68 61 69
REMARK SMILES IDX 62 70 70 71 63 72 69 73 64 74 65 75 66 76 67 77 68 78 47 79
REMARK SMILES IDX 48 80 56 81 49 82 55 83 50 84 51 85 52 86 53 87 54 88
REMARK H PARENT 14 7 3 19 3 20 19 25 75 44 45 55
REMARK Flexibility Score: inf
ROOT
ATOM      1  C   UNL A   1      32.650  28.134  26.013  1.00  0.00     0.023 C 
ENDROOT
BRANCH   1   2
ATOM      2  C   UNL A   1      33.561  27.450  24.992  1.00  0.00     0.023 C 
BRANCH   2   3
ATOM      3  C   UNL A   1      33.211  25.998  24.676  1.00  0.00     0.116 C 
BRANCH   3   4
ATOM      4  N   UNL A   1      32.444  25.364  25.733  1.00  0.00    -0.356 N 
ATOM      5  C   UNL A   1      32.594  24.151  26.360  1.00  0.00     0.226 C 
ATOM      6  O   UNL A   1      31.788  23.915  27.272  1.00  0.00    -0.275 OA
ATOM      7  H   UNL A   1      31.682  25.898  26.058  1.00  0.00     0.163 HD
BRANCH   5   8
ATOM      8  C   UNL A   1      33.667  23.134  25.958  1.00  0.00     0.117 C 
ATOM      9  C   UNL A   1      34.433  20.068  25.022  1.00  0.00     0.231 C 
ATOM     10  O   UNL A   1      35.640  20.227  24.847  1.00  0.00    -0.274 OA
ATOM     11  N   UNL A   1      33.593  21.113  25.360  1.00  0.00    -0.341 N 
ATOM     12  C   UNL A   1      33.627  22.401  24.629  1.00  0.00     0.134 C 
ATOM     13  C   UNL A   1      33.719  21.796  26.665  1.00  0.00     0.134 C 
BRANCH   9  14
ATOM     14  C   UNL A   1      33.781  18.700  24.888  1.00  0.00     0.142 C 
ATOM     15  C   UNL A   1      32.322  19.382  22.834  1.00  0.00     0.076 C 
ATOM     16  C   UNL A   1      32.443  18.625  24.154  1.00  0.00     0.192 C 
ATOM     17  N   UNL A   1      32.275  17.180  23.913  1.00  0.00    -0.343 N 
ATOM     18  C   UNL A   1      33.602  16.568  23.818  1.00  0.00     0.261 C 
ATOM     19  H   UNL A   1      31.765  17.033  23.042  1.00  0.00     0.346 HD
ATOM     20  H   UNL A   1      31.749  16.756  24.677  1.00  0.00     0.346 HD
ATOM     21  C   UNL A   1      34.619  17.635  24.198  1.00  0.00     0.081 C 
ENDBRANCH   9  14
ENDBRANCH   5   8
ENDBRANCH   3   4
ENDBRANCH   2   3
ENDBRANCH   1   2
BRANCH   1  22
ATOM     22  C   UNL A   1      33.317  28.553  27.319  1.00  0.00     0.116 C 
BRANCH  22  23
ATOM     23  N   UNL A   1      33.313  29.992  27.532  1.00  0.00    -0.352 N 
ATOM     24  C   UNL A   1      34.315  30.800  28.017  1.00  0.00     0.251 C 
ATOM     25  H   UNL A   1      32.476  30.452  27.296  1.00  0.00     0.163 HD
ATOM     26  O   UNL A   1      34.088  31.986  28.237  1.00  0.00    -0.269 OA
BRANCH  24  27
ATOM     27  C   UNL A   1      35.650  30.230  28.309  1.00  0.00     0.039 A 
ATOM     28  C   UNL A   1      36.622  30.239  27.305  1.00  0.00     0.014 A 
ATOM     29  C   UNL A   1      35.950  29.709  29.571  1.00  0.00     0.014 A 
ATOM     30  C   UNL A   1      37.915  29.794  27.588  1.00  0.00     0.010 A 
ATOM     31  C   UNL A   1      37.257  29.331  29.871  1.00  0.00     0.010 A 
ATOM     32  C   UNL A   1      38.255  29.374  28.886  1.00  0.00    -0.014 A 
BRANCH  32  33
ATOM     33  C   UNL A   1      39.648  28.992  29.234  1.00  0.00     0.031 A 
ATOM     34  C   UNL A   1      40.561  29.981  29.909  1.00  0.00     0.074 A 
ATOM     35  C   UNL A   1      40.116  27.777  28.883  1.00  0.00     0.049 A 
ATOM     36  N   UNL A   1      41.822  29.853  30.231  1.00  0.00    -0.248 NA
ATOM     37  C   UNL A   1      39.986  31.293  30.245  1.00  0.00     0.031 C 
ATOM     38  C   UNL A   1      39.346  26.739  28.192  1.00  0.00     0.029 A 
ATOM     39  N   UNL A   1      41.355  27.211  29.053  1.00  0.00    -0.354 N 
ATOM     40  C   UNL A   1      42.196  31.068  30.792  1.00  0.00     0.074 A 
ATOM     41  C   UNL A   1      41.042  31.938  30.720  1.00  0.00     0.031 C 
ATOM     42  C   UNL A   1      40.121  25.655  28.025  1.00  0.00     0.029 A 
ATOM     43  C   UNL A   1      41.452  25.932  28.556  1.00  0.00     0.049 A 
ATOM     44  H   UNL A   1      42.104  27.677  29.491  1.00  0.00     0.167 HD
ATOM     45  C   UNL A   1      43.385  31.425  31.336  1.00  0.00     0.031 A 
ATOM     46  C   UNL A   1      42.493  25.079  28.526  1.00  0.00     0.031 A 
ATOM     47  C   UNL A   1      44.530  30.558  31.413  1.00  0.00     0.049 A 
ATOM     48  C   UNL A   1      43.809  25.503  29.120  1.00  0.00     0.074 A 
ATOM     49  C   UNL A   1      45.764  30.811  31.987  1.00  0.00     0.029 A 
ATOM     50  N   UNL A   1      44.585  29.270  30.901  1.00  0.00    -0.354 N 
ATOM     51  N   UNL A   1      44.125  26.637  29.695  1.00  0.00    -0.248 NA
ATOM     52  C   UNL A   1      44.905  24.524  29.070  1.00  0.00     0.031 C 
ATOM     53  C   UNL A   1      46.581  29.693  31.780  1.00  0.00     0.029 A 
ATOM     54  C   UNL A   1      45.837  28.723  31.127  1.00  0.00     0.049 A 
ATOM     55  H   UNL A   1      43.843  28.812  30.443  1.00  0.00     0.167 HD
ATOM     56  C   UNL A   1      45.448  26.500  30.100  1.00  0.00     0.074 A 
ATOM     57  C   UNL A   1      45.868  25.168  29.714  1.00  0.00     0.031 C 
ATOM     58  C   UNL A   1      46.242  27.396  30.738  1.00  0.00     0.031 A 
BRANCH  45  59
ATOM     59  C   UNL A   1      43.502  32.821  31.887  1.00  0.00    -0.014 A 
ATOM     60  C   UNL A   1      43.270  33.085  33.249  1.00  0.00     0.010 A 
ATOM     61  C   UNL A   1      43.871  33.882  31.039  1.00  0.00     0.010 A 
ATOM     62  C   UNL A   1      43.355  34.389  33.744  1.00  0.00     0.020 A 
ATOM     63  C   UNL A   1      43.985  35.184  31.536  1.00  0.00     0.020 A 
ATOM     64  C   UNL A   1      43.705  35.432  32.881  1.00  0.00     0.054 A 
BRANCH  64  65
ATOM     65  S   UNL A   1      43.812  37.114  33.550  1.00  0.00     0.124 S 
ATOM     66  O   UNL A   1      43.912  37.914  32.331  1.00  0.00    -0.237 OA
ATOM     67  O   UNL A   1      42.559  37.248  34.288  1.00  0.00    -0.237 OA
ATOM     68  O   UNL A   1      45.018  37.084  34.375  1.00  0.00    -0.744 OA
ENDBRANCH  64  65
ENDBRANCH  45  59
BRANCH  46  69
ATOM     69  C   UNL A   1      42.328  23.725  27.930  1.00  0.00    -0.014 A 
ATOM     70  C   UNL A   1      42.474  23.535  26.545  1.00  0.00     0.010 A 
ATOM     71  C   UNL A   1      42.041  22.614  28.746  1.00  0.00     0.010 A 
ATOM     72  C   UNL A   1      42.320  22.265  25.982  1.00  0.00     0.020 A 
ATOM     73  C   UNL A   1      41.913  21.338  28.191  1.00  0.00     0.020 A 
ATOM     74  C   UNL A   1      42.044  21.173  26.810  1.00  0.00     0.054 A 
BRANCH  74  75
ATOM     75  S   UNL A   1      41.906  19.524  26.066  1.00  0.00     0.124 S 
ATOM     76  O   UNL A   1      42.803  19.633  24.920  1.00  0.00    -0.237 OA
ATOM     77  O   UNL A   1      42.359  18.651  27.146  1.00  0.00    -0.237 OA
ATOM     78  O   UNL A   1      40.485  19.415  25.742  1.00  0.00    -0.744 OA
ENDBRANCH  74  75
ENDBRANCH  46  69
BRANCH  58  79
ATOM     79  C   UNL A   1      47.638  26.956  31.092  1.00  0.00    -0.014 A 
ATOM     80  C   UNL A   1      48.708  27.133  30.197  1.00  0.00     0.010 A 
ATOM     81  C   UNL A   1      47.889  26.406  32.361  1.00  0.00     0.010 A 
ATOM     82  C   UNL A   1      50.000  26.739  30.556  1.00  0.00     0.020 A 
ATOM     83  C   UNL A   1      49.183  26.036  32.734  1.00  0.00     0.020 A 
ATOM     84  C   UNL A   1      50.229  26.193  31.823  1.00  0.00     0.054 A 
BRANCH  84  85
ATOM     85  S   UNL A   1      51.923  25.731  32.282  1.00  0.00     0.124 S 
ATOM     86  O   UNL A   1      51.937  26.016  33.714  1.00  0.00    -0.237 OA
ATOM     87  O   UNL A   1      51.979  24.317  31.921  1.00  0.00    -0.237 OA
ATOM     88  O   UNL A   1      52.755  26.610  31.464  1.00  0.00    -0.744 OA
ENDBRANCH  84  85
ENDBRANCH  58  79
ENDBRANCH  32  33
ENDBRANCH  24  27
ENDBRANCH  22  23
ENDBRANCH   1  22
TORSDOF 15
ENDMDL
