MODEL 1
REMARK VINA RESULT:     -11.7      0.000      0.000
REMARK SMILES O=C(NCCCCNC(=O)c1ccnc(-n2cnnn2)c1)c1ccc(-c2c3nc(c(-c4ccc(S(=O)(=O)[O-])cc4)c4ccc([nH]4)c(-c4ccc(S(=O)(=O)[O-])cc4)c4nc(c(-c5ccc(S(=O)(=O)[O-])cc5)c5ccc2[nH]5)C=C4)C=C3)cc1
REMARK SMILES IDX 4 1 3 2 1 3 2 4 22 6 23 7 81 8 24 9 80 10 25 11 26 12 27 13
REMARK SMILES IDX 74 14 28 15 79 16 73 17 75 18 29 19 78 20 72 21 71 22 30 24
REMARK SMILES IDX 60 25 41 26 59 27 42 28 45 29 58 30 76 31 43 32 44 33 57 35
REMARK SMILES IDX 77 36 46 37 31 38 32 39 40 40 33 41 39 42 34 43 35 44 36 45
REMARK SMILES IDX 37 46 38 47 61 48 62 49 70 50 63 51 69 52 64 53 65 54 66 55
REMARK SMILES IDX 67 56 68 57 47 58 48 59 56 60 49 61 55 62 50 63 51 64 52 65
REMARK SMILES IDX 53 66 54 67 5 68 6 69 7 70 8 71 9 72 10 74 11 75 12 76 21 77
REMARK SMILES IDX 13 78 15 79 14 80 16 81 17 82 20 83 18 84 19 85
REMARK H PARENT 3 5 75 23 45 34 8 73
REMARK Flexibility Score: inf
ROOT
ATOM      1  C   UNL A   1      41.946  20.761  26.181  1.00  0.00     0.116 C 
ENDROOT
BRANCH   1   2
ATOM      2  N   UNL A   1      40.516  20.978  26.106  1.00  0.00    -0.352 N 
ATOM      3  O   UNL A   1      38.505  21.874  26.029  1.00  0.00    -0.269 OA
ATOM      4  C   UNL A   1      39.688  22.038  26.346  1.00  0.00     0.251 C 
ATOM      5  H   UNL A   1      40.027  20.176  25.813  1.00  0.00     0.163 HD
BRANCH   4   6
ATOM      6  C   UNL A   1      40.083  23.317  27.000  1.00  0.00     0.039 A 
ATOM      7  C   UNL A   1      41.205  23.516  27.805  1.00  0.00     0.014 A 
ATOM      8  C   UNL A   1      39.217  24.407  26.782  1.00  0.00     0.014 A 
ATOM      9  C   UNL A   1      41.415  24.743  28.435  1.00  0.00     0.010 A 
ATOM     10  C   UNL A   1      39.427  25.636  27.398  1.00  0.00     0.010 A 
ATOM     11  C   UNL A   1      40.511  25.795  28.255  1.00  0.00    -0.014 A 
BRANCH  11  12
ATOM     12  C   UNL A   1      40.814  27.086  28.872  1.00  0.00     0.031 A 
ATOM     13  C   UNL A   1      42.010  27.788  28.317  1.00  0.00     0.074 A 
ATOM     14  C   UNL A   1      40.015  27.700  29.767  1.00  0.00     0.049 A 
ATOM     15  N   UNL A   1      43.092  28.145  28.932  1.00  0.00    -0.248 NA
ATOM     16  C   UNL A   1      42.035  28.048  26.868  1.00  0.00     0.031 C 
ATOM     17  C   UNL A   1      38.670  27.315  30.200  1.00  0.00     0.029 A 
ATOM     18  N   UNL A   1      40.214  28.886  30.411  1.00  0.00    -0.354 N 
ATOM     19  C   UNL A   1      43.873  28.818  27.992  1.00  0.00     0.074 A 
ATOM     20  C   UNL A   1      43.225  28.629  26.717  1.00  0.00     0.031 C 
ATOM     21  C   UNL A   1      38.092  28.356  30.846  1.00  0.00     0.029 A 
ATOM     22  C   UNL A   1      39.073  29.417  31.001  1.00  0.00     0.049 A 
ATOM     23  H   UNL A   1      41.092  29.329  30.454  1.00  0.00     0.167 HD
ATOM     24  C   UNL A   1      44.914  29.625  28.337  1.00  0.00     0.031 A 
ATOM     25  C   UNL A   1      38.932  30.661  31.528  1.00  0.00     0.031 A 
ATOM     26  C   UNL A   1      45.348  29.405  29.689  1.00  0.00     0.049 A 
ATOM     27  C   UNL A   1      40.291  31.174  31.823  1.00  0.00     0.074 A 
ATOM     28  C   UNL A   1      45.893  28.333  30.369  1.00  0.00     0.029 A 
ATOM     29  N   UNL A   1      44.895  30.270  30.656  1.00  0.00    -0.354 N 
ATOM     30  N   UNL A   1      41.073  30.657  32.728  1.00  0.00    -0.248 NA
ATOM     31  C   UNL A   1      40.953  31.985  30.816  1.00  0.00     0.031 C 
ATOM     32  C   UNL A   1      45.287  28.375  31.659  1.00  0.00     0.029 A 
ATOM     33  C   UNL A   1      44.463  29.502  31.709  1.00  0.00     0.049 A 
ATOM     34  H   UNL A   1      44.882  31.253  30.604  1.00  0.00     0.167 HD
ATOM     35  C   UNL A   1      42.344  30.715  32.177  1.00  0.00     0.074 A 
ATOM     36  C   UNL A   1      42.220  31.627  31.042  1.00  0.00     0.031 C 
ATOM     37  C   UNL A   1      43.311  29.816  32.528  1.00  0.00     0.031 A 
BRANCH  24  38
ATOM     38  C   UNL A   1      45.341  30.832  27.540  1.00  0.00    -0.014 A 
ATOM     39  C   UNL A   1      46.701  31.009  27.212  1.00  0.00     0.010 A 
ATOM     40  C   UNL A   1      44.483  31.930  27.322  1.00  0.00     0.010 A 
ATOM     41  C   UNL A   1      47.180  32.237  26.731  1.00  0.00     0.020 A 
ATOM     42  C   UNL A   1      44.942  33.144  26.806  1.00  0.00     0.020 A 
ATOM     43  C   UNL A   1      46.297  33.300  26.541  1.00  0.00     0.054 A 
BRANCH  43  44
ATOM     44  S   UNL A   1      46.938  34.909  26.012  1.00  0.00     0.124 S 
ATOM     45  O   UNL A   1      47.548  35.410  27.240  1.00  0.00    -0.237 OA
ATOM     46  O   UNL A   1      47.868  34.537  24.949  1.00  0.00    -0.237 OA
ATOM     47  O   UNL A   1      45.745  35.625  25.567  1.00  0.00    -0.744 OA
ENDBRANCH  43  44
ENDBRANCH  24  38
BRANCH  25  48
ATOM     48  C   UNL A   1      37.744  31.550  31.471  1.00  0.00    -0.014 A 
ATOM     49  C   UNL A   1      36.524  31.183  32.071  1.00  0.00     0.010 A 
ATOM     50  C   UNL A   1      37.901  32.896  31.080  1.00  0.00     0.010 A 
ATOM     51  C   UNL A   1      35.524  32.139  32.323  1.00  0.00     0.020 A 
ATOM     52  C   UNL A   1      36.908  33.852  31.324  1.00  0.00     0.020 A 
ATOM     53  C   UNL A   1      35.732  33.473  31.966  1.00  0.00     0.054 A 
BRANCH  53  54
ATOM     54  S   UNL A   1      34.518  34.736  32.458  1.00  0.00     0.124 S 
ATOM     55  O   UNL A   1      35.309  35.610  33.317  1.00  0.00    -0.237 OA
ATOM     56  O   UNL A   1      34.116  35.307  31.175  1.00  0.00    -0.237 OA
ATOM     57  O   UNL A   1      33.479  33.967  33.142  1.00  0.00    -0.744 OA
ENDBRANCH  53  54
ENDBRANCH  25  48
BRANCH  37  58
ATOM     58  C   UNL A   1      43.054  28.907  33.711  1.00  0.00    -0.014 A 
ATOM     59  C   UNL A   1      43.227  29.305  35.053  1.00  0.00     0.010 A 
ATOM     60  C   UNL A   1      42.472  27.652  33.460  1.00  0.00     0.010 A 
ATOM     61  C   UNL A   1      42.855  28.458  36.109  1.00  0.00     0.020 A 
ATOM     62  C   UNL A   1      42.082  26.813  34.507  1.00  0.00     0.020 A 
ATOM     63  C   UNL A   1      42.283  27.214  35.827  1.00  0.00     0.054 A 
BRANCH  63  64
ATOM     64  S   UNL A   1      41.757  26.143  37.195  1.00  0.00     0.124 S 
ATOM     65  O   UNL A   1      42.833  26.317  38.168  1.00  0.00    -0.237 OA
ATOM     66  O   UNL A   1      40.467  26.713  37.576  1.00  0.00    -0.237 OA
ATOM     67  O   UNL A   1      41.681  24.815  36.588  1.00  0.00    -0.744 OA
ENDBRANCH  63  64
ENDBRANCH  37  58
ENDBRANCH  11  12
ENDBRANCH   4   6
ENDBRANCH   1   2
BRANCH   1  68
ATOM     68  C   UNL A   1      42.361  19.642  27.134  1.00  0.00     0.023 C 
BRANCH  68  69
ATOM     69  C   UNL A   1      42.986  18.412  26.464  1.00  0.00     0.023 C 
BRANCH  69  70
ATOM     70  C   UNL A   1      43.636  18.657  25.103  1.00  0.00     0.116 C 
BRANCH  70  71
ATOM     71  N   UNL A   1      45.085  18.568  25.155  1.00  0.00    -0.352 N 
ATOM     72  C   UNL A   1      46.015  19.568  25.025  1.00  0.00     0.251 C 
ATOM     73  H   UNL A   1      45.450  17.666  25.303  1.00  0.00     0.163 HD
ATOM     74  O   UNL A   1      47.209  19.321  24.953  1.00  0.00    -0.269 OA
BRANCH  72  75
ATOM     75  C   UNL A   1      45.573  20.972  24.960  1.00  0.00     0.045 A 
ATOM     76  C   UNL A   1      45.126  21.519  23.761  1.00  0.00     0.034 A 
ATOM     77  C   UNL A   1      45.544  21.713  26.142  1.00  0.00     0.063 A 
ATOM     78  C   UNL A   1      44.668  22.818  23.790  1.00  0.00     0.114 A 
ATOM     79  C   UNL A   1      45.058  23.012  26.077  1.00  0.00     0.157 A 
ATOM     80  N   UNL A   1      44.612  23.563  24.914  1.00  0.00    -0.237 NA
BRANCH  79  81
ATOM     81  N   UNL A   1      45.009  23.803  27.252  1.00  0.00    -0.182 N 
ATOM     82  C   UNL A   1      44.841  25.160  27.382  1.00  0.00     0.254 A 
ATOM     83  N   UNL A   1      45.129  23.279  28.495  1.00  0.00    -0.039 NA
ATOM     84  N   UNL A   1      44.920  25.487  28.651  1.00  0.00    -0.117 NA
ATOM     85  N   UNL A   1      45.111  24.311  29.327  1.00  0.00    -0.024 NA
ENDBRANCH  79  81
ENDBRANCH  72  75
ENDBRANCH  70  71
ENDBRANCH  69  70
ENDBRANCH  68  69
ENDBRANCH   1  68
TORSDOF 15
ENDMDL
MODEL 2
REMARK VINA RESULT:     -11.6      3.714      6.208
REMARK SMILES O=C(NCCCCNC(=O)c1ccnc(-n2cnnn2)c1)c1ccc(-c2c3nc(c(-c4ccc(S(=O)(=O)[O-])cc4)c4ccc([nH]4)c(-c4ccc(S(=O)(=O)[O-])cc4)c4nc(c(-c5ccc(S(=O)(=O)[O-])cc5)c5ccc2[nH]5)C=C4)C=C3)cc1
REMARK SMILES IDX 4 1 3 2 1 3 2 4 22 6 23 7 81 8 24 9 80 10 25 11 26 12 27 13
REMARK SMILES IDX 74 14 28 15 79 16 73 17 75 18 29 19 78 20 72 21 71 22 30 24
REMARK SMILES IDX 60 25 41 26 59 27 42 28 45 29 58 30 76 31 43 32 44 33 57 35
REMARK SMILES IDX 77 36 46 37 31 38 32 39 40 40 33 41 39 42 34 43 35 44 36 45
REMARK SMILES IDX 37 46 38 47 61 48 62 49 70 50 63 51 69 52 64 53 65 54 66 55
REMARK SMILES IDX 67 56 68 57 47 58 48 59 56 60 49 61 55 62 50 63 51 64 52 65
REMARK SMILES IDX 53 66 54 67 5 68 6 69 7 70 8 71 9 72 10 74 11 75 12 76 21 77
REMARK SMILES IDX 13 78 15 79 14 80 16 81 17 82 20 83 18 84 19 85
REMARK H PARENT 3 5 75 23 45 34 8 73
REMARK Flexibility Score: inf
ROOT
ATOM      1  C   UNL A   1      38.041  22.135  25.636  1.00  0.00     0.116 C 
ENDROOT
BRANCH   1   2
ATOM      2  N   UNL A   1      39.464  21.863  25.642  1.00  0.00    -0.352 N 
ATOM      3  O   UNL A   1      41.617  21.830  26.102  1.00  0.00    -0.269 OA
ATOM      4  C   UNL A   1      40.556  22.449  26.220  1.00  0.00     0.251 C 
ATOM      5  H   UNL A   1      39.700  21.073  25.105  1.00  0.00     0.163 HD
BRANCH   4   6
ATOM      6  C   UNL A   1      40.568  23.770  26.908  1.00  0.00     0.039 A 
ATOM      7  C   UNL A   1      39.709  24.840  26.652  1.00  0.00     0.014 A 
ATOM      8  C   UNL A   1      41.561  23.934  27.895  1.00  0.00     0.014 A 
ATOM      9  C   UNL A   1      39.885  26.060  27.304  1.00  0.00     0.010 A 
ATOM     10  C   UNL A   1      41.734  25.145  28.557  1.00  0.00     0.010 A 
ATOM     11  C   UNL A   1      40.914  26.222  28.236  1.00  0.00    -0.014 A 
BRANCH  11  12
ATOM     12  C   UNL A   1      41.010  27.494  28.953  1.00  0.00     0.031 A 
ATOM     13  C   UNL A   1      42.127  28.385  28.515  1.00  0.00     0.074 A 
ATOM     14  C   UNL A   1      40.094  27.932  29.839  1.00  0.00     0.049 A 
ATOM     15  N   UNL A   1      43.120  28.834  29.213  1.00  0.00    -0.248 NA
ATOM     16  C   UNL A   1      42.187  28.750  27.089  1.00  0.00     0.031 C 
ATOM     17  C   UNL A   1      38.793  27.344  30.167  1.00  0.00     0.029 A 
ATOM     18  N   UNL A   1      40.100  29.084  30.569  1.00  0.00    -0.354 N 
ATOM     19  C   UNL A   1      43.848  29.670  28.366  1.00  0.00     0.074 A 
ATOM     20  C   UNL A   1      43.294  29.491  27.046  1.00  0.00     0.031 C 
ATOM     21  C   UNL A   1      38.050  28.251  30.846  1.00  0.00     0.029 A 
ATOM     22  C   UNL A   1      38.871  29.417  31.126  1.00  0.00     0.049 A 
ATOM     23  H   UNL A   1      40.908  29.634  30.691  1.00  0.00     0.167 HD
ATOM     24  C   UNL A   1      44.754  30.579  28.823  1.00  0.00     0.031 A 
ATOM     25  C   UNL A   1      38.539  30.590  31.724  1.00  0.00     0.031 A 
ATOM     26  C   UNL A   1      45.146  30.320  30.180  1.00  0.00     0.049 A 
ATOM     27  C   UNL A   1      39.801  31.253  32.130  1.00  0.00     0.074 A 
ATOM     28  C   UNL A   1      45.797  29.282  30.819  1.00  0.00     0.029 A 
ATOM     29  N   UNL A   1      44.535  31.046  31.173  1.00  0.00    -0.354 N 
ATOM     30  N   UNL A   1      40.600  30.779  33.043  1.00  0.00    -0.248 NA
ATOM     31  C   UNL A   1      40.396  32.216  31.218  1.00  0.00     0.031 C 
ATOM     32  C   UNL A   1      45.130  29.151  32.072  1.00  0.00     0.029 A 
ATOM     33  C   UNL A   1      44.160  30.154  32.147  1.00  0.00     0.049 A 
ATOM     34  H   UNL A   1      44.393  32.020  31.185  1.00  0.00     0.167 HD
ATOM     35  C   UNL A   1      41.877  31.042  32.571  1.00  0.00     0.074 A 
ATOM     36  C   UNL A   1      41.687  32.010  31.493  1.00  0.00     0.031 C 
ATOM     37  C   UNL A   1      42.938  30.254  32.917  1.00  0.00     0.031 A 
BRANCH  24  38
ATOM     38  C   UNL A   1      45.053  31.886  28.132  1.00  0.00    -0.014 A 
ATOM     39  C   UNL A   1      46.319  32.096  27.550  1.00  0.00     0.010 A 
ATOM     40  C   UNL A   1      44.213  33.013  28.261  1.00  0.00     0.010 A 
ATOM     41  C   UNL A   1      46.737  33.377  27.157  1.00  0.00     0.020 A 
ATOM     42  C   UNL A   1      44.603  34.285  27.835  1.00  0.00     0.020 A 
ATOM     43  C   UNL A   1      45.877  34.465  27.313  1.00  0.00     0.054 A 
BRANCH  43  44
ATOM     44  S   UNL A   1      46.458  36.128  26.893  1.00  0.00     0.124 S 
ATOM     45  O   UNL A   1      47.048  35.917  25.574  1.00  0.00    -0.237 OA
ATOM     46  O   UNL A   1      45.221  36.904  26.917  1.00  0.00    -0.237 OA
ATOM     47  O   UNL A   1      47.405  36.441  27.960  1.00  0.00    -0.744 OA
ENDBRANCH  43  44
ENDBRANCH  24  38
BRANCH  25  48
ATOM     48  C   UNL A   1      37.246  31.318  31.657  1.00  0.00    -0.014 A 
ATOM     49  C   UNL A   1      36.428  31.466  32.794  1.00  0.00     0.010 A 
ATOM     50  C   UNL A   1      36.961  32.126  30.537  1.00  0.00     0.010 A 
ATOM     51  C   UNL A   1      35.402  32.428  32.827  1.00  0.00     0.020 A 
ATOM     52  C   UNL A   1      35.939  33.082  30.562  1.00  0.00     0.020 A 
ATOM     53  C   UNL A   1      35.178  33.245  31.717  1.00  0.00     0.054 A 
BRANCH  53  54
ATOM     54  S   UNL A   1      33.976  34.605  31.829  1.00  0.00     0.124 S 
ATOM     55  O   UNL A   1      33.047  34.117  32.844  1.00  0.00    -0.237 OA
ATOM     56  O   UNL A   1      34.810  35.735  32.228  1.00  0.00    -0.237 OA
ATOM     57  O   UNL A   1      33.427  34.693  30.477  1.00  0.00    -0.744 OA
ENDBRANCH  53  54
ENDBRANCH  25  48
BRANCH  37  58
ATOM     58  C   UNL A   1      42.748  29.236  34.022  1.00  0.00    -0.014 A 
ATOM     59  C   UNL A   1      42.144  27.977  33.828  1.00  0.00     0.010 A 
ATOM     60  C   UNL A   1      43.338  29.504  35.269  1.00  0.00     0.010 A 
ATOM     61  C   UNL A   1      42.108  27.027  34.861  1.00  0.00     0.020 A 
ATOM     62  C   UNL A   1      43.322  28.557  36.296  1.00  0.00     0.020 A 
ATOM     63  C   UNL A   1      42.699  27.326  36.092  1.00  0.00     0.054 A 
BRANCH  63  64
ATOM     64  S   UNL A   1      42.695  26.078  37.410  1.00  0.00     0.124 S 
ATOM     65  O   UNL A   1      41.276  25.969  37.741  1.00  0.00    -0.237 OA
ATOM     66  O   UNL A   1      43.278  24.910  36.754  1.00  0.00    -0.237 OA
ATOM     67  O   UNL A   1      43.530  26.671  38.454  1.00  0.00    -0.744 OA
ENDBRANCH  63  64
ENDBRANCH  37  58
ENDBRANCH  11  12
ENDBRANCH   4   6
ENDBRANCH   1   2
BRANCH   1  68
ATOM     68  C   UNL A   1      37.228  21.204  24.739  1.00  0.00     0.023 C 
BRANCH  68  69
ATOM     69  C   UNL A   1      35.769  20.999  25.165  1.00  0.00     0.023 C 
BRANCH  69  70
ATOM     70  C   UNL A   1      34.732  21.811  24.392  1.00  0.00     0.116 C 
BRANCH  70  71
ATOM     71  N   UNL A   1      33.458  21.891  25.085  1.00  0.00    -0.352 N 
ATOM     72  C   UNL A   1      32.359  21.079  24.964  1.00  0.00     0.251 C 
ATOM     73  H   UNL A   1      33.371  22.628  25.730  1.00  0.00     0.163 HD
ATOM     74  O   UNL A   1      31.303  21.351  25.514  1.00  0.00    -0.269 OA
BRANCH  72  75
ATOM     75  C   UNL A   1      32.441  19.856  24.146  1.00  0.00     0.045 A 
ATOM     76  C   UNL A   1      32.198  19.902  22.777  1.00  0.00     0.034 A 
ATOM     77  C   UNL A   1      32.840  18.671  24.766  1.00  0.00     0.063 A 
ATOM     78  C   UNL A   1      32.356  18.732  22.067  1.00  0.00     0.114 A 
ATOM     79  C   UNL A   1      32.980  17.543  23.968  1.00  0.00     0.157 A 
ATOM     80  N   UNL A   1      32.753  17.569  22.626  1.00  0.00    -0.237 NA
BRANCH  79  81
ATOM     81  N   UNL A   1      33.384  16.316  24.553  1.00  0.00    -0.182 N 
ATOM     82  C   UNL A   1      32.616  15.321  25.106  1.00  0.00     0.254 A 
ATOM     83  N   UNL A   1      34.681  15.938  24.643  1.00  0.00    -0.039 NA
ATOM     84  N   UNL A   1      33.400  14.385  25.588  1.00  0.00    -0.117 NA
ATOM     85  N   UNL A   1      34.678  14.788  25.304  1.00  0.00    -0.024 NA
ENDBRANCH  79  81
ENDBRANCH  72  75
ENDBRANCH  70  71
ENDBRANCH  69  70
ENDBRANCH  68  69
ENDBRANCH   1  68
TORSDOF 15
ENDMDL
MODEL 3
REMARK VINA RESULT:     -11.6      6.116     12.362
REMARK SMILES O=C(NCCCCNC(=O)c1ccnc(-n2cnnn2)c1)c1ccc(-c2c3nc(c(-c4ccc(S(=O)(=O)[O-])cc4)c4ccc([nH]4)c(-c4ccc(S(=O)(=O)[O-])cc4)c4nc(c(-c5ccc(S(=O)(=O)[O-])cc5)c5ccc2[nH]5)C=C4)C=C3)cc1
REMARK SMILES IDX 4 1 3 2 1 3 2 4 22 6 23 7 81 8 24 9 80 10 25 11 26 12 27 13
REMARK SMILES IDX 74 14 28 15 79 16 73 17 75 18 29 19 78 20 72 21 71 22 30 24
REMARK SMILES IDX 60 25 41 26 59 27 42 28 45 29 58 30 76 31 43 32 44 33 57 35
REMARK SMILES IDX 77 36 46 37 31 38 32 39 40 40 33 41 39 42 34 43 35 44 36 45
REMARK SMILES IDX 37 46 38 47 61 48 62 49 70 50 63 51 69 52 64 53 65 54 66 55
REMARK SMILES IDX 67 56 68 57 47 58 48 59 56 60 49 61 55 62 50 63 51 64 52 65
REMARK SMILES IDX 53 66 54 67 5 68 6 69 7 70 8 71 9 72 10 74 11 75 12 76 21 77
REMARK SMILES IDX 13 78 15 79 14 80 16 81 17 82 20 83 18 84 19 85
REMARK H PARENT 3 5 75 23 45 34 8 73
REMARK Flexibility Score: inf
ROOT
ATOM      1  C   UNL A   1      33.629  30.561  26.865  1.00  0.00     0.116 C 
ENDROOT
BRANCH   1   2
ATOM      2  N   UNL A   1      33.747  31.430  28.018  1.00  0.00    -0.352 N 
ATOM      3  O   UNL A   1      34.501  32.660  29.682  1.00  0.00    -0.269 OA
ATOM      4  C   UNL A   1      34.753  31.750  28.886  1.00  0.00     0.251 C 
ATOM      5  H   UNL A   1      32.906  31.898  28.225  1.00  0.00     0.163 HD
BRANCH   4   6
ATOM      6  C   UNL A   1      36.071  31.060  28.979  1.00  0.00     0.039 A 
ATOM      7  C   UNL A   1      36.279  29.680  28.967  1.00  0.00     0.014 A 
ATOM      8  C   UNL A   1      37.193  31.904  29.107  1.00  0.00     0.014 A 
ATOM      9  C   UNL A   1      37.558  29.157  29.154  1.00  0.00     0.010 A 
ATOM     10  C   UNL A   1      38.472  31.387  29.282  1.00  0.00     0.010 A 
ATOM     11  C   UNL A   1      38.651  30.009  29.340  1.00  0.00    -0.014 A 
BRANCH  11  12
ATOM     12  C   UNL A   1      39.984  29.417  29.453  1.00  0.00     0.031 A 
ATOM     13  C   UNL A   1      40.493  29.264  30.850  1.00  0.00     0.074 A 
ATOM     14  C   UNL A   1      40.670  28.897  28.415  1.00  0.00     0.049 A 
ATOM     15  N   UNL A   1      41.553  29.782  31.382  1.00  0.00    -0.248 NA
ATOM     16  C   UNL A   1      39.661  28.503  31.797  1.00  0.00     0.031 C 
ATOM     17  C   UNL A   1      40.213  28.684  27.040  1.00  0.00     0.029 A 
ATOM     18  N   UNL A   1      41.916  28.345  28.411  1.00  0.00    -0.354 N 
ATOM     19  C   UNL A   1      41.617  29.288  32.685  1.00  0.00     0.074 A 
ATOM     20  C   UNL A   1      40.372  28.600  32.920  1.00  0.00     0.031 C 
ATOM     21  C   UNL A   1      41.073  27.851  26.407  1.00  0.00     0.029 A 
ATOM     22  C   UNL A   1      42.208  27.594  27.279  1.00  0.00     0.049 A 
ATOM     23  H   UNL A   1      42.556  28.466  29.150  1.00  0.00     0.167 HD
ATOM     24  C   UNL A   1      42.752  29.333  33.438  1.00  0.00     0.031 A 
ATOM     25  C   UNL A   1      43.279  26.779  27.094  1.00  0.00     0.031 A 
ATOM     26  C   UNL A   1      43.718  30.257  32.911  1.00  0.00     0.049 A 
ATOM     27  C   UNL A   1      44.321  27.191  28.064  1.00  0.00     0.074 A 
ATOM     28  C   UNL A   1      43.742  31.623  32.709  1.00  0.00     0.029 A 
ATOM     29  N   UNL A   1      44.739  29.749  32.145  1.00  0.00    -0.354 N 
ATOM     30  N   UNL A   1      44.931  28.341  28.018  1.00  0.00    -0.248 NA
ATOM     31  C   UNL A   1      44.378  26.504  29.344  1.00  0.00     0.031 C 
ATOM     32  C   UNL A   1      44.424  31.797  31.469  1.00  0.00     0.029 A 
ATOM     33  C   UNL A   1      44.830  30.536  31.025  1.00  0.00     0.049 A 
ATOM     34  H   UNL A   1      45.300  28.969  32.360  1.00  0.00     0.167 HD
ATOM     35  C   UNL A   1      45.077  28.721  29.344  1.00  0.00     0.074 A 
ATOM     36  C   UNL A   1      44.804  27.509  30.114  1.00  0.00     0.031 C 
ATOM     37  C   UNL A   1      45.142  30.037  29.702  1.00  0.00     0.031 A 
BRANCH  24  38
ATOM     38  C   UNL A   1      43.105  28.309  34.486  1.00  0.00    -0.014 A 
ATOM     39  C   UNL A   1      43.315  28.715  35.819  1.00  0.00     0.010 A 
ATOM     40  C   UNL A   1      43.488  26.993  34.151  1.00  0.00     0.010 A 
ATOM     41  C   UNL A   1      43.918  27.860  36.756  1.00  0.00     0.020 A 
ATOM     42  C   UNL A   1      44.050  26.120  35.086  1.00  0.00     0.020 A 
ATOM     43  C   UNL A   1      44.290  26.570  36.377  1.00  0.00     0.054 A 
BRANCH  43  44
ATOM     44  S   UNL A   1      45.152  25.507  37.563  1.00  0.00     0.124 S 
ATOM     45  O   UNL A   1      44.728  24.176  37.140  1.00  0.00    -0.237 OA
ATOM     46  O   UNL A   1      46.553  25.836  37.313  1.00  0.00    -0.237 OA
ATOM     47  O   UNL A   1      44.636  25.947  38.857  1.00  0.00    -0.744 OA
ENDBRANCH  43  44
ENDBRANCH  24  38
BRANCH  25  48
ATOM     48  C   UNL A   1      43.324  25.474  26.387  1.00  0.00    -0.014 A 
ATOM     49  C   UNL A   1      44.066  25.309  25.201  1.00  0.00     0.010 A 
ATOM     50  C   UNL A   1      42.877  24.311  27.045  1.00  0.00     0.010 A 
ATOM     51  C   UNL A   1      44.396  24.027  24.725  1.00  0.00     0.020 A 
ATOM     52  C   UNL A   1      43.199  23.032  26.576  1.00  0.00     0.020 A 
ATOM     53  C   UNL A   1      43.978  22.896  25.429  1.00  0.00     0.054 A 
BRANCH  53  54
ATOM     54  S   UNL A   1      44.560  21.251  24.915  1.00  0.00     0.124 S 
ATOM     55  O   UNL A   1      43.531  20.372  25.463  1.00  0.00    -0.237 OA
ATOM     56  O   UNL A   1      44.585  21.363  23.459  1.00  0.00    -0.237 OA
ATOM     57  O   UNL A   1      45.873  21.137  25.547  1.00  0.00    -0.744 OA
ENDBRANCH  53  54
ENDBRANCH  25  48
BRANCH  37  58
ATOM     58  C   UNL A   1      45.303  31.073  28.609  1.00  0.00    -0.014 A 
ATOM     59  C   UNL A   1      44.241  31.525  27.798  1.00  0.00     0.010 A 
ATOM     60  C   UNL A   1      46.546  31.721  28.498  1.00  0.00     0.010 A 
ATOM     61  C   UNL A   1      44.428  32.575  26.886  1.00  0.00     0.020 A 
ATOM     62  C   UNL A   1      46.733  32.780  27.605  1.00  0.00     0.020 A 
ATOM     63  C   UNL A   1      45.677  33.197  26.796  1.00  0.00     0.054 A 
BRANCH  63  64
ATOM     64  S   UNL A   1      45.901  34.587  25.651  1.00  0.00     0.124 S 
ATOM     65  O   UNL A   1      44.990  34.252  24.559  1.00  0.00    -0.237 OA
ATOM     66  O   UNL A   1      45.512  35.741  26.460  1.00  0.00    -0.237 OA
ATOM     67  O   UNL A   1      47.322  34.533  25.310  1.00  0.00    -0.744 OA
ENDBRANCH  63  64
ENDBRANCH  37  58
ENDBRANCH  11  12
ENDBRANCH   4   6
ENDBRANCH   1   2
BRANCH   1  68
ATOM     68  C   UNL A   1      32.399  29.657  26.883  1.00  0.00     0.023 C 
BRANCH  68  69
ATOM     69  C   UNL A   1      31.805  29.337  25.505  1.00  0.00     0.023 C 
BRANCH  69  70
ATOM     70  C   UNL A   1      31.329  27.899  25.307  1.00  0.00     0.116 C 
BRANCH  70  71
ATOM     71  N   UNL A   1      31.588  27.407  23.964  1.00  0.00    -0.352 N 
ATOM     72  C   UNL A   1      30.768  27.432  22.865  1.00  0.00     0.251 C 
ATOM     73  H   UNL A   1      32.472  27.000  23.825  1.00  0.00     0.163 HD
ATOM     74  O   UNL A   1      31.070  26.855  21.832  1.00  0.00    -0.269 OA
BRANCH  72  75
ATOM     75  C   UNL A   1      29.488  28.160  22.925  1.00  0.00     0.045 A 
ATOM     76  C   UNL A   1      28.335  27.528  23.382  1.00  0.00     0.034 A 
ATOM     77  C   UNL A   1      29.478  29.513  22.585  1.00  0.00     0.063 A 
ATOM     78  C   UNL A   1      27.190  28.288  23.471  1.00  0.00     0.114 A 
ATOM     79  C   UNL A   1      28.280  30.201  22.714  1.00  0.00     0.157 A 
ATOM     80  N   UNL A   1      27.142  29.602  23.164  1.00  0.00    -0.237 NA
BRANCH  79  81
ATOM     81  N   UNL A   1      28.221  31.578  22.380  1.00  0.00    -0.182 N 
ATOM     82  C   UNL A   1      28.562  32.673  23.137  1.00  0.00     0.254 A 
ATOM     83  N   UNL A   1      27.790  32.024  21.176  1.00  0.00    -0.039 NA
ATOM     84  N   UNL A   1      28.293  33.766  22.463  1.00  0.00    -0.117 NA
ATOM     85  N   UNL A   1      27.803  33.347  21.254  1.00  0.00    -0.024 NA
ENDBRANCH  79  81
ENDBRANCH  72  75
ENDBRANCH  70  71
ENDBRANCH  69  70
ENDBRANCH  68  69
ENDBRANCH   1  68
TORSDOF 15
ENDMDL
