MODEL 1
REMARK VINA RESULT:     -10.8      0.000      0.000
REMARK SMILES CCn1cccc1C(=O)N(C)c1snc(C)c1C(=O)NCCCCNC(=O)c1ccc(-c2c3nc(c(-c4ccc(S(=O)(=O)[O-])cc4)c4ccc([nH]4)c(-c4ccc(S(=O)(=O)[O-])cc4)c4nc(c(-c5ccc(S(=O)(=O)[O-])cc5)c5ccc2[nH]5)C=C4)C=C3)cc1
REMARK SMILES IDX 22 1 21 2 20 3 18 4 19 5 17 7 12 8 13 9 14 10 15 11 16 12
REMARK SMILES IDX 10 13 11 14 8 15 9 16 7 17 3 18 4 19 5 20 6 21 2 22 1 23
REMARK SMILES IDX 23 24 24 25 25 26 26 27 27 29 28 30 29 31 87 32 30 33 86 34
REMARK SMILES IDX 31 35 32 36 33 37 80 38 34 39 85 40 79 41 81 42 35 43 84 44
REMARK SMILES IDX 78 45 77 46 36 48 66 49 47 50 65 51 48 52 51 53 64 54 82 55
REMARK SMILES IDX 49 56 50 57 63 59 83 60 52 61 37 62 38 63 46 64 39 65 45 66
REMARK SMILES IDX 40 67 41 68 42 69 43 70 44 71 67 72 68 73 76 74 69 75 75 76
REMARK SMILES IDX 70 77 71 78 72 79 73 80 74 81 53 82 54 83 62 84 55 85 61 86
REMARK SMILES IDX 56 87 57 88 58 89 59 90 60 91
REMARK H PARENT 20 6 25 28 81 47 51 58
REMARK Flexibility Score: inf
ROOT
ATOM      1  C   UNL A   1      36.865  21.393  24.551  1.00  0.00     0.023 C 
ENDROOT
BRANCH   1   2
ATOM      2  C   UNL A   1      36.620  22.381  25.685  1.00  0.00     0.116 C 
BRANCH   2   3
ATOM      3  N   UNL A   1      35.586  22.049  26.621  1.00  0.00    -0.352 N 
ATOM      4  C   UNL A   1      34.226  21.838  26.493  1.00  0.00     0.256 C 
ATOM      5  O   UNL A   1      33.717  21.441  27.536  1.00  0.00    -0.269 OA
ATOM      6  H   UNL A   1      35.913  21.951  27.545  1.00  0.00     0.163 HD
BRANCH   4   7
ATOM      7  C   UNL A   1      33.382  22.096  25.299  1.00  0.00     0.097 A 
ATOM      8  C   UNL A   1      32.762  23.245  24.808  1.00  0.00     0.131 A 
ATOM      9  S   UNL A   1      31.971  22.933  23.324  1.00  0.00    -0.017 S 
ATOM     10  N   UNL A   1      32.282  21.329  23.296  1.00  0.00    -0.195 NA
ATOM     11  C   UNL A   1      33.040  21.007  24.347  1.00  0.00     0.066 A 
ATOM     12  C   UNL A   1      33.386  19.552  24.420  1.00  0.00     0.069 C 
BRANCH   8  13
ATOM     13  N   UNL A   1      32.577  24.556  25.268  1.00  0.00    -0.300 N 
ATOM     14  C   UNL A   1      31.264  24.867  25.818  1.00  0.00     0.154 C 
BRANCH  13  15
ATOM     15  C   UNL A   1      33.679  25.410  25.072  1.00  0.00     0.275 C 
ATOM     16  O   UNL A   1      34.698  25.199  25.743  1.00  0.00    -0.267 OA
BRANCH  15  17
ATOM     17  C   UNL A   1      33.666  26.621  24.225  1.00  0.00     0.107 A 
ATOM     18  N   UNL A   1      33.654  28.000  24.410  1.00  0.00    -0.344 N 
ATOM     19  C   UNL A   1      33.749  28.639  23.187  1.00  0.00     0.086 A 
ATOM     20  C   UNL A   1      33.595  27.714  22.195  1.00  0.00     0.020 A 
ATOM     21  C   UNL A   1      33.582  26.465  22.831  1.00  0.00     0.033 A 
BRANCH  18  22
ATOM     22  C   UNL A   1      33.403  28.811  25.587  1.00  0.00     0.119 C 
ATOM     23  C   UNL A   1      34.477  28.700  26.647  1.00  0.00     0.027 C 
ENDBRANCH  18  22
ENDBRANCH  15  17
ENDBRANCH  13  15
ENDBRANCH   8  13
ENDBRANCH   4   7
ENDBRANCH   2   3
ENDBRANCH   1   2
BRANCH   1  24
ATOM     24  C   UNL A   1      37.808  20.225  24.836  1.00  0.00     0.023 C 
BRANCH  24  25
ATOM     25  C   UNL A   1      38.945  20.529  25.814  1.00  0.00     0.116 C 
BRANCH  25  26
ATOM     26  N   UNL A   1      39.913  19.446  25.904  1.00  0.00    -0.352 N 
ATOM     27  C   UNL A   1      41.279  19.503  26.056  1.00  0.00     0.251 C 
ATOM     28  H   UNL A   1      39.534  18.539  25.848  1.00  0.00     0.163 HD
ATOM     29  O   UNL A   1      41.941  18.499  25.795  1.00  0.00    -0.269 OA
BRANCH  27  30
ATOM     30  C   UNL A   1      41.973  20.743  26.491  1.00  0.00     0.039 A 
ATOM     31  C   UNL A   1      42.525  21.578  25.511  1.00  0.00     0.014 A 
ATOM     32  C   UNL A   1      42.163  21.052  27.841  1.00  0.00     0.014 A 
ATOM     33  C   UNL A   1      43.175  22.757  25.884  1.00  0.00     0.010 A 
ATOM     34  C   UNL A   1      42.842  22.208  28.222  1.00  0.00     0.010 A 
ATOM     35  C   UNL A   1      43.297  23.092  27.241  1.00  0.00    -0.014 A 
BRANCH  35  36
ATOM     36  C   UNL A   1      43.640  24.489  27.610  1.00  0.00     0.031 A 
ATOM     37  C   UNL A   1      42.382  25.351  27.798  1.00  0.00     0.074 A 
ATOM     38  C   UNL A   1      44.954  24.848  27.689  1.00  0.00     0.049 A 
ATOM     39  N   UNL A   1      42.209  26.620  27.589  1.00  0.00    -0.248 NA
ATOM     40  C   UNL A   1      41.101  24.690  28.175  1.00  0.00     0.031 C 
ATOM     41  C   UNL A   1      46.088  23.919  27.517  1.00  0.00     0.029 A 
ATOM     42  N   UNL A   1      45.604  26.045  27.924  1.00  0.00    -0.354 N 
ATOM     43  C   UNL A   1      40.867  26.928  27.907  1.00  0.00     0.074 A 
ATOM     44  C   UNL A   1      40.215  25.686  28.182  1.00  0.00     0.031 C 
ATOM     45  C   UNL A   1      47.264  24.582  27.587  1.00  0.00     0.029 A 
ATOM     46  C   UNL A   1      47.016  25.995  27.810  1.00  0.00     0.049 A 
ATOM     47  H   UNL A   1      45.122  26.871  28.155  1.00  0.00     0.167 HD
ATOM     48  C   UNL A   1      40.382  28.197  28.013  1.00  0.00     0.031 A 
ATOM     49  C   UNL A   1      47.922  27.020  27.836  1.00  0.00     0.031 A 
ATOM     50  C   UNL A   1      41.399  29.148  27.725  1.00  0.00     0.049 A 
ATOM     51  C   UNL A   1      47.162  28.256  28.095  1.00  0.00     0.074 A 
ATOM     52  C   UNL A   1      42.008  29.561  26.569  1.00  0.00     0.029 A 
ATOM     53  N   UNL A   1      42.125  29.601  28.798  1.00  0.00    -0.354 N 
ATOM     54  N   UNL A   1      46.644  28.603  29.231  1.00  0.00    -0.248 NA
ATOM     55  C   UNL A   1      46.935  29.180  26.974  1.00  0.00     0.031 C 
ATOM     56  C   UNL A   1      43.325  29.874  26.972  1.00  0.00     0.029 A 
ATOM     57  C   UNL A   1      43.419  29.744  28.362  1.00  0.00     0.049 A 
ATOM     58  H   UNL A   1      41.785  29.787  29.703  1.00  0.00     0.167 HD
ATOM     59  C   UNL A   1      45.745  29.577  28.867  1.00  0.00     0.074 A 
ATOM     60  C   UNL A   1      46.182  30.089  27.588  1.00  0.00     0.031 C 
ATOM     61  C   UNL A   1      44.471  29.519  29.325  1.00  0.00     0.031 A 
BRANCH  48  62
ATOM     62  C   UNL A   1      39.090  28.725  28.577  1.00  0.00    -0.014 A 
ATOM     63  C   UNL A   1      38.321  29.571  27.737  1.00  0.00     0.010 A 
ATOM     64  C   UNL A   1      38.767  28.701  29.941  1.00  0.00     0.010 A 
ATOM     65  C   UNL A   1      37.367  30.450  28.251  1.00  0.00     0.020 A 
ATOM     66  C   UNL A   1      37.778  29.556  30.461  1.00  0.00     0.020 A 
ATOM     67  C   UNL A   1      37.126  30.461  29.620  1.00  0.00     0.054 A 
BRANCH  67  68
ATOM     68  S   UNL A   1      36.012  31.729  30.282  1.00  0.00     0.124 S 
ATOM     69  O   UNL A   1      36.855  32.920  30.264  1.00  0.00    -0.237 OA
ATOM     70  O   UNL A   1      34.915  31.725  29.316  1.00  0.00    -0.237 OA
ATOM     71  O   UNL A   1      35.665  31.221  31.607  1.00  0.00    -0.744 OA
ENDBRANCH  67  68
ENDBRANCH  48  62
BRANCH  49  72
ATOM     72  C   UNL A   1      49.393  27.217  27.532  1.00  0.00    -0.014 A 
ATOM     73  C   UNL A   1      50.051  26.842  26.355  1.00  0.00     0.010 A 
ATOM     74  C   UNL A   1      50.175  27.966  28.460  1.00  0.00     0.010 A 
ATOM     75  C   UNL A   1      51.349  27.323  26.058  1.00  0.00     0.020 A 
ATOM     76  C   UNL A   1      51.433  28.491  28.159  1.00  0.00     0.020 A 
ATOM     77  C   UNL A   1      52.007  28.190  26.937  1.00  0.00     0.054 A 
BRANCH  77  78
ATOM     78  S   UNL A   1      53.530  29.044  26.447  1.00  0.00     0.124 S 
ATOM     79  O   UNL A   1      54.561  28.257  27.115  1.00  0.00    -0.237 OA
ATOM     80  O   UNL A   1      53.507  28.948  24.989  1.00  0.00    -0.237 OA
ATOM     81  O   UNL A   1      53.339  30.397  26.970  1.00  0.00    -0.744 OA
ENDBRANCH  77  78
ENDBRANCH  49  72
BRANCH  61  82
ATOM     82  C   UNL A   1      44.298  28.798  30.649  1.00  0.00    -0.014 A 
ATOM     83  C   UNL A   1      43.947  27.438  30.648  1.00  0.00     0.010 A 
ATOM     84  C   UNL A   1      44.401  29.450  31.894  1.00  0.00     0.010 A 
ATOM     85  C   UNL A   1      43.713  26.748  31.846  1.00  0.00     0.020 A 
ATOM     86  C   UNL A   1      44.172  28.766  33.100  1.00  0.00     0.020 A 
ATOM     87  C   UNL A   1      43.829  27.414  33.066  1.00  0.00     0.054 A 
BRANCH  87  88
ATOM     88  S   UNL A   1      43.518  26.485  34.597  1.00  0.00     0.124 S 
ATOM     89  O   UNL A   1      44.446  27.103  35.541  1.00  0.00    -0.237 OA
ATOM     90  O   UNL A   1      42.105  26.756  34.847  1.00  0.00    -0.237 OA
ATOM     91  O   UNL A   1      43.830  25.102  34.240  1.00  0.00    -0.744 OA
ENDBRANCH  87  88
ENDBRANCH  61  82
ENDBRANCH  35  36
ENDBRANCH  27  30
ENDBRANCH  25  26
ENDBRANCH  24  25
ENDBRANCH   1  24
TORSDOF 18
ENDMDL
MODEL 2
REMARK VINA RESULT:     -10.7      3.483      7.388
REMARK SMILES CCn1cccc1C(=O)N(C)c1snc(C)c1C(=O)NCCCCNC(=O)c1ccc(-c2c3nc(c(-c4ccc(S(=O)(=O)[O-])cc4)c4ccc([nH]4)c(-c4ccc(S(=O)(=O)[O-])cc4)c4nc(c(-c5ccc(S(=O)(=O)[O-])cc5)c5ccc2[nH]5)C=C4)C=C3)cc1
REMARK SMILES IDX 22 1 21 2 20 3 18 4 19 5 17 7 12 8 13 9 14 10 15 11 16 12
REMARK SMILES IDX 10 13 11 14 8 15 9 16 7 17 3 18 4 19 5 20 6 21 2 22 1 23
REMARK SMILES IDX 23 24 24 25 25 26 26 27 27 29 28 30 29 31 87 32 30 33 86 34
REMARK SMILES IDX 31 35 32 36 33 37 80 38 34 39 85 40 79 41 81 42 35 43 84 44
REMARK SMILES IDX 78 45 77 46 36 48 66 49 47 50 65 51 48 52 51 53 64 54 82 55
REMARK SMILES IDX 49 56 50 57 63 59 83 60 52 61 37 62 38 63 46 64 39 65 45 66
REMARK SMILES IDX 40 67 41 68 42 69 43 70 44 71 67 72 68 73 76 74 69 75 75 76
REMARK SMILES IDX 70 77 71 78 72 79 73 80 74 81 53 82 54 83 62 84 55 85 61 86
REMARK SMILES IDX 56 87 57 88 58 89 59 90 60 91
REMARK H PARENT 20 6 25 28 81 47 51 58
REMARK Flexibility Score: inf
ROOT
ATOM      1  C   UNL A   1      31.449  27.988  26.565  1.00  0.00     0.023 C 
ENDROOT
BRANCH   1   2
ATOM      2  C   UNL A   1      32.180  26.674  26.312  1.00  0.00     0.116 C 
BRANCH   2   3
ATOM      3  N   UNL A   1      31.589  25.489  26.861  1.00  0.00    -0.352 N 
ATOM      4  C   UNL A   1      31.822  24.139  26.670  1.00  0.00     0.256 C 
ATOM      5  O   UNL A   1      31.173  23.441  27.442  1.00  0.00    -0.269 OA
ATOM      6  H   UNL A   1      30.868  25.674  27.506  1.00  0.00     0.163 HD
BRANCH   4   7
ATOM      7  C   UNL A   1      32.684  23.511  25.637  1.00  0.00     0.097 A 
ATOM      8  C   UNL A   1      32.738  23.630  24.248  1.00  0.00     0.131 A 
ATOM      9  S   UNL A   1      34.014  22.695  23.598  1.00  0.00    -0.017 S 
ATOM     10  N   UNL A   1      34.476  22.024  25.013  1.00  0.00    -0.195 NA
ATOM     11  C   UNL A   1      33.743  22.535  26.006  1.00  0.00     0.066 A 
ATOM     12  C   UNL A   1      34.085  21.985  27.356  1.00  0.00     0.069 C 
BRANCH   8  13
ATOM     13  N   UNL A   1      31.965  24.268  23.269  1.00  0.00    -0.300 N 
ATOM     14  C   UNL A   1      30.581  23.829  23.152  1.00  0.00     0.154 C 
BRANCH  13  15
ATOM     15  C   UNL A   1      32.663  25.209  22.487  1.00  0.00     0.275 C 
ATOM     16  O   UNL A   1      33.459  24.779  21.643  1.00  0.00    -0.267 OA
BRANCH  15  17
ATOM     17  C   UNL A   1      32.616  26.672  22.690  1.00  0.00     0.107 A 
ATOM     18  N   UNL A   1      31.642  27.652  22.856  1.00  0.00    -0.344 N 
ATOM     19  C   UNL A   1      32.243  28.873  23.109  1.00  0.00     0.086 A 
ATOM     20  C   UNL A   1      33.584  28.756  22.888  1.00  0.00     0.020 A 
ATOM     21  C   UNL A   1      33.822  27.393  22.667  1.00  0.00     0.033 A 
BRANCH  18  22
ATOM     22  C   UNL A   1      30.207  27.627  22.649  1.00  0.00     0.119 C 
ATOM     23  C   UNL A   1      29.577  29.001  22.560  1.00  0.00     0.027 C 
ENDBRANCH  18  22
ENDBRANCH  15  17
ENDBRANCH  13  15
ENDBRANCH   8  13
ENDBRANCH   4   7
ENDBRANCH   2   3
ENDBRANCH   1   2
BRANCH   1  24
ATOM     24  C   UNL A   1      32.052  28.931  27.604  1.00  0.00     0.023 C 
BRANCH  24  25
ATOM     25  C   UNL A   1      33.420  29.512  27.243  1.00  0.00     0.116 C 
BRANCH  25  26
ATOM     26  N   UNL A   1      33.663  30.806  27.862  1.00  0.00    -0.352 N 
ATOM     27  C   UNL A   1      34.722  31.220  28.638  1.00  0.00     0.251 C 
ATOM     28  H   UNL A   1      32.968  31.484  27.703  1.00  0.00     0.163 HD
ATOM     29  O   UNL A   1      34.588  32.237  29.319  1.00  0.00    -0.269 OA
BRANCH  27  30
ATOM     30  C   UNL A   1      35.998  30.462  28.700  1.00  0.00     0.039 A 
ATOM     31  C   UNL A   1      36.816  30.435  27.563  1.00  0.00     0.014 A 
ATOM     32  C   UNL A   1      36.360  29.712  29.823  1.00  0.00     0.014 A 
ATOM     33  C   UNL A   1      38.027  29.741  27.590  1.00  0.00     0.010 A 
ATOM     34  C   UNL A   1      37.551  28.987  29.844  1.00  0.00     0.010 A 
ATOM     35  C   UNL A   1      38.414  29.050  28.748  1.00  0.00    -0.014 A 
BRANCH  35  36
ATOM     36  C   UNL A   1      39.834  28.643  28.904  1.00  0.00     0.031 A 
ATOM     37  C   UNL A   1      40.689  29.780  29.483  1.00  0.00     0.074 A 
ATOM     38  C   UNL A   1      40.213  27.397  28.495  1.00  0.00     0.049 A 
ATOM     39  N   UNL A   1      41.943  30.055  29.288  1.00  0.00    -0.248 NA
ATOM     40  C   UNL A   1      40.035  30.824  30.321  1.00  0.00     0.031 C 
ATOM     41  C   UNL A   1      39.290  26.368  27.978  1.00  0.00     0.029 A 
ATOM     42  N   UNL A   1      41.429  26.744  28.427  1.00  0.00    -0.354 N 
ATOM     43  C   UNL A   1      42.252  31.207  30.044  1.00  0.00     0.074 A 
ATOM     44  C   UNL A   1      41.019  31.682  30.593  1.00  0.00     0.031 C 
ATOM     45  C   UNL A   1      39.970  25.265  27.595  1.00  0.00     0.029 A 
ATOM     46  C   UNL A   1      41.390  25.463  27.823  1.00  0.00     0.049 A 
ATOM     47  H   UNL A   1      42.261  27.139  28.773  1.00  0.00     0.167 HD
ATOM     48  C   UNL A   1      43.519  31.664  30.254  1.00  0.00     0.031 A 
ATOM     49  C   UNL A   1      42.425  24.637  27.477  1.00  0.00     0.031 A 
ATOM     50  C   UNL A   1      44.464  30.844  29.579  1.00  0.00     0.049 A 
ATOM     51  C   UNL A   1      43.665  25.296  27.928  1.00  0.00     0.074 A 
ATOM     52  C   UNL A   1      44.819  30.695  28.264  1.00  0.00     0.029 A 
ATOM     53  N   UNL A   1      44.986  29.800  30.302  1.00  0.00    -0.354 N 
ATOM     54  N   UNL A   1      44.069  25.391  29.156  1.00  0.00    -0.248 NA
ATOM     55  C   UNL A   1      44.521  25.933  26.917  1.00  0.00     0.031 C 
ATOM     56  C   UNL A   1      45.170  29.331  28.158  1.00  0.00     0.029 A 
ATOM     57  C   UNL A   1      45.120  28.749  29.430  1.00  0.00     0.049 A 
ATOM     58  H   UNL A   1      45.219  29.806  31.258  1.00  0.00     0.167 HD
ATOM     59  C   UNL A   1      45.010  26.390  29.086  1.00  0.00     0.074 A 
ATOM     60  C   UNL A   1      45.454  26.449  27.713  1.00  0.00     0.031 C 
ATOM     61  C   UNL A   1      44.962  27.419  29.968  1.00  0.00     0.031 A 
BRANCH  48  62
ATOM     62  C   UNL A   1      44.062  32.689  31.212  1.00  0.00    -0.014 A 
ATOM     63  C   UNL A   1      44.584  33.883  30.648  1.00  0.00     0.010 A 
ATOM     64  C   UNL A   1      44.373  32.417  32.552  1.00  0.00     0.010 A 
ATOM     65  C   UNL A   1      45.480  34.695  31.343  1.00  0.00     0.020 A 
ATOM     66  C   UNL A   1      45.245  33.254  33.272  1.00  0.00     0.020 A 
ATOM     67  C   UNL A   1      45.834  34.355  32.643  1.00  0.00     0.054 A 
BRANCH  67  68
ATOM     68  S   UNL A   1      47.128  35.325  33.460  1.00  0.00     0.124 S 
ATOM     69  O   UNL A   1      48.272  35.118  32.577  1.00  0.00    -0.237 OA
ATOM     70  O   UNL A   1      46.568  36.675  33.450  1.00  0.00    -0.237 OA
ATOM     71  O   UNL A   1      47.233  34.714  34.782  1.00  0.00    -0.744 OA
ENDBRANCH  67  68
ENDBRANCH  48  62
BRANCH  49  72
ATOM     72  C   UNL A   1      42.623  23.376  26.663  1.00  0.00    -0.014 A 
ATOM     73  C   UNL A   1      43.148  23.301  25.368  1.00  0.00     0.010 A 
ATOM     74  C   UNL A   1      42.379  22.123  27.299  1.00  0.00     0.010 A 
ATOM     75  C   UNL A   1      43.553  22.063  24.813  1.00  0.00     0.020 A 
ATOM     76  C   UNL A   1      42.821  20.901  26.787  1.00  0.00     0.020 A 
ATOM     77  C   UNL A   1      43.438  20.880  25.550  1.00  0.00     0.054 A 
BRANCH  77  78
ATOM     78  S   UNL A   1      44.213  19.341  24.980  1.00  0.00     0.124 S 
ATOM     79  O   UNL A   1      45.488  19.349  25.691  1.00  0.00    -0.237 OA
ATOM     80  O   UNL A   1      43.260  18.318  25.404  1.00  0.00    -0.237 OA
ATOM     81  O   UNL A   1      44.302  19.527  23.532  1.00  0.00    -0.744 OA
ENDBRANCH  77  78
ENDBRANCH  49  72
BRANCH  61  82
ATOM     82  C   UNL A   1      44.316  27.090  31.301  1.00  0.00    -0.014 A 
ATOM     83  C   UNL A   1      43.088  27.688  31.632  1.00  0.00     0.010 A 
ATOM     84  C   UNL A   1      44.926  26.264  32.265  1.00  0.00     0.010 A 
ATOM     85  C   UNL A   1      42.486  27.466  32.879  1.00  0.00     0.020 A 
ATOM     86  C   UNL A   1      44.328  26.032  33.516  1.00  0.00     0.020 A 
ATOM     87  C   UNL A   1      43.107  26.637  33.814  1.00  0.00     0.054 A 
BRANCH  87  88
ATOM     88  S   UNL A   1      42.295  26.373  35.418  1.00  0.00     0.124 S 
ATOM     89  O   UNL A   1      43.385  26.584  36.367  1.00  0.00    -0.237 OA
ATOM     90  O   UNL A   1      41.260  27.405  35.420  1.00  0.00    -0.237 OA
ATOM     91  O   UNL A   1      41.799  25.001  35.340  1.00  0.00    -0.744 OA
ENDBRANCH  87  88
ENDBRANCH  61  82
ENDBRANCH  35  36
ENDBRANCH  27  30
ENDBRANCH  25  26
ENDBRANCH  24  25
ENDBRANCH   1  24
TORSDOF 18
ENDMDL
MODEL 3
REMARK VINA RESULT:     -10.5      4.061      8.382
REMARK SMILES CCn1cccc1C(=O)N(C)c1snc(C)c1C(=O)NCCCCNC(=O)c1ccc(-c2c3nc(c(-c4ccc(S(=O)(=O)[O-])cc4)c4ccc([nH]4)c(-c4ccc(S(=O)(=O)[O-])cc4)c4nc(c(-c5ccc(S(=O)(=O)[O-])cc5)c5ccc2[nH]5)C=C4)C=C3)cc1
REMARK SMILES IDX 22 1 21 2 20 3 18 4 19 5 17 7 12 8 13 9 14 10 15 11 16 12
REMARK SMILES IDX 10 13 11 14 8 15 9 16 7 17 3 18 4 19 5 20 6 21 2 22 1 23
REMARK SMILES IDX 23 24 24 25 25 26 26 27 27 29 28 30 29 31 87 32 30 33 86 34
REMARK SMILES IDX 31 35 32 36 33 37 80 38 34 39 85 40 79 41 81 42 35 43 84 44
REMARK SMILES IDX 78 45 77 46 36 48 66 49 47 50 65 51 48 52 51 53 64 54 82 55
REMARK SMILES IDX 49 56 50 57 63 59 83 60 52 61 37 62 38 63 46 64 39 65 45 66
REMARK SMILES IDX 40 67 41 68 42 69 43 70 44 71 67 72 68 73 76 74 69 75 75 76
REMARK SMILES IDX 70 77 71 78 72 79 73 80 74 81 53 82 54 83 62 84 55 85 61 86
REMARK SMILES IDX 56 87 57 88 58 89 59 90 60 91
REMARK H PARENT 20 6 25 28 81 47 51 58
REMARK Flexibility Score: inf
ROOT
ATOM      1  C   UNL A   1      34.433  29.744  27.333  1.00  0.00     0.023 C 
ENDROOT
BRANCH   1   2
ATOM      2  C   UNL A   1      33.956  28.629  26.409  1.00  0.00     0.116 C 
BRANCH   2   3
ATOM      3  N   UNL A   1      34.123  28.839  25.001  1.00  0.00    -0.352 N 
ATOM      4  C   UNL A   1      33.399  28.442  23.892  1.00  0.00     0.256 C 
ATOM      5  O   UNL A   1      33.817  28.950  22.857  1.00  0.00    -0.269 OA
ATOM      6  H   UNL A   1      34.917  29.377  24.778  1.00  0.00     0.163 HD
BRANCH   4   7
ATOM      7  C   UNL A   1      32.276  27.470  23.850  1.00  0.00     0.097 A 
ATOM      8  C   UNL A   1      32.231  26.076  23.851  1.00  0.00     0.131 A 
ATOM      9  S   UNL A   1      30.616  25.512  23.863  1.00  0.00    -0.017 S 
ATOM     10  N   UNL A   1      29.917  26.985  23.757  1.00  0.00    -0.195 NA
ATOM     11  C   UNL A   1      30.864  27.927  23.785  1.00  0.00     0.066 A 
ATOM     12  C   UNL A   1      30.330  29.323  23.692  1.00  0.00     0.069 C 
BRANCH   8  13
ATOM     13  N   UNL A   1      33.176  25.044  23.777  1.00  0.00    -0.300 N 
ATOM     14  C   UNL A   1      33.361  24.432  22.468  1.00  0.00     0.154 C 
BRANCH  13  15
ATOM     15  C   UNL A   1      33.773  24.702  25.006  1.00  0.00     0.275 C 
ATOM     16  O   UNL A   1      34.417  25.578  25.597  1.00  0.00    -0.267 OA
BRANCH  15  17
ATOM     17  C   UNL A   1      33.800  23.340  25.578  1.00  0.00     0.107 A 
ATOM     18  N   UNL A   1      33.164  22.122  25.354  1.00  0.00    -0.344 N 
ATOM     19  C   UNL A   1      33.703  21.152  26.180  1.00  0.00     0.086 A 
ATOM     20  C   UNL A   1      34.517  21.756  27.094  1.00  0.00     0.020 A 
ATOM     21  C   UNL A   1      34.608  23.098  26.702  1.00  0.00     0.033 A 
BRANCH  18  22
ATOM     22  C   UNL A   1      31.993  21.778  24.570  1.00  0.00     0.119 C 
ATOM     23  C   UNL A   1      32.296  20.916  23.363  1.00  0.00     0.027 C 
ENDBRANCH  18  22
ENDBRANCH  15  17
ENDBRANCH  13  15
ENDBRANCH   8  13
ENDBRANCH   4   7
ENDBRANCH   2   3
ENDBRANCH   1   2
BRANCH   1  24
ATOM     24  C   UNL A   1      33.483  30.920  27.554  1.00  0.00     0.023 C 
BRANCH  24  25
ATOM     25  C   UNL A   1      34.151  32.295  27.627  1.00  0.00     0.116 C 
BRANCH  25  26
ATOM     26  N   UNL A   1      34.145  32.852  28.970  1.00  0.00    -0.352 N 
ATOM     27  C   UNL A   1      34.865  32.471  30.079  1.00  0.00     0.251 C 
ATOM     28  H   UNL A   1      33.536  33.614  29.105  1.00  0.00     0.163 HD
ATOM     29  O   UNL A   1      34.488  32.859  31.185  1.00  0.00    -0.269 OA
BRANCH  27  30
ATOM     30  C   UNL A   1      36.053  31.585  29.982  1.00  0.00     0.039 A 
ATOM     31  C   UNL A   1      37.018  31.866  29.007  1.00  0.00     0.014 A 
ATOM     32  C   UNL A   1      36.191  30.440  30.773  1.00  0.00     0.014 A 
ATOM     33  C   UNL A   1      38.153  31.061  28.894  1.00  0.00     0.010 A 
ATOM     34  C   UNL A   1      37.304  29.611  30.642  1.00  0.00     0.010 A 
ATOM     35  C   UNL A   1      38.316  29.954  29.742  1.00  0.00    -0.014 A 
BRANCH  35  36
ATOM     36  C   UNL A   1      39.661  29.340  29.876  1.00  0.00     0.031 A 
ATOM     37  C   UNL A   1      40.683  30.336  30.447  1.00  0.00     0.074 A 
ATOM     38  C   UNL A   1      39.846  28.054  29.459  1.00  0.00     0.049 A 
ATOM     39  N   UNL A   1      41.960  30.422  30.235  1.00  0.00    -0.248 NA
ATOM     40  C   UNL A   1      40.203  31.460  31.297  1.00  0.00     0.031 C 
ATOM     41  C   UNL A   1      38.773  27.176  28.951  1.00  0.00     0.029 A 
ATOM     42  N   UNL A   1      40.950  27.228  29.371  1.00  0.00    -0.354 N 
ATOM     43  C   UNL A   1      42.447  31.512  30.991  1.00  0.00     0.074 A 
ATOM     44  C   UNL A   1      41.307  32.161  31.558  1.00  0.00     0.031 C 
ATOM     45  C   UNL A   1      39.277  25.986  28.555  1.00  0.00     0.029 A 
ATOM     46  C   UNL A   1      40.714  25.970  28.764  1.00  0.00     0.049 A 
ATOM     47  H   UNL A   1      41.836  27.494  29.707  1.00  0.00     0.167 HD
ATOM     48  C   UNL A   1      43.771  31.775  31.184  1.00  0.00     0.031 A 
ATOM     49  C   UNL A   1      41.610  25.003  28.401  1.00  0.00     0.031 A 
ATOM     50  C   UNL A   1      44.575  30.828  30.493  1.00  0.00     0.049 A 
ATOM     51  C   UNL A   1      42.939  25.468  28.836  1.00  0.00     0.074 A 
ATOM     52  C   UNL A   1      44.886  30.634  29.173  1.00  0.00     0.029 A 
ATOM     53  N   UNL A   1      44.946  29.714  31.206  1.00  0.00    -0.354 N 
ATOM     54  N   UNL A   1      43.370  25.495  30.059  1.00  0.00    -0.248 NA
ATOM     55  C   UNL A   1      43.867  25.976  27.815  1.00  0.00     0.031 C 
ATOM     56  C   UNL A   1      45.029  29.234  29.059  1.00  0.00     0.029 A 
ATOM     57  C   UNL A   1      44.911  28.659  30.329  1.00  0.00     0.049 A 
ATOM     58  H   UNL A   1      45.190  29.680  32.159  1.00  0.00     0.167 HD
ATOM     59  C   UNL A   1      44.447  26.344  29.979  1.00  0.00     0.074 A 
ATOM     60  C   UNL A   1      44.877  26.344  28.600  1.00  0.00     0.031 C 
ATOM     61  C   UNL A   1      44.565  27.364  30.864  1.00  0.00     0.031 A 
BRANCH  48  62
ATOM     62  C   UNL A   1      44.473  32.703  32.138  1.00  0.00    -0.014 A 
ATOM     63  C   UNL A   1      44.360  32.409  33.522  1.00  0.00     0.010 A 
ATOM     64  C   UNL A   1      44.941  33.976  31.784  1.00  0.00     0.010 A 
ATOM     65  C   UNL A   1      44.575  33.379  34.501  1.00  0.00     0.020 A 
ATOM     66  C   UNL A   1      45.198  34.948  32.769  1.00  0.00     0.020 A 
ATOM     67  C   UNL A   1      44.960  34.657  34.115  1.00  0.00     0.054 A 
BRANCH  67  68
ATOM     68  S   UNL A   1      45.063  35.942  35.389  1.00  0.00     0.124 S 
ATOM     69  O   UNL A   1      44.102  36.930  34.908  1.00  0.00    -0.237 OA
ATOM     70  O   UNL A   1      44.668  35.223  36.599  1.00  0.00    -0.237 OA
ATOM     71  O   UNL A   1      46.464  36.353  35.349  1.00  0.00    -0.744 OA
ENDBRANCH  67  68
ENDBRANCH  48  62
BRANCH  49  72
ATOM     72  C   UNL A   1      41.607  23.730  27.580  1.00  0.00    -0.014 A 
ATOM     73  C   UNL A   1      42.292  23.520  26.377  1.00  0.00     0.010 A 
ATOM     74  C   UNL A   1      40.960  22.582  28.125  1.00  0.00     0.010 A 
ATOM     75  C   UNL A   1      42.453  22.218  25.845  1.00  0.00     0.020 A 
ATOM     76  C   UNL A   1      41.153  21.286  27.641  1.00  0.00     0.020 A 
ATOM     77  C   UNL A   1      41.930  21.105  26.511  1.00  0.00     0.054 A 
BRANCH  77  78
ATOM     78  S   UNL A   1      42.370  19.418  26.010  1.00  0.00     0.124 S 
ATOM     79  O   UNL A   1      41.106  18.904  25.493  1.00  0.00    -0.237 OA
ATOM     80  O   UNL A   1      43.418  19.635  25.015  1.00  0.00    -0.237 OA
ATOM     81  O   UNL A   1      42.832  18.807  27.256  1.00  0.00    -0.744 OA
ENDBRANCH  77  78
ENDBRANCH  49  72
BRANCH  61  82
ATOM     82  C   UNL A   1      43.894  27.128  32.205  1.00  0.00    -0.014 A 
ATOM     83  C   UNL A   1      42.722  27.837  32.519  1.00  0.00     0.010 A 
ATOM     84  C   UNL A   1      44.434  26.280  33.193  1.00  0.00     0.010 A 
ATOM     85  C   UNL A   1      42.105  27.701  33.771  1.00  0.00     0.020 A 
ATOM     86  C   UNL A   1      43.820  26.134  34.449  1.00  0.00     0.020 A 
ATOM     87  C   UNL A   1      42.655  26.848  34.729  1.00  0.00     0.054 A 
BRANCH  87  88
ATOM     88  S   UNL A   1      41.826  26.698  36.339  1.00  0.00     0.124 S 
ATOM     89  O   UNL A   1      40.899  25.589  36.120  1.00  0.00    -0.237 OA
ATOM     90  O   UNL A   1      42.939  26.410  37.240  1.00  0.00    -0.237 OA
ATOM     91  O   UNL A   1      41.194  28.001  36.532  1.00  0.00    -0.744 OA
ENDBRANCH  87  88
ENDBRANCH  61  82
ENDBRANCH  35  36
ENDBRANCH  27  30
ENDBRANCH  25  26
ENDBRANCH  24  25
ENDBRANCH   1  24
TORSDOF 18
ENDMDL
