MODEL 1
REMARK VINA RESULT:     -11.2      0.000      0.000
REMARK SMILES CC[C@](O)(C(=O)NCCCCNC(=O)c1ccc(-c2c3nc(c(-c4ccc(S(=O)(=O)[O-])cc4)c4ccc([nH]4)c(-c4ccc(S(=O)(=O)[O-])cc4)c4nc(c(-c5ccc(S(=O)(=O)[O-])cc5)c5ccc2[nH]5)C=C4)C=C3)cc1)[C@@H](C)c1ccc2c(c1)OCCO2
REMARK SMILES IDX 10 1 9 2 8 3 7 4 5 5 6 6 3 8 2 9 1 10 75 11 76 12 77 13
REMARK SMILES IDX 78 14 82 15 79 16 81 17 80 18 83 19 86 20 84 21 85 22 4 23
REMARK SMILES IDX 11 25 12 26 13 27 14 29 15 30 16 31 74 32 17 33 73 34 18 35
REMARK SMILES IDX 19 36 20 37 67 38 21 39 72 40 66 41 68 42 22 43 71 44 65 45
REMARK SMILES IDX 64 46 23 48 53 49 34 50 52 51 35 52 38 53 51 54 69 55 36 56
REMARK SMILES IDX 37 57 50 59 70 60 39 61 24 62 25 63 33 64 26 65 32 66 27 67
REMARK SMILES IDX 28 68 29 69 30 70 31 71 54 72 55 73 63 74 56 75 62 76 57 77
REMARK SMILES IDX 58 78 59 79 60 80 61 81 40 82 41 83 49 84 42 85 48 86 43 87
REMARK SMILES IDX 44 88 45 89 46 90 47 91
REMARK H PARENT 7 7 4 24 12 28 68 47 38 58
REMARK Flexibility Score: inf
ROOT
ATOM      1  C   UNL A   1      33.173  28.885  25.529  1.00  0.00     0.023 C 
ENDROOT
BRANCH   1   2
ATOM      2  C   UNL A   1      33.945  27.961  24.594  1.00  0.00     0.023 C 
BRANCH   2   3
ATOM      3  C   UNL A   1      33.394  26.544  24.500  1.00  0.00     0.116 C 
BRANCH   3   4
ATOM      4  N   UNL A   1      33.607  25.919  23.204  1.00  0.00    -0.354 N 
ATOM      5  C   UNL A   1      33.644  24.581  22.891  1.00  0.00     0.252 C 
ATOM      6  O   UNL A   1      33.557  24.267  21.704  1.00  0.00    -0.272 OA
ATOM      7  H   UNL A   1      33.743  26.537  22.450  1.00  0.00     0.163 HD
BRANCH   5   8
ATOM      8  C   UNL A   1      33.816  23.537  24.040  1.00  0.00     0.149 C 
BRANCH   8   9
ATOM      9  C   UNL A   1      34.466  24.264  25.257  1.00  0.00     0.043 C 
ATOM     10  C   UNL A   1      34.884  23.365  26.417  1.00  0.00     0.007 C 
ENDBRANCH   8   9
BRANCH   8  11
ATOM     11  C   UNL A   1      32.434  22.926  24.458  1.00  0.00     0.058 C 
ATOM     12  C   UNL A   1      31.203  23.724  23.971  1.00  0.00     0.016 C 
BRANCH  11  13
ATOM     13  C   UNL A   1      32.240  21.486  23.980  1.00  0.00    -0.038 A 
ATOM     14  C   UNL A   1      32.022  21.191  22.623  1.00  0.00     0.008 A 
ATOM     15  C   UNL A   1      32.410  20.426  24.886  1.00  0.00     0.054 A 
ATOM     16  C   UNL A   1      32.082  19.870  22.169  1.00  0.00     0.051 A 
ATOM     17  C   UNL A   1      32.543  19.129  24.427  1.00  0.00     0.161 A 
ATOM     18  C   UNL A   1      32.419  18.861  23.066  1.00  0.00     0.161 A 
ATOM     19  O   UNL A   1      32.918  18.199  25.355  1.00  0.00    -0.486 OA
ATOM     20  O   UNL A   1      32.764  17.628  22.567  1.00  0.00    -0.486 OA
ATOM     21  C   UNL A   1      33.586  17.069  24.789  1.00  0.00     0.271 C 
ATOM     22  C   UNL A   1      33.922  17.215  23.307  1.00  0.00     0.271 C 
ENDBRANCH  11  13
ENDBRANCH   8  11
BRANCH   8  23
ATOM     23  O   UNL A   1      34.687  22.504  23.548  1.00  0.00    -0.379 OA
ATOM     24  H   UNL A   1      35.531  22.897  23.273  1.00  0.00     0.212 HD
ENDBRANCH   8  23
ENDBRANCH   5   8
ENDBRANCH   3   4
ENDBRANCH   2   3
ENDBRANCH   1   2
BRANCH   1  25
ATOM     25  C   UNL A   1      33.646  28.879  26.977  1.00  0.00     0.116 C 
BRANCH  25  26
ATOM     26  N   UNL A   1      33.613  30.191  27.610  1.00  0.00    -0.352 N 
ATOM     27  C   UNL A   1      34.613  30.803  28.333  1.00  0.00     0.251 C 
ATOM     28  H   UNL A   1      32.777  30.702  27.509  1.00  0.00     0.163 HD
ATOM     29  O   UNL A   1      34.428  31.884  28.880  1.00  0.00    -0.269 OA
BRANCH  27  30
ATOM     30  C   UNL A   1      35.897  30.093  28.470  1.00  0.00     0.039 A 
ATOM     31  C   UNL A   1      36.799  30.121  27.407  1.00  0.00     0.014 A 
ATOM     32  C   UNL A   1      36.250  29.535  29.702  1.00  0.00     0.014 A 
ATOM     33  C   UNL A   1      38.102  29.664  27.608  1.00  0.00     0.010 A 
ATOM     34  C   UNL A   1      37.565  29.149  29.919  1.00  0.00     0.010 A 
ATOM     35  C   UNL A   1      38.506  29.225  28.879  1.00  0.00    -0.014 A 
BRANCH  35  36
ATOM     36  C   UNL A   1      39.918  28.867  29.163  1.00  0.00     0.031 A 
ATOM     37  C   UNL A   1      40.859  29.912  29.693  1.00  0.00     0.074 A 
ATOM     38  C   UNL A   1      40.373  27.638  28.843  1.00  0.00     0.049 A 
ATOM     39  N   UNL A   1      42.148  29.833  29.891  1.00  0.00    -0.248 NA
ATOM     40  C   UNL A   1      40.280  31.229  30.012  1.00  0.00     0.031 C 
ATOM     41  C   UNL A   1      39.567  26.555  28.271  1.00  0.00     0.029 A 
ATOM     42  N   UNL A   1      41.632  27.100  28.932  1.00  0.00    -0.354 N 
ATOM     43  C   UNL A   1      42.539  31.093  30.327  1.00  0.00     0.074 A 
ATOM     44  C   UNL A   1      41.359  31.928  30.330  1.00  0.00     0.031 C 
ATOM     45  C   UNL A   1      40.350  25.482  28.072  1.00  0.00     0.029 A 
ATOM     46  C   UNL A   1      41.718  25.811  28.459  1.00  0.00     0.049 A 
ATOM     47  H   UNL A   1      42.403  27.591  29.300  1.00  0.00     0.167 HD
ATOM     48  C   UNL A   1      43.770  31.511  30.703  1.00  0.00     0.031 A 
ATOM     49  C   UNL A   1      42.780  24.992  28.333  1.00  0.00     0.031 A 
ATOM     50  C   UNL A   1      44.933  30.667  30.727  1.00  0.00     0.049 A 
ATOM     51  C   UNL A   1      44.137  25.480  28.763  1.00  0.00     0.074 A 
ATOM     52  C   UNL A   1      46.203  30.971  31.183  1.00  0.00     0.029 A 
ATOM     53  N   UNL A   1      44.972  29.359  30.270  1.00  0.00    -0.354 N 
ATOM     54  N   UNL A   1      44.468  26.646  29.265  1.00  0.00    -0.248 NA
ATOM     55  C   UNL A   1      45.261  24.545  28.615  1.00  0.00     0.031 C 
ATOM     56  C   UNL A   1      47.024  29.863  30.954  1.00  0.00     0.029 A 
ATOM     57  C   UNL A   1      46.253  28.852  30.402  1.00  0.00     0.049 A 
ATOM     58  H   UNL A   1      44.202  28.863  29.908  1.00  0.00     0.167 HD
ATOM     59  C   UNL A   1      45.836  26.577  29.508  1.00  0.00     0.074 A 
ATOM     60  C   UNL A   1      46.265  25.251  29.117  1.00  0.00     0.031 C 
ATOM     61  C   UNL A   1      46.661  27.528  30.009  1.00  0.00     0.031 A 
BRANCH  48  62
ATOM     62  C   UNL A   1      43.926  32.949  31.116  1.00  0.00    -0.014 A 
ATOM     63  C   UNL A   1      44.223  33.948  30.173  1.00  0.00     0.010 A 
ATOM     64  C   UNL A   1      43.715  33.312  32.459  1.00  0.00     0.010 A 
ATOM     65  C   UNL A   1      44.338  35.283  30.571  1.00  0.00     0.020 A 
ATOM     66  C   UNL A   1      43.803  34.649  32.857  1.00  0.00     0.020 A 
ATOM     67  C   UNL A   1      44.128  35.625  31.911  1.00  0.00     0.054 A 
BRANCH  67  68
ATOM     68  S   UNL A   1      44.243  37.369  32.391  1.00  0.00     0.124 S 
ATOM     69  O   UNL A   1      43.861  38.047  31.154  1.00  0.00    -0.237 OA
ATOM     70  O   UNL A   1      43.276  37.467  33.482  1.00  0.00    -0.237 OA
ATOM     71  O   UNL A   1      45.640  37.531  32.784  1.00  0.00    -0.744 OA
ENDBRANCH  67  68
ENDBRANCH  48  62
BRANCH  49  72
ATOM     72  C   UNL A   1      42.610  23.629  27.760  1.00  0.00    -0.014 A 
ATOM     73  C   UNL A   1      42.323  22.533  28.592  1.00  0.00     0.010 A 
ATOM     74  C   UNL A   1      42.737  23.418  26.374  1.00  0.00     0.010 A 
ATOM     75  C   UNL A   1      42.189  21.250  28.054  1.00  0.00     0.020 A 
ATOM     76  C   UNL A   1      42.579  22.141  25.829  1.00  0.00     0.020 A 
ATOM     77  C   UNL A   1      42.320  21.062  26.676  1.00  0.00     0.054 A 
BRANCH  77  78
ATOM     78  S   UNL A   1      42.105  19.394  25.993  1.00  0.00     0.124 S 
ATOM     79  O   UNL A   1      40.670  19.357  25.733  1.00  0.00    -0.237 OA
ATOM     80  O   UNL A   1      42.963  19.423  24.811  1.00  0.00    -0.237 OA
ATOM     81  O   UNL A   1      42.572  18.523  27.070  1.00  0.00    -0.744 OA
ENDBRANCH  77  78
ENDBRANCH  49  72
BRANCH  61  82
ATOM     82  C   UNL A   1      48.112  27.169  30.184  1.00  0.00    -0.014 A 
ATOM     83  C   UNL A   1      49.044  27.410  29.160  1.00  0.00     0.010 A 
ATOM     84  C   UNL A   1      48.559  26.666  31.420  1.00  0.00     0.010 A 
ATOM     85  C   UNL A   1      50.399  27.142  29.365  1.00  0.00     0.020 A 
ATOM     86  C   UNL A   1      49.916  26.420  31.635  1.00  0.00     0.020 A 
ATOM     87  C   UNL A   1      50.827  26.652  30.603  1.00  0.00     0.054 A 
BRANCH  87  88
ATOM     88  S   UNL A   1      52.601  26.381  30.867  1.00  0.00     0.124 S 
ATOM     89  O   UNL A   1      53.085  26.194  29.502  1.00  0.00    -0.237 OA
ATOM     90  O   UNL A   1      53.022  27.617  31.519  1.00  0.00    -0.237 OA
ATOM     91  O   UNL A   1      52.647  25.190  31.712  1.00  0.00    -0.744 OA
ENDBRANCH  87  88
ENDBRANCH  61  82
ENDBRANCH  35  36
ENDBRANCH  27  30
ENDBRANCH  25  26
ENDBRANCH   1  25
TORSDOF 18
ENDMDL
MODEL 2
REMARK VINA RESULT:     -11.1      3.371      8.113
REMARK SMILES CC[C@](O)(C(=O)NCCCCNC(=O)c1ccc(-c2c3nc(c(-c4ccc(S(=O)(=O)[O-])cc4)c4ccc([nH]4)c(-c4ccc(S(=O)(=O)[O-])cc4)c4nc(c(-c5ccc(S(=O)(=O)[O-])cc5)c5ccc2[nH]5)C=C4)C=C3)cc1)[C@@H](C)c1ccc2c(c1)OCCO2
REMARK SMILES IDX 10 1 9 2 8 3 7 4 5 5 6 6 3 8 2 9 1 10 75 11 76 12 77 13
REMARK SMILES IDX 78 14 82 15 79 16 81 17 80 18 83 19 86 20 84 21 85 22 4 23
REMARK SMILES IDX 11 25 12 26 13 27 14 29 15 30 16 31 74 32 17 33 73 34 18 35
REMARK SMILES IDX 19 36 20 37 67 38 21 39 72 40 66 41 68 42 22 43 71 44 65 45
REMARK SMILES IDX 64 46 23 48 53 49 34 50 52 51 35 52 38 53 51 54 69 55 36 56
REMARK SMILES IDX 37 57 50 59 70 60 39 61 24 62 25 63 33 64 26 65 32 66 27 67
REMARK SMILES IDX 28 68 29 69 30 70 31 71 54 72 55 73 63 74 56 75 62 76 57 77
REMARK SMILES IDX 58 78 59 79 60 80 61 81 40 82 41 83 49 84 42 85 48 86 43 87
REMARK SMILES IDX 44 88 45 89 46 90 47 91
REMARK H PARENT 7 7 4 24 12 28 68 47 38 58
REMARK Flexibility Score: inf
ROOT
ATOM      1  C   UNL A   1      38.129  21.706  25.226  1.00  0.00     0.023 C 
ENDROOT
BRANCH   1   2
ATOM      2  C   UNL A   1      37.211  20.499  25.059  1.00  0.00     0.023 C 
BRANCH   2   3
ATOM      3  C   UNL A   1      35.747  20.841  24.816  1.00  0.00     0.116 C 
BRANCH   3   4
ATOM      4  N   UNL A   1      34.819  19.933  25.472  1.00  0.00    -0.354 N 
ATOM      5  C   UNL A   1      33.445  19.982  25.503  1.00  0.00     0.252 C 
ATOM      6  O   UNL A   1      32.843  18.974  25.871  1.00  0.00    -0.272 OA
ATOM      7  H   UNL A   1      35.230  19.183  25.960  1.00  0.00     0.163 HD
BRANCH   5   8
ATOM      8  C   UNL A   1      32.724  21.307  25.095  1.00  0.00     0.149 C 
BRANCH   8   9
ATOM      9  C   UNL A   1      33.402  22.480  25.865  1.00  0.00     0.043 C 
ATOM     10  C   UNL A   1      32.757  22.856  27.196  1.00  0.00     0.007 C 
ENDBRANCH   8   9
BRANCH   8  11
ATOM     11  C   UNL A   1      32.827  21.551  23.549  1.00  0.00     0.058 C 
ATOM     12  C   UNL A   1      32.110  20.493  22.680  1.00  0.00     0.016 C 
BRANCH  11  13
ATOM     13  C   UNL A   1      32.286  22.915  23.115  1.00  0.00    -0.038 A 
ATOM     14  C   UNL A   1      31.024  23.367  23.538  1.00  0.00     0.008 A 
ATOM     15  C   UNL A   1      33.111  23.788  22.388  1.00  0.00     0.054 A 
ATOM     16  C   UNL A   1      30.645  24.697  23.331  1.00  0.00     0.051 A 
ATOM     17  C   UNL A   1      32.768  25.120  22.249  1.00  0.00     0.161 A 
ATOM     18  C   UNL A   1      31.555  25.578  22.757  1.00  0.00     0.161 A 
ATOM     19  O   UNL A   1      33.728  25.934  21.718  1.00  0.00    -0.486 OA
ATOM     20  O   UNL A   1      31.296  26.926  22.826  1.00  0.00    -0.486 OA
ATOM     21  C   UNL A   1      33.592  27.303  22.110  1.00  0.00     0.271 C 
ATOM     22  C   UNL A   1      32.539  27.546  23.188  1.00  0.00     0.271 C 
ENDBRANCH  11  13
ENDBRANCH   8  11
BRANCH   8  23
ATOM     23  O   UNL A   1      31.347  21.178  25.486  1.00  0.00    -0.379 OA
ATOM     24  H   UNL A   1      30.919  22.049  25.455  1.00  0.00     0.212 HD
ENDBRANCH   8  23
ENDBRANCH   5   8
ENDBRANCH   3   4
ENDBRANCH   2   3
ENDBRANCH   1   2
BRANCH   1  25
ATOM     25  C   UNL A   1      39.284  21.507  26.199  1.00  0.00     0.116 C 
BRANCH  25  26
ATOM     26  N   UNL A   1      39.942  20.213  26.071  1.00  0.00    -0.352 N 
ATOM     27  C   UNL A   1      41.289  19.942  26.153  1.00  0.00     0.251 C 
ATOM     28  H   UNL A   1      39.354  19.440  25.907  1.00  0.00     0.163 HD
ATOM     29  O   UNL A   1      41.721  18.813  25.950  1.00  0.00    -0.269 OA
BRANCH  27  30
ATOM     30  C   UNL A   1      42.202  21.061  26.444  1.00  0.00     0.039 A 
ATOM     31  C   UNL A   1      42.678  21.835  25.386  1.00  0.00     0.014 A 
ATOM     32  C   UNL A   1      42.456  21.418  27.771  1.00  0.00     0.014 A 
ATOM     33  C   UNL A   1      43.342  23.031  25.662  1.00  0.00     0.010 A 
ATOM     34  C   UNL A   1      43.052  22.643  28.041  1.00  0.00     0.010 A 
ATOM     35  C   UNL A   1      43.486  23.467  26.989  1.00  0.00    -0.014 A 
BRANCH  35  36
ATOM     36  C   UNL A   1      44.058  24.797  27.310  1.00  0.00     0.031 A 
ATOM     37  C   UNL A   1      43.150  25.913  27.745  1.00  0.00     0.074 A 
ATOM     38  C   UNL A   1      45.371  25.026  27.108  1.00  0.00     0.049 A 
ATOM     39  N   UNL A   1      43.436  27.171  27.955  1.00  0.00    -0.248 NA
ATOM     40  C   UNL A   1      41.728  25.578  27.938  1.00  0.00     0.031 C 
ATOM     41  C   UNL A   1      46.344  24.036  26.635  1.00  0.00     0.029 A 
ATOM     42  N   UNL A   1      46.112  26.172  27.250  1.00  0.00    -0.354 N 
ATOM     43  C   UNL A   1      42.229  27.782  28.274  1.00  0.00     0.074 A 
ATOM     44  C   UNL A   1      41.203  26.767  28.195  1.00  0.00     0.031 C 
ATOM     45  C   UNL A   1      47.552  24.616  26.539  1.00  0.00     0.029 A 
ATOM     46  C   UNL A   1      47.434  26.025  26.899  1.00  0.00     0.049 A 
ATOM     47  H   UNL A   1      45.732  27.022  27.574  1.00  0.00     0.167 HD
ATOM     48  C   UNL A   1      42.001  29.072  28.615  1.00  0.00     0.031 A 
ATOM     49  C   UNL A   1      48.435  26.926  26.854  1.00  0.00     0.031 A 
ATOM     50  C   UNL A   1      43.031  30.069  28.721  1.00  0.00     0.049 A 
ATOM     51  C   UNL A   1      48.155  28.353  27.242  1.00  0.00     0.074 A 
ATOM     52  C   UNL A   1      42.914  31.378  29.152  1.00  0.00     0.029 A 
ATOM     53  N   UNL A   1      44.362  29.872  28.388  1.00  0.00    -0.354 N 
ATOM     54  N   UNL A   1      47.024  28.889  27.635  1.00  0.00    -0.248 NA
ATOM     55  C   UNL A   1      49.282  29.293  27.186  1.00  0.00     0.031 C 
ATOM     56  C   UNL A   1      44.165  31.990  29.030  1.00  0.00     0.029 A 
ATOM     57  C   UNL A   1      45.071  31.046  28.571  1.00  0.00     0.049 A 
ATOM     58  H   UNL A   1      44.745  29.023  28.070  1.00  0.00     0.167 HD
ATOM     59  C   UNL A   1      47.310  30.226  27.890  1.00  0.00     0.074 A 
ATOM     60  C   UNL A   1      48.721  30.412  27.624  1.00  0.00     0.031 C 
ATOM     61  C   UNL A   1      46.477  31.211  28.304  1.00  0.00     0.031 A 
BRANCH  48  62
ATOM     62  C   UNL A   1      40.581  29.482  28.893  1.00  0.00    -0.014 A 
ATOM     63  C   UNL A   1      39.623  29.532  27.866  1.00  0.00     0.010 A 
ATOM     64  C   UNL A   1      40.187  29.767  30.214  1.00  0.00     0.010 A 
ATOM     65  C   UNL A   1      38.303  29.890  28.148  1.00  0.00     0.020 A 
ATOM     66  C   UNL A   1      38.861  30.100  30.505  1.00  0.00     0.020 A 
ATOM     67  C   UNL A   1      37.930  30.172  29.466  1.00  0.00     0.054 A 
BRANCH  67  68
ATOM     68  S   UNL A   1      36.201  30.593  29.809  1.00  0.00     0.124 S 
ATOM     69  O   UNL A   1      36.253  32.052  29.869  1.00  0.00    -0.237 OA
ATOM     70  O   UNL A   1      35.500  30.039  28.653  1.00  0.00    -0.237 OA
ATOM     71  O   UNL A   1      35.925  29.927  31.079  1.00  0.00    -0.744 OA
ENDBRANCH  67  68
ENDBRANCH  48  62
BRANCH  49  72
ATOM     72  C   UNL A   1      49.794  26.512  26.409  1.00  0.00    -0.014 A 
ATOM     73  C   UNL A   1      50.721  25.993  27.329  1.00  0.00     0.010 A 
ATOM     74  C   UNL A   1      50.169  26.639  25.058  1.00  0.00     0.010 A 
ATOM     75  C   UNL A   1      52.005  25.630  26.912  1.00  0.00     0.020 A 
ATOM     76  C   UNL A   1      51.444  26.252  24.633  1.00  0.00     0.020 A 
ATOM     77  C   UNL A   1      52.359  25.764  25.567  1.00  0.00     0.054 A 
BRANCH  77  78
ATOM     78  S   UNL A   1      54.018  25.251  25.040  1.00  0.00     0.124 S 
ATOM     79  O   UNL A   1      54.836  25.660  26.177  1.00  0.00    -0.237 OA
ATOM     80  O   UNL A   1      53.861  23.810  24.858  1.00  0.00    -0.237 OA
ATOM     81  O   UNL A   1      54.232  26.007  23.808  1.00  0.00    -0.744 OA
ENDBRANCH  77  78
ENDBRANCH  49  72
BRANCH  61  82
ATOM     82  C   UNL A   1      47.067  32.579  28.517  1.00  0.00    -0.014 A 
ATOM     83  C   UNL A   1      47.677  32.920  29.736  1.00  0.00     0.010 A 
ATOM     84  C   UNL A   1      47.085  33.501  27.455  1.00  0.00     0.010 A 
ATOM     85  C   UNL A   1      48.286  34.167  29.893  1.00  0.00     0.020 A 
ATOM     86  C   UNL A   1      47.714  34.738  27.601  1.00  0.00     0.020 A 
ATOM     87  C   UNL A   1      48.304  35.067  28.823  1.00  0.00     0.054 A 
BRANCH  87  88
ATOM     88  S   UNL A   1      49.165  36.650  29.031  1.00  0.00     0.124 S 
ATOM     89  O   UNL A   1      48.215  37.591  28.445  1.00  0.00    -0.237 OA
ATOM     90  O   UNL A   1      49.329  36.740  30.479  1.00  0.00    -0.237 OA
ATOM     91  O   UNL A   1      50.405  36.470  28.280  1.00  0.00    -0.744 OA
ENDBRANCH  87  88
ENDBRANCH  61  82
ENDBRANCH  35  36
ENDBRANCH  27  30
ENDBRANCH  25  26
ENDBRANCH   1  25
TORSDOF 18
ENDMDL
MODEL 3
REMARK VINA RESULT:     -11.1      1.466      2.434
REMARK SMILES CC[C@](O)(C(=O)NCCCCNC(=O)c1ccc(-c2c3nc(c(-c4ccc(S(=O)(=O)[O-])cc4)c4ccc([nH]4)c(-c4ccc(S(=O)(=O)[O-])cc4)c4nc(c(-c5ccc(S(=O)(=O)[O-])cc5)c5ccc2[nH]5)C=C4)C=C3)cc1)[C@@H](C)c1ccc2c(c1)OCCO2
REMARK SMILES IDX 10 1 9 2 8 3 7 4 5 5 6 6 3 8 2 9 1 10 75 11 76 12 77 13
REMARK SMILES IDX 78 14 82 15 79 16 81 17 80 18 83 19 86 20 84 21 85 22 4 23
REMARK SMILES IDX 11 25 12 26 13 27 14 29 15 30 16 31 74 32 17 33 73 34 18 35
REMARK SMILES IDX 19 36 20 37 67 38 21 39 72 40 66 41 68 42 22 43 71 44 65 45
REMARK SMILES IDX 64 46 23 48 53 49 34 50 52 51 35 52 38 53 51 54 69 55 36 56
REMARK SMILES IDX 37 57 50 59 70 60 39 61 24 62 25 63 33 64 26 65 32 66 27 67
REMARK SMILES IDX 28 68 29 69 30 70 31 71 54 72 55 73 63 74 56 75 62 76 57 77
REMARK SMILES IDX 58 78 59 79 60 80 61 81 40 82 41 83 49 84 42 85 48 86 43 87
REMARK SMILES IDX 44 88 45 89 46 90 47 91
REMARK H PARENT 7 7 4 24 12 28 68 47 38 58
REMARK Flexibility Score: inf
ROOT
ATOM      1  C   UNL A   1      32.672  28.639  25.571  1.00  0.00     0.023 C 
ENDROOT
BRANCH   1   2
ATOM      2  C   UNL A   1      31.532  27.631  25.668  1.00  0.00     0.023 C 
BRANCH   2   3
ATOM      3  C   UNL A   1      31.262  26.849  24.388  1.00  0.00     0.116 C 
BRANCH   3   4
ATOM      4  N   UNL A   1      32.456  26.593  23.598  1.00  0.00    -0.354 N 
ATOM      5  C   UNL A   1      32.834  25.434  22.964  1.00  0.00     0.252 C 
ATOM      6  O   UNL A   1      33.730  25.505  22.123  1.00  0.00    -0.272 OA
ATOM      7  H   UNL A   1      33.075  27.353  23.504  1.00  0.00     0.163 HD
BRANCH   5   8
ATOM      8  C   UNL A   1      32.134  24.093  23.354  1.00  0.00     0.149 C 
BRANCH   8   9
ATOM      9  C   UNL A   1      32.936  22.924  22.705  1.00  0.00     0.043 C 
ATOM     10  C   UNL A   1      32.105  21.733  22.237  1.00  0.00     0.007 C 
ENDBRANCH   8   9
BRANCH   8  11
ATOM     11  C   UNL A   1      32.091  23.912  24.911  1.00  0.00     0.058 C 
ATOM     12  C   UNL A   1      30.841  23.172  25.440  1.00  0.00     0.016 C 
BRANCH  11  13
ATOM     13  C   UNL A   1      33.308  23.172  25.469  1.00  0.00    -0.038 A 
ATOM     14  C   UNL A   1      33.331  21.770  25.559  1.00  0.00     0.008 A 
ATOM     15  C   UNL A   1      34.475  23.891  25.777  1.00  0.00     0.054 A 
ATOM     16  C   UNL A   1      34.525  21.100  25.844  1.00  0.00     0.051 A 
ATOM     17  C   UNL A   1      35.669  23.228  25.986  1.00  0.00     0.161 A 
ATOM     18  C   UNL A   1      35.698  21.836  25.978  1.00  0.00     0.161 A 
ATOM     19  O   UNL A   1      36.786  24.012  26.064  1.00  0.00    -0.486 OA
ATOM     20  O   UNL A   1      36.897  21.166  25.962  1.00  0.00    -0.486 OA
ATOM     21  C   UNL A   1      37.987  23.326  25.703  1.00  0.00     0.271 C 
ATOM     22  C   UNL A   1      37.765  21.934  25.117  1.00  0.00     0.271 C 
ENDBRANCH  11  13
ENDBRANCH   8  11
BRANCH   8  23
ATOM     23  O   UNL A   1      30.799  24.141  22.823  1.00  0.00    -0.379 OA
ATOM     24  H   UNL A   1      30.161  24.168  23.554  1.00  0.00     0.212 HD
ENDBRANCH   8  23
ENDBRANCH   5   8
ENDBRANCH   3   4
ENDBRANCH   2   3
ENDBRANCH   1   2
BRANCH   1  25
ATOM     25  C   UNL A   1      33.494  28.808  26.842  1.00  0.00     0.116 C 
BRANCH  25  26
ATOM     26  N   UNL A   1      33.438  30.152  27.403  1.00  0.00    -0.352 N 
ATOM     27  C   UNL A   1      34.410  30.804  28.126  1.00  0.00     0.251 C 
ATOM     28  H   UNL A   1      32.605  30.654  27.245  1.00  0.00     0.163 HD
ATOM     29  O   UNL A   1      34.206  31.912  28.608  1.00  0.00    -0.269 OA
BRANCH  27  30
ATOM     30  C   UNL A   1      35.690  30.107  28.346  1.00  0.00     0.039 A 
ATOM     31  C   UNL A   1      36.656  30.138  27.340  1.00  0.00     0.014 A 
ATOM     32  C   UNL A   1      35.971  29.557  29.600  1.00  0.00     0.014 A 
ATOM     33  C   UNL A   1      37.948  29.693  27.623  1.00  0.00     0.010 A 
ATOM     34  C   UNL A   1      37.274  29.184  29.900  1.00  0.00     0.010 A 
ATOM     35  C   UNL A   1      38.277  29.263  28.920  1.00  0.00    -0.014 A 
BRANCH  35  36
ATOM     36  C   UNL A   1      39.671  28.920  29.292  1.00  0.00     0.031 A 
ATOM     37  C   UNL A   1      40.554  29.963  29.918  1.00  0.00     0.074 A 
ATOM     38  C   UNL A   1      40.169  27.709  28.969  1.00  0.00     0.049 A 
ATOM     39  N   UNL A   1      41.827  29.898  30.204  1.00  0.00    -0.248 NA
ATOM     40  C   UNL A   1      39.930  31.260  30.233  1.00  0.00     0.031 C 
ATOM     41  C   UNL A   1      39.425  26.631  28.310  1.00  0.00     0.029 A 
ATOM     42  N   UNL A   1      41.429  27.188  29.130  1.00  0.00    -0.354 N 
ATOM     43  C   UNL A   1      42.164  31.150  30.703  1.00  0.00     0.074 A 
ATOM     44  C   UNL A   1      40.971  31.966  30.647  1.00  0.00     0.031 C 
ATOM     45  C   UNL A   1      40.240  25.577  28.135  1.00  0.00     0.029 A 
ATOM     46  C   UNL A   1      41.571  25.915  28.626  1.00  0.00     0.049 A 
ATOM     47  H   UNL A   1      42.163  27.680  29.566  1.00  0.00     0.167 HD
ATOM     48  C   UNL A   1      43.358  31.576  31.177  1.00  0.00     0.031 A 
ATOM     49  C   UNL A   1      42.654  25.118  28.551  1.00  0.00     0.031 A 
ATOM     50  C   UNL A   1      44.531  30.750  31.258  1.00  0.00     0.049 A 
ATOM     51  C   UNL A   1      43.968  25.614  29.091  1.00  0.00     0.074 A 
ATOM     52  C   UNL A   1      45.760  31.061  31.812  1.00  0.00     0.029 A 
ATOM     53  N   UNL A   1      44.625  29.457  30.767  1.00  0.00    -0.354 N 
ATOM     54  N   UNL A   1      44.242  26.770  29.649  1.00  0.00    -0.248 NA
ATOM     55  C   UNL A   1      45.116  24.702  28.995  1.00  0.00     0.031 C 
ATOM     56  C   UNL A   1      46.615  29.973  31.609  1.00  0.00     0.029 A 
ATOM     57  C   UNL A   1      45.903  28.968  30.974  1.00  0.00     0.049 A 
ATOM     58  H   UNL A   1      43.892  28.961  30.337  1.00  0.00     0.167 HD
ATOM     59  C   UNL A   1      45.590  26.714  29.986  1.00  0.00     0.074 A 
ATOM     60  C   UNL A   1      46.070  25.408  29.587  1.00  0.00     0.031 C 
ATOM     61  C   UNL A   1      46.361  27.662  30.572  1.00  0.00     0.031 A 
BRANCH  48  62
ATOM     62  C   UNL A   1      43.458  33.003  31.643  1.00  0.00    -0.014 A 
ATOM     63  C   UNL A   1      43.323  33.336  33.001  1.00  0.00     0.010 A 
ATOM     64  C   UNL A   1      43.748  34.018  30.712  1.00  0.00     0.010 A 
ATOM     65  C   UNL A   1      43.446  34.664  33.419  1.00  0.00     0.020 A 
ATOM     66  C   UNL A   1      43.897  35.344  31.128  1.00  0.00     0.020 A 
ATOM     67  C   UNL A   1      43.732  35.659  32.479  1.00  0.00     0.054 A 
BRANCH  67  68
ATOM     68  S   UNL A   1      43.926  37.368  33.054  1.00  0.00     0.124 S 
ATOM     69  O   UNL A   1      45.129  37.272  33.878  1.00  0.00    -0.237 OA
ATOM     70  O   UNL A   1      44.079  38.112  31.806  1.00  0.00    -0.237 OA
ATOM     71  O   UNL A   1      42.689  37.631  33.786  1.00  0.00    -0.744 OA
ENDBRANCH  67  68
ENDBRANCH  48  62
BRANCH  49  72
ATOM     72  C   UNL A   1      42.549  23.771  27.928  1.00  0.00    -0.014 A 
ATOM     73  C   UNL A   1      42.147  22.659  28.689  1.00  0.00     0.010 A 
ATOM     74  C   UNL A   1      42.854  23.591  26.566  1.00  0.00     0.010 A 
ATOM     75  C   UNL A   1      42.074  21.390  28.107  1.00  0.00     0.020 A 
ATOM     76  C   UNL A   1      42.758  22.329  25.974  1.00  0.00     0.020 A 
ATOM     77  C   UNL A   1      42.382  21.233  26.753  1.00  0.00     0.054 A 
BRANCH  77  78
ATOM     78  S   UNL A   1      42.245  19.584  26.007  1.00  0.00     0.124 S 
ATOM     79  O   UNL A   1      42.723  18.724  27.084  1.00  0.00    -0.237 OA
ATOM     80  O   UNL A   1      40.818  19.490  25.707  1.00  0.00    -0.237 OA
ATOM     81  O   UNL A   1      43.115  19.667  24.836  1.00  0.00    -0.744 OA
ENDBRANCH  77  78
ENDBRANCH  49  72
BRANCH  61  82
ATOM     82  C   UNL A   1      47.802  27.322  30.839  1.00  0.00    -0.014 A 
ATOM     83  C   UNL A   1      48.172  26.586  31.978  1.00  0.00     0.010 A 
ATOM     84  C   UNL A   1      48.784  27.669  29.893  1.00  0.00     0.010 A 
ATOM     85  C   UNL A   1      49.504  26.214  32.173  1.00  0.00     0.020 A 
ATOM     86  C   UNL A   1      50.112  27.277  30.074  1.00  0.00     0.020 A 
ATOM     87  C   UNL A   1      50.465  26.559  31.218  1.00  0.00     0.054 A 
BRANCH  87  88
ATOM     88  S   UNL A   1      52.174  25.999  31.460  1.00  0.00     0.124 S 
ATOM     89  O   UNL A   1      52.664  26.945  32.458  1.00  0.00    -0.237 OA
ATOM     90  O   UNL A   1      52.000  24.626  31.925  1.00  0.00    -0.237 OA
ATOM     91  O   UNL A   1      52.771  26.130  30.132  1.00  0.00    -0.744 OA
ENDBRANCH  87  88
ENDBRANCH  61  82
ENDBRANCH  35  36
ENDBRANCH  27  30
ENDBRANCH  25  26
ENDBRANCH   1  25
TORSDOF 18
ENDMDL
