MODEL 1
REMARK VINA RESULT:     -11.0      0.000      0.000
REMARK SMILES Cc1cccc(C[NH+]2CCC(OCC(=O)NCCCCNC(=O)c3ccc(-c4c5nc(c(-c6ccc(S(=O)(=O)[O-])cc6)c6ccc([nH]6)c(-c6ccc(S(=O)(=O)[O-])cc6)c6nc(c(-c7ccc(S(=O)(=O)[O-])cc7)c7ccc4[nH]7)C=C6)C=C5)cc3)CC2)n1
REMARK SMILES IDX 18 1 17 2 16 3 14 4 15 5 13 7 12 8 11 9 8 10 9 11 85 12
REMARK SMILES IDX 10 14 84 15 7 16 6 17 1 18 2 19 3 20 86 21 4 22 5 23 19 24
REMARK SMILES IDX 20 25 21 26 22 27 23 29 24 30 25 31 83 32 26 33 82 34 27 35
REMARK SMILES IDX 28 36 29 37 76 38 30 39 81 40 75 41 77 42 31 43 80 44 74 45
REMARK SMILES IDX 73 46 32 48 62 49 43 50 61 51 44 52 47 53 60 54 78 55 45 56
REMARK SMILES IDX 46 57 59 59 79 60 48 61 33 62 34 63 42 64 35 65 41 66 36 67
REMARK SMILES IDX 37 68 38 69 39 70 40 71 63 72 64 73 72 74 65 75 71 76 66 77
REMARK SMILES IDX 67 78 68 79 69 80 70 81 49 82 50 83 58 84 51 85 57 86 52 87
REMARK SMILES IDX 53 88 54 89 55 90 56 91
REMARK H PARENT 16 6 8 13 21 28 77 47 47 58
REMARK Flexibility Score: inf
ROOT
ATOM      1  C   UNL A   1      33.185  29.136  24.760  1.00  0.00     0.023 C 
ENDROOT
BRANCH   1   2
ATOM      2  C   UNL A   1      33.068  28.638  23.320  1.00  0.00     0.116 C 
BRANCH   2   3
ATOM      3  N   UNL A   1      32.093  29.352  22.522  1.00  0.00    -0.354 N 
ATOM      4  C   UNL A   1      30.815  28.981  22.211  1.00  0.00     0.246 C 
ATOM      5  O   UNL A   1      30.070  29.807  21.680  1.00  0.00    -0.272 OA
ATOM      6  H   UNL A   1      32.389  30.217  22.157  1.00  0.00     0.163 HD
BRANCH   4   7
ATOM      7  C   UNL A   1      30.329  27.564  22.546  1.00  0.00     0.260 C 
BRANCH   7   8
ATOM      8  O   UNL A   1      29.904  27.305  23.872  1.00  0.00    -0.368 OA
BRANCH   8   9
ATOM      9  C   UNL A   1      30.028  25.963  24.360  1.00  0.00     0.130 C 
ATOM     10  N   UNL A   1      31.378  23.573  25.286  1.00  0.00    -0.330 N 
ATOM     11  C   UNL A   1      30.775  23.586  23.951  1.00  0.00     0.265 C 
ATOM     12  C   UNL A   1      30.622  24.414  26.227  1.00  0.00     0.265 C 
ATOM     13  H   UNL A   1      32.309  23.977  25.177  1.00  0.00     0.348 HD
ATOM     14  C   UNL A   1      30.738  25.014  23.389  1.00  0.00     0.093 C 
ATOM     15  C   UNL A   1      30.641  25.858  25.755  1.00  0.00     0.093 C 
BRANCH  10  16
ATOM     16  C   UNL A   1      31.586  22.212  25.826  1.00  0.00     0.319 C 
BRANCH  16  17
ATOM     17  C   UNL A   1      32.943  21.574  25.578  1.00  0.00     0.095 A 
ATOM     18  C   UNL A   1      34.071  18.332  24.261  1.00  0.00     0.067 C 
ATOM     19  C   UNL A   1      34.140  19.710  24.843  1.00  0.00     0.038 A 
ATOM     20  C   UNL A   1      35.346  20.376  25.002  1.00  0.00     0.023 A 
ATOM     21  N   UNL A   1      32.957  20.289  25.141  1.00  0.00    -0.252 NA
ATOM     22  C   UNL A   1      35.331  21.681  25.488  1.00  0.00     0.004 A 
ATOM     23  C   UNL A   1      34.115  22.294  25.774  1.00  0.00     0.030 A 
ENDBRANCH  16  17
ENDBRANCH  10  16
ENDBRANCH   8   9
ENDBRANCH   7   8
ENDBRANCH   4   7
ENDBRANCH   2   3
ENDBRANCH   1   2
BRANCH   1  24
ATOM     24  C   UNL A   1      33.637  28.097  25.791  1.00  0.00     0.023 C 
BRANCH  24  25
ATOM     25  C   UNL A   1      33.335  28.432  27.249  1.00  0.00     0.116 C 
BRANCH  25  26
ATOM     26  N   UNL A   1      33.298  29.862  27.513  1.00  0.00    -0.352 N 
ATOM     27  C   UNL A   1      34.286  30.675  28.016  1.00  0.00     0.251 C 
ATOM     28  H   UNL A   1      32.448  30.311  27.303  1.00  0.00     0.163 HD
ATOM     29  O   UNL A   1      34.043  31.852  28.270  1.00  0.00    -0.269 OA
BRANCH  27  30
ATOM     30  C   UNL A   1      35.630  30.120  28.286  1.00  0.00     0.039 A 
ATOM     31  C   UNL A   1      36.568  30.084  27.249  1.00  0.00     0.014 A 
ATOM     32  C   UNL A   1      35.975  29.661  29.560  1.00  0.00     0.014 A 
ATOM     33  C   UNL A   1      37.874  29.661  27.508  1.00  0.00     0.010 A 
ATOM     34  C   UNL A   1      37.291  29.299  29.831  1.00  0.00     0.010 A 
ATOM     35  C   UNL A   1      38.257  29.306  28.811  1.00  0.00    -0.014 A 
BRANCH  35  36
ATOM     36  C   UNL A   1      39.661  28.955  29.146  1.00  0.00     0.031 A 
ATOM     37  C   UNL A   1      40.585  30.002  29.702  1.00  0.00     0.074 A 
ATOM     38  C   UNL A   1      40.131  27.728  28.848  1.00  0.00     0.049 A 
ATOM     39  N   UNL A   1      41.874  29.934  29.920  1.00  0.00    -0.248 NA
ATOM     40  C   UNL A   1      39.986  31.306  30.028  1.00  0.00     0.031 C 
ATOM     41  C   UNL A   1      39.346  26.637  28.269  1.00  0.00     0.029 A 
ATOM     42  N   UNL A   1      41.394  27.202  28.967  1.00  0.00    -0.354 N 
ATOM     43  C   UNL A   1      42.244  31.190  30.383  1.00  0.00     0.074 A 
ATOM     44  C   UNL A   1      41.051  32.011  30.378  1.00  0.00     0.031 C 
ATOM     45  C   UNL A   1      40.143  25.572  28.083  1.00  0.00     0.029 A 
ATOM     46  C   UNL A   1      41.502  25.917  28.489  1.00  0.00     0.049 A 
ATOM     47  H   UNL A   1      42.150  27.697  29.358  1.00  0.00     0.167 HD
ATOM     48  C   UNL A   1      43.465  31.620  30.785  1.00  0.00     0.031 A 
ATOM     49  C   UNL A   1      42.576  25.112  28.368  1.00  0.00     0.031 A 
ATOM     50  C   UNL A   1      44.646  30.800  30.795  1.00  0.00     0.049 A 
ATOM     51  C   UNL A   1      43.922  25.606  28.820  1.00  0.00     0.074 A 
ATOM     52  C   UNL A   1      45.917  31.128  31.233  1.00  0.00     0.029 A 
ATOM     53  N   UNL A   1      44.703  29.491  30.343  1.00  0.00    -0.354 N 
ATOM     54  N   UNL A   1      44.243  26.780  29.312  1.00  0.00    -0.248 NA
ATOM     55  C   UNL A   1      45.048  24.668  28.713  1.00  0.00     0.031 C 
ATOM     56  C   UNL A   1      46.752  30.027  31.008  1.00  0.00     0.029 A 
ATOM     57  C   UNL A   1      45.990  28.999  30.475  1.00  0.00     0.049 A 
ATOM     58  H   UNL A   1      43.940  28.984  29.981  1.00  0.00     0.167 HD
ATOM     59  C   UNL A   1      45.603  26.714  29.593  1.00  0.00     0.074 A 
ATOM     60  C   UNL A   1      46.042  25.383  29.226  1.00  0.00     0.031 C 
ATOM     61  C   UNL A   1      46.412  27.670  30.111  1.00  0.00     0.031 A 
BRANCH  48  62
ATOM     62  C   UNL A   1      43.575  33.053  31.232  1.00  0.00    -0.014 A 
ATOM     63  C   UNL A   1      43.865  34.079  30.314  1.00  0.00     0.010 A 
ATOM     64  C   UNL A   1      43.385  33.381  32.586  1.00  0.00     0.010 A 
ATOM     65  C   UNL A   1      44.021  35.397  30.751  1.00  0.00     0.020 A 
ATOM     66  C   UNL A   1      43.512  34.703  33.024  1.00  0.00     0.020 A 
ATOM     67  C   UNL A   1      43.856  35.698  32.106  1.00  0.00     0.054 A 
BRANCH  67  68
ATOM     68  S   UNL A   1      44.078  37.414  32.651  1.00  0.00     0.124 S 
ATOM     69  O   UNL A   1      43.080  37.522  33.713  1.00  0.00    -0.237 OA
ATOM     70  O   UNL A   1      45.470  37.436  33.094  1.00  0.00    -0.237 OA
ATOM     71  O   UNL A   1      43.797  38.198  31.451  1.00  0.00    -0.744 OA
ENDBRANCH  67  68
ENDBRANCH  48  62
BRANCH  49  72
ATOM     72  C   UNL A   1      42.411  23.751  27.790  1.00  0.00    -0.014 A 
ATOM     73  C   UNL A   1      42.564  23.539  26.410  1.00  0.00     0.010 A 
ATOM     74  C   UNL A   1      42.146  22.651  28.627  1.00  0.00     0.010 A 
ATOM     75  C   UNL A   1      42.452  22.251  25.876  1.00  0.00     0.020 A 
ATOM     76  C   UNL A   1      42.058  21.359  28.100  1.00  0.00     0.020 A 
ATOM     77  C   UNL A   1      42.206  21.169  26.725  1.00  0.00     0.054 A 
BRANCH  77  78
ATOM     78  S   UNL A   1      42.146  19.497  26.020  1.00  0.00     0.124 S 
ATOM     79  O   UNL A   1      42.580  18.677  27.147  1.00  0.00    -0.237 OA
ATOM     80  O   UNL A   1      40.742  19.362  25.643  1.00  0.00    -0.237 OA
ATOM     81  O   UNL A   1      43.079  19.565  24.899  1.00  0.00    -0.744 OA
ENDBRANCH  77  78
ENDBRANCH  49  72
BRANCH  61  82
ATOM     82  C   UNL A   1      47.853  27.311  30.348  1.00  0.00    -0.014 A 
ATOM     83  C   UNL A   1      48.825  27.510  29.353  1.00  0.00     0.010 A 
ATOM     84  C   UNL A   1      48.251  26.850  31.616  1.00  0.00     0.010 A 
ATOM     85  C   UNL A   1      50.172  27.245  29.620  1.00  0.00     0.020 A 
ATOM     86  C   UNL A   1      49.598  26.605  31.893  1.00  0.00     0.020 A 
ATOM     87  C   UNL A   1      50.550  26.798  30.890  1.00  0.00     0.054 A 
BRANCH  87  88
ATOM     88  S   UNL A   1      52.311  26.534  31.237  1.00  0.00     0.124 S 
ATOM     89  O   UNL A   1      52.927  26.869  29.955  1.00  0.00    -0.237 OA
ATOM     90  O   UNL A   1      52.569  27.476  32.323  1.00  0.00    -0.237 OA
ATOM     91  O   UNL A   1      52.383  25.125  31.614  1.00  0.00    -0.744 OA
ENDBRANCH  87  88
ENDBRANCH  61  82
ENDBRANCH  35  36
ENDBRANCH  27  30
ENDBRANCH  25  26
ENDBRANCH  24  25
ENDBRANCH   1  24
TORSDOF 18
ENDMDL
MODEL 2
REMARK VINA RESULT:     -10.3      2.838      9.434
REMARK SMILES Cc1cccc(C[NH+]2CCC(OCC(=O)NCCCCNC(=O)c3ccc(-c4c5nc(c(-c6ccc(S(=O)(=O)[O-])cc6)c6ccc([nH]6)c(-c6ccc(S(=O)(=O)[O-])cc6)c6nc(c(-c7ccc(S(=O)(=O)[O-])cc7)c7ccc4[nH]7)C=C6)C=C5)cc3)CC2)n1
REMARK SMILES IDX 18 1 17 2 16 3 14 4 15 5 13 7 12 8 11 9 8 10 9 11 85 12
REMARK SMILES IDX 10 14 84 15 7 16 6 17 1 18 2 19 3 20 86 21 4 22 5 23 19 24
REMARK SMILES IDX 20 25 21 26 22 27 23 29 24 30 25 31 83 32 26 33 82 34 27 35
REMARK SMILES IDX 28 36 29 37 76 38 30 39 81 40 75 41 77 42 31 43 80 44 74 45
REMARK SMILES IDX 73 46 32 48 62 49 43 50 61 51 44 52 47 53 60 54 78 55 45 56
REMARK SMILES IDX 46 57 59 59 79 60 48 61 33 62 34 63 42 64 35 65 41 66 36 67
REMARK SMILES IDX 37 68 38 69 39 70 40 71 63 72 64 73 72 74 65 75 71 76 66 77
REMARK SMILES IDX 67 78 68 79 69 80 70 81 49 82 50 83 58 84 51 85 57 86 52 87
REMARK SMILES IDX 53 88 54 89 55 90 56 91
REMARK H PARENT 16 6 8 13 21 28 77 47 47 58
REMARK Flexibility Score: inf
ROOT
ATOM      1  C   UNL A   1      34.827  23.310  26.535  1.00  0.00     0.023 C 
ENDROOT
BRANCH   1   2
ATOM      2  C   UNL A   1      34.024  22.075  26.942  1.00  0.00     0.116 C 
BRANCH   2   3
ATOM      3  N   UNL A   1      34.418  20.859  26.262  1.00  0.00    -0.354 N 
ATOM      4  C   UNL A   1      33.842  20.272  25.170  1.00  0.00     0.246 C 
ATOM      5  O   UNL A   1      34.432  19.343  24.615  1.00  0.00    -0.272 OA
ATOM      6  H   UNL A   1      35.202  20.394  26.634  1.00  0.00     0.163 HD
BRANCH   4   7
ATOM      7  C   UNL A   1      32.496  20.791  24.647  1.00  0.00     0.260 C 
BRANCH   7   8
ATOM      8  O   UNL A   1      32.382  21.061  23.261  1.00  0.00    -0.368 OA
BRANCH   8   9
ATOM      9  C   UNL A   1      32.095  22.407  22.866  1.00  0.00     0.130 C 
ATOM     10  N   UNL A   1      32.181  25.300  22.984  1.00  0.00    -0.330 N 
ATOM     11  C   UNL A   1      30.954  24.602  23.375  1.00  0.00     0.265 C 
ATOM     12  C   UNL A   1      32.899  24.577  21.925  1.00  0.00     0.265 C 
ATOM     13  H   UNL A   1      32.771  25.315  23.816  1.00  0.00     0.348 HD
ATOM     14  C   UNL A   1      31.276  23.194  23.895  1.00  0.00     0.093 C 
ATOM     15  C   UNL A   1      33.321  23.208  22.432  1.00  0.00     0.093 C 
BRANCH  10  16
ATOM     16  C   UNL A   1      31.961  26.717  22.617  1.00  0.00     0.319 C 
BRANCH  16  17
ATOM     17  C   UNL A   1      31.977  27.731  23.750  1.00  0.00     0.095 A 
ATOM     18  C   UNL A   1      34.197  28.373  26.610  1.00  0.00     0.067 C 
ATOM     19  C   UNL A   1      33.037  28.520  25.674  1.00  0.00     0.038 A 
ATOM     20  C   UNL A   1      32.149  29.581  25.773  1.00  0.00     0.023 A 
ATOM     21  N   UNL A   1      32.946  27.598  24.690  1.00  0.00    -0.252 NA
ATOM     22  C   UNL A   1      31.132  29.692  24.828  1.00  0.00     0.004 A 
ATOM     23  C   UNL A   1      31.046  28.761  23.797  1.00  0.00     0.030 A 
ENDBRANCH  16  17
ENDBRANCH  10  16
ENDBRANCH   8   9
ENDBRANCH   7   8
ENDBRANCH   4   7
ENDBRANCH   2   3
ENDBRANCH   1   2
BRANCH   1  24
ATOM     24  C   UNL A   1      35.575  23.209  25.202  1.00  0.00     0.023 C 
BRANCH  24  25
ATOM     25  C   UNL A   1      36.977  23.812  25.180  1.00  0.00     0.116 C 
BRANCH  25  26
ATOM     26  N   UNL A   1      38.022  22.847  25.484  1.00  0.00    -0.352 N 
ATOM     27  C   UNL A   1      39.187  23.028  26.192  1.00  0.00     0.251 C 
ATOM     28  H   UNL A   1      37.875  21.939  25.136  1.00  0.00     0.163 HD
ATOM     29  O   UNL A   1      40.008  22.118  26.264  1.00  0.00    -0.269 OA
BRANCH  27  30
ATOM     30  C   UNL A   1      39.466  24.333  26.831  1.00  0.00     0.039 A 
ATOM     31  C   UNL A   1      38.980  24.571  28.120  1.00  0.00     0.014 A 
ATOM     32  C   UNL A   1      40.224  25.306  26.176  1.00  0.00     0.014 A 
ATOM     33  C   UNL A   1      39.319  25.753  28.783  1.00  0.00     0.010 A 
ATOM     34  C   UNL A   1      40.611  26.455  26.859  1.00  0.00     0.010 A 
ATOM     35  C   UNL A   1      40.173  26.685  28.173  1.00  0.00    -0.014 A 
BRANCH  35  36
ATOM     36  C   UNL A   1      40.642  27.900  28.887  1.00  0.00     0.031 A 
ATOM     37  C   UNL A   1      41.965  27.889  29.602  1.00  0.00     0.074 A 
ATOM     38  C   UNL A   1      39.832  28.973  28.982  1.00  0.00     0.049 A 
ATOM     39  N   UNL A   1      42.481  28.792  30.396  1.00  0.00    -0.248 NA
ATOM     40  C   UNL A   1      42.802  26.693  29.421  1.00  0.00     0.031 C 
ATOM     41  C   UNL A   1      38.509  29.093  28.367  1.00  0.00     0.029 A 
ATOM     42  N   UNL A   1      39.993  30.158  29.657  1.00  0.00    -0.354 N 
ATOM     43  C   UNL A   1      43.690  28.263  30.831  1.00  0.00     0.074 A 
ATOM     44  C   UNL A   1      43.810  26.945  30.242  1.00  0.00     0.031 C 
ATOM     45  C   UNL A   1      37.978  30.283  28.693  1.00  0.00     0.029 A 
ATOM     46  C   UNL A   1      38.903  30.993  29.572  1.00  0.00     0.049 A 
ATOM     47  H   UNL A   1      40.810  30.388  30.155  1.00  0.00     0.167 HD
ATOM     48  C   UNL A   1      44.619  28.825  31.641  1.00  0.00     0.031 A 
ATOM     49  C   UNL A   1      38.662  32.184  30.153  1.00  0.00     0.031 A 
ATOM     50  C   UNL A   1      44.499  30.137  32.218  1.00  0.00     0.049 A 
ATOM     51  C   UNL A   1      39.706  32.792  31.047  1.00  0.00     0.074 A 
ATOM     52  C   UNL A   1      45.410  30.816  33.009  1.00  0.00     0.029 A 
ATOM     53  N   UNL A   1      43.398  30.967  32.072  1.00  0.00    -0.354 N 
ATOM     54  N   UNL A   1      40.870  32.303  31.401  1.00  0.00    -0.248 NA
ATOM     55  C   UNL A   1      39.411  34.117  31.612  1.00  0.00     0.031 C 
ATOM     56  C   UNL A   1      44.841  32.042  33.373  1.00  0.00     0.029 A 
ATOM     57  C   UNL A   1      43.597  32.146  32.770  1.00  0.00     0.049 A 
ATOM     58  H   UNL A   1      42.592  30.750  31.549  1.00  0.00     0.167 HD
ATOM     59  C   UNL A   1      41.457  33.268  32.212  1.00  0.00     0.074 A 
ATOM     60  C   UNL A   1      40.524  34.373  32.289  1.00  0.00     0.031 C 
ATOM     61  C   UNL A   1      42.661  33.240  32.833  1.00  0.00     0.031 A 
BRANCH  48  62
ATOM     62  C   UNL A   1      45.842  28.006  31.956  1.00  0.00    -0.014 A 
ATOM     63  C   UNL A   1      45.882  27.166  33.084  1.00  0.00     0.010 A 
ATOM     64  C   UNL A   1      46.966  28.072  31.113  1.00  0.00     0.010 A 
ATOM     65  C   UNL A   1      47.043  26.454  33.397  1.00  0.00     0.020 A 
ATOM     66  C   UNL A   1      48.121  27.340  31.406  1.00  0.00     0.020 A 
ATOM     67  C   UNL A   1      48.160  26.556  32.562  1.00  0.00     0.054 A 
BRANCH  67  68
ATOM     68  S   UNL A   1      49.660  25.634  32.997  1.00  0.00     0.124 S 
ATOM     69  O   UNL A   1      49.968  24.955  31.740  1.00  0.00    -0.237 OA
ATOM     70  O   UNL A   1      50.591  26.692  33.382  1.00  0.00    -0.237 OA
ATOM     71  O   UNL A   1      49.227  24.763  34.086  1.00  0.00    -0.744 OA
ENDBRANCH  67  68
ENDBRANCH  48  62
BRANCH  49  72
ATOM     72  C   UNL A   1      37.369  32.875  29.899  1.00  0.00    -0.014 A 
ATOM     73  C   UNL A   1      37.171  33.605  28.715  1.00  0.00     0.010 A 
ATOM     74  C   UNL A   1      36.311  32.766  30.821  1.00  0.00     0.010 A 
ATOM     75  C   UNL A   1      35.940  34.215  28.458  1.00  0.00     0.020 A 
ATOM     76  C   UNL A   1      35.071  33.355  30.556  1.00  0.00     0.020 A 
ATOM     77  C   UNL A   1      34.896  34.082  29.377  1.00  0.00     0.054 A 
BRANCH  77  78
ATOM     78  S   UNL A   1      33.282  34.815  28.984  1.00  0.00     0.124 S 
ATOM     79  O   UNL A   1      33.663  36.117  28.445  1.00  0.00    -0.237 OA
ATOM     80  O   UNL A   1      32.731  33.868  28.020  1.00  0.00    -0.237 OA
ATOM     81  O   UNL A   1      32.598  34.846  30.274  1.00  0.00    -0.744 OA
ENDBRANCH  77  78
ENDBRANCH  49  72
BRANCH  61  82
ATOM     82  C   UNL A   1      43.065  34.451  33.628  1.00  0.00    -0.014 A 
ATOM     83  C   UNL A   1      42.883  34.500  35.021  1.00  0.00     0.010 A 
ATOM     84  C   UNL A   1      43.714  35.518  32.981  1.00  0.00     0.010 A 
ATOM     85  C   UNL A   1      43.337  35.602  35.752  1.00  0.00     0.020 A 
ATOM     86  C   UNL A   1      44.189  36.610  33.712  1.00  0.00     0.020 A 
ATOM     87  C   UNL A   1      43.990  36.648  35.093  1.00  0.00     0.054 A 
BRANCH  87  88
ATOM     88  S   UNL A   1      44.639  38.030  36.073  1.00  0.00     0.124 S 
ATOM     89  O   UNL A   1      43.894  37.895  37.321  1.00  0.00    -0.237 OA
ATOM     90  O   UNL A   1      46.065  37.724  36.156  1.00  0.00    -0.237 OA
ATOM     91  O   UNL A   1      44.308  39.208  35.273  1.00  0.00    -0.744 OA
ENDBRANCH  87  88
ENDBRANCH  61  82
ENDBRANCH  35  36
ENDBRANCH  27  30
ENDBRANCH  25  26
ENDBRANCH  24  25
ENDBRANCH   1  24
TORSDOF 18
ENDMDL
MODEL 3
REMARK VINA RESULT:     -10.3      3.340      8.538
REMARK SMILES Cc1cccc(C[NH+]2CCC(OCC(=O)NCCCCNC(=O)c3ccc(-c4c5nc(c(-c6ccc(S(=O)(=O)[O-])cc6)c6ccc([nH]6)c(-c6ccc(S(=O)(=O)[O-])cc6)c6nc(c(-c7ccc(S(=O)(=O)[O-])cc7)c7ccc4[nH]7)C=C6)C=C5)cc3)CC2)n1
REMARK SMILES IDX 18 1 17 2 16 3 14 4 15 5 13 7 12 8 11 9 8 10 9 11 85 12
REMARK SMILES IDX 10 14 84 15 7 16 6 17 1 18 2 19 3 20 86 21 4 22 5 23 19 24
REMARK SMILES IDX 20 25 21 26 22 27 23 29 24 30 25 31 83 32 26 33 82 34 27 35
REMARK SMILES IDX 28 36 29 37 76 38 30 39 81 40 75 41 77 42 31 43 80 44 74 45
REMARK SMILES IDX 73 46 32 48 62 49 43 50 61 51 44 52 47 53 60 54 78 55 45 56
REMARK SMILES IDX 46 57 59 59 79 60 48 61 33 62 34 63 42 64 35 65 41 66 36 67
REMARK SMILES IDX 37 68 38 69 39 70 40 71 63 72 64 73 72 74 65 75 71 76 66 77
REMARK SMILES IDX 67 78 68 79 69 80 70 81 49 82 50 83 58 84 51 85 57 86 52 87
REMARK SMILES IDX 53 88 54 89 55 90 56 91
REMARK H PARENT 16 6 8 13 21 28 77 47 47 58
REMARK Flexibility Score: inf
ROOT
ATOM      1  C   UNL A   1      37.136  21.655  25.034  1.00  0.00     0.023 C 
ENDROOT
BRANCH   1   2
ATOM      2  C   UNL A   1      35.641  21.367  24.903  1.00  0.00     0.116 C 
BRANCH   2   3
ATOM      3  N   UNL A   1      35.287  19.973  25.075  1.00  0.00    -0.354 N 
ATOM      4  C   UNL A   1      34.144  19.333  24.687  1.00  0.00     0.246 C 
ATOM      5  O   UNL A   1      34.103  18.103  24.747  1.00  0.00    -0.272 OA
ATOM      6  H   UNL A   1      35.957  19.415  25.532  1.00  0.00     0.163 HD
BRANCH   4   7
ATOM      7  C   UNL A   1      32.954  20.148  24.164  1.00  0.00     0.260 C 
BRANCH   7   8
ATOM      8  O   UNL A   1      31.895  20.429  25.062  1.00  0.00    -0.368 OA
BRANCH   8   9
ATOM      9  C   UNL A   1      31.612  21.804  25.348  1.00  0.00     0.130 C 
ATOM     10  N   UNL A   1      32.098  24.656  25.494  1.00  0.00    -0.330 N 
ATOM     11  C   UNL A   1      32.108  23.861  26.725  1.00  0.00     0.265 C 
ATOM     12  C   UNL A   1      31.153  24.111  24.509  1.00  0.00     0.265 C 
ATOM     13  H   UNL A   1      33.039  24.582  25.106  1.00  0.00     0.348 HD
ATOM     14  C   UNL A   1      32.513  22.411  26.429  1.00  0.00     0.093 C 
ATOM     15  C   UNL A   1      31.572  22.705  24.116  1.00  0.00     0.093 C 
BRANCH  10  16
ATOM     16  C   UNL A   1      31.865  26.098  25.726  1.00  0.00     0.319 C 
BRANCH  16  17
ATOM     17  C   UNL A   1      32.278  27.048  24.612  1.00  0.00     0.095 A 
ATOM     18  C   UNL A   1      30.483  29.390  22.418  1.00  0.00     0.067 C 
ATOM     19  C   UNL A   1      31.618  28.616  23.014  1.00  0.00     0.038 A 
ATOM     20  C   UNL A   1      32.936  28.865  22.660  1.00  0.00     0.023 A 
ATOM     21  N   UNL A   1      31.289  27.712  23.962  1.00  0.00    -0.252 NA
ATOM     22  C   UNL A   1      33.947  28.154  23.303  1.00  0.00     0.004 A 
ATOM     23  C   UNL A   1      33.618  27.237  24.298  1.00  0.00     0.030 A 
ENDBRANCH  16  17
ENDBRANCH  10  16
ENDBRANCH   8   9
ENDBRANCH   7   8
ENDBRANCH   4   7
ENDBRANCH   2   3
ENDBRANCH   1   2
BRANCH   1  24
ATOM     24  C   UNL A   1      38.037  20.432  25.235  1.00  0.00     0.023 C 
BRANCH  24  25
ATOM     25  C   UNL A   1      39.322  20.675  26.020  1.00  0.00     0.116 C 
BRANCH  25  26
ATOM     26  N   UNL A   1      40.227  19.536  26.007  1.00  0.00    -0.352 N 
ATOM     27  C   UNL A   1      41.594  19.515  26.161  1.00  0.00     0.251 C 
ATOM     28  H   UNL A   1      39.803  18.659  25.871  1.00  0.00     0.163 HD
ATOM     29  O   UNL A   1      42.210  18.462  26.020  1.00  0.00    -0.269 OA
BRANCH  27  30
ATOM     30  C   UNL A   1      42.321  20.768  26.456  1.00  0.00     0.039 A 
ATOM     31  C   UNL A   1      42.825  21.524  25.392  1.00  0.00     0.014 A 
ATOM     32  C   UNL A   1      42.485  21.212  27.771  1.00  0.00     0.014 A 
ATOM     33  C   UNL A   1      43.423  22.762  25.641  1.00  0.00     0.010 A 
ATOM     34  C   UNL A   1      43.026  22.471  28.012  1.00  0.00     0.010 A 
ATOM     35  C   UNL A   1      43.490  23.264  26.950  1.00  0.00    -0.014 A 
BRANCH  35  36
ATOM     36  C   UNL A   1      44.019  24.621  27.241  1.00  0.00     0.031 A 
ATOM     37  C   UNL A   1      43.075  25.742  27.574  1.00  0.00     0.074 A 
ATOM     38  C   UNL A   1      45.337  24.867  27.100  1.00  0.00     0.049 A 
ATOM     39  N   UNL A   1      43.326  27.018  27.715  1.00  0.00    -0.248 NA
ATOM     40  C   UNL A   1      41.658  25.383  27.740  1.00  0.00     0.031 C 
ATOM     41  C   UNL A   1      46.351  23.873  26.743  1.00  0.00     0.029 A 
ATOM     42  N   UNL A   1      46.045  26.038  27.214  1.00  0.00    -0.354 N 
ATOM     43  C   UNL A   1      42.098  27.619  27.960  1.00  0.00     0.074 A 
ATOM     44  C   UNL A   1      41.099  26.572  27.910  1.00  0.00     0.031 C 
ATOM     45  C   UNL A   1      47.549  24.476  26.667  1.00  0.00     0.029 A 
ATOM     46  C   UNL A   1      47.383  25.902  26.928  1.00  0.00     0.049 A 
ATOM     47  H   UNL A   1      45.634  26.893  27.477  1.00  0.00     0.167 HD
ATOM     48  C   UNL A   1      41.826  28.922  28.213  1.00  0.00     0.031 A 
ATOM     49  C   UNL A   1      48.364  26.823  26.858  1.00  0.00     0.031 A 
ATOM     50  C   UNL A   1      42.822  29.957  28.269  1.00  0.00     0.049 A 
ATOM     51  C   UNL A   1      48.043  28.264  27.143  1.00  0.00     0.074 A 
ATOM     52  C   UNL A   1      42.654  31.298  28.569  1.00  0.00     0.029 A 
ATOM     53  N   UNL A   1      44.172  29.770  28.015  1.00  0.00    -0.354 N 
ATOM     54  N   UNL A   1      46.884  28.805  27.432  1.00  0.00    -0.248 NA
ATOM     55  C   UNL A   1      49.162  29.217  27.105  1.00  0.00     0.031 C 
ATOM     56  C   UNL A   1      43.898  31.929  28.458  1.00  0.00     0.029 A 
ATOM     57  C   UNL A   1      44.849  30.972  28.135  1.00  0.00     0.049 A 
ATOM     58  H   UNL A   1      44.590  28.909  27.782  1.00  0.00     0.167 HD
ATOM     59  C   UNL A   1      47.136  30.158  27.631  1.00  0.00     0.074 A 
ATOM     60  C   UNL A   1      48.559  30.351  27.439  1.00  0.00     0.031 C 
ATOM     61  C   UNL A   1      46.266  31.148  27.946  1.00  0.00     0.031 A 
BRANCH  48  62
ATOM     62  C   UNL A   1      40.384  29.293  28.433  1.00  0.00    -0.014 A 
ATOM     63  C   UNL A   1      39.485  29.381  27.355  1.00  0.00     0.010 A 
ATOM     64  C   UNL A   1      39.918  29.554  29.734  1.00  0.00     0.010 A 
ATOM     65  C   UNL A   1      38.163  29.782  27.565  1.00  0.00     0.020 A 
ATOM     66  C   UNL A   1      38.589  29.928  29.953  1.00  0.00     0.020 A 
ATOM     67  C   UNL A   1      37.727  30.065  28.863  1.00  0.00     0.054 A 
BRANCH  67  68
ATOM     68  S   UNL A   1      36.010  30.598  29.109  1.00  0.00     0.124 S 
ATOM     69  O   UNL A   1      35.265  29.454  28.588  1.00  0.00    -0.237 OA
ATOM     70  O   UNL A   1      35.935  30.790  30.555  1.00  0.00    -0.237 OA
ATOM     71  O   UNL A   1      35.910  31.820  28.315  1.00  0.00    -0.744 OA
ENDBRANCH  67  68
ENDBRANCH  48  62
BRANCH  49  72
ATOM     72  C   UNL A   1      49.745  26.398  26.503  1.00  0.00    -0.014 A 
ATOM     73  C   UNL A   1      50.602  25.869  27.482  1.00  0.00     0.010 A 
ATOM     74  C   UNL A   1      50.192  26.477  25.171  1.00  0.00     0.010 A 
ATOM     75  C   UNL A   1      51.883  25.428  27.137  1.00  0.00     0.020 A 
ATOM     76  C   UNL A   1      51.464  26.015  24.818  1.00  0.00     0.020 A 
ATOM     77  C   UNL A   1      52.304  25.499  25.806  1.00  0.00     0.054 A 
BRANCH  77  78
ATOM     78  S   UNL A   1      53.940  24.846  25.367  1.00  0.00     0.124 S 
ATOM     79  O   UNL A   1      54.277  25.638  24.188  1.00  0.00    -0.237 OA
ATOM     80  O   UNL A   1      54.726  25.130  26.565  1.00  0.00    -0.237 OA
ATOM     81  O   UNL A   1      53.688  23.429  25.120  1.00  0.00    -0.744 OA
ENDBRANCH  77  78
ENDBRANCH  49  72
BRANCH  61  82
ATOM     82  C   UNL A   1      46.824  32.532  28.140  1.00  0.00    -0.014 A 
ATOM     83  C   UNL A   1      46.890  33.445  27.074  1.00  0.00     0.010 A 
ATOM     84  C   UNL A   1      47.206  32.949  29.428  1.00  0.00     0.010 A 
ATOM     85  C   UNL A   1      47.338  34.752  27.292  1.00  0.00     0.020 A 
ATOM     86  C   UNL A   1      47.633  34.260  29.654  1.00  0.00     0.020 A 
ATOM     87  C   UNL A   1      47.702  35.151  28.582  1.00  0.00     0.054 A 
BRANCH  87  88
ATOM     88  S   UNL A   1      48.206  36.873  28.855  1.00  0.00     0.124 S 
ATOM     89  O   UNL A   1      47.066  37.612  28.320  1.00  0.00    -0.237 OA
ATOM     90  O   UNL A   1      48.370  36.934  30.305  1.00  0.00    -0.237 OA
ATOM     91  O   UNL A   1      49.445  36.997  28.090  1.00  0.00    -0.744 OA
ENDBRANCH  87  88
ENDBRANCH  61  82
ENDBRANCH  35  36
ENDBRANCH  27  30
ENDBRANCH  25  26
ENDBRANCH  24  25
ENDBRANCH   1  24
TORSDOF 18
ENDMDL
