MODEL 1
REMARK VINA RESULT:     -11.3      0.000      0.000
REMARK SMILES COc1ccc2c(c1)C=C(C(=O)NCCCCNC(=O)c1ccc(-c3c4nc(c(-c5ccc(S(=O)(=O)[O-])cc5)c5ccc([nH]5)c(-c5ccc(S(=O)(=O)[O-])cc5)c5nc(c(-c6ccc(S(=O)(=O)[O-])cc6)c6ccc3[nH]6)C=C5)C=C4)cc1)[C@H](C(F)(F)F)O2
REMARK SMILES IDX 16 1 15 2 14 3 13 4 11 5 12 6 10 8 3 9 4 10 8 11 5 12 7 13
REMARK SMILES IDX 6 14 9 15 86 16 81 17 2 18 1 19 82 20 83 21 84 22 85 23
REMARK SMILES IDX 17 24 18 25 19 26 20 28 21 29 22 30 80 31 23 32 79 33 24 34
REMARK SMILES IDX 25 35 26 36 73 37 27 38 78 39 72 40 74 41 28 42 77 43 71 44
REMARK SMILES IDX 70 45 29 47 59 48 40 49 58 50 41 51 44 52 57 53 75 54 42 55
REMARK SMILES IDX 43 56 56 58 76 59 45 60 30 61 31 62 39 63 32 64 38 65 33 66
REMARK SMILES IDX 34 67 35 68 36 69 37 70 60 71 61 72 69 73 62 74 68 75 63 76
REMARK SMILES IDX 64 77 65 78 66 79 67 80 46 81 47 82 55 83 48 84 54 85 49 86
REMARK SMILES IDX 50 87 51 88 52 89 53 90
REMARK H PARENT 13 7 18 27 74 46 44 57
REMARK Flexibility Score: inf
ROOT
ATOM      1  C   UNL A   1      31.980  27.904  27.004  1.00  0.00     0.023 C 
ENDROOT
BRANCH   1   2
ATOM      2  C   UNL A   1      31.968  27.536  25.517  1.00  0.00     0.023 C 
BRANCH   2   3
ATOM      3  C   UNL A   1      33.352  27.237  24.927  1.00  0.00     0.116 C 
BRANCH   3   4
ATOM      4  N   UNL A   1      33.272  27.132  23.480  1.00  0.00    -0.352 N 
ATOM      5  C   UNL A   1      33.506  26.105  22.620  1.00  0.00     0.251 C 
ATOM      6  O   UNL A   1      33.487  26.342  21.414  1.00  0.00    -0.270 OA
ATOM      7  H   UNL A   1      32.994  27.966  23.036  1.00  0.00     0.163 HD
BRANCH   5   8
ATOM      8  C   UNL A   1      33.715  24.702  23.069  1.00  0.00     0.067 C 
ATOM      9  C   UNL A   1      36.334  21.088  24.904  1.00  0.00     0.119 A 
ATOM     10  C   UNL A   1      35.208  20.267  24.931  1.00  0.00     0.050 A 
ATOM     11  C   UNL A   1      36.241  22.391  24.422  1.00  0.00     0.058 A 
ATOM     12  C   UNL A   1      33.988  20.752  24.451  1.00  0.00     0.051 A 
ATOM     13  C   UNL A   1      35.020  22.872  23.936  1.00  0.00     0.021 A 
ATOM     14  C   UNL A   1      33.897  22.053  23.952  1.00  0.00     0.128 A 
ATOM     15  C   UNL A   1      34.902  24.247  23.490  1.00  0.00     0.025 C 
ATOM     16  O   UNL A   1      32.662  22.471  23.558  1.00  0.00    -0.475 OA
ATOM     17  C   UNL A   1      32.537  23.752  22.865  1.00  0.00     0.314 C 
BRANCH   9  18
ATOM     18  O   UNL A   1      37.539  20.709  25.428  1.00  0.00    -0.497 OA
ATOM     19  C   UNL A   1      38.382  21.824  25.707  1.00  0.00     0.278 C 
ENDBRANCH   9  18
BRANCH  17  20
ATOM     20  C   UNL A   1      31.141  24.321  23.211  1.00  0.00     0.429 C 
ATOM     21  F   UNL A   1      31.070  24.819  24.464  1.00  0.00    -0.167 F 
ATOM     22  F   UNL A   1      30.825  25.361  22.391  1.00  0.00    -0.167 F 
ATOM     23  F   UNL A   1      30.159  23.400  23.065  1.00  0.00    -0.167 F 
ENDBRANCH  17  20
ENDBRANCH   5   8
ENDBRANCH   3   4
ENDBRANCH   2   3
ENDBRANCH   1   2
BRANCH   1  24
ATOM     24  C   UNL A   1      33.292  28.500  27.498  1.00  0.00     0.116 C 
BRANCH  24  25
ATOM     25  N   UNL A   1      33.273  29.953  27.561  1.00  0.00    -0.352 N 
ATOM     26  C   UNL A   1      34.295  30.801  27.924  1.00  0.00     0.251 C 
ATOM     27  H   UNL A   1      32.422  30.384  27.314  1.00  0.00     0.163 HD
ATOM     28  O   UNL A   1      34.097  32.002  28.030  1.00  0.00    -0.269 OA
BRANCH  26  29
ATOM     29  C   UNL A   1      35.621  30.224  28.228  1.00  0.00     0.039 A 
ATOM     30  C   UNL A   1      36.587  30.186  27.221  1.00  0.00     0.014 A 
ATOM     31  C   UNL A   1      35.920  29.776  29.517  1.00  0.00     0.014 A 
ATOM     32  C   UNL A   1      37.882  29.763  27.526  1.00  0.00     0.010 A 
ATOM     33  C   UNL A   1      37.224  29.416  29.833  1.00  0.00     0.010 A 
ATOM     34  C   UNL A   1      38.218  29.410  28.842  1.00  0.00    -0.014 A 
BRANCH  34  35
ATOM     35  C   UNL A   1      39.602  29.031  29.215  1.00  0.00     0.031 A 
ATOM     36  C   UNL A   1      40.492  30.029  29.901  1.00  0.00     0.074 A 
ATOM     37  C   UNL A   1      40.083  27.823  28.860  1.00  0.00     0.049 A 
ATOM     38  N   UNL A   1      41.757  29.928  30.215  1.00  0.00    -0.248 NA
ATOM     39  C   UNL A   1      39.883  31.322  30.256  1.00  0.00     0.031 C 
ATOM     40  C   UNL A   1      39.328  26.778  28.165  1.00  0.00     0.029 A 
ATOM     41  N   UNL A   1      41.331  27.276  29.025  1.00  0.00    -0.354 N 
ATOM     42  C   UNL A   1      42.105  31.151  30.775  1.00  0.00     0.074 A 
ATOM     43  C   UNL A   1      40.927  31.990  30.724  1.00  0.00     0.031 C 
ATOM     44  C   UNL A   1      40.120  25.708  27.988  1.00  0.00     0.029 A 
ATOM     45  C   UNL A   1      41.448  26.004  28.517  1.00  0.00     0.049 A 
ATOM     46  H   UNL A   1      42.074  27.750  29.466  1.00  0.00     0.167 HD
ATOM     47  C   UNL A   1      43.293  31.538  31.298  1.00  0.00     0.031 A 
ATOM     48  C   UNL A   1      42.507  25.173  28.476  1.00  0.00     0.031 A 
ATOM     49  C   UNL A   1      44.455  30.694  31.364  1.00  0.00     0.049 A 
ATOM     50  C   UNL A   1      43.819  25.625  29.054  1.00  0.00     0.074 A 
ATOM     51  C   UNL A   1      45.687  30.969  31.930  1.00  0.00     0.029 A 
ATOM     52  N   UNL A   1      44.529  29.409  30.846  1.00  0.00    -0.354 N 
ATOM     53  N   UNL A   1      44.113  26.766  29.631  1.00  0.00    -0.248 NA
ATOM     54  C   UNL A   1      44.939  24.678  28.980  1.00  0.00     0.031 C 
ATOM     55  C   UNL A   1      46.519  29.864  31.719  1.00  0.00     0.029 A 
ATOM     56  C   UNL A   1      45.791  28.885  31.062  1.00  0.00     0.049 A 
ATOM     57  H   UNL A   1      43.792  28.941  30.392  1.00  0.00     0.167 HD
ATOM     58  C   UNL A   1      45.445  26.661  30.016  1.00  0.00     0.074 A 
ATOM     59  C   UNL A   1      45.896  25.346  29.610  1.00  0.00     0.031 C 
ATOM     60  C   UNL A   1      46.220  27.570  30.657  1.00  0.00     0.031 A 
BRANCH  47  61
ATOM     61  C   UNL A   1      43.388  32.945  31.822  1.00  0.00    -0.014 A 
ATOM     62  C   UNL A   1      43.778  34.007  30.985  1.00  0.00     0.010 A 
ATOM     63  C   UNL A   1      43.086  33.210  33.168  1.00  0.00     0.010 A 
ATOM     64  C   UNL A   1      43.922  35.298  31.501  1.00  0.00     0.020 A 
ATOM     65  C   UNL A   1      43.202  34.504  33.683  1.00  0.00     0.020 A 
ATOM     66  C   UNL A   1      43.645  35.535  32.850  1.00  0.00     0.054 A 
BRANCH  66  67
ATOM     67  S   UNL A   1      43.855  37.215  33.502  1.00  0.00     0.124 S 
ATOM     68  O   UNL A   1      45.068  37.075  34.302  1.00  0.00    -0.237 OA
ATOM     69  O   UNL A   1      43.992  38.018  32.290  1.00  0.00    -0.237 OA
ATOM     70  O   UNL A   1      42.630  37.446  34.262  1.00  0.00    -0.744 OA
ENDBRANCH  66  67
ENDBRANCH  47  61
BRANCH  48  71
ATOM     71  C   UNL A   1      42.358  23.812  27.893  1.00  0.00    -0.014 A 
ATOM     72  C   UNL A   1      42.665  23.590  26.540  1.00  0.00     0.010 A 
ATOM     73  C   UNL A   1      41.936  22.731  28.688  1.00  0.00     0.010 A 
ATOM     74  C   UNL A   1      42.543  22.311  25.987  1.00  0.00     0.020 A 
ATOM     75  C   UNL A   1      41.834  21.448  28.143  1.00  0.00     0.020 A 
ATOM     76  C   UNL A   1      42.130  21.248  26.792  1.00  0.00     0.054 A 
BRANCH  76  77
ATOM     77  S   UNL A   1      42.040  19.586  26.069  1.00  0.00     0.124 S 
ATOM     78  O   UNL A   1      40.627  19.485  25.717  1.00  0.00    -0.237 OA
ATOM     79  O   UNL A   1      42.966  19.680  24.943  1.00  0.00    -0.237 OA
ATOM     80  O   UNL A   1      42.481  18.717  27.157  1.00  0.00    -0.744 OA
ENDBRANCH  76  77
ENDBRANCH  48  71
BRANCH  60  81
ATOM     81  C   UNL A   1      47.627  27.164  30.999  1.00  0.00    -0.014 A 
ATOM     82  C   UNL A   1      47.916  26.473  32.188  1.00  0.00     0.010 A 
ATOM     83  C   UNL A   1      48.660  27.411  30.076  1.00  0.00     0.010 A 
ATOM     84  C   UNL A   1      49.220  26.047  32.454  1.00  0.00     0.020 A 
ATOM     85  C   UNL A   1      49.960  26.968  30.330  1.00  0.00     0.020 A 
ATOM     86  C   UNL A   1      50.233  26.295  31.522  1.00  0.00     0.054 A 
BRANCH  86  87
ATOM     87  S   UNL A   1      51.902  25.669  31.856  1.00  0.00     0.124 S 
ATOM     88  O   UNL A   1      52.607  26.009  30.623  1.00  0.00    -0.237 OA
ATOM     89  O   UNL A   1      52.303  26.430  33.038  1.00  0.00    -0.237 OA
ATOM     90  O   UNL A   1      51.697  24.240  32.084  1.00  0.00    -0.744 OA
ENDBRANCH  86  87
ENDBRANCH  60  81
ENDBRANCH  34  35
ENDBRANCH  26  29
ENDBRANCH  24  25
ENDBRANCH   1  24
TORSDOF 16
ENDMDL
MODEL 2
REMARK VINA RESULT:     -11.3      2.659      9.117
REMARK SMILES COc1ccc2c(c1)C=C(C(=O)NCCCCNC(=O)c1ccc(-c3c4nc(c(-c5ccc(S(=O)(=O)[O-])cc5)c5ccc([nH]5)c(-c5ccc(S(=O)(=O)[O-])cc5)c5nc(c(-c6ccc(S(=O)(=O)[O-])cc6)c6ccc3[nH]6)C=C5)C=C4)cc1)[C@H](C(F)(F)F)O2
REMARK SMILES IDX 16 1 15 2 14 3 13 4 11 5 12 6 10 8 3 9 4 10 8 11 5 12 7 13
REMARK SMILES IDX 6 14 9 15 86 16 81 17 2 18 1 19 82 20 83 21 84 22 85 23
REMARK SMILES IDX 17 24 18 25 19 26 20 28 21 29 22 30 80 31 23 32 79 33 24 34
REMARK SMILES IDX 25 35 26 36 73 37 27 38 78 39 72 40 74 41 28 42 77 43 71 44
REMARK SMILES IDX 70 45 29 47 59 48 40 49 58 50 41 51 44 52 57 53 75 54 42 55
REMARK SMILES IDX 43 56 56 58 76 59 45 60 30 61 31 62 39 63 32 64 38 65 33 66
REMARK SMILES IDX 34 67 35 68 36 69 37 70 60 71 61 72 69 73 62 74 68 75 63 76
REMARK SMILES IDX 64 77 65 78 66 79 67 80 46 81 47 82 55 83 48 84 54 85 49 86
REMARK SMILES IDX 50 87 51 88 52 89 53 90
REMARK H PARENT 13 7 18 27 74 46 44 57
REMARK Flexibility Score: inf
ROOT
ATOM      1  C   UNL A   1      35.894  23.548  26.155  1.00  0.00     0.023 C 
ENDROOT
BRANCH   1   2
ATOM      2  C   UNL A   1      35.289  22.145  26.247  1.00  0.00     0.023 C 
BRANCH   2   3
ATOM      3  C   UNL A   1      34.193  21.996  27.309  1.00  0.00     0.116 C 
BRANCH   3   4
ATOM      4  N   UNL A   1      32.936  21.614  26.688  1.00  0.00    -0.352 N 
ATOM      5  C   UNL A   1      32.068  22.285  25.884  1.00  0.00     0.251 C 
ATOM      6  O   UNL A   1      30.997  21.748  25.609  1.00  0.00    -0.270 OA
ATOM      7  H   UNL A   1      32.659  20.690  26.886  1.00  0.00     0.163 HD
BRANCH   5   8
ATOM      8  C   UNL A   1      32.384  23.604  25.272  1.00  0.00     0.067 C 
ATOM      9  C   UNL A   1      33.480  28.301  25.433  1.00  0.00     0.119 A 
ATOM     10  C   UNL A   1      33.662  28.320  24.052  1.00  0.00     0.050 A 
ATOM     11  C   UNL A   1      33.105  27.123  26.076  1.00  0.00     0.058 A 
ATOM     12  C   UNL A   1      33.444  27.155  23.311  1.00  0.00     0.051 A 
ATOM     13  C   UNL A   1      32.882  25.960  25.330  1.00  0.00     0.021 A 
ATOM     14  C   UNL A   1      33.051  25.978  23.950  1.00  0.00     0.128 A 
ATOM     15  C   UNL A   1      32.551  24.717  25.999  1.00  0.00     0.025 C 
ATOM     16  O   UNL A   1      32.917  24.872  23.167  1.00  0.00    -0.475 OA
ATOM     17  C   UNL A   1      32.340  23.661  23.748  1.00  0.00     0.314 C 
BRANCH   9  18
ATOM     18  O   UNL A   1      33.750  29.378  26.231  1.00  0.00    -0.497 OA
ATOM     19  C   UNL A   1      34.670  29.064  27.273  1.00  0.00     0.278 C 
ENDBRANCH   9  18
BRANCH  17  20
ATOM     20  C   UNL A   1      32.969  22.459  23.006  1.00  0.00     0.429 C 
ATOM     21  F   UNL A   1      33.283  22.736  21.722  1.00  0.00    -0.167 F 
ATOM     22  F   UNL A   1      34.142  22.089  23.591  1.00  0.00    -0.167 F 
ATOM     23  F   UNL A   1      32.168  21.367  23.021  1.00  0.00    -0.167 F 
ENDBRANCH  17  20
ENDBRANCH   5   8
ENDBRANCH   3   4
ENDBRANCH   2   3
ENDBRANCH   1   2
BRANCH   1  24
ATOM     24  C   UNL A   1      37.059  23.674  25.181  1.00  0.00     0.116 C 
BRANCH  24  25
ATOM     25  N   UNL A   1      38.124  22.717  25.436  1.00  0.00    -0.352 N 
ATOM     26  C   UNL A   1      39.298  22.918  26.127  1.00  0.00     0.251 C 
ATOM     27  H   UNL A   1      37.989  21.813  25.069  1.00  0.00     0.163 HD
ATOM     28  O   UNL A   1      40.150  22.043  26.171  1.00  0.00    -0.269 OA
BRANCH  26  29
ATOM     29  C   UNL A   1      39.526  24.228  26.773  1.00  0.00     0.039 A 
ATOM     30  C   UNL A   1      39.077  24.422  28.080  1.00  0.00     0.014 A 
ATOM     31  C   UNL A   1      40.229  25.234  26.106  1.00  0.00     0.014 A 
ATOM     32  C   UNL A   1      39.395  25.605  28.748  1.00  0.00     0.010 A 
ATOM     33  C   UNL A   1      40.599  26.383  26.793  1.00  0.00     0.010 A 
ATOM     34  C   UNL A   1      40.190  26.578  28.121  1.00  0.00    -0.014 A 
BRANCH  34  35
ATOM     35  C   UNL A   1      40.611  27.811  28.829  1.00  0.00     0.031 A 
ATOM     36  C   UNL A   1      41.966  27.875  29.477  1.00  0.00     0.074 A 
ATOM     37  C   UNL A   1      39.745  28.834  28.963  1.00  0.00     0.049 A 
ATOM     38  N   UNL A   1      42.479  28.817  30.225  1.00  0.00    -0.248 NA
ATOM     39  C   UNL A   1      42.849  26.714  29.277  1.00  0.00     0.031 C 
ATOM     40  C   UNL A   1      38.392  28.881  28.405  1.00  0.00     0.029 A 
ATOM     41  N   UNL A   1      39.872  30.031  29.623  1.00  0.00    -0.354 N 
ATOM     42  C   UNL A   1      43.729  28.351  30.612  1.00  0.00     0.074 A 
ATOM     43  C   UNL A   1      43.882  27.028  30.046  1.00  0.00     0.031 C 
ATOM     44  C   UNL A   1      37.825  30.056  28.723  1.00  0.00     0.029 A 
ATOM     45  C   UNL A   1      38.755  30.828  29.542  1.00  0.00     0.049 A 
ATOM     46  H   UNL A   1      40.688  30.294  30.109  1.00  0.00     0.167 HD
ATOM     47  C   UNL A   1      44.673  28.972  31.360  1.00  0.00     0.031 A 
ATOM     48  C   UNL A   1      38.506  32.041  30.072  1.00  0.00     0.031 A 
ATOM     49  C   UNL A   1      44.524  30.294  31.905  1.00  0.00     0.049 A 
ATOM     50  C   UNL A   1      39.564  32.710  30.906  1.00  0.00     0.074 A 
ATOM     51  C   UNL A   1      45.444  31.038  32.622  1.00  0.00     0.029 A 
ATOM     52  N   UNL A   1      43.380  31.071  31.792  1.00  0.00    -0.354 N 
ATOM     53  N   UNL A   1      40.763  32.277  31.214  1.00  0.00    -0.248 NA
ATOM     54  C   UNL A   1      39.236  34.030  31.460  1.00  0.00     0.031 C 
ATOM     55  C   UNL A   1      44.841  32.250  32.978  1.00  0.00     0.029 A 
ATOM     56  C   UNL A   1      43.564  32.278  32.443  1.00  0.00     0.049 A 
ATOM     57  H   UNL A   1      42.560  30.802  31.319  1.00  0.00     0.167 HD
ATOM     58  C   UNL A   1      41.345  33.286  31.972  1.00  0.00     0.074 A 
ATOM     59  C   UNL A   1      40.368  34.351  32.073  1.00  0.00     0.031 C 
ATOM     60  C   UNL A   1      42.581  33.330  32.527  1.00  0.00     0.031 A 
BRANCH  47  61
ATOM     61  C   UNL A   1      45.939  28.211  31.640  1.00  0.00    -0.014 A 
ATOM     62  C   UNL A   1      47.021  28.244  30.740  1.00  0.00     0.010 A 
ATOM     63  C   UNL A   1      46.051  27.450  32.816  1.00  0.00     0.010 A 
ATOM     64  C   UNL A   1      48.167  27.483  30.984  1.00  0.00     0.020 A 
ATOM     65  C   UNL A   1      47.206  26.708  33.078  1.00  0.00     0.020 A 
ATOM     66  C   UNL A   1      48.246  26.709  32.146  1.00  0.00     0.054 A 
BRANCH  66  67
ATOM     67  S   UNL A   1      49.737  25.715  32.433  1.00  0.00     0.124 S 
ATOM     68  O   UNL A   1      49.241  24.694  33.352  1.00  0.00    -0.237 OA
ATOM     69  O   UNL A   1      50.073  25.241  31.092  1.00  0.00    -0.237 OA
ATOM     70  O   UNL A   1      50.682  26.668  33.008  1.00  0.00    -0.744 OA
ENDBRANCH  66  67
ENDBRANCH  47  61
BRANCH  48  71
ATOM     71  C   UNL A   1      37.209  32.716  29.800  1.00  0.00    -0.014 A 
ATOM     72  C   UNL A   1      36.217  32.758  30.794  1.00  0.00     0.010 A 
ATOM     73  C   UNL A   1      36.967  33.339  28.563  1.00  0.00     0.010 A 
ATOM     74  C   UNL A   1      35.000  33.403  30.554  1.00  0.00     0.020 A 
ATOM     75  C   UNL A   1      35.760  34.003  28.327  1.00  0.00     0.020 A 
ATOM     76  C   UNL A   1      34.780  34.024  29.322  1.00  0.00     0.054 A 
BRANCH  76  77
ATOM     77  S   UNL A   1      33.219  34.909  29.056  1.00  0.00     0.124 S 
ATOM     78  O   UNL A   1      33.685  36.227  28.639  1.00  0.00    -0.237 OA
ATOM     79  O   UNL A   1      32.574  34.109  28.016  1.00  0.00    -0.237 OA
ATOM     80  O   UNL A   1      32.569  34.856  30.363  1.00  0.00    -0.744 OA
ENDBRANCH  76  77
ENDBRANCH  48  71
BRANCH  60  81
ATOM     81  C   UNL A   1      42.970  34.584  33.260  1.00  0.00    -0.014 A 
ATOM     82  C   UNL A   1      42.821  34.686  34.654  1.00  0.00     0.010 A 
ATOM     83  C   UNL A   1      43.565  35.642  32.550  1.00  0.00     0.010 A 
ATOM     84  C   UNL A   1      43.250  35.835  35.324  1.00  0.00     0.020 A 
ATOM     85  C   UNL A   1      44.014  36.783  33.219  1.00  0.00     0.020 A 
ATOM     86  C   UNL A   1      43.846  36.875  34.602  1.00  0.00     0.054 A 
BRANCH  86  87
ATOM     87  S   UNL A   1      44.461  38.325  35.503  1.00  0.00     0.124 S 
ATOM     88  O   UNL A   1      45.908  38.145  35.416  1.00  0.00    -0.237 OA
ATOM     89  O   UNL A   1      43.919  39.440  34.729  1.00  0.00    -0.237 OA
ATOM     90  O   UNL A   1      43.892  38.169  36.840  1.00  0.00    -0.744 OA
ENDBRANCH  86  87
ENDBRANCH  60  81
ENDBRANCH  34  35
ENDBRANCH  26  29
ENDBRANCH  24  25
ENDBRANCH   1  24
TORSDOF 16
ENDMDL
MODEL 3
REMARK VINA RESULT:     -11.1      3.365      5.185
REMARK SMILES COc1ccc2c(c1)C=C(C(=O)NCCCCNC(=O)c1ccc(-c3c4nc(c(-c5ccc(S(=O)(=O)[O-])cc5)c5ccc([nH]5)c(-c5ccc(S(=O)(=O)[O-])cc5)c5nc(c(-c6ccc(S(=O)(=O)[O-])cc6)c6ccc3[nH]6)C=C5)C=C4)cc1)[C@H](C(F)(F)F)O2
REMARK SMILES IDX 16 1 15 2 14 3 13 4 11 5 12 6 10 8 3 9 4 10 8 11 5 12 7 13
REMARK SMILES IDX 6 14 9 15 86 16 81 17 2 18 1 19 82 20 83 21 84 22 85 23
REMARK SMILES IDX 17 24 18 25 19 26 20 28 21 29 22 30 80 31 23 32 79 33 24 34
REMARK SMILES IDX 25 35 26 36 73 37 27 38 78 39 72 40 74 41 28 42 77 43 71 44
REMARK SMILES IDX 70 45 29 47 59 48 40 49 58 50 41 51 44 52 57 53 75 54 42 55
REMARK SMILES IDX 43 56 56 58 76 59 45 60 30 61 31 62 39 63 32 64 38 65 33 66
REMARK SMILES IDX 34 67 35 68 36 69 37 70 60 71 61 72 69 73 62 74 68 75 63 76
REMARK SMILES IDX 64 77 65 78 66 79 67 80 46 81 47 82 55 83 48 84 54 85 49 86
REMARK SMILES IDX 50 87 51 88 52 89 53 90
REMARK H PARENT 13 7 18 27 74 46 44 57
REMARK Flexibility Score: inf
ROOT
ATOM      1  C   UNL A   1      33.888  29.407  26.742  1.00  0.00     0.023 C 
ENDROOT
BRANCH   1   2
ATOM      2  C   UNL A   1      33.025  28.268  27.293  1.00  0.00     0.023 C 
BRANCH   2   3
ATOM      3  C   UNL A   1      33.125  26.958  26.502  1.00  0.00     0.116 C 
BRANCH   3   4
ATOM      4  N   UNL A   1      33.707  27.202  25.193  1.00  0.00    -0.352 N 
ATOM      5  C   UNL A   1      33.157  27.491  23.983  1.00  0.00     0.251 C 
ATOM      6  O   UNL A   1      33.895  27.517  23.001  1.00  0.00    -0.270 OA
ATOM      7  H   UNL A   1      34.690  27.148  25.179  1.00  0.00     0.163 HD
BRANCH   5   8
ATOM      8  C   UNL A   1      31.721  27.842  23.808  1.00  0.00     0.067 C 
ATOM      9  C   UNL A   1      28.058  30.933  23.244  1.00  0.00     0.119 A 
ATOM     10  C   UNL A   1      27.176  29.872  23.048  1.00  0.00     0.050 A 
ATOM     11  C   UNL A   1      29.406  30.687  23.493  1.00  0.00     0.058 A 
ATOM     12  C   UNL A   1      27.647  28.558  23.126  1.00  0.00     0.051 A 
ATOM     13  C   UNL A   1      29.873  29.371  23.576  1.00  0.00     0.021 A 
ATOM     14  C   UNL A   1      28.994  28.310  23.392  1.00  0.00     0.128 A 
ATOM     15  C   UNL A   1      31.286  29.109  23.775  1.00  0.00     0.025 C 
ATOM     16  O   UNL A   1      29.387  27.005  23.393  1.00  0.00    -0.475 OA
ATOM     17  C   UNL A   1      30.739  26.675  23.839  1.00  0.00     0.314 C 
BRANCH   9  18
ATOM     18  O   UNL A   1      27.686  32.241  23.105  1.00  0.00    -0.497 OA
ATOM     19  C   UNL A   1      28.781  33.081  22.752  1.00  0.00     0.278 C 
ENDBRANCH   9  18
BRANCH  17  20
ATOM     20  C   UNL A   1      31.172  25.405  23.070  1.00  0.00     0.429 C 
ATOM     21  F   UNL A   1      32.176  24.737  23.679  1.00  0.00    -0.167 F 
ATOM     22  F   UNL A   1      30.146  24.515  22.986  1.00  0.00    -0.167 F 
ATOM     23  F   UNL A   1      31.554  25.676  21.800  1.00  0.00    -0.167 F 
ENDBRANCH  17  20
ENDBRANCH   5   8
ENDBRANCH   3   4
ENDBRANCH   2   3
ENDBRANCH   1   2
BRANCH   1  24
ATOM     24  C   UNL A   1      35.260  29.534  27.392  1.00  0.00     0.116 C 
BRANCH  24  25
ATOM     25  N   UNL A   1      35.209  30.107  28.728  1.00  0.00    -0.352 N 
ATOM     26  C   UNL A   1      36.202  30.125  29.683  1.00  0.00     0.251 C 
ATOM     27  H   UNL A   1      34.359  30.535  28.982  1.00  0.00     0.163 HD
ATOM     28  O   UNL A   1      35.976  30.555  30.804  1.00  0.00    -0.269 OA
BRANCH  26  29
ATOM     29  C   UNL A   1      37.528  29.572  29.338  1.00  0.00     0.039 A 
ATOM     30  C   UNL A   1      37.992  29.701  28.027  1.00  0.00     0.014 A 
ATOM     31  C   UNL A   1      38.326  28.980  30.319  1.00  0.00     0.014 A 
ATOM     32  C   UNL A   1      39.292  29.299  27.715  1.00  0.00     0.010 A 
ATOM     33  C   UNL A   1      39.640  28.639  30.022  1.00  0.00     0.010 A 
ATOM     34  C   UNL A   1      40.136  28.799  28.719  1.00  0.00    -0.014 A 
BRANCH  34  35
ATOM     35  C   UNL A   1      41.546  28.435  28.438  1.00  0.00     0.031 A 
ATOM     36  C   UNL A   1      42.609  29.498  28.451  1.00  0.00     0.074 A 
ATOM     37  C   UNL A   1      41.853  27.171  28.086  1.00  0.00     0.049 A 
ATOM     38  N   UNL A   1      43.874  29.404  28.133  1.00  0.00    -0.248 NA
ATOM     39  C   UNL A   1      42.186  30.850  28.850  1.00  0.00     0.031 C 
ATOM     40  C   UNL A   1      40.906  26.057  28.009  1.00  0.00     0.029 A 
ATOM     41  N   UNL A   1      43.051  26.614  27.717  1.00  0.00    -0.354 N 
ATOM     42  C   UNL A   1      44.391  30.687  28.262  1.00  0.00     0.074 A 
ATOM     43  C   UNL A   1      43.295  31.548  28.652  1.00  0.00     0.031 C 
ATOM     44  C   UNL A   1      41.565  24.945  27.642  1.00  0.00     0.029 A 
ATOM     45  C   UNL A   1      42.969  25.274  27.418  1.00  0.00     0.049 A 
ATOM     46  H   UNL A   1      43.892  27.126  27.670  1.00  0.00     0.167 HD
ATOM     47  C   UNL A   1      45.666  31.110  28.086  1.00  0.00     0.031 A 
ATOM     48  C   UNL A   1      43.916  24.411  27.004  1.00  0.00     0.031 A 
ATOM     49  C   UNL A   1      46.755  30.247  27.717  1.00  0.00     0.049 A 
ATOM     50  C   UNL A   1      45.323  24.903  26.806  1.00  0.00     0.074 A 
ATOM     51  C   UNL A   1      48.094  30.565  27.575  1.00  0.00     0.029 A 
ATOM     52  N   UNL A   1      46.631  28.895  27.433  1.00  0.00    -0.354 N 
ATOM     53  N   UNL A   1      45.806  26.110  26.988  1.00  0.00    -0.248 NA
ATOM     54  C   UNL A   1      46.314  23.918  26.352  1.00  0.00     0.031 C 
ATOM     55  C   UNL A   1      48.773  29.412  27.165  1.00  0.00     0.029 A 
ATOM     56  C   UNL A   1      47.865  28.368  27.097  1.00  0.00     0.049 A 
ATOM     57  H   UNL A   1      45.788  28.387  27.465  1.00  0.00     0.167 HD
ATOM     58  C   UNL A   1      47.162  26.020  26.701  1.00  0.00     0.074 A 
ATOM     59  C   UNL A   1      47.424  24.643  26.336  1.00  0.00     0.031 C 
ATOM     60  C   UNL A   1      48.108  26.991  26.744  1.00  0.00     0.031 A 
BRANCH  47  61
ATOM     61  C   UNL A   1      45.936  32.577  28.276  1.00  0.00    -0.014 A 
ATOM     62  C   UNL A   1      46.276  33.095  29.540  1.00  0.00     0.010 A 
ATOM     63  C   UNL A   1      45.847  33.451  27.179  1.00  0.00     0.010 A 
ATOM     64  C   UNL A   1      46.463  34.469  29.714  1.00  0.00     0.020 A 
ATOM     65  C   UNL A   1      46.059  34.823  27.343  1.00  0.00     0.020 A 
ATOM     66  C   UNL A   1      46.341  35.325  28.615  1.00  0.00     0.054 A 
BRANCH  66  67
ATOM     67  S   UNL A   1      46.571  37.108  28.868  1.00  0.00     0.124 S 
ATOM     68  O   UNL A   1      45.215  37.613  28.676  1.00  0.00    -0.237 OA
ATOM     69  O   UNL A   1      47.079  37.177  30.236  1.00  0.00    -0.237 OA
ATOM     70  O   UNL A   1      47.530  37.482  27.832  1.00  0.00    -0.744 OA
ENDBRANCH  66  67
ENDBRANCH  47  61
BRANCH  48  71
ATOM     71  C   UNL A   1      43.569  22.982  26.781  1.00  0.00    -0.014 A 
ATOM     72  C   UNL A   1      43.895  22.361  25.563  1.00  0.00     0.010 A 
ATOM     73  C   UNL A   1      42.938  22.229  27.787  1.00  0.00     0.010 A 
ATOM     74  C   UNL A   1      43.586  21.014  25.350  1.00  0.00     0.020 A 
ATOM     75  C   UNL A   1      42.648  20.877  27.585  1.00  0.00     0.020 A 
ATOM     76  C   UNL A   1      42.966  20.280  26.363  1.00  0.00     0.054 A 
BRANCH  76  77
ATOM     77  S   UNL A   1      42.633  18.518  26.088  1.00  0.00     0.124 S 
ATOM     78  O   UNL A   1      41.213  18.527  25.752  1.00  0.00    -0.237 OA
ATOM     79  O   UNL A   1      43.541  18.191  24.990  1.00  0.00    -0.237 OA
ATOM     80  O   UNL A   1      42.972  17.903  27.369  1.00  0.00    -0.744 OA
ENDBRANCH  76  77
ENDBRANCH  48  71
BRANCH  60  81
ATOM     81  C   UNL A   1      49.524  26.596  26.428  1.00  0.00    -0.014 A 
ATOM     82  C   UNL A   1      50.030  26.688  25.121  1.00  0.00     0.010 A 
ATOM     83  C   UNL A   1      50.380  26.204  27.474  1.00  0.00     0.010 A 
ATOM     84  C   UNL A   1      51.368  26.380  24.861  1.00  0.00     0.020 A 
ATOM     85  C   UNL A   1      51.723  25.915  27.221  1.00  0.00     0.020 A 
ATOM     86  C   UNL A   1      52.207  25.997  25.914  1.00  0.00     0.054 A 
BRANCH  86  87
ATOM     87  S   UNL A   1      53.957  25.672  25.565  1.00  0.00     0.124 S 
ATOM     88  O   UNL A   1      53.888  24.990  24.276  1.00  0.00    -0.237 OA
ATOM     89  O   UNL A   1      54.535  27.014  25.535  1.00  0.00    -0.237 OA
ATOM     90  O   UNL A   1      54.385  24.841  26.688  1.00  0.00    -0.744 OA
ENDBRANCH  86  87
ENDBRANCH  60  81
ENDBRANCH  34  35
ENDBRANCH  26  29
ENDBRANCH  24  25
ENDBRANCH   1  24
TORSDOF 16
ENDMDL
