MODEL 1
REMARK VINA RESULT:     -12.9      0.000      0.000
REMARK SMILES Cc1ccc(S(=O)(=O)n2cc(C(=O)C(=O)N[C@@H](Cc3c[nH]c4ccccc34)C(=O)NCCCCNC(=O)c3ccc(-c4c5nc(c(-c6ccc(S(=O)(=O)[O-])cc6)c6ccc([nH]6)c(-c6ccc(S(=O)(=O)[O-])cc6)c6nc(c(-c7ccc(S(=O)(=O)[O-])cc7)c7ccc4[nH]7)C=C6)C=C5)cc3)c3ccccc32)cc1
REMARK SMILES IDX 31 1 30 2 28 3 29 4 17 6 16 7 14 8 15 9 12 11 13 12 11 13
REMARK SMILES IDX 9 14 10 15 103 16 98 17 102 18 99 19 101 20 100 21 6 22 7 23
REMARK SMILES IDX 8 24 5 25 1 26 2 27 3 28 105 29 4 30 104 31 18 32 19 33
REMARK SMILES IDX 20 34 27 35 21 36 22 37 26 38 23 40 25 41 24 42 32 43 33 44
REMARK SMILES IDX 34 45 35 46 36 47 37 49 38 50 39 51 97 52 40 53 96 54 41 55
REMARK SMILES IDX 42 56 43 57 90 58 44 59 95 60 89 61 91 62 45 63 94 64 88 65
REMARK SMILES IDX 87 66 46 68 76 69 57 70 75 71 58 72 61 73 74 74 92 75 59 76
REMARK SMILES IDX 60 77 73 79 93 80 62 81 47 82 48 83 56 84 49 85 55 86 50 87
REMARK SMILES IDX 51 88 52 89 53 90 54 91 77 92 78 93 86 94 79 95 85 96 80 97
REMARK SMILES IDX 81 98 82 99 83 100 84 101 63 102 64 103 72 104 65 105 71 106
REMARK SMILES IDX 66 107 67 108 68 109 69 110 70 111
REMARK H PARENT 30 5 16 10 21 39 35 48 91 67 61 78
REMARK Flexibility Score: inf
ROOT
ATOM      1  C   UNL A   1      32.226  26.974  26.521  1.00  0.00     0.116 C 
ENDROOT
BRANCH   1   2
ATOM      2  N   UNL A   1      31.465  25.801  26.903  1.00  0.00    -0.354 N 
ATOM      3  C   UNL A   1      30.993  24.797  26.096  1.00  0.00     0.242 C 
ATOM      4  O   UNL A   1      30.888  23.676  26.612  1.00  0.00    -0.273 OA
ATOM      5  H   UNL A   1      31.261  25.714  27.862  1.00  0.00     0.163 HD
BRANCH   3   6
ATOM      6  C   UNL A   1      30.694  24.974  24.576  1.00  0.00     0.176 C 
BRANCH   6   7
ATOM      7  N   UNL A   1      30.546  23.711  23.814  1.00  0.00    -0.337 N 
ATOM      8  C   UNL A   1      31.405  23.073  22.930  1.00  0.00     0.293 C 
ATOM      9  O   UNL A   1      31.039  22.080  22.306  1.00  0.00    -0.265 OA
ATOM     10  H   UNL A   1      29.691  23.245  23.960  1.00  0.00     0.164 HD
BRANCH   8  11
ATOM     11  C   UNL A   1      32.838  23.577  22.728  1.00  0.00     0.252 C 
ATOM     12  O   UNL A   1      33.142  23.881  21.576  1.00  0.00    -0.283 OA
BRANCH  11  13
ATOM     13  C   UNL A   1      33.840  23.610  23.817  1.00  0.00     0.054 A 
ATOM     14  N   UNL A   1      35.522  24.075  25.270  1.00  0.00    -0.240 N 
ATOM     15  C   UNL A   1      34.907  24.484  24.084  1.00  0.00     0.117 A 
ATOM     16  C   UNL A   1      34.716  23.074  25.838  1.00  0.00     0.065 A 
ATOM     17  C   UNL A   1      33.941  22.573  24.797  1.00  0.00     0.012 A 
ATOM     18  C   UNL A   1      34.818  22.396  27.070  1.00  0.00     0.028 A 
ATOM     19  C   UNL A   1      33.421  21.267  24.915  1.00  0.00     0.011 A 
ATOM     20  C   UNL A   1      34.357  21.083  27.136  1.00  0.00     0.002 A 
ATOM     21  C   UNL A   1      33.704  20.508  26.054  1.00  0.00     0.001 A 
BRANCH  14  22
ATOM     22  S   UNL A   1      37.219  23.721  25.511  1.00  0.00     0.268 S 
ATOM     23  O   UNL A   1      37.511  24.367  26.780  1.00  0.00    -0.201 OA
ATOM     24  O   UNL A   1      37.810  24.207  24.269  1.00  0.00    -0.201 OA
BRANCH  22  25
ATOM     25  C   UNL A   1      37.981  22.144  25.628  1.00  0.00     0.088 A 
ATOM     26  C   UNL A   1      40.785  18.880  26.079  1.00  0.00     0.044 C 
ATOM     27  C   UNL A   1      39.764  19.975  25.950  1.00  0.00    -0.051 A 
ATOM     28  C   UNL A   1      40.070  21.199  26.525  1.00  0.00     0.005 A 
ATOM     29  C   UNL A   1      38.552  19.841  25.233  1.00  0.00     0.005 A 
ATOM     30  C   UNL A   1      39.186  22.252  26.374  1.00  0.00     0.022 A 
ATOM     31  C   UNL A   1      37.651  20.926  25.060  1.00  0.00     0.022 A 
ENDBRANCH  22  25
ENDBRANCH  14  22
ENDBRANCH  11  13
ENDBRANCH   8  11
ENDBRANCH   6   7
BRANCH   6  32
ATOM     32  C   UNL A   1      29.584  26.043  24.285  1.00  0.00     0.072 C 
BRANCH  32  33
ATOM     33  C   UNL A   1      29.909  27.151  23.313  1.00  0.00    -0.020 A 
ATOM     34  C   UNL A   1      31.125  27.360  22.685  1.00  0.00     0.087 A 
ATOM     35  C   UNL A   1      29.064  28.249  22.927  1.00  0.00     0.003 A 
ATOM     36  N   UNL A   1      31.095  28.591  22.075  1.00  0.00    -0.361 N 
ATOM     37  C   UNL A   1      29.896  29.207  22.344  1.00  0.00     0.046 A 
ATOM     38  C   UNL A   1      27.722  28.598  23.186  1.00  0.00     0.010 A 
ATOM     39  H   UNL A   1      31.820  28.973  21.530  1.00  0.00     0.166 HD
ATOM     40  C   UNL A   1      29.501  30.536  22.169  1.00  0.00     0.026 A 
ATOM     41  C   UNL A   1      27.314  29.926  23.021  1.00  0.00     0.001 A 
ATOM     42  C   UNL A   1      28.204  30.887  22.551  1.00  0.00     0.002 A 
ENDBRANCH  32  33
ENDBRANCH   6  32
ENDBRANCH   3   6
ENDBRANCH   1   2
BRANCH   1  43
ATOM     43  C   UNL A   1      31.484  28.306  26.506  1.00  0.00     0.023 C 
BRANCH  43  44
ATOM     44  C   UNL A   1      32.157  29.467  27.226  1.00  0.00     0.023 C 
BRANCH  44  45
ATOM     45  C   UNL A   1      33.489  29.918  26.639  1.00  0.00     0.116 C 
BRANCH  45  46
ATOM     46  N   UNL A   1      33.980  31.206  27.092  1.00  0.00    -0.352 N 
ATOM     47  C   UNL A   1      34.759  31.416  28.234  1.00  0.00     0.251 C 
ATOM     48  H   UNL A   1      33.746  31.995  26.553  1.00  0.00     0.163 HD
ATOM     49  O   UNL A   1      34.647  32.392  28.939  1.00  0.00    -0.269 OA
BRANCH  47  50
ATOM     50  C   UNL A   1      35.869  30.451  28.446  1.00  0.00     0.039 A 
ATOM     51  C   UNL A   1      35.950  29.793  29.681  1.00  0.00     0.014 A 
ATOM     52  C   UNL A   1      36.918  30.379  27.536  1.00  0.00     0.014 A 
ATOM     53  C   UNL A   1      37.158  29.217  30.073  1.00  0.00     0.010 A 
ATOM     54  C   UNL A   1      38.139  29.920  27.969  1.00  0.00     0.010 A 
ATOM     55  C   UNL A   1      38.268  29.377  29.250  1.00  0.00    -0.014 A 
BRANCH  55  56
ATOM     56  C   UNL A   1      39.636  29.040  29.607  1.00  0.00     0.031 A 
ATOM     57  C   UNL A   1      40.188  27.741  29.153  1.00  0.00     0.074 A 
ATOM     58  C   UNL A   1      40.424  30.000  30.143  1.00  0.00     0.049 A 
ATOM     59  N   UNL A   1      41.306  27.241  29.555  1.00  0.00    -0.248 NA
ATOM     60  C   UNL A   1      39.474  26.859  28.223  1.00  0.00     0.031 C 
ATOM     61  C   UNL A   1      41.885  30.016  30.196  1.00  0.00     0.029 A 
ATOM     62  N   UNL A   1      40.087  31.148  30.862  1.00  0.00    -0.354 N 
ATOM     63  C   UNL A   1      41.605  26.181  28.727  1.00  0.00     0.074 A 
ATOM     64  C   UNL A   1      40.383  25.900  28.018  1.00  0.00     0.031 C 
ATOM     65  C   UNL A   1      42.270  30.894  31.141  1.00  0.00     0.029 A 
ATOM     66  C   UNL A   1      41.067  31.291  31.854  1.00  0.00     0.049 A 
ATOM     67  H   UNL A   1      39.316  31.739  30.704  1.00  0.00     0.167 HD
ATOM     68  C   UNL A   1      42.900  25.768  28.628  1.00  0.00     0.031 A 
ATOM     69  C   UNL A   1      40.870  31.038  33.187  1.00  0.00     0.031 A 
ATOM     70  C   UNL A   1      43.727  26.397  29.657  1.00  0.00     0.049 A 
ATOM     71  C   UNL A   1      41.761  29.924  33.729  1.00  0.00     0.074 A 
ATOM     72  C   UNL A   1      44.644  27.435  29.632  1.00  0.00     0.029 A 
ATOM     73  N   UNL A   1      43.428  26.165  30.996  1.00  0.00    -0.354 N 
ATOM     74  N   UNL A   1      42.354  29.034  32.979  1.00  0.00    -0.248 NA
ATOM     75  C   UNL A   1      42.036  29.715  35.150  1.00  0.00     0.031 C 
ATOM     76  C   UNL A   1      44.784  27.917  30.964  1.00  0.00     0.029 A 
ATOM     77  C   UNL A   1      43.999  27.137  31.797  1.00  0.00     0.049 A 
ATOM     78  H   UNL A   1      42.885  25.415  31.327  1.00  0.00     0.167 HD
ATOM     79  C   UNL A   1      43.066  28.163  33.760  1.00  0.00     0.074 A 
ATOM     80  C   UNL A   1      42.843  28.638  35.115  1.00  0.00     0.031 C 
ATOM     81  C   UNL A   1      43.773  27.118  33.237  1.00  0.00     0.031 A 
BRANCH  68  82
ATOM     82  C   UNL A   1      43.471  24.989  27.457  1.00  0.00    -0.014 A 
ATOM     83  C   UNL A   1      43.632  23.591  27.567  1.00  0.00     0.010 A 
ATOM     84  C   UNL A   1      43.974  25.571  26.277  1.00  0.00     0.010 A 
ATOM     85  C   UNL A   1      44.290  22.835  26.581  1.00  0.00     0.020 A 
ATOM     86  C   UNL A   1      44.618  24.827  25.276  1.00  0.00     0.020 A 
ATOM     87  C   UNL A   1      44.788  23.462  25.442  1.00  0.00     0.054 A 
BRANCH  87  88
ATOM     88  S   UNL A   1      45.678  22.494  24.196  1.00  0.00     0.124 S 
ATOM     89  O   UNL A   1      46.252  21.413  24.993  1.00  0.00    -0.237 OA
ATOM     90  O   UNL A   1      44.614  22.106  23.276  1.00  0.00    -0.237 OA
ATOM     91  O   UNL A   1      46.651  23.440  23.651  1.00  0.00    -0.744 OA
ENDBRANCH  87  88
ENDBRANCH  68  82
BRANCH  69  92
ATOM     92  C   UNL A   1      39.491  31.314  33.677  1.00  0.00    -0.014 A 
ATOM     93  C   UNL A   1      39.189  32.630  34.080  1.00  0.00     0.010 A 
ATOM     94  C   UNL A   1      38.438  30.447  33.339  1.00  0.00     0.010 A 
ATOM     95  C   UNL A   1      37.892  33.129  33.941  1.00  0.00     0.020 A 
ATOM     96  C   UNL A   1      37.136  30.948  33.194  1.00  0.00     0.020 A 
ATOM     97  C   UNL A   1      36.899  32.308  33.404  1.00  0.00     0.054 A 
BRANCH  97  98
ATOM     98  S   UNL A   1      35.385  33.090  32.770  1.00  0.00     0.124 S 
ATOM     99  O   UNL A   1      34.638  33.377  33.990  1.00  0.00    -0.237 OA
ATOM    100  O   UNL A   1      35.931  34.260  32.081  1.00  0.00    -0.237 OA
ATOM    101  O   UNL A   1      34.813  32.065  31.904  1.00  0.00    -0.744 OA
ENDBRANCH  97  98
ENDBRANCH  69  92
BRANCH  81 102
ATOM    102  C   UNL A   1      44.381  25.990  34.035  1.00  0.00    -0.014 A 
ATOM    103  C   UNL A   1      43.642  24.923  34.570  1.00  0.00     0.010 A 
ATOM    104  C   UNL A   1      45.791  25.911  34.136  1.00  0.00     0.010 A 
ATOM    105  C   UNL A   1      44.274  23.862  35.232  1.00  0.00     0.020 A 
ATOM    106  C   UNL A   1      46.434  24.833  34.749  1.00  0.00     0.020 A 
ATOM    107  C   UNL A   1      45.666  23.826  35.321  1.00  0.00     0.054 A 
BRANCH 107 108
ATOM    108  S   UNL A   1      46.476  22.418  36.122  1.00  0.00     0.124 S 
ATOM    109  O   UNL A   1      45.401  21.431  36.148  1.00  0.00    -0.237 OA
ATOM    110  O   UNL A   1      47.582  22.116  35.214  1.00  0.00    -0.237 OA
ATOM    111  O   UNL A   1      46.876  22.947  37.423  1.00  0.00    -0.744 OA
ENDBRANCH 107 108
ENDBRANCH  81 102
ENDBRANCH  55  56
ENDBRANCH  47  50
ENDBRANCH  45  46
ENDBRANCH  44  45
ENDBRANCH  43  44
ENDBRANCH   1  43
TORSDOF 21
ENDMDL
MODEL 2
REMARK VINA RESULT:     -11.8      3.734      5.582
REMARK SMILES Cc1ccc(S(=O)(=O)n2cc(C(=O)C(=O)N[C@@H](Cc3c[nH]c4ccccc34)C(=O)NCCCCNC(=O)c3ccc(-c4c5nc(c(-c6ccc(S(=O)(=O)[O-])cc6)c6ccc([nH]6)c(-c6ccc(S(=O)(=O)[O-])cc6)c6nc(c(-c7ccc(S(=O)(=O)[O-])cc7)c7ccc4[nH]7)C=C6)C=C5)cc3)c3ccccc32)cc1
REMARK SMILES IDX 31 1 30 2 28 3 29 4 17 6 16 7 14 8 15 9 12 11 13 12 11 13
REMARK SMILES IDX 9 14 10 15 103 16 98 17 102 18 99 19 101 20 100 21 6 22 7 23
REMARK SMILES IDX 8 24 5 25 1 26 2 27 3 28 105 29 4 30 104 31 18 32 19 33
REMARK SMILES IDX 20 34 27 35 21 36 22 37 26 38 23 40 25 41 24 42 32 43 33 44
REMARK SMILES IDX 34 45 35 46 36 47 37 49 38 50 39 51 97 52 40 53 96 54 41 55
REMARK SMILES IDX 42 56 43 57 90 58 44 59 95 60 89 61 91 62 45 63 94 64 88 65
REMARK SMILES IDX 87 66 46 68 76 69 57 70 75 71 58 72 61 73 74 74 92 75 59 76
REMARK SMILES IDX 60 77 73 79 93 80 62 81 47 82 48 83 56 84 49 85 55 86 50 87
REMARK SMILES IDX 51 88 52 89 53 90 54 91 77 92 78 93 86 94 79 95 85 96 80 97
REMARK SMILES IDX 81 98 82 99 83 100 84 101 63 102 64 103 72 104 65 105 71 106
REMARK SMILES IDX 66 107 67 108 68 109 69 110 70 111
REMARK H PARENT 30 5 16 10 21 39 35 48 91 67 61 78
REMARK Flexibility Score: inf
ROOT
ATOM      1  C   UNL A   1      33.874  30.376  27.107  1.00  0.00     0.116 C 
ENDROOT
BRANCH   1   2
ATOM      2  N   UNL A   1      32.728  29.536  27.394  1.00  0.00    -0.354 N 
ATOM      3  C   UNL A   1      31.923  28.868  26.507  1.00  0.00     0.242 C 
ATOM      4  O   UNL A   1      31.405  27.819  26.911  1.00  0.00    -0.273 OA
ATOM      5  H   UNL A   1      32.500  29.431  28.346  1.00  0.00     0.163 HD
BRANCH   3   6
ATOM      6  C   UNL A   1      31.722  29.302  25.022  1.00  0.00     0.176 C 
BRANCH   6   7
ATOM      7  N   UNL A   1      32.973  29.494  24.250  1.00  0.00    -0.337 N 
ATOM      8  C   UNL A   1      33.769  28.588  23.564  1.00  0.00     0.293 C 
ATOM      9  O   UNL A   1      34.844  28.939  23.081  1.00  0.00    -0.265 OA
ATOM     10  H   UNL A   1      33.293  30.425  24.219  1.00  0.00     0.164 HD
BRANCH   8  11
ATOM     11  C   UNL A   1      33.320  27.137  23.372  1.00  0.00     0.252 C 
ATOM     12  O   UNL A   1      32.772  26.881  22.300  1.00  0.00    -0.283 OA
BRANCH  11  13
ATOM     13  C   UNL A   1      33.436  26.112  24.434  1.00  0.00     0.054 A 
ATOM     14  N   UNL A   1      34.081  24.686  26.079  1.00  0.00    -0.240 N 
ATOM     15  C   UNL A   1      34.536  25.649  25.175  1.00  0.00     0.117 A 
ATOM     16  C   UNL A   1      32.677  24.697  26.035  1.00  0.00     0.065 A 
ATOM     17  C   UNL A   1      32.340  25.276  24.815  1.00  0.00     0.012 A 
ATOM     18  C   UNL A   1      31.724  24.003  26.806  1.00  0.00     0.028 A 
ATOM     19  C   UNL A   1      31.078  24.981  24.258  1.00  0.00     0.011 A 
ATOM     20  C   UNL A   1      30.513  23.666  26.205  1.00  0.00     0.002 A 
ATOM     21  C   UNL A   1      30.210  24.114  24.927  1.00  0.00     0.001 A 
BRANCH  14  22
ATOM     22  S   UNL A   1      34.686  23.056  26.277  1.00  0.00     0.268 S 
ATOM     23  O   UNL A   1      34.575  22.836  27.709  1.00  0.00    -0.201 OA
ATOM     24  O   UNL A   1      35.991  23.134  25.629  1.00  0.00    -0.201 OA
BRANCH  22  25
ATOM     25  C   UNL A   1      34.062  21.583  25.551  1.00  0.00     0.088 A 
ATOM     26  C   UNL A   1      31.988  18.687  23.098  1.00  0.00     0.044 C 
ATOM     27  C   UNL A   1      32.759  19.649  23.956  1.00  0.00    -0.051 A 
ATOM     28  C   UNL A   1      33.005  20.909  23.433  1.00  0.00     0.005 A 
ATOM     29  C   UNL A   1      33.188  19.360  25.272  1.00  0.00     0.005 A 
ATOM     30  C   UNL A   1      33.656  21.846  24.215  1.00  0.00     0.022 A 
ATOM     31  C   UNL A   1      33.839  20.326  26.085  1.00  0.00     0.022 A 
ENDBRANCH  22  25
ENDBRANCH  14  22
ENDBRANCH  11  13
ENDBRANCH   8  11
ENDBRANCH   6   7
BRANCH   6  32
ATOM     32  C   UNL A   1      30.621  28.469  24.279  1.00  0.00     0.072 C 
BRANCH  32  33
ATOM     33  C   UNL A   1      29.515  29.224  23.584  1.00  0.00    -0.020 A 
ATOM     34  C   UNL A   1      28.604  28.698  22.683  1.00  0.00     0.087 A 
ATOM     35  C   UNL A   1      29.249  30.636  23.643  1.00  0.00     0.003 A 
ATOM     36  N   UNL A   1      27.921  29.736  22.096  1.00  0.00    -0.361 N 
ATOM     37  C   UNL A   1      28.412  30.932  22.566  1.00  0.00     0.046 A 
ATOM     38  C   UNL A   1      29.786  31.709  24.386  1.00  0.00     0.010 A 
ATOM     39  H   UNL A   1      27.192  29.640  21.442  1.00  0.00     0.166 HD
ATOM     40  C   UNL A   1      28.228  32.235  22.095  1.00  0.00     0.026 A 
ATOM     41  C   UNL A   1      29.614  33.019  23.923  1.00  0.00     0.001 A 
ATOM     42  C   UNL A   1      28.873  33.271  22.773  1.00  0.00     0.002 A 
ENDBRANCH  32  33
ENDBRANCH   6  32
ENDBRANCH   3   6
ENDBRANCH   1   2
BRANCH   1  43
ATOM     43  C   UNL A   1      35.242  29.850  27.530  1.00  0.00     0.023 C 
BRANCH  43  44
ATOM     44  C   UNL A   1      35.725  30.252  28.916  1.00  0.00     0.023 C 
BRANCH  44  45
ATOM     45  C   UNL A   1      36.671  29.266  29.591  1.00  0.00     0.116 C 
BRANCH  45  46
ATOM     46  N   UNL A   1      36.941  29.504  30.997  1.00  0.00    -0.352 N 
ATOM     47  C   UNL A   1      37.650  28.643  31.840  1.00  0.00     0.251 C 
ATOM     48  H   UNL A   1      36.598  30.340  31.389  1.00  0.00     0.163 HD
ATOM     49  O   UNL A   1      37.369  28.479  33.004  1.00  0.00    -0.269 OA
BRANCH  47  50
ATOM     50  C   UNL A   1      38.894  28.061  31.271  1.00  0.00     0.039 A 
ATOM     51  C   UNL A   1      40.115  28.385  31.878  1.00  0.00     0.014 A 
ATOM     52  C   UNL A   1      38.865  27.406  30.045  1.00  0.00     0.014 A 
ATOM     53  C   UNL A   1      41.302  28.214  31.164  1.00  0.00     0.010 A 
ATOM     54  C   UNL A   1      40.017  27.349  29.297  1.00  0.00     0.010 A 
ATOM     55  C   UNL A   1      41.226  27.790  29.842  1.00  0.00    -0.014 A 
BRANCH  55  56
ATOM     56  C   UNL A   1      42.331  27.775  28.898  1.00  0.00     0.031 A 
ATOM     57  C   UNL A   1      43.017  26.488  28.629  1.00  0.00     0.074 A 
ATOM     58  C   UNL A   1      42.554  28.873  28.139  1.00  0.00     0.049 A 
ATOM     59  N   UNL A   1      44.117  26.371  27.969  1.00  0.00    -0.248 NA
ATOM     60  C   UNL A   1      42.524  25.207  29.145  1.00  0.00     0.031 C 
ATOM     61  C   UNL A   1      43.307  28.944  26.888  1.00  0.00     0.029 A 
ATOM     62  N   UNL A   1      42.236  30.212  28.372  1.00  0.00    -0.354 N 
ATOM     63  C   UNL A   1      44.296  25.031  27.700  1.00  0.00     0.074 A 
ATOM     64  C   UNL A   1      43.367  24.347  28.563  1.00  0.00     0.031 C 
ATOM     65  C   UNL A   1      43.649  30.226  26.665  1.00  0.00     0.029 A 
ATOM     66  C   UNL A   1      43.309  30.962  27.872  1.00  0.00     0.049 A 
ATOM     67  H   UNL A   1      41.421  30.560  28.800  1.00  0.00     0.167 HD
ATOM     68  C   UNL A   1      45.101  24.670  26.662  1.00  0.00     0.031 A 
ATOM     69  C   UNL A   1      44.245  31.598  28.648  1.00  0.00     0.031 A 
ATOM     70  C   UNL A   1      45.855  25.819  26.163  1.00  0.00     0.049 A 
ATOM     71  C   UNL A   1      45.664  31.085  28.425  1.00  0.00     0.074 A 
ATOM     72  C   UNL A   1      45.723  26.627  25.047  1.00  0.00     0.029 A 
ATOM     73  N   UNL A   1      46.731  26.473  27.024  1.00  0.00    -0.354 N 
ATOM     74  N   UNL A   1      45.947  29.932  27.881  1.00  0.00    -0.248 NA
ATOM     75  C   UNL A   1      46.869  31.818  28.813  1.00  0.00     0.031 C 
ATOM     76  C   UNL A   1      46.420  27.841  25.308  1.00  0.00     0.029 A 
ATOM     77  C   UNL A   1      47.017  27.741  26.555  1.00  0.00     0.049 A 
ATOM     78  H   UNL A   1      47.096  26.087  27.852  1.00  0.00     0.167 HD
ATOM     79  C   UNL A   1      47.304  29.756  27.835  1.00  0.00     0.074 A 
ATOM     80  C   UNL A   1      47.840  30.971  28.423  1.00  0.00     0.031 C 
ATOM     81  C   UNL A   1      47.880  28.626  27.327  1.00  0.00     0.031 A 
BRANCH  68  82
ATOM     82  C   UNL A   1      45.029  23.339  25.936  1.00  0.00    -0.014 A 
ATOM     83  C   UNL A   1      43.800  22.648  25.874  1.00  0.00     0.010 A 
ATOM     84  C   UNL A   1      46.140  22.658  25.398  1.00  0.00     0.010 A 
ATOM     85  C   UNL A   1      43.699  21.348  25.348  1.00  0.00     0.020 A 
ATOM     86  C   UNL A   1      46.052  21.368  24.854  1.00  0.00     0.020 A 
ATOM     87  C   UNL A   1      44.832  20.711  24.849  1.00  0.00     0.054 A 
BRANCH  87  88
ATOM     88  S   UNL A   1      44.709  19.017  24.216  1.00  0.00     0.124 S 
ATOM     89  O   UNL A   1      44.457  19.233  22.795  1.00  0.00    -0.237 OA
ATOM     90  O   UNL A   1      46.015  18.458  24.551  1.00  0.00    -0.237 OA
ATOM     91  O   UNL A   1      43.585  18.451  24.962  1.00  0.00    -0.744 OA
ENDBRANCH  87  88
ENDBRANCH  68  82
BRANCH  69  92
ATOM     92  C   UNL A   1      43.735  32.097  29.956  1.00  0.00    -0.014 A 
ATOM     93  C   UNL A   1      43.117  33.362  29.980  1.00  0.00     0.010 A 
ATOM     94  C   UNL A   1      43.475  31.192  31.000  1.00  0.00     0.010 A 
ATOM     95  C   UNL A   1      42.105  33.635  30.903  1.00  0.00     0.020 A 
ATOM     96  C   UNL A   1      42.456  31.463  31.924  1.00  0.00     0.020 A 
ATOM     97  C   UNL A   1      41.717  32.641  31.803  1.00  0.00     0.054 A 
BRANCH  97  98
ATOM     98  S   UNL A   1      40.109  32.813  32.635  1.00  0.00     0.124 S 
ATOM     99  O   UNL A   1      40.469  32.721  34.046  1.00  0.00    -0.237 OA
ATOM    100  O   UNL A   1      39.691  34.141  32.182  1.00  0.00    -0.237 OA
ATOM    101  O   UNL A   1      39.334  31.698  32.105  1.00  0.00    -0.744 OA
ENDBRANCH  97  98
ENDBRANCH  69  92
BRANCH  81 102
ATOM    102  C   UNL A   1      49.339  28.259  27.456  1.00  0.00    -0.014 A 
ATOM    103  C   UNL A   1      49.909  27.711  28.616  1.00  0.00     0.010 A 
ATOM    104  C   UNL A   1      50.162  28.329  26.305  1.00  0.00     0.010 A 
ATOM    105  C   UNL A   1      51.253  27.314  28.647  1.00  0.00     0.020 A 
ATOM    106  C   UNL A   1      51.488  27.889  26.311  1.00  0.00     0.020 A 
ATOM    107  C   UNL A   1      52.035  27.409  27.495  1.00  0.00     0.054 A 
BRANCH 107 108
ATOM    108  S   UNL A   1      53.751  26.834  27.528  1.00  0.00     0.124 S 
ATOM    109  O   UNL A   1      54.380  27.715  26.548  1.00  0.00    -0.237 OA
ATOM    110  O   UNL A   1      54.146  27.060  28.917  1.00  0.00    -0.237 OA
ATOM    111  O   UNL A   1      53.650  25.430  27.138  1.00  0.00    -0.744 OA
ENDBRANCH 107 108
ENDBRANCH  81 102
ENDBRANCH  55  56
ENDBRANCH  47  50
ENDBRANCH  45  46
ENDBRANCH  44  45
ENDBRANCH  43  44
ENDBRANCH   1  43
TORSDOF 21
ENDMDL
MODEL 3
REMARK VINA RESULT:     -11.5      4.879      8.501
REMARK SMILES Cc1ccc(S(=O)(=O)n2cc(C(=O)C(=O)N[C@@H](Cc3c[nH]c4ccccc34)C(=O)NCCCCNC(=O)c3ccc(-c4c5nc(c(-c6ccc(S(=O)(=O)[O-])cc6)c6ccc([nH]6)c(-c6ccc(S(=O)(=O)[O-])cc6)c6nc(c(-c7ccc(S(=O)(=O)[O-])cc7)c7ccc4[nH]7)C=C6)C=C5)cc3)c3ccccc32)cc1
REMARK SMILES IDX 31 1 30 2 28 3 29 4 17 6 16 7 14 8 15 9 12 11 13 12 11 13
REMARK SMILES IDX 9 14 10 15 103 16 98 17 102 18 99 19 101 20 100 21 6 22 7 23
REMARK SMILES IDX 8 24 5 25 1 26 2 27 3 28 105 29 4 30 104 31 18 32 19 33
REMARK SMILES IDX 20 34 27 35 21 36 22 37 26 38 23 40 25 41 24 42 32 43 33 44
REMARK SMILES IDX 34 45 35 46 36 47 37 49 38 50 39 51 97 52 40 53 96 54 41 55
REMARK SMILES IDX 42 56 43 57 90 58 44 59 95 60 89 61 91 62 45 63 94 64 88 65
REMARK SMILES IDX 87 66 46 68 76 69 57 70 75 71 58 72 61 73 74 74 92 75 59 76
REMARK SMILES IDX 60 77 73 79 93 80 62 81 47 82 48 83 56 84 49 85 55 86 50 87
REMARK SMILES IDX 51 88 52 89 53 90 54 91 77 92 78 93 86 94 79 95 85 96 80 97
REMARK SMILES IDX 81 98 82 99 83 100 84 101 63 102 64 103 72 104 65 105 71 106
REMARK SMILES IDX 66 107 67 108 68 109 69 110 70 111
REMARK H PARENT 30 5 16 10 21 39 35 48 91 67 61 78
REMARK Flexibility Score: inf
ROOT
ATOM      1  C   UNL A   1      33.169  30.656  26.941  1.00  0.00     0.116 C 
ENDROOT
BRANCH   1   2
ATOM      2  N   UNL A   1      32.212  29.589  27.162  1.00  0.00    -0.354 N 
ATOM      3  C   UNL A   1      31.610  28.784  26.229  1.00  0.00     0.242 C 
ATOM      4  O   UNL A   1      31.306  27.642  26.598  1.00  0.00    -0.273 OA
ATOM      5  H   UNL A   1      31.965  29.421  28.100  1.00  0.00     0.163 HD
BRANCH   3   6
ATOM      6  C   UNL A   1      31.396  29.192  24.739  1.00  0.00     0.176 C 
BRANCH   6   7
ATOM      7  N   UNL A   1      32.639  29.340  23.944  1.00  0.00    -0.337 N 
ATOM      8  C   UNL A   1      33.452  28.393  23.338  1.00  0.00     0.293 C 
ATOM      9  O   UNL A   1      34.516  28.720  22.819  1.00  0.00    -0.265 OA
ATOM     10  H   UNL A   1      32.938  30.271  23.826  1.00  0.00     0.164 HD
BRANCH   8  11
ATOM     11  C   UNL A   1      33.033  26.920  23.283  1.00  0.00     0.252 C 
ATOM     12  O   UNL A   1      32.401  26.579  22.284  1.00  0.00    -0.283 OA
BRANCH  11  13
ATOM     13  C   UNL A   1      33.275  25.973  24.395  1.00  0.00     0.054 A 
ATOM     14  N   UNL A   1      34.109  24.677  26.063  1.00  0.00    -0.240 N 
ATOM     15  C   UNL A   1      34.451  25.587  25.059  1.00  0.00     0.117 A 
ATOM     16  C   UNL A   1      32.706  24.654  26.149  1.00  0.00     0.065 A 
ATOM     17  C   UNL A   1      32.243  25.141  24.930  1.00  0.00     0.012 A 
ATOM     18  C   UNL A   1      31.848  23.993  27.050  1.00  0.00     0.028 A 
ATOM     19  C   UNL A   1      30.944  24.780  24.513  1.00  0.00     0.011 A 
ATOM     20  C   UNL A   1      30.597  23.588  26.587  1.00  0.00     0.002 A 
ATOM     21  C   UNL A   1      30.166  23.941  25.316  1.00  0.00     0.001 A 
BRANCH  14  22
ATOM     22  S   UNL A   1      34.775  23.079  26.311  1.00  0.00     0.268 S 
ATOM     23  O   UNL A   1      34.399  22.776  27.682  1.00  0.00    -0.201 OA
ATOM     24  O   UNL A   1      36.173  23.272  25.943  1.00  0.00    -0.201 OA
BRANCH  22  25
ATOM     25  C   UNL A   1      34.412  21.613  25.415  1.00  0.00     0.088 A 
ATOM     26  C   UNL A   1      32.467  18.239  23.533  1.00  0.00     0.044 C 
ATOM     27  C   UNL A   1      33.187  19.411  24.136  1.00  0.00    -0.051 A 
ATOM     28  C   UNL A   1      32.441  20.551  24.392  1.00  0.00     0.005 A 
ATOM     29  C   UNL A   1      34.552  19.391  24.507  1.00  0.00     0.005 A 
ATOM     30  C   UNL A   1      33.051  21.630  25.006  1.00  0.00     0.022 A 
ATOM     31  C   UNL A   1      35.177  20.490  25.154  1.00  0.00     0.022 A 
ENDBRANCH  22  25
ENDBRANCH  14  22
ENDBRANCH  11  13
ENDBRANCH   8  11
ENDBRANCH   6   7
BRANCH   6  32
ATOM     32  C   UNL A   1      30.265  28.372  24.030  1.00  0.00     0.072 C 
BRANCH  32  33
ATOM     33  C   UNL A   1      29.167  29.139  23.335  1.00  0.00    -0.020 A 
ATOM     34  C   UNL A   1      28.232  28.617  22.455  1.00  0.00     0.087 A 
ATOM     35  C   UNL A   1      28.934  30.558  23.370  1.00  0.00     0.003 A 
ATOM     36  N   UNL A   1      27.566  29.660  21.858  1.00  0.00    -0.361 N 
ATOM     37  C   UNL A   1      28.090  30.852  22.298  1.00  0.00     0.046 A 
ATOM     38  C   UNL A   1      29.505  31.631  24.085  1.00  0.00     0.010 A 
ATOM     39  H   UNL A   1      26.826  29.567  21.215  1.00  0.00     0.166 HD
ATOM     40  C   UNL A   1      27.929  32.150  21.804  1.00  0.00     0.026 A 
ATOM     41  C   UNL A   1      29.357  32.936  23.599  1.00  0.00     0.001 A 
ATOM     42  C   UNL A   1      28.607  33.183  22.454  1.00  0.00     0.002 A 
ENDBRANCH  32  33
ENDBRANCH   6  32
ENDBRANCH   3   6
ENDBRANCH   1   2
BRANCH   1  43
ATOM     43  C   UNL A   1      34.309  30.783  27.946  1.00  0.00     0.023 C 
BRANCH  43  44
ATOM     44  C   UNL A   1      35.687  30.347  27.468  1.00  0.00     0.023 C 
BRANCH  44  45
ATOM     45  C   UNL A   1      36.860  30.872  28.287  1.00  0.00     0.116 C 
BRANCH  45  46
ATOM     46  N   UNL A   1      37.128  30.177  29.533  1.00  0.00    -0.352 N 
ATOM     47  C   UNL A   1      38.138  29.230  29.727  1.00  0.00     0.251 C 
ATOM     48  H   UNL A   1      36.553  30.390  30.302  1.00  0.00     0.163 HD
ATOM     49  O   UNL A   1      38.005  28.260  30.435  1.00  0.00    -0.269 OA
BRANCH  47  50
ATOM     50  C   UNL A   1      39.464  29.571  29.148  1.00  0.00     0.039 A 
ATOM     51  C   UNL A   1      39.875  28.898  27.989  1.00  0.00     0.014 A 
ATOM     52  C   UNL A   1      40.358  30.361  29.861  1.00  0.00     0.014 A 
ATOM     53  C   UNL A   1      41.228  28.873  27.654  1.00  0.00     0.010 A 
ATOM     54  C   UNL A   1      41.702  30.239  29.603  1.00  0.00     0.010 A 
ATOM     55  C   UNL A   1      42.139  29.464  28.525  1.00  0.00    -0.014 A 
BRANCH  55  56
ATOM     56  C   UNL A   1      43.585  29.336  28.445  1.00  0.00     0.031 A 
ATOM     57  C   UNL A   1      44.347  30.365  27.697  1.00  0.00     0.074 A 
ATOM     58  C   UNL A   1      44.201  28.422  29.228  1.00  0.00     0.049 A 
ATOM     59  N   UNL A   1      45.595  30.270  27.391  1.00  0.00    -0.248 NA
ATOM     60  C   UNL A   1      43.726  31.588  27.178  1.00  0.00     0.031 C 
ATOM     61  C   UNL A   1      45.613  28.395  29.612  1.00  0.00     0.029 A 
ATOM     62  N   UNL A   1      43.719  27.237  29.786  1.00  0.00    -0.354 N 
ATOM     63  C   UNL A   1      46.005  31.508  26.946  1.00  0.00     0.074 A 
ATOM     64  C   UNL A   1      44.790  32.243  26.702  1.00  0.00     0.031 C 
ATOM     65  C   UNL A   1      45.919  27.154  30.031  1.00  0.00     0.029 A 
ATOM     66  C   UNL A   1      44.773  26.316  29.720  1.00  0.00     0.049 A 
ATOM     67  H   UNL A   1      42.819  27.079  30.152  1.00  0.00     0.167 HD
ATOM     68  C   UNL A   1      47.332  31.817  26.989  1.00  0.00     0.031 A 
ATOM     69  C   UNL A   1      44.834  25.260  28.846  1.00  0.00     0.031 A 
ATOM     70  C   UNL A   1      48.133  30.628  27.279  1.00  0.00     0.049 A 
ATOM     71  C   UNL A   1      46.023  25.332  27.894  1.00  0.00     0.074 A 
ATOM     72  C   UNL A   1      48.776  30.173  28.418  1.00  0.00     0.029 A 
ATOM     73  N   UNL A   1      48.091  29.556  26.393  1.00  0.00    -0.354 N 
ATOM     74  N   UNL A   1      46.689  26.426  27.638  1.00  0.00    -0.248 NA
ATOM     75  C   UNL A   1      46.541  24.187  27.145  1.00  0.00     0.031 C 
ATOM     76  C   UNL A   1      48.994  28.775  28.260  1.00  0.00     0.029 A 
ATOM     77  C   UNL A   1      48.535  28.400  27.008  1.00  0.00     0.049 A 
ATOM     78  H   UNL A   1      47.787  29.613  25.459  1.00  0.00     0.167 HD
ATOM     79  C   UNL A   1      47.686  26.168  26.736  1.00  0.00     0.074 A 
ATOM     80  C   UNL A   1      47.559  24.746  26.463  1.00  0.00     0.031 C 
ATOM     81  C   UNL A   1      48.530  27.139  26.277  1.00  0.00     0.031 A 
BRANCH  68  82
ATOM     82  C   UNL A   1      47.891  33.228  27.014  1.00  0.00    -0.014 A 
ATOM     83  C   UNL A   1      47.943  33.931  28.236  1.00  0.00     0.010 A 
ATOM     84  C   UNL A   1      48.270  33.960  25.871  1.00  0.00     0.010 A 
ATOM     85  C   UNL A   1      48.310  35.288  28.303  1.00  0.00     0.020 A 
ATOM     86  C   UNL A   1      48.654  35.308  25.923  1.00  0.00     0.020 A 
ATOM     87  C   UNL A   1      48.654  35.972  27.140  1.00  0.00     0.054 A 
BRANCH  87  88
ATOM     88  S   UNL A   1      49.078  37.731  27.221  1.00  0.00     0.124 S 
ATOM     89  O   UNL A   1      48.235  38.304  26.176  1.00  0.00    -0.237 OA
ATOM     90  O   UNL A   1      48.716  38.081  28.591  1.00  0.00    -0.237 OA
ATOM     91  O   UNL A   1      50.513  37.755  26.937  1.00  0.00    -0.744 OA
ENDBRANCH  87  88
ENDBRANCH  68  82
BRANCH  69  92
ATOM     92  C   UNL A   1      43.514  24.672  28.487  1.00  0.00    -0.014 A 
ATOM     93  C   UNL A   1      43.082  24.792  27.152  1.00  0.00     0.010 A 
ATOM     94  C   UNL A   1      42.944  23.676  29.300  1.00  0.00     0.010 A 
ATOM     95  C   UNL A   1      42.267  23.811  26.584  1.00  0.00     0.020 A 
ATOM     96  C   UNL A   1      42.128  22.688  28.729  1.00  0.00     0.020 A 
ATOM     97  C   UNL A   1      41.879  22.715  27.356  1.00  0.00     0.054 A 
BRANCH  97  98
ATOM     98  S   UNL A   1      41.262  21.233  26.500  1.00  0.00     0.124 S 
ATOM     99  O   UNL A   1      42.391  20.860  25.655  1.00  0.00    -0.237 OA
ATOM    100  O   UNL A   1      41.002  20.337  27.627  1.00  0.00    -0.237 OA
ATOM    101  O   UNL A   1      40.079  21.718  25.799  1.00  0.00    -0.744 OA
ENDBRANCH  97  98
ENDBRANCH  69  92
BRANCH  81 102
ATOM    102  C   UNL A   1      49.487  26.986  25.119  1.00  0.00    -0.014 A 
ATOM    103  C   UNL A   1      49.136  27.206  23.779  1.00  0.00     0.010 A 
ATOM    104  C   UNL A   1      50.856  26.749  25.396  1.00  0.00     0.010 A 
ATOM    105  C   UNL A   1      50.091  27.129  22.755  1.00  0.00     0.020 A 
ATOM    106  C   UNL A   1      51.824  26.719  24.389  1.00  0.00     0.020 A 
ATOM    107  C   UNL A   1      51.428  26.882  23.067  1.00  0.00     0.054 A 
BRANCH 107 108
ATOM    108  S   UNL A   1      52.664  26.847  21.745  1.00  0.00     0.124 S 
ATOM    109  O   UNL A   1      52.019  25.986  20.757  1.00  0.00    -0.237 OA
ATOM    110  O   UNL A   1      52.781  28.255  21.368  1.00  0.00    -0.237 OA
ATOM    111  O   UNL A   1      53.845  26.284  22.393  1.00  0.00    -0.744 OA
ENDBRANCH 107 108
ENDBRANCH  81 102
ENDBRANCH  55  56
ENDBRANCH  47  50
ENDBRANCH  45  46
ENDBRANCH  44  45
ENDBRANCH  43  44
ENDBRANCH   1  43
TORSDOF 21
ENDMDL
