MODEL 1
REMARK VINA RESULT:      -9.9      0.000      0.000
REMARK SMILES CC(C)(C)N(CC(=O)NCCCCNC(=O)c1ccc(-c2c3nc(c(-c4ccc(S(=O)(=O)[O-])cc4)c4ccc([nH]4)c(-c4ccc(S(=O)(=O)[O-])cc4)c4nc(c(-c5ccc(S(=O)(=O)[O-])cc5)c5ccc2[nH]5)C=C4)C=C3)cc1)C(=O)C[NH2+]C1CCCC1
REMARK SMILES IDX 10 1 9 2 7 3 8 4 6 6 5 7 2 8 1 9 3 10 4 11 77 12 78 13 79 14
REMARK SMILES IDX 80 15 81 18 82 19 85 20 83 21 84 22 11 23 12 24 13 25 14 26
REMARK SMILES IDX 15 27 16 29 17 30 18 31 76 32 19 33 75 34 20 35 21 36 22 37
REMARK SMILES IDX 69 38 23 39 74 40 68 41 70 42 24 43 73 44 67 45 66 46 25 48
REMARK SMILES IDX 55 49 36 50 54 51 37 52 40 53 53 54 71 55 38 56 39 57 52 59
REMARK SMILES IDX 72 60 41 61 26 62 27 63 35 64 28 65 34 66 29 67 30 68 31 69
REMARK SMILES IDX 32 70 33 71 56 72 57 73 65 74 58 75 64 76 59 77 60 78 61 79
REMARK SMILES IDX 62 80 63 81 42 82 43 83 51 84 44 85 50 86 45 87 46 88 47 89
REMARK SMILES IDX 48 90 49 91
REMARK H PARENT 9 5 80 16 80 17 14 28 70 47 40 58
REMARK Flexibility Score: inf
ROOT
ATOM      1  C   UNL A   1      30.841  26.231  25.840  1.00  0.00     0.116 C 
ENDROOT
BRANCH   1   2
ATOM      2  N   UNL A   1      30.641  24.996  26.556  1.00  0.00    -0.355 N 
ATOM      3  C   UNL A   1      31.515  23.965  26.733  1.00  0.00     0.239 C 
ATOM      4  O   UNL A   1      31.283  23.189  27.665  1.00  0.00    -0.273 OA
ATOM      5  H   UNL A   1      29.756  24.881  26.974  1.00  0.00     0.163 HD
BRANCH   3   6
ATOM      6  C   UNL A   1      32.824  23.847  25.920  1.00  0.00     0.220 C 
BRANCH   6   7
ATOM      7  N   UNL A   1      32.818  23.068  24.659  1.00  0.00    -0.324 N 
BRANCH   7   8
ATOM      8  C   UNL A   1      32.618  23.759  23.321  1.00  0.00     0.035 C 
ATOM      9  C   UNL A   1      31.139  24.080  22.978  1.00  0.00     0.034 C 
ATOM     10  C   UNL A   1      33.149  22.897  22.150  1.00  0.00     0.034 C 
ATOM     11  C   UNL A   1      33.345  25.126  23.304  1.00  0.00     0.034 C 
ENDBRANCH   7   8
BRANCH   7  12
ATOM     12  C   UNL A   1      33.346  21.756  24.659  1.00  0.00     0.278 C 
ATOM     13  O   UNL A   1      34.556  21.527  24.565  1.00  0.00    -0.268 OA
BRANCH  12  14
ATOM     14  C   UNL A   1      32.400  20.548  24.823  1.00  0.00     0.362 C 
BRANCH  14  15
ATOM     15  N   UNL A   1      32.462  19.702  23.615  1.00  0.00    -0.336 N 
ATOM     16  H   UNL A   1      33.313  19.921  23.098  1.00  0.00     0.346 HD
ATOM     17  H   UNL A   1      31.635  19.891  23.047  1.00  0.00     0.346 HD
BRANCH  15  18
ATOM     18  C   UNL A   1      32.467  18.282  23.963  1.00  0.00     0.182 C 
ATOM     19  C   UNL A   1      33.696  17.558  23.412  1.00  0.00     0.065 C 
ATOM     20  C   UNL A   1      32.597  18.022  25.465  1.00  0.00     0.065 C 
ATOM     21  C   UNL A   1      33.697  16.248  24.192  1.00  0.00     0.006 C 
ATOM     22  C   UNL A   1      33.165  16.607  25.578  1.00  0.00     0.006 C 
ENDBRANCH  15  18
ENDBRANCH  14  15
ENDBRANCH  12  14
ENDBRANCH   7  12
ENDBRANCH   6   7
ENDBRANCH   3   6
ENDBRANCH   1   2
BRANCH   1  23
ATOM     23  C   UNL A   1      31.678  27.243  26.613  1.00  0.00     0.023 C 
BRANCH  23  24
ATOM     24  C   UNL A   1      32.518  28.182  25.749  1.00  0.00     0.023 C 
BRANCH  24  25
ATOM     25  C   UNL A   1      33.770  28.745  26.416  1.00  0.00     0.116 C 
BRANCH  25  26
ATOM     26  N   UNL A   1      33.683  30.163  26.740  1.00  0.00    -0.352 N 
ATOM     27  C   UNL A   1      34.539  30.922  27.504  1.00  0.00     0.251 C 
ATOM     28  H   UNL A   1      32.908  30.642  26.364  1.00  0.00     0.163 HD
ATOM     29  O   UNL A   1      34.283  32.100  27.737  1.00  0.00    -0.269 OA
BRANCH  27  30
ATOM     30  C   UNL A   1      35.744  30.290  28.079  1.00  0.00     0.039 A 
ATOM     31  C   UNL A   1      36.946  30.359  27.371  1.00  0.00     0.014 A 
ATOM     32  C   UNL A   1      35.698  29.694  29.342  1.00  0.00     0.014 A 
ATOM     33  C   UNL A   1      38.123  29.906  27.969  1.00  0.00     0.010 A 
ATOM     34  C   UNL A   1      36.882  29.309  29.963  1.00  0.00     0.010 A 
ATOM     35  C   UNL A   1      38.108  29.421  29.287  1.00  0.00    -0.014 A 
BRANCH  35  36
ATOM     36  C   UNL A   1      39.361  29.044  29.987  1.00  0.00     0.031 A 
ATOM     37  C   UNL A   1      39.808  29.812  31.200  1.00  0.00     0.074 A 
ATOM     38  C   UNL A   1      40.140  28.065  29.480  1.00  0.00     0.049 A 
ATOM     39  N   UNL A   1      40.911  29.691  31.891  1.00  0.00    -0.248 NA
ATOM     40  C   UNL A   1      38.911  30.876  31.681  1.00  0.00     0.031 C 
ATOM     41  C   UNL A   1      39.846  27.283  28.276  1.00  0.00     0.029 A 
ATOM     42  N   UNL A   1      41.346  27.569  29.909  1.00  0.00    -0.354 N 
ATOM     43  C   UNL A   1      40.856  30.677  32.868  1.00  0.00     0.074 A 
ATOM     44  C   UNL A   1      39.629  31.414  32.657  1.00  0.00     0.031 C 
ATOM     45  C   UNL A   1      40.833  26.393  28.077  1.00  0.00     0.029 A 
ATOM     46  C   UNL A   1      41.844  26.564  29.115  1.00  0.00     0.049 A 
ATOM     47  H   UNL A   1      41.810  27.903  30.710  1.00  0.00     0.167 HD
ATOM     48  C   UNL A   1      41.737  30.935  33.864  1.00  0.00     0.031 A 
ATOM     49  C   UNL A   1      42.989  25.860  29.207  1.00  0.00     0.031 A 
ATOM     50  C   UNL A   1      42.940  30.181  34.093  1.00  0.00     0.049 A 
ATOM     51  C   UNL A   1      43.934  26.143  30.342  1.00  0.00     0.074 A 
ATOM     52  C   UNL A   1      43.861  30.321  35.116  1.00  0.00     0.029 A 
ATOM     53  N   UNL A   1      43.386  29.141  33.292  1.00  0.00    -0.354 N 
ATOM     54  N   UNL A   1      43.830  27.038  31.297  1.00  0.00    -0.248 NA
ATOM     55  C   UNL A   1      45.146  25.316  30.421  1.00  0.00     0.031 C 
ATOM     56  C   UNL A   1      44.882  29.388  34.914  1.00  0.00     0.029 A 
ATOM     57  C   UNL A   1      44.575  28.640  33.790  1.00  0.00     0.049 A 
ATOM     58  H   UNL A   1      42.925  28.811  32.487  1.00  0.00     0.167 HD
ATOM     59  C   UNL A   1      44.948  26.863  32.102  1.00  0.00     0.074 A 
ATOM     60  C   UNL A   1      45.709  25.769  31.532  1.00  0.00     0.031 C 
ATOM     61  C   UNL A   1      45.314  27.547  33.213  1.00  0.00     0.031 A 
BRANCH  48  62
ATOM     62  C   UNL A   1      41.425  32.080  34.789  1.00  0.00    -0.014 A 
ATOM     63  C   UNL A   1      41.897  33.377  34.520  1.00  0.00     0.010 A 
ATOM     64  C   UNL A   1      40.613  31.866  35.919  1.00  0.00     0.010 A 
ATOM     65  C   UNL A   1      41.595  34.433  35.383  1.00  0.00     0.020 A 
ATOM     66  C   UNL A   1      40.288  32.925  36.771  1.00  0.00     0.020 A 
ATOM     67  C   UNL A   1      40.794  34.200  36.505  1.00  0.00     0.054 A 
BRANCH  67  68
ATOM     68  S   UNL A   1      40.392  35.594  37.593  1.00  0.00     0.124 S 
ATOM     69  O   UNL A   1      39.886  36.581  36.642  1.00  0.00    -0.237 OA
ATOM     70  O   UNL A   1      39.394  35.022  38.494  1.00  0.00    -0.237 OA
ATOM     71  O   UNL A   1      41.670  35.926  38.216  1.00  0.00    -0.744 OA
ENDBRANCH  67  68
ENDBRANCH  48  62
BRANCH  49  72
ATOM     72  C   UNL A   1      43.299  24.803  28.207  1.00  0.00    -0.014 A 
ATOM     73  C   UNL A   1      44.136  25.082  27.113  1.00  0.00     0.010 A 
ATOM     74  C   UNL A   1      42.758  23.512  28.344  1.00  0.00     0.010 A 
ATOM     75  C   UNL A   1      44.408  24.097  26.159  1.00  0.00     0.020 A 
ATOM     76  C   UNL A   1      43.046  22.517  27.405  1.00  0.00     0.020 A 
ATOM     77  C   UNL A   1      43.859  22.821  26.310  1.00  0.00     0.054 A 
BRANCH  77  78
ATOM     78  S   UNL A   1      44.254  21.544  25.084  1.00  0.00     0.124 S 
ATOM     79  O   UNL A   1      43.276  20.508  25.399  1.00  0.00    -0.237 OA
ATOM     80  O   UNL A   1      44.048  22.244  23.817  1.00  0.00    -0.237 OA
ATOM     81  O   UNL A   1      45.645  21.207  25.380  1.00  0.00    -0.744 OA
ENDBRANCH  77  78
ENDBRANCH  49  72
BRANCH  61  82
ATOM     82  C   UNL A   1      46.574  27.110  33.909  1.00  0.00    -0.014 A 
ATOM     83  C   UNL A   1      46.548  26.114  34.899  1.00  0.00     0.010 A 
ATOM     84  C   UNL A   1      47.807  27.669  33.526  1.00  0.00     0.010 A 
ATOM     85  C   UNL A   1      47.733  25.702  35.515  1.00  0.00     0.020 A 
ATOM     86  C   UNL A   1      48.995  27.244  34.123  1.00  0.00     0.020 A 
ATOM     87  C   UNL A   1      48.949  26.271  35.125  1.00  0.00     0.054 A 
BRANCH  87  88
ATOM     88  S   UNL A   1      50.479  25.690  35.905  1.00  0.00     0.124 S 
ATOM     89  O   UNL A   1      50.932  26.885  36.612  1.00  0.00    -0.237 OA
ATOM     90  O   UNL A   1      50.013  24.596  36.753  1.00  0.00    -0.237 OA
ATOM     91  O   UNL A   1      51.311  25.282  34.774  1.00  0.00    -0.744 OA
ENDBRANCH  87  88
ENDBRANCH  61  82
ENDBRANCH  35  36
ENDBRANCH  27  30
ENDBRANCH  25  26
ENDBRANCH  24  25
ENDBRANCH  23  24
ENDBRANCH   1  23
TORSDOF 20
ENDMDL
MODEL 2
REMARK VINA RESULT:      -9.9      2.189      2.729
REMARK SMILES CC(C)(C)N(CC(=O)NCCCCNC(=O)c1ccc(-c2c3nc(c(-c4ccc(S(=O)(=O)[O-])cc4)c4ccc([nH]4)c(-c4ccc(S(=O)(=O)[O-])cc4)c4nc(c(-c5ccc(S(=O)(=O)[O-])cc5)c5ccc2[nH]5)C=C4)C=C3)cc1)C(=O)C[NH2+]C1CCCC1
REMARK SMILES IDX 10 1 9 2 7 3 8 4 6 6 5 7 2 8 1 9 3 10 4 11 77 12 78 13 79 14
REMARK SMILES IDX 80 15 81 18 82 19 85 20 83 21 84 22 11 23 12 24 13 25 14 26
REMARK SMILES IDX 15 27 16 29 17 30 18 31 76 32 19 33 75 34 20 35 21 36 22 37
REMARK SMILES IDX 69 38 23 39 74 40 68 41 70 42 24 43 73 44 67 45 66 46 25 48
REMARK SMILES IDX 55 49 36 50 54 51 37 52 40 53 53 54 71 55 38 56 39 57 52 59
REMARK SMILES IDX 72 60 41 61 26 62 27 63 35 64 28 65 34 66 29 67 30 68 31 69
REMARK SMILES IDX 32 70 33 71 56 72 57 73 65 74 58 75 64 76 59 77 60 78 61 79
REMARK SMILES IDX 62 80 63 81 42 82 43 83 51 84 44 85 50 86 45 87 46 88 47 89
REMARK SMILES IDX 48 90 49 91
REMARK H PARENT 9 5 80 16 80 17 14 28 70 47 40 58
REMARK Flexibility Score: inf
ROOT
ATOM      1  C   UNL A   1      30.968  26.850  24.868  1.00  0.00     0.116 C 
ENDROOT
BRANCH   1   2
ATOM      2  N   UNL A   1      30.626  25.794  25.789  1.00  0.00    -0.355 N 
ATOM      3  C   UNL A   1      31.433  24.829  26.313  1.00  0.00     0.239 C 
ATOM      4  O   UNL A   1      31.039  24.268  27.340  1.00  0.00    -0.273 OA
ATOM      5  H   UNL A   1      29.685  25.767  26.078  1.00  0.00     0.163 HD
BRANCH   3   6
ATOM      6  C   UNL A   1      32.848  24.549  25.758  1.00  0.00     0.220 C 
BRANCH   6   7
ATOM      7  N   UNL A   1      33.010  23.541  24.682  1.00  0.00    -0.324 N 
BRANCH   7   8
ATOM      8  C   UNL A   1      33.824  23.858  23.439  1.00  0.00     0.035 C 
ATOM      9  C   UNL A   1      33.710  25.327  22.954  1.00  0.00     0.034 C 
ATOM     10  C   UNL A   1      33.397  22.979  22.240  1.00  0.00     0.034 C 
ATOM     11  C   UNL A   1      35.333  23.634  23.709  1.00  0.00     0.034 C 
ENDBRANCH   7   8
BRANCH   7  12
ATOM     12  C   UNL A   1      32.716  22.186  24.959  1.00  0.00     0.278 C 
ATOM     13  O   UNL A   1      31.630  21.670  24.674  1.00  0.00    -0.268 OA
BRANCH  12  14
ATOM     14  C   UNL A   1      33.789  21.284  25.604  1.00  0.00     0.362 C 
BRANCH  14  15
ATOM     15  N   UNL A   1      34.405  20.429  24.570  1.00  0.00    -0.336 N 
ATOM     16  H   UNL A   1      35.418  20.436  24.692  1.00  0.00     0.346 HD
ATOM     17  H   UNL A   1      34.150  20.798  23.653  1.00  0.00     0.346 HD
BRANCH  15  18
ATOM     18  C   UNL A   1      33.923  19.052  24.664  1.00  0.00     0.182 C 
ATOM     19  C   UNL A   1      32.912  18.719  23.567  1.00  0.00     0.065 C 
ATOM     20  C   UNL A   1      35.012  18.006  24.416  1.00  0.00     0.065 C 
ATOM     21  C   UNL A   1      32.848  17.197  23.614  1.00  0.00     0.006 C 
ATOM     22  C   UNL A   1      34.264  16.748  23.975  1.00  0.00     0.006 C 
ENDBRANCH  15  18
ENDBRANCH  14  15
ENDBRANCH  12  14
ENDBRANCH   7  12
ENDBRANCH   6   7
ENDBRANCH   3   6
ENDBRANCH   1   2
BRANCH   1  23
ATOM     23  C   UNL A   1      31.448  28.119  25.563  1.00  0.00     0.023 C 
BRANCH  23  24
ATOM     24  C   UNL A   1      32.961  28.221  25.751  1.00  0.00     0.023 C 
BRANCH  24  25
ATOM     25  C   UNL A   1      33.427  28.531  27.171  1.00  0.00     0.116 C 
BRANCH  25  26
ATOM     26  N   UNL A   1      33.369  29.945  27.519  1.00  0.00    -0.352 N 
ATOM     27  C   UNL A   1      34.351  30.733  28.073  1.00  0.00     0.251 C 
ATOM     28  H   UNL A   1      32.513  30.396  27.334  1.00  0.00     0.163 HD
ATOM     29  O   UNL A   1      34.115  31.901  28.369  1.00  0.00    -0.269 OA
BRANCH  27  30
ATOM     30  C   UNL A   1      35.676  30.142  28.352  1.00  0.00     0.039 A 
ATOM     31  C   UNL A   1      36.654  30.177  27.356  1.00  0.00     0.014 A 
ATOM     32  C   UNL A   1      35.968  29.621  29.615  1.00  0.00     0.014 A 
ATOM     33  C   UNL A   1      37.954  29.767  27.654  1.00  0.00     0.010 A 
ATOM     34  C   UNL A   1      37.280  29.281  29.931  1.00  0.00     0.010 A 
ATOM     35  C   UNL A   1      38.288  29.360  28.956  1.00  0.00    -0.014 A 
BRANCH  35  36
ATOM     36  C   UNL A   1      39.687  29.032  29.330  1.00  0.00     0.031 A 
ATOM     37  C   UNL A   1      40.548  30.061  30.008  1.00  0.00     0.074 A 
ATOM     38  C   UNL A   1      40.207  27.837  28.981  1.00  0.00     0.049 A 
ATOM     39  N   UNL A   1      41.813  29.994  30.330  1.00  0.00    -0.248 NA
ATOM     40  C   UNL A   1      39.912  31.347  30.340  1.00  0.00     0.031 C 
ATOM     41  C   UNL A   1      39.493  26.774  28.269  1.00  0.00     0.029 A 
ATOM     42  N   UNL A   1      41.465  27.320  29.169  1.00  0.00    -0.354 N 
ATOM     43  C   UNL A   1      42.131  31.232  30.875  1.00  0.00     0.074 A 
ATOM     44  C   UNL A   1      40.937  32.045  30.805  1.00  0.00     0.031 C 
ATOM     45  C   UNL A   1      40.317  25.725  28.101  1.00  0.00     0.029 A 
ATOM     46  C   UNL A   1      41.624  26.053  28.659  1.00  0.00     0.049 A 
ATOM     47  H   UNL A   1      42.186  27.811  29.625  1.00  0.00     0.167 HD
ATOM     48  C   UNL A   1      43.306  31.648  31.405  1.00  0.00     0.031 A 
ATOM     49  C   UNL A   1      42.703  25.246  28.637  1.00  0.00     0.031 A 
ATOM     50  C   UNL A   1      44.483  30.828  31.505  1.00  0.00     0.049 A 
ATOM     51  C   UNL A   1      43.986  25.720  29.263  1.00  0.00     0.074 A 
ATOM     52  C   UNL A   1      45.700  31.137  32.087  1.00  0.00     0.029 A 
ATOM     53  N   UNL A   1      44.589  29.535  31.016  1.00  0.00    -0.354 N 
ATOM     54  N   UNL A   1      44.246  26.873  29.834  1.00  0.00    -0.248 NA
ATOM     55  C   UNL A   1      45.117  24.782  29.251  1.00  0.00     0.031 C 
ATOM     56  C   UNL A   1      46.553  30.042  31.920  1.00  0.00     0.029 A 
ATOM     57  C   UNL A   1      45.854  29.037  31.273  1.00  0.00     0.049 A 
ATOM     58  H   UNL A   1      43.871  29.045  30.554  1.00  0.00     0.167 HD
ATOM     59  C   UNL A   1      45.562  26.787  30.272  1.00  0.00     0.074 A 
ATOM     60  C   UNL A   1      46.040  25.468  29.913  1.00  0.00     0.031 C 
ATOM     61  C   UNL A   1      46.309  27.719  30.913  1.00  0.00     0.031 A 
BRANCH  48  62
ATOM     62  C   UNL A   1      43.373  33.058  31.927  1.00  0.00    -0.014 A 
ATOM     63  C   UNL A   1      43.015  33.356  33.254  1.00  0.00     0.010 A 
ATOM     64  C   UNL A   1      43.839  34.091  31.093  1.00  0.00     0.010 A 
ATOM     65  C   UNL A   1      43.088  34.668  33.728  1.00  0.00     0.020 A 
ATOM     66  C   UNL A   1      43.937  35.401  31.571  1.00  0.00     0.020 A 
ATOM     67  C   UNL A   1      43.545  35.683  32.883  1.00  0.00     0.054 A 
BRANCH  67  68
ATOM     68  S   UNL A   1      43.658  37.373  33.532  1.00  0.00     0.124 S 
ATOM     69  O   UNL A   1      42.399  37.498  34.263  1.00  0.00    -0.237 OA
ATOM     70  O   UNL A   1      44.861  37.320  34.359  1.00  0.00    -0.237 OA
ATOM     71  O   UNL A   1      43.767  38.198  32.332  1.00  0.00    -0.744 OA
ENDBRANCH  67  68
ENDBRANCH  48  62
BRANCH  49  72
ATOM     72  C   UNL A   1      42.614  23.896  28.019  1.00  0.00    -0.014 A 
ATOM     73  C   UNL A   1      42.947  23.709  26.666  1.00  0.00     0.010 A 
ATOM     74  C   UNL A   1      42.193  22.791  28.780  1.00  0.00     0.010 A 
ATOM     75  C   UNL A   1      42.840  22.445  26.078  1.00  0.00     0.020 A 
ATOM     76  C   UNL A   1      42.106  21.521  28.202  1.00  0.00     0.020 A 
ATOM     77  C   UNL A   1      42.416  21.359  26.849  1.00  0.00     0.054 A 
BRANCH  77  78
ATOM     78  S   UNL A   1      42.321  19.720  26.079  1.00  0.00     0.124 S 
ATOM     79  O   UNL A   1      43.232  19.862  24.949  1.00  0.00    -0.237 OA
ATOM     80  O   UNL A   1      42.776  18.838  27.152  1.00  0.00    -0.237 OA
ATOM     81  O   UNL A   1      40.907  19.588  25.735  1.00  0.00    -0.744 OA
ENDBRANCH  77  78
ENDBRANCH  49  72
BRANCH  61  82
ATOM     82  C   UNL A   1      47.710  27.333  31.301  1.00  0.00    -0.014 A 
ATOM     83  C   UNL A   1      47.978  26.719  32.536  1.00  0.00     0.010 A 
ATOM     84  C   UNL A   1      48.763  27.539  30.391  1.00  0.00     0.010 A 
ATOM     85  C   UNL A   1      49.282  26.343  32.868  1.00  0.00     0.020 A 
ATOM     86  C   UNL A   1      50.064  27.143  30.709  1.00  0.00     0.020 A 
ATOM     87  C   UNL A   1      50.318  26.559  31.953  1.00  0.00     0.054 A 
BRANCH  87  88
ATOM     88  S   UNL A   1      51.995  26.022  32.385  1.00  0.00     0.124 S 
ATOM     89  O   UNL A   1      52.780  27.221  32.103  1.00  0.00    -0.237 OA
ATOM     90  O   UNL A   1      51.868  25.671  33.797  1.00  0.00    -0.237 OA
ATOM     91  O   UNL A   1      52.238  24.893  31.489  1.00  0.00    -0.744 OA
ENDBRANCH  87  88
ENDBRANCH  61  82
ENDBRANCH  35  36
ENDBRANCH  27  30
ENDBRANCH  25  26
ENDBRANCH  24  25
ENDBRANCH  23  24
ENDBRANCH   1  23
TORSDOF 20
ENDMDL
MODEL 3
REMARK VINA RESULT:      -9.9      2.777      3.746
REMARK SMILES CC(C)(C)N(CC(=O)NCCCCNC(=O)c1ccc(-c2c3nc(c(-c4ccc(S(=O)(=O)[O-])cc4)c4ccc([nH]4)c(-c4ccc(S(=O)(=O)[O-])cc4)c4nc(c(-c5ccc(S(=O)(=O)[O-])cc5)c5ccc2[nH]5)C=C4)C=C3)cc1)C(=O)C[NH2+]C1CCCC1
REMARK SMILES IDX 10 1 9 2 7 3 8 4 6 6 5 7 2 8 1 9 3 10 4 11 77 12 78 13 79 14
REMARK SMILES IDX 80 15 81 18 82 19 85 20 83 21 84 22 11 23 12 24 13 25 14 26
REMARK SMILES IDX 15 27 16 29 17 30 18 31 76 32 19 33 75 34 20 35 21 36 22 37
REMARK SMILES IDX 69 38 23 39 74 40 68 41 70 42 24 43 73 44 67 45 66 46 25 48
REMARK SMILES IDX 55 49 36 50 54 51 37 52 40 53 53 54 71 55 38 56 39 57 52 59
REMARK SMILES IDX 72 60 41 61 26 62 27 63 35 64 28 65 34 66 29 67 30 68 31 69
REMARK SMILES IDX 32 70 33 71 56 72 57 73 65 74 58 75 64 76 59 77 60 78 61 79
REMARK SMILES IDX 62 80 63 81 42 82 43 83 51 84 44 85 50 86 45 87 46 88 47 89
REMARK SMILES IDX 48 90 49 91
REMARK H PARENT 9 5 80 16 80 17 14 28 70 47 40 58
REMARK Flexibility Score: inf
ROOT
ATOM      1  C   UNL A   1      31.872  27.449  23.884  1.00  0.00     0.116 C 
ENDROOT
BRANCH   1   2
ATOM      2  N   UNL A   1      33.010  26.624  23.561  1.00  0.00    -0.355 N 
ATOM      3  C   UNL A   1      33.065  25.270  23.419  1.00  0.00     0.239 C 
ATOM      4  O   UNL A   1      34.026  24.813  22.791  1.00  0.00    -0.273 OA
ATOM      5  H   UNL A   1      33.860  27.103  23.425  1.00  0.00     0.163 HD
BRANCH   3   6
ATOM      6  C   UNL A   1      31.912  24.347  23.871  1.00  0.00     0.220 C 
BRANCH   6   7
ATOM      7  N   UNL A   1      32.150  23.388  24.976  1.00  0.00    -0.324 N 
BRANCH   7   8
ATOM      8  C   UNL A   1      31.763  23.737  26.404  1.00  0.00     0.035 C 
ATOM      9  C   UNL A   1      31.963  25.230  26.777  1.00  0.00     0.034 C 
ATOM     10  C   UNL A   1      32.590  22.927  27.431  1.00  0.00     0.034 C 
ATOM     11  C   UNL A   1      30.259  23.456  26.640  1.00  0.00     0.034 C 
ENDBRANCH   7   8
BRANCH   7  12
ATOM     12  C   UNL A   1      32.403  22.032  24.667  1.00  0.00     0.278 C 
ATOM     13  O   UNL A   1      31.590  21.133  24.909  1.00  0.00    -0.268 OA
BRANCH  12  14
ATOM     14  C   UNL A   1      33.718  21.637  23.964  1.00  0.00     0.362 C 
BRANCH  14  15
ATOM     15  N   UNL A   1      34.601  20.938  24.918  1.00  0.00    -0.336 N 
ATOM     16  H   UNL A   1      34.810  20.007  24.558  1.00  0.00     0.346 HD
ATOM     17  H   UNL A   1      34.121  20.878  25.817  1.00  0.00     0.346 HD
BRANCH  15  18
ATOM     18  C   UNL A   1      35.854  21.667  25.112  1.00  0.00     0.182 C 
ATOM     19  C   UNL A   1      36.248  22.475  23.877  1.00  0.00     0.065 C 
ATOM     20  C   UNL A   1      35.767  22.755  26.184  1.00  0.00     0.065 C 
ATOM     21  C   UNL A   1      37.317  23.420  24.414  1.00  0.00     0.006 C 
ATOM     22  C   UNL A   1      36.884  23.742  25.843  1.00  0.00     0.006 C 
ENDBRANCH  15  18
ENDBRANCH  14  15
ENDBRANCH  12  14
ENDBRANCH   7  12
ENDBRANCH   6   7
ENDBRANCH   3   6
ENDBRANCH   1   2
BRANCH   1  23
ATOM     23  C   UNL A   1      32.161  28.465  24.983  1.00  0.00     0.023 C 
BRANCH  23  24
ATOM     24  C   UNL A   1      33.581  28.423  25.546  1.00  0.00     0.023 C 
BRANCH  24  25
ATOM     25  C   UNL A   1      33.691  28.551  27.062  1.00  0.00     0.116 C 
BRANCH  25  26
ATOM     26  N   UNL A   1      33.651  29.925  27.546  1.00  0.00    -0.352 N 
ATOM     27  C   UNL A   1      34.644  30.642  28.171  1.00  0.00     0.251 C 
ATOM     28  H   UNL A   1      32.801  30.403  27.409  1.00  0.00     0.163 HD
ATOM     29  O   UNL A   1      34.424  31.779  28.580  1.00  0.00    -0.269 OA
BRANCH  27  30
ATOM     30  C   UNL A   1      35.963  30.011  28.388  1.00  0.00     0.039 A 
ATOM     31  C   UNL A   1      36.911  30.062  27.365  1.00  0.00     0.014 A 
ATOM     32  C   UNL A   1      36.278  29.434  29.621  1.00  0.00     0.014 A 
ATOM     33  C   UNL A   1      38.210  29.610  27.608  1.00  0.00     0.010 A 
ATOM     34  C   UNL A   1      37.590  29.052  29.884  1.00  0.00     0.010 A 
ATOM     35  C   UNL A   1      38.571  29.145  28.883  1.00  0.00    -0.014 A 
BRANCH  35  36
ATOM     36  C   UNL A   1      39.972  28.771  29.202  1.00  0.00     0.031 A 
ATOM     37  C   UNL A   1      40.894  29.772  29.840  1.00  0.00     0.074 A 
ATOM     38  C   UNL A   1      40.436  27.557  28.838  1.00  0.00     0.049 A 
ATOM     39  N   UNL A   1      42.168  29.662  30.112  1.00  0.00    -0.248 NA
ATOM     40  C   UNL A   1      40.316  31.080  30.191  1.00  0.00     0.031 C 
ATOM     41  C   UNL A   1      39.658  26.517  28.161  1.00  0.00     0.029 A 
ATOM     42  N   UNL A   1      41.683  26.998  28.977  1.00  0.00    -0.354 N 
ATOM     43  C   UNL A   1      42.550  30.890  30.638  1.00  0.00     0.074 A 
ATOM     44  C   UNL A   1      41.383  31.744  30.611  1.00  0.00     0.031 C 
ATOM     45  C   UNL A   1      40.438  25.440  27.964  1.00  0.00     0.029 A 
ATOM     46  C   UNL A   1      41.777  25.725  28.468  1.00  0.00     0.049 A 
ATOM     47  H   UNL A   1      42.437  27.466  29.402  1.00  0.00     0.167 HD
ATOM     48  C   UNL A   1      43.759  31.268  31.118  1.00  0.00     0.031 A 
ATOM     49  C   UNL A   1      42.826  24.881  28.407  1.00  0.00     0.031 A 
ATOM     50  C   UNL A   1      44.910  30.408  31.174  1.00  0.00     0.049 A 
ATOM     51  C   UNL A   1      44.148  25.313  28.978  1.00  0.00     0.074 A 
ATOM     52  C   UNL A   1      46.159  30.676  31.706  1.00  0.00     0.029 A 
ATOM     53  N   UNL A   1      44.952  29.110  30.688  1.00  0.00    -0.354 N 
ATOM     54  N   UNL A   1      44.471  26.458  29.533  1.00  0.00    -0.248 NA
ATOM     55  C   UNL A   1      45.245  24.337  28.925  1.00  0.00     0.031 C 
ATOM     56  C   UNL A   1      46.968  29.552  31.510  1.00  0.00     0.029 A 
ATOM     57  C   UNL A   1      46.209  28.570  30.895  1.00  0.00     0.049 A 
ATOM     58  H   UNL A   1      44.200  28.644  30.258  1.00  0.00     0.167 HD
ATOM     59  C   UNL A   1      45.800  26.328  29.918  1.00  0.00     0.074 A 
ATOM     60  C   UNL A   1      46.217  24.992  29.546  1.00  0.00     0.031 C 
ATOM     61  C   UNL A   1      46.603  27.236  30.524  1.00  0.00     0.031 A 
BRANCH  48  62
ATOM     62  C   UNL A   1      43.895  32.676  31.630  1.00  0.00    -0.014 A 
ATOM     63  C   UNL A   1      43.741  32.967  32.997  1.00  0.00     0.010 A 
ATOM     64  C   UNL A   1      44.223  33.716  30.740  1.00  0.00     0.010 A 
ATOM     65  C   UNL A   1      43.876  34.278  33.460  1.00  0.00     0.020 A 
ATOM     66  C   UNL A   1      44.383  35.024  31.203  1.00  0.00     0.020 A 
ATOM     67  C   UNL A   1      44.193  35.299  32.560  1.00  0.00     0.054 A 
BRANCH  67  68
ATOM     68  S   UNL A   1      44.392  36.988  33.193  1.00  0.00     0.124 S 
ATOM     69  O   UNL A   1      45.163  36.762  34.413  1.00  0.00    -0.237 OA
ATOM     70  O   UNL A   1      45.112  37.654  32.110  1.00  0.00    -0.237 OA
ATOM     71  O   UNL A   1      43.020  37.444  33.397  1.00  0.00    -0.744 OA
ENDBRANCH  67  68
ENDBRANCH  48  62
BRANCH  49  72
ATOM     72  C   UNL A   1      42.666  23.533  27.799  1.00  0.00    -0.014 A 
ATOM     73  C   UNL A   1      42.102  22.480  28.542  1.00  0.00     0.010 A 
ATOM     74  C   UNL A   1      43.077  23.294  26.475  1.00  0.00     0.010 A 
ATOM     75  C   UNL A   1      41.974  21.206  27.980  1.00  0.00     0.020 A 
ATOM     76  C   UNL A   1      42.929  22.028  25.902  1.00  0.00     0.020 A 
ATOM     77  C   UNL A   1      42.392  20.987  26.665  1.00  0.00     0.054 A 
BRANCH  77  78
ATOM     78  S   UNL A   1      42.182  19.338  25.939  1.00  0.00     0.124 S 
ATOM     79  O   UNL A   1      42.983  19.437  24.724  1.00  0.00    -0.237 OA
ATOM     80  O   UNL A   1      42.715  18.462  26.980  1.00  0.00    -0.237 OA
ATOM     81  O   UNL A   1      40.738  19.238  25.734  1.00  0.00    -0.744 OA
ENDBRANCH  77  78
ENDBRANCH  49  72
BRANCH  61  82
ATOM     82  C   UNL A   1      48.005  26.803  30.857  1.00  0.00    -0.014 A 
ATOM     83  C   UNL A   1      49.076  27.082  29.991  1.00  0.00     0.010 A 
ATOM     84  C   UNL A   1      48.259  26.157  32.081  1.00  0.00     0.010 A 
ATOM     85  C   UNL A   1      50.375  26.696  30.330  1.00  0.00     0.020 A 
ATOM     86  C   UNL A   1      49.559  25.791  32.434  1.00  0.00     0.020 A 
ATOM     87  C   UNL A   1      50.609  26.051  31.548  1.00  0.00     0.054 A 
BRANCH  87  88
ATOM     88  S   UNL A   1      52.309  25.600  31.989  1.00  0.00     0.124 S 
ATOM     89  O   UNL A   1      52.173  24.183  32.313  1.00  0.00    -0.237 OA
ATOM     90  O   UNL A   1      53.049  25.898  30.766  1.00  0.00    -0.237 OA
ATOM     91  O   UNL A   1      52.615  26.472  33.122  1.00  0.00    -0.744 OA
ENDBRANCH  87  88
ENDBRANCH  61  82
ENDBRANCH  35  36
ENDBRANCH  27  30
ENDBRANCH  25  26
ENDBRANCH  24  25
ENDBRANCH  23  24
ENDBRANCH   1  23
TORSDOF 20
ENDMDL
