MODEL 1
REMARK VINA RESULT:     -11.2      0.000      0.000
REMARK SMILES Cc1sc(C(=O)NCCCCNC(=O)c2ccc(-c3c4nc(c(-c5ccc(S(=O)(=O)[O-])cc5)c5ccc([nH]5)c(-c5ccc(S(=O)(=O)[O-])cc5)c5nc(c(-c6ccc(S(=O)(=O)[O-])cc6)c6ccc3[nH]6)C=C5)C=C4)cc2)cc1S(=O)(=O)N1C[C@@H](C)[C@H](C)C1
REMARK SMILES IDX 10 1 9 2 8 3 7 4 5 5 6 6 4 8 1 9 2 10 3 11 76 12 75 13 77 14
REMARK SMILES IDX 78 15 79 16 80 17 81 18 86 19 82 20 84 21 83 22 85 23 11 24
REMARK SMILES IDX 12 25 13 26 14 28 15 29 16 30 74 31 17 32 73 33 18 34 19 35
REMARK SMILES IDX 20 36 67 37 21 38 72 39 66 40 68 41 22 42 71 43 65 44 64 45
REMARK SMILES IDX 23 47 53 48 34 49 52 50 35 51 38 52 51 53 69 54 36 55 37 56
REMARK SMILES IDX 50 58 70 59 39 60 24 61 25 62 33 63 26 64 32 65 27 66 28 67
REMARK SMILES IDX 29 68 30 69 31 70 54 71 55 72 63 73 56 74 62 75 57 76 58 77
REMARK SMILES IDX 59 78 60 79 61 80 40 81 41 82 49 83 42 84 48 85 43 86 44 87
REMARK SMILES IDX 45 88 46 89 47 90
REMARK H PARENT 7 7 12 27 68 46 38 57
REMARK Flexibility Score: inf
ROOT
ATOM      1  C   UNL A   1      32.452  27.995  26.347  1.00  0.00     0.023 C 
ENDROOT
BRANCH   1   2
ATOM      2  C   UNL A   1      32.353  28.657  24.968  1.00  0.00     0.023 C 
BRANCH   2   3
ATOM      3  C   UNL A   1      32.013  27.674  23.848  1.00  0.00     0.116 C 
BRANCH   3   4
ATOM      4  N   UNL A   1      30.593  27.406  23.827  1.00  0.00    -0.351 N 
ATOM      5  C   UNL A   1      29.871  26.270  24.084  1.00  0.00     0.261 C 
ATOM      6  O   UNL A   1      28.651  26.385  23.925  1.00  0.00    -0.268 OA
ATOM      7  H   UNL A   1      30.043  28.186  23.582  1.00  0.00     0.163 HD
BRANCH   5   8
ATOM      8  C   UNL A   1      30.501  25.040  24.549  1.00  0.00     0.093 A 
ATOM      9  C   UNL A   1      32.238  22.895  27.334  1.00  0.00     0.058 C 
ATOM     10  C   UNL A   1      31.676  23.433  26.073  1.00  0.00     0.022 A 
ATOM     11  S   UNL A   1      30.903  24.961  26.215  1.00  0.00    -0.134 S 
ATOM     12  C   UNL A   1      31.628  22.973  24.772  1.00  0.00     0.097 A 
ATOM     13  C   UNL A   1      30.859  23.857  23.936  1.00  0.00     0.047 A 
BRANCH  12  14
ATOM     14  S   UNL A   1      32.351  21.559  24.042  1.00  0.00     0.244 S 
ATOM     15  O   UNL A   1      31.916  20.490  24.918  1.00  0.00    -0.207 OA
ATOM     16  O   UNL A   1      31.891  21.646  22.674  1.00  0.00    -0.207 OA
BRANCH  14  17
ATOM     17  N   UNL A   1      34.007  21.559  24.024  1.00  0.00    -0.197 NA
ATOM     18  C   UNL A   1      34.786  22.759  23.732  1.00  0.00     0.106 C 
ATOM     19  C   UNL A   1      34.791  20.499  24.644  1.00  0.00     0.106 C 
ATOM     20  C   UNL A   1      36.213  22.422  24.190  1.00  0.00     0.005 C 
ATOM     21  C   UNL A   1      36.077  21.184  25.097  1.00  0.00     0.005 C 
ATOM     22  C   UNL A   1      36.863  23.599  24.915  1.00  0.00     0.009 C 
ATOM     23  C   UNL A   1      37.280  20.253  25.014  1.00  0.00     0.009 C 
ENDBRANCH  14  17
ENDBRANCH  12  14
ENDBRANCH   5   8
ENDBRANCH   3   4
ENDBRANCH   2   3
ENDBRANCH   1   2
BRANCH   1  24
ATOM     24  C   UNL A   1      33.619  28.480  27.201  1.00  0.00     0.116 C 
BRANCH  24  25
ATOM     25  N   UNL A   1      33.519  29.888  27.557  1.00  0.00    -0.352 N 
ATOM     26  C   UNL A   1      34.475  30.677  28.150  1.00  0.00     0.251 C 
ATOM     27  H   UNL A   1      32.664  30.328  27.347  1.00  0.00     0.163 HD
ATOM     28  O   UNL A   1      34.210  31.818  28.510  1.00  0.00    -0.269 OA
BRANCH  26  29
ATOM     29  C   UNL A   1      35.813  30.104  28.379  1.00  0.00     0.039 A 
ATOM     30  C   UNL A   1      36.753  30.150  27.350  1.00  0.00     0.014 A 
ATOM     31  C   UNL A   1      36.152  29.599  29.638  1.00  0.00     0.014 A 
ATOM     32  C   UNL A   1      38.063  29.743  27.604  1.00  0.00     0.010 A 
ATOM     33  C   UNL A   1      37.475  29.269  29.909  1.00  0.00     0.010 A 
ATOM     34  C   UNL A   1      38.443  29.337  28.895  1.00  0.00    -0.014 A 
BRANCH  34  35
ATOM     35  C   UNL A   1      39.849  28.980  29.204  1.00  0.00     0.031 A 
ATOM     36  C   UNL A   1      40.762  29.997  29.833  1.00  0.00     0.074 A 
ATOM     37  C   UNL A   1      40.319  27.762  28.863  1.00  0.00     0.049 A 
ATOM     38  N   UNL A   1      42.030  29.892  30.132  1.00  0.00    -0.248 NA
ATOM     39  C   UNL A   1      40.179  31.315  30.145  1.00  0.00     0.031 C 
ATOM     40  C   UNL A   1      39.544  26.705  28.208  1.00  0.00     0.029 A 
ATOM     41  N   UNL A   1      41.565  27.208  29.018  1.00  0.00    -0.354 N 
ATOM     42  C   UNL A   1      42.400  31.127  30.649  1.00  0.00     0.074 A 
ATOM     43  C   UNL A   1      41.239  31.984  30.576  1.00  0.00     0.031 C 
ATOM     44  C   UNL A   1      40.321  25.623  28.046  1.00  0.00     0.029 A 
ATOM     45  C   UNL A   1      41.661  25.920  28.543  1.00  0.00     0.049 A 
ATOM     46  H   UNL A   1      42.319  27.687  29.430  1.00  0.00     0.167 HD
ATOM     47  C   UNL A   1      43.595  31.508  31.160  1.00  0.00     0.031 A 
ATOM     48  C   UNL A   1      42.711  25.077  28.504  1.00  0.00     0.031 A 
ATOM     49  C   UNL A   1      44.743  30.645  31.245  1.00  0.00     0.049 A 
ATOM     50  C   UNL A   1      44.031  25.530  29.068  1.00  0.00     0.074 A 
ATOM     51  C   UNL A   1      45.981  30.916  31.802  1.00  0.00     0.029 A 
ATOM     52  N   UNL A   1      44.797  29.347  30.762  1.00  0.00    -0.354 N 
ATOM     53  N   UNL A   1      44.341  26.679  29.622  1.00  0.00    -0.248 NA
ATOM     54  C   UNL A   1      45.141  24.570  29.013  1.00  0.00     0.031 C 
ATOM     55  C   UNL A   1      46.802  29.804  31.601  1.00  0.00     0.029 A 
ATOM     56  C   UNL A   1      46.055  28.814  30.983  1.00  0.00     0.049 A 
ATOM     57  H   UNL A   1      44.051  28.875  30.327  1.00  0.00     0.167 HD
ATOM     58  C   UNL A   1      45.671  26.565  30.011  1.00  0.00     0.074 A 
ATOM     59  C   UNL A   1      46.102  25.232  29.644  1.00  0.00     0.031 C 
ATOM     60  C   UNL A   1      46.465  27.481  30.617  1.00  0.00     0.031 A 
BRANCH  47  61
ATOM     61  C   UNL A   1      43.726  32.920  31.668  1.00  0.00    -0.014 A 
ATOM     62  C   UNL A   1      43.477  33.234  33.016  1.00  0.00     0.010 A 
ATOM     63  C   UNL A   1      44.167  33.935  30.799  1.00  0.00     0.010 A 
ATOM     64  C   UNL A   1      43.641  34.542  33.480  1.00  0.00     0.020 A 
ATOM     65  C   UNL A   1      44.360  35.239  31.266  1.00  0.00     0.020 A 
ATOM     66  C   UNL A   1      44.085  35.535  32.601  1.00  0.00     0.054 A 
BRANCH  66  67
ATOM     67  S   UNL A   1      44.337  37.212  33.245  1.00  0.00     0.124 S 
ATOM     68  O   UNL A   1      44.761  37.934  32.047  1.00  0.00    -0.237 OA
ATOM     69  O   UNL A   1      43.013  37.561  33.752  1.00  0.00    -0.237 OA
ATOM     70  O   UNL A   1      45.367  37.041  34.266  1.00  0.00    -0.744 OA
ENDBRANCH  66  67
ENDBRANCH  47  61
BRANCH  48  71
ATOM     71  C   UNL A   1      42.561  23.715  27.918  1.00  0.00    -0.014 A 
ATOM     72  C   UNL A   1      42.900  23.471  26.576  1.00  0.00     0.010 A 
ATOM     73  C   UNL A   1      42.061  22.656  28.697  1.00  0.00     0.010 A 
ATOM     74  C   UNL A   1      42.711  22.204  26.014  1.00  0.00     0.020 A 
ATOM     75  C   UNL A   1      41.901  21.380  28.149  1.00  0.00     0.020 A 
ATOM     76  C   UNL A   1      42.210  21.167  26.806  1.00  0.00     0.054 A 
BRANCH  76  77
ATOM     77  S   UNL A   1      41.994  19.526  26.062  1.00  0.00     0.124 S 
ATOM     78  O   UNL A   1      42.801  19.633  24.851  1.00  0.00    -0.237 OA
ATOM     79  O   UNL A   1      42.518  18.639  27.097  1.00  0.00    -0.237 OA
ATOM     80  O   UNL A   1      40.551  19.436  25.848  1.00  0.00    -0.744 OA
ENDBRANCH  76  77
ENDBRANCH  48  71
BRANCH  60  81
ATOM     81  C   UNL A   1      47.869  27.063  30.967  1.00  0.00    -0.014 A 
ATOM     82  C   UNL A   1      48.159  26.404  32.174  1.00  0.00     0.010 A 
ATOM     83  C   UNL A   1      48.906  27.283  30.039  1.00  0.00     0.010 A 
ATOM     84  C   UNL A   1      49.466  26.003  32.462  1.00  0.00     0.020 A 
ATOM     85  C   UNL A   1      50.207  26.854  30.309  1.00  0.00     0.020 A 
ATOM     86  C   UNL A   1      50.481  26.228  31.527  1.00  0.00     0.054 A 
BRANCH  86  87
ATOM     87  S   UNL A   1      52.159  25.656  31.906  1.00  0.00     0.124 S 
ATOM     88  O   UNL A   1      51.945  24.235  32.168  1.00  0.00    -0.237 OA
ATOM     89  O   UNL A   1      52.888  25.966  30.678  1.00  0.00    -0.237 OA
ATOM     90  O   UNL A   1      52.544  26.452  33.069  1.00  0.00    -0.744 OA
ENDBRANCH  86  87
ENDBRANCH  60  81
ENDBRANCH  34  35
ENDBRANCH  26  29
ENDBRANCH  24  25
ENDBRANCH   1  24
TORSDOF 16
ENDMDL
MODEL 2
REMARK VINA RESULT:     -11.1      1.166      8.335
REMARK SMILES Cc1sc(C(=O)NCCCCNC(=O)c2ccc(-c3c4nc(c(-c5ccc(S(=O)(=O)[O-])cc5)c5ccc([nH]5)c(-c5ccc(S(=O)(=O)[O-])cc5)c5nc(c(-c6ccc(S(=O)(=O)[O-])cc6)c6ccc3[nH]6)C=C5)C=C4)cc2)cc1S(=O)(=O)N1C[C@@H](C)[C@H](C)C1
REMARK SMILES IDX 10 1 9 2 8 3 7 4 5 5 6 6 4 8 1 9 2 10 3 11 76 12 75 13 77 14
REMARK SMILES IDX 78 15 79 16 80 17 81 18 86 19 82 20 84 21 83 22 85 23 11 24
REMARK SMILES IDX 12 25 13 26 14 28 15 29 16 30 74 31 17 32 73 33 18 34 19 35
REMARK SMILES IDX 20 36 67 37 21 38 72 39 66 40 68 41 22 42 71 43 65 44 64 45
REMARK SMILES IDX 23 47 53 48 34 49 52 50 35 51 38 52 51 53 69 54 36 55 37 56
REMARK SMILES IDX 50 58 70 59 39 60 24 61 25 62 33 63 26 64 32 65 27 66 28 67
REMARK SMILES IDX 29 68 30 69 31 70 54 71 55 72 63 73 56 74 62 75 57 76 58 77
REMARK SMILES IDX 59 78 60 79 61 80 40 81 41 82 49 83 42 84 48 85 43 86 44 87
REMARK SMILES IDX 45 88 46 89 47 90
REMARK H PARENT 7 7 12 27 68 46 38 57
REMARK Flexibility Score: inf
ROOT
ATOM      1  C   UNL A   1      33.771  28.150  25.690  1.00  0.00     0.023 C 
ENDROOT
BRANCH   1   2
ATOM      2  C   UNL A   1      33.169  29.306  24.883  1.00  0.00     0.023 C 
BRANCH   2   3
ATOM      3  C   UNL A   1      33.262  29.102  23.371  1.00  0.00     0.116 C 
BRANCH   3   4
ATOM      4  N   UNL A   1      31.943  29.088  22.783  1.00  0.00    -0.351 N 
ATOM      5  C   UNL A   1      31.075  28.064  22.501  1.00  0.00     0.261 C 
ATOM      6  O   UNL A   1      30.028  28.412  21.946  1.00  0.00    -0.268 OA
ATOM      7  H   UNL A   1      31.603  29.980  22.539  1.00  0.00     0.163 HD
BRANCH   5   8
ATOM      8  C   UNL A   1      31.361  26.682  22.872  1.00  0.00     0.093 A 
ATOM      9  C   UNL A   1      30.988  23.612  25.280  1.00  0.00     0.058 C 
ATOM     10  C   UNL A   1      31.370  24.564  24.212  1.00  0.00     0.022 A 
ATOM     11  S   UNL A   1      30.536  26.066  24.243  1.00  0.00    -0.134 S 
ATOM     12  C   UNL A   1      32.268  24.519  23.163  1.00  0.00     0.097 A 
ATOM     13  C   UNL A   1      32.172  25.699  22.345  1.00  0.00     0.047 A 
BRANCH  12  14
ATOM     14  S   UNL A   1      33.450  23.305  22.736  1.00  0.00     0.244 S 
ATOM     15  O   UNL A   1      32.852  22.671  21.578  1.00  0.00    -0.207 OA
ATOM     16  O   UNL A   1      34.666  24.081  22.625  1.00  0.00    -0.207 OA
BRANCH  14  17
ATOM     17  N   UNL A   1      33.694  22.139  23.885  1.00  0.00    -0.197 NA
ATOM     18  C   UNL A   1      34.391  22.410  25.139  1.00  0.00     0.106 C 
ATOM     19  C   UNL A   1      32.932  20.897  23.906  1.00  0.00     0.106 C 
ATOM     20  C   UNL A   1      34.061  21.211  26.040  1.00  0.00     0.005 C 
ATOM     21  C   UNL A   1      32.854  20.516  25.382  1.00  0.00     0.005 C 
ATOM     22  C   UNL A   1      33.763  21.650  27.472  1.00  0.00     0.009 C 
ATOM     23  C   UNL A   1      32.855  19.007  25.583  1.00  0.00     0.009 C 
ENDBRANCH  14  17
ENDBRANCH  12  14
ENDBRANCH   5   8
ENDBRANCH   3   4
ENDBRANCH   2   3
ENDBRANCH   1   2
BRANCH   1  24
ATOM     24  C   UNL A   1      33.749  28.352  27.201  1.00  0.00     0.116 C 
BRANCH  24  25
ATOM     25  N   UNL A   1      33.587  29.746  27.588  1.00  0.00    -0.352 N 
ATOM     26  C   UNL A   1      34.514  30.570  28.179  1.00  0.00     0.251 C 
ATOM     27  H   UNL A   1      32.707  30.147  27.404  1.00  0.00     0.163 HD
ATOM     28  O   UNL A   1      34.201  31.689  28.569  1.00  0.00    -0.269 OA
BRANCH  26  29
ATOM     29  C   UNL A   1      35.883  30.060  28.371  1.00  0.00     0.039 A 
ATOM     30  C   UNL A   1      36.784  30.126  27.308  1.00  0.00     0.014 A 
ATOM     31  C   UNL A   1      36.288  29.594  29.626  1.00  0.00     0.014 A 
ATOM     32  C   UNL A   1      38.118  29.781  27.523  1.00  0.00     0.010 A 
ATOM     33  C   UNL A   1      37.632  29.327  29.856  1.00  0.00     0.010 A 
ATOM     34  C   UNL A   1      38.561  29.417  28.807  1.00  0.00    -0.014 A 
BRANCH  34  35
ATOM     35  C   UNL A   1      39.991  29.127  29.072  1.00  0.00     0.031 A 
ATOM     36  C   UNL A   1      40.564  27.782  28.717  1.00  0.00     0.074 A 
ATOM     37  C   UNL A   1      40.756  30.053  29.686  1.00  0.00     0.049 A 
ATOM     38  N   UNL A   1      41.772  27.324  28.916  1.00  0.00    -0.248 NA
ATOM     39  C   UNL A   1      39.653  26.815  28.078  1.00  0.00     0.031 C 
ATOM     40  C   UNL A   1      40.304  31.378  30.119  1.00  0.00     0.029 A 
ATOM     41  N   UNL A   1      42.078  30.020  30.056  1.00  0.00    -0.354 N 
ATOM     42  C   UNL A   1      41.762  26.017  28.443  1.00  0.00     0.074 A 
ATOM     43  C   UNL A   1      40.417  25.736  27.997  1.00  0.00     0.031 C 
ATOM     44  C   UNL A   1      41.336  32.040  30.666  1.00  0.00     0.029 A 
ATOM     45  C   UNL A   1      42.511  31.175  30.665  1.00  0.00     0.049 A 
ATOM     46  H   UNL A   1      42.660  29.242  29.901  1.00  0.00     0.167 HD
ATOM     47  C   UNL A   1      42.789  25.136  28.367  1.00  0.00     0.031 A 
ATOM     48  C   UNL A   1      43.717  31.498  31.172  1.00  0.00     0.031 A 
ATOM     49  C   UNL A   1      44.130  25.428  28.798  1.00  0.00     0.049 A 
ATOM     50  C   UNL A   1      44.837  30.496  31.086  1.00  0.00     0.074 A 
ATOM     51  C   UNL A   1      45.254  24.626  28.707  1.00  0.00     0.029 A 
ATOM     52  N   UNL A   1      44.530  26.611  29.400  1.00  0.00    -0.354 N 
ATOM     53  N   UNL A   1      44.826  29.290  30.566  1.00  0.00    -0.248 NA
ATOM     54  C   UNL A   1      46.134  30.900  31.643  1.00  0.00     0.031 C 
ATOM     55  C   UNL A   1      46.319  25.299  29.309  1.00  0.00     0.029 A 
ATOM     56  C   UNL A   1      45.877  26.550  29.712  1.00  0.00     0.049 A 
ATOM     57  H   UNL A   1      43.942  27.381  29.580  1.00  0.00     0.167 HD
ATOM     58  C   UNL A   1      46.123  28.808  30.705  1.00  0.00     0.074 A 
ATOM     59  C   UNL A   1      46.894  29.856  31.341  1.00  0.00     0.031 C 
ATOM     60  C   UNL A   1      46.631  27.605  30.339  1.00  0.00     0.031 A 
BRANCH  47  61
ATOM     61  C   UNL A   1      42.504  23.772  27.798  1.00  0.00    -0.014 A 
ATOM     62  C   UNL A   1      42.564  23.534  26.413  1.00  0.00     0.010 A 
ATOM     63  C   UNL A   1      42.237  22.697  28.665  1.00  0.00     0.010 A 
ATOM     64  C   UNL A   1      42.336  22.253  25.904  1.00  0.00     0.020 A 
ATOM     65  C   UNL A   1      42.036  21.408  28.163  1.00  0.00     0.020 A 
ATOM     66  C   UNL A   1      42.077  21.197  26.783  1.00  0.00     0.054 A 
BRANCH  66  67
ATOM     67  S   UNL A   1      41.835  19.537  26.096  1.00  0.00     0.124 S 
ATOM     68  O   UNL A   1      42.223  18.686  27.219  1.00  0.00    -0.237 OA
ATOM     69  O   UNL A   1      40.413  19.531  25.767  1.00  0.00    -0.237 OA
ATOM     70  O   UNL A   1      42.738  19.501  24.948  1.00  0.00    -0.744 OA
ENDBRANCH  66  67
ENDBRANCH  47  61
BRANCH  48  71
ATOM     71  C   UNL A   1      43.935  32.831  31.802  1.00  0.00    -0.014 A 
ATOM     72  C   UNL A   1      44.398  33.917  31.039  1.00  0.00     0.010 A 
ATOM     73  C   UNL A   1      43.695  33.017  33.176  1.00  0.00     0.010 A 
ATOM     74  C   UNL A   1      44.651  35.153  31.642  1.00  0.00     0.020 A 
ATOM     75  C   UNL A   1      43.914  34.260  33.777  1.00  0.00     0.020 A 
ATOM     76  C   UNL A   1      44.408  35.315  33.010  1.00  0.00     0.054 A 
BRANCH  76  77
ATOM     77  S   UNL A   1      44.720  36.934  33.767  1.00  0.00     0.124 S 
ATOM     78  O   UNL A   1      44.660  36.621  35.190  1.00  0.00    -0.237 OA
ATOM     79  O   UNL A   1      46.043  37.275  33.248  1.00  0.00    -0.237 OA
ATOM     80  O   UNL A   1      43.629  37.764  33.260  1.00  0.00    -0.744 OA
ENDBRANCH  76  77
ENDBRANCH  48  71
BRANCH  60  81
ATOM     81  C   UNL A   1      48.100  27.370  30.572  1.00  0.00    -0.014 A 
ATOM     82  C   UNL A   1      49.064  27.755  29.624  1.00  0.00     0.010 A 
ATOM     83  C   UNL A   1      48.523  26.806  31.791  1.00  0.00     0.010 A 
ATOM     84  C   UNL A   1      50.423  27.549  29.877  1.00  0.00     0.020 A 
ATOM     85  C   UNL A   1      49.882  26.630  32.061  1.00  0.00     0.020 A 
ATOM     86  C   UNL A   1      50.824  26.990  31.095  1.00  0.00     0.054 A 
BRANCH  86  87
ATOM     87  S   UNL A   1      52.595  26.777  31.416  1.00  0.00     0.124 S 
ATOM     88  O   UNL A   1      53.125  26.565  30.072  1.00  0.00    -0.237 OA
ATOM     89  O   UNL A   1      52.961  28.045  32.043  1.00  0.00    -0.237 OA
ATOM     90  O   UNL A   1      52.651  25.614  32.299  1.00  0.00    -0.744 OA
ENDBRANCH  86  87
ENDBRANCH  60  81
ENDBRANCH  34  35
ENDBRANCH  26  29
ENDBRANCH  24  25
ENDBRANCH   1  24
TORSDOF 16
ENDMDL
MODEL 3
REMARK VINA RESULT:     -10.8      3.239      9.224
REMARK SMILES Cc1sc(C(=O)NCCCCNC(=O)c2ccc(-c3c4nc(c(-c5ccc(S(=O)(=O)[O-])cc5)c5ccc([nH]5)c(-c5ccc(S(=O)(=O)[O-])cc5)c5nc(c(-c6ccc(S(=O)(=O)[O-])cc6)c6ccc3[nH]6)C=C5)C=C4)cc2)cc1S(=O)(=O)N1C[C@@H](C)[C@H](C)C1
REMARK SMILES IDX 10 1 9 2 8 3 7 4 5 5 6 6 4 8 1 9 2 10 3 11 76 12 75 13 77 14
REMARK SMILES IDX 78 15 79 16 80 17 81 18 86 19 82 20 84 21 83 22 85 23 11 24
REMARK SMILES IDX 12 25 13 26 14 28 15 29 16 30 74 31 17 32 73 33 18 34 19 35
REMARK SMILES IDX 20 36 67 37 21 38 72 39 66 40 68 41 22 42 71 43 65 44 64 45
REMARK SMILES IDX 23 47 53 48 34 49 52 50 35 51 38 52 51 53 69 54 36 55 37 56
REMARK SMILES IDX 50 58 70 59 39 60 24 61 25 62 33 63 26 64 32 65 27 66 28 67
REMARK SMILES IDX 29 68 30 69 31 70 54 71 55 72 63 73 56 74 62 75 57 76 58 77
REMARK SMILES IDX 59 78 60 79 61 80 40 81 41 82 49 83 42 84 48 85 43 86 44 87
REMARK SMILES IDX 45 88 46 89 47 90
REMARK H PARENT 7 7 12 27 68 46 38 57
REMARK Flexibility Score: inf
ROOT
ATOM      1  C   UNL A   1      37.985  20.919  25.370  1.00  0.00     0.023 C 
ENDROOT
BRANCH   1   2
ATOM      2  C   UNL A   1      37.415  22.173  24.698  1.00  0.00     0.023 C 
BRANCH   2   3
ATOM      3  C   UNL A   1      36.747  23.136  25.680  1.00  0.00     0.116 C 
BRANCH   3   4
ATOM      4  N   UNL A   1      35.961  22.405  26.646  1.00  0.00    -0.351 N 
ATOM      5  C   UNL A   1      34.634  22.059  26.675  1.00  0.00     0.261 C 
ATOM      6  O   UNL A   1      34.278  21.460  27.695  1.00  0.00    -0.268 OA
ATOM      7  H   UNL A   1      36.473  22.097  27.429  1.00  0.00     0.163 HD
BRANCH   5   8
ATOM      8  C   UNL A   1      33.734  22.346  25.563  1.00  0.00     0.093 A 
ATOM      9  C   UNL A   1      31.952  21.335  22.222  1.00  0.00     0.058 C 
ATOM     10  C   UNL A   1      32.484  22.036  23.413  1.00  0.00     0.022 A 
ATOM     11  S   UNL A   1      33.426  21.062  24.469  1.00  0.00    -0.134 S 
ATOM     12  C   UNL A   1      32.392  23.331  23.885  1.00  0.00     0.097 A 
ATOM     13  C   UNL A   1      33.025  23.462  25.170  1.00  0.00     0.047 A 
BRANCH  12  14
ATOM     14  S   UNL A   1      31.675  24.751  23.163  1.00  0.00     0.244 S 
ATOM     15  O   UNL A   1      32.396  24.872  21.912  1.00  0.00    -0.207 OA
ATOM     16  O   UNL A   1      30.264  24.435  23.190  1.00  0.00    -0.207 OA
BRANCH  14  17
ATOM     17  N   UNL A   1      31.899  26.152  24.016  1.00  0.00    -0.197 NA
ATOM     18  C   UNL A   1      30.933  26.631  25.001  1.00  0.00     0.106 C 
ATOM     19  C   UNL A   1      33.202  26.795  24.126  1.00  0.00     0.106 C 
ATOM     20  C   UNL A   1      31.687  27.702  25.803  1.00  0.00     0.005 C 
ATOM     21  C   UNL A   1      33.180  27.482  25.489  1.00  0.00     0.005 C 
ATOM     22  C   UNL A   1      31.392  27.597  27.297  1.00  0.00     0.009 C 
ATOM     23  C   UNL A   1      33.983  28.776  25.488  1.00  0.00     0.009 C 
ENDBRANCH  14  17
ENDBRANCH  12  14
ENDBRANCH   5   8
ENDBRANCH   3   4
ENDBRANCH   2   3
ENDBRANCH   1   2
BRANCH   1  24
ATOM     24  C   UNL A   1      39.303  21.137  26.105  1.00  0.00     0.116 C 
BRANCH  24  25
ATOM     25  N   UNL A   1      40.179  19.975  26.060  1.00  0.00    -0.352 N 
ATOM     26  C   UNL A   1      41.551  19.950  26.143  1.00  0.00     0.251 C 
ATOM     27  H   UNL A   1      39.736  19.102  25.957  1.00  0.00     0.163 HD
ATOM     28  O   UNL A   1      42.171  18.909  25.962  1.00  0.00    -0.269 OA
BRANCH  26  29
ATOM     29  C   UNL A   1      42.259  21.214  26.415  1.00  0.00     0.039 A 
ATOM     30  C   UNL A   1      42.542  22.072  25.352  1.00  0.00     0.014 A 
ATOM     31  C   UNL A   1      42.566  21.576  27.730  1.00  0.00     0.014 A 
ATOM     32  C   UNL A   1      43.079  23.331  25.617  1.00  0.00     0.010 A 
ATOM     33  C   UNL A   1      43.027  22.860  27.996  1.00  0.00     0.010 A 
ATOM     34  C   UNL A   1      43.290  23.750  26.942  1.00  0.00    -0.014 A 
BRANCH  34  35
ATOM     35  C   UNL A   1      43.783  25.115  27.247  1.00  0.00     0.031 A 
ATOM     36  C   UNL A   1      45.233  25.455  27.034  1.00  0.00     0.074 A 
ATOM     37  C   UNL A   1      42.938  26.027  27.770  1.00  0.00     0.049 A 
ATOM     38  N   UNL A   1      45.861  26.574  27.288  1.00  0.00    -0.248 NA
ATOM     39  C   UNL A   1      46.096  24.392  26.489  1.00  0.00     0.031 C 
ATOM     40  C   UNL A   1      41.520  25.803  28.063  1.00  0.00     0.029 A 
ATOM     41  N   UNL A   1      43.151  27.329  28.152  1.00  0.00    -0.354 N 
ATOM     42  C   UNL A   1      47.189  26.345  26.950  1.00  0.00     0.074 A 
ATOM     43  C   UNL A   1      47.289  24.968  26.524  1.00  0.00     0.031 C 
ATOM     44  C   UNL A   1      40.985  26.935  28.549  1.00  0.00     0.029 A 
ATOM     45  C   UNL A   1      42.027  27.952  28.644  1.00  0.00     0.049 A 
ATOM     46  H   UNL A   1      44.025  27.774  28.080  1.00  0.00     0.167 HD
ATOM     47  C   UNL A   1      48.230  27.212  26.971  1.00  0.00     0.031 A 
ATOM     48  C   UNL A   1      41.858  29.199  29.126  1.00  0.00     0.031 A 
ATOM     49  C   UNL A   1      48.121  28.586  27.381  1.00  0.00     0.049 A 
ATOM     50  C   UNL A   1      43.034  30.138  29.150  1.00  0.00     0.074 A 
ATOM     51  C   UNL A   1      49.103  29.562  27.381  1.00  0.00     0.029 A 
ATOM     52  N   UNL A   1      46.966  29.181  27.863  1.00  0.00    -0.354 N 
ATOM     53  N   UNL A   1      44.268  29.924  28.755  1.00  0.00    -0.248 NA
ATOM     54  C   UNL A   1      42.795  31.489  29.673  1.00  0.00     0.031 C 
ATOM     55  C   UNL A   1      48.557  30.729  27.920  1.00  0.00     0.029 A 
ATOM     56  C   UNL A   1      47.216  30.502  28.190  1.00  0.00     0.049 A 
ATOM     57  H   UNL A   1      46.096  28.730  27.960  1.00  0.00     0.167 HD
ATOM     58  C   UNL A   1      44.941  31.126  28.952  1.00  0.00     0.074 A 
ATOM     59  C   UNL A   1      43.975  32.064  29.485  1.00  0.00     0.031 C 
ATOM     60  C   UNL A   1      46.241  31.425  28.713  1.00  0.00     0.031 A 
BRANCH  47  61
ATOM     61  C   UNL A   1      49.580  26.701  26.541  1.00  0.00    -0.014 A 
ATOM     62  C   UNL A   1      50.421  26.020  27.441  1.00  0.00     0.010 A 
ATOM     63  C   UNL A   1      49.985  26.846  25.202  1.00  0.00     0.010 A 
ATOM     64  C   UNL A   1      51.653  25.518  27.015  1.00  0.00     0.020 A 
ATOM     65  C   UNL A   1      51.205  26.320  24.765  1.00  0.00     0.020 A 
ATOM     66  C   UNL A   1      52.035  25.668  25.678  1.00  0.00     0.054 A 
BRANCH  66  67
ATOM     67  S   UNL A   1      53.617  24.960  25.145  1.00  0.00     0.124 S 
ATOM     68  O   UNL A   1      53.738  25.482  23.785  1.00  0.00    -0.237 OA
ATOM     69  O   UNL A   1      54.558  25.515  26.115  1.00  0.00    -0.237 OA
ATOM     70  O   UNL A   1      53.404  23.519  25.241  1.00  0.00    -0.744 OA
ENDBRANCH  66  67
ENDBRANCH  47  61
BRANCH  48  71
ATOM     71  C   UNL A   1      40.522  29.639  29.619  1.00  0.00    -0.014 A 
ATOM     72  C   UNL A   1      39.557  30.138  28.727  1.00  0.00     0.010 A 
ATOM     73  C   UNL A   1      40.214  29.576  30.990  1.00  0.00     0.010 A 
ATOM     74  C   UNL A   1      38.323  30.598  29.198  1.00  0.00     0.020 A 
ATOM     75  C   UNL A   1      38.969  30.003  31.463  1.00  0.00     0.020 A 
ATOM     76  C   UNL A   1      38.039  30.529  30.565  1.00  0.00     0.054 A 
BRANCH  76  77
ATOM     77  S   UNL A   1      36.423  31.109  31.152  1.00  0.00     0.124 S 
ATOM     78  O   UNL A   1      35.631  31.090  29.928  1.00  0.00    -0.237 OA
ATOM     79  O   UNL A   1      36.071  30.105  32.152  1.00  0.00    -0.237 OA
ATOM     80  O   UNL A   1      36.713  32.437  31.691  1.00  0.00    -0.744 OA
ENDBRANCH  76  77
ENDBRANCH  48  71
BRANCH  60  81
ATOM     81  C   UNL A   1      46.690  32.838  28.981  1.00  0.00    -0.014 A 
ATOM     82  C   UNL A   1      47.310  33.193  30.191  1.00  0.00     0.010 A 
ATOM     83  C   UNL A   1      46.541  33.811  27.975  1.00  0.00     0.010 A 
ATOM     84  C   UNL A   1      47.742  34.504  30.404  1.00  0.00     0.020 A 
ATOM     85  C   UNL A   1      47.002  35.115  28.171  1.00  0.00     0.020 A 
ATOM     86  C   UNL A   1      47.587  35.457  29.391  1.00  0.00     0.054 A 
BRANCH  86  87
ATOM     87  S   UNL A   1      48.198  37.140  29.676  1.00  0.00     0.124 S 
ATOM     88  O   UNL A   1      48.706  37.507  28.357  1.00  0.00    -0.237 OA
ATOM     89  O   UNL A   1      46.995  37.848  30.107  1.00  0.00    -0.237 OA
ATOM     90  O   UNL A   1      49.216  36.969  30.711  1.00  0.00    -0.744 OA
ENDBRANCH  86  87
ENDBRANCH  60  81
ENDBRANCH  34  35
ENDBRANCH  26  29
ENDBRANCH  24  25
ENDBRANCH   1  24
TORSDOF 16
ENDMDL
