MODEL 1
REMARK VINA RESULT:     -12.4      0.000      0.000
REMARK SMILES CC(=O)NS(=O)(=O)c1ccc(-c2ccn(C(F)F)c(=O)c2)cc1C(=O)NCCCCNC(=O)c1ccc(-c2c3nc(c(-c4ccc(S(=O)(=O)[O-])cc4)c4ccc([nH]4)c(-c4ccc(S(=O)(=O)[O-])cc4)c4nc(c(-c5ccc(S(=O)(=O)[O-])cc5)c5ccc2[nH]5)C=C4)C=C3)cc1
REMARK SMILES IDX 29 1 28 2 27 3 26 4 24 5 25 6 23 8 8 9 9 10 10 11 22 12
REMARK SMILES IDX 11 13 5 14 6 15 7 16 4 17 1 18 2 19 3 20 12 22 13 23 21 24
REMARK SMILES IDX 14 25 19 26 15 27 20 28 16 29 17 30 18 31 30 32 31 33 32 34
REMARK SMILES IDX 33 36 34 37 35 38 93 39 36 40 92 41 37 42 38 43 39 44 86 45
REMARK SMILES IDX 40 46 91 47 85 48 87 49 41 50 90 51 84 52 83 53 42 55 72 56
REMARK SMILES IDX 53 57 71 58 54 59 57 60 70 61 88 62 55 63 56 64 69 66 89 67
REMARK SMILES IDX 58 68 43 69 44 70 52 71 45 72 51 73 46 74 47 75 48 76 49 77
REMARK SMILES IDX 50 78 73 79 74 80 82 81 75 82 81 83 76 84 77 85 78 86 79 87
REMARK SMILES IDX 80 88 59 89 60 90 68 91 61 92 67 93 62 94 63 95 64 96 65 97
REMARK SMILES IDX 66 98
REMARK H PARENT 26 7 4 21 31 35 87 54 57 65
REMARK Flexibility Score: inf
ROOT
ATOM      1  C   UNL A   1      34.173  29.233  27.472  1.00  0.00     0.023 C 
ENDROOT
BRANCH   1   2
ATOM      2  C   UNL A   1      33.181  30.365  27.169  1.00  0.00     0.023 C 
BRANCH   2   3
ATOM      3  C   UNL A   1      32.260  30.174  25.967  1.00  0.00     0.116 C 
BRANCH   3   4
ATOM      4  N   UNL A   1      32.945  29.953  24.709  1.00  0.00    -0.352 N 
ATOM      5  C   UNL A   1      33.019  28.844  23.910  1.00  0.00     0.252 C 
ATOM      6  O   UNL A   1      33.576  28.929  22.817  1.00  0.00    -0.269 OA
ATOM      7  H   UNL A   1      33.443  30.733  24.373  1.00  0.00     0.163 HD
BRANCH   5   8
ATOM      8  C   UNL A   1      32.519  27.518  24.324  1.00  0.00     0.060 A 
ATOM      9  C   UNL A   1      31.214  27.043  24.178  1.00  0.00     0.100 A 
ATOM     10  C   UNL A   1      30.884  25.752  24.628  1.00  0.00     0.024 A 
ATOM     11  C   UNL A   1      31.880  24.875  25.049  1.00  0.00     0.010 A 
ATOM     12  C   UNL A   1      33.525  26.604  24.713  1.00  0.00     0.024 A 
ATOM     13  C   UNL A   1      33.220  25.266  25.000  1.00  0.00    -0.017 A 
BRANCH   9  14
ATOM     14  S   UNL A   1      29.982  27.806  23.155  1.00  0.00     0.264 S 
ATOM     15  O   UNL A   1      28.723  27.189  23.501  1.00  0.00    -0.201 OA
ATOM     16  O   UNL A   1      30.470  27.751  21.793  1.00  0.00    -0.201 OA
BRANCH  14  17
ATOM     17  N   UNL A   1      29.915  29.395  23.591  1.00  0.00    -0.249 N 
ATOM     18  C   UNL A   1      28.269  30.259  21.899  1.00  0.00     0.115 C 
ATOM     19  C   UNL A   1      28.965  30.362  23.228  1.00  0.00     0.230 C 
ATOM     20  O   UNL A   1      28.824  31.335  23.958  1.00  0.00    -0.274 OA
ATOM     21  H   UNL A   1      30.637  29.705  24.185  1.00  0.00     0.183 HD
ENDBRANCH  14  17
ENDBRANCH   9  14
BRANCH  13  22
ATOM     22  C   UNL A   1      34.280  24.238  25.052  1.00  0.00    -0.011 A 
ATOM     23  C   UNL A   1      34.636  23.459  26.220  1.00  0.00     0.027 A 
ATOM     24  C   UNL A   1      34.990  24.067  23.920  1.00  0.00     0.080 A 
ATOM     25  C   UNL A   1      35.634  22.567  26.160  1.00  0.00     0.095 A 
ATOM     26  C   UNL A   1      36.086  23.070  23.830  1.00  0.00     0.255 A 
ATOM     27  N   UNL A   1      36.349  22.366  24.991  1.00  0.00    -0.258 N 
ATOM     28  O   UNL A   1      36.667  22.934  22.758  1.00  0.00    -0.269 OA
BRANCH  27  29
ATOM     29  C   UNL A   1      37.404  21.388  24.923  1.00  0.00     0.451 C 
ATOM     30  F   UNL A   1      38.298  21.569  25.927  1.00  0.00    -0.185 F 
ATOM     31  F   UNL A   1      36.914  20.127  25.025  1.00  0.00    -0.185 F 
ENDBRANCH  27  29
ENDBRANCH  13  22
ENDBRANCH   5   8
ENDBRANCH   3   4
ENDBRANCH   2   3
ENDBRANCH   1   2
BRANCH   1  32
ATOM     32  C   UNL A   1      35.540  29.606  28.047  1.00  0.00     0.116 C 
BRANCH  32  33
ATOM     33  N   UNL A   1      35.592  29.640  29.497  1.00  0.00    -0.352 N 
ATOM     34  C   UNL A   1      36.658  29.680  30.366  1.00  0.00     0.251 C 
ATOM     35  H   UNL A   1      34.710  29.634  29.936  1.00  0.00     0.163 HD
ATOM     36  O   UNL A   1      36.432  29.669  31.574  1.00  0.00    -0.269 OA
BRANCH  34  37
ATOM     37  C   UNL A   1      38.064  29.672  29.890  1.00  0.00     0.039 A 
ATOM     38  C   UNL A   1      39.057  29.301  30.807  1.00  0.00     0.014 A 
ATOM     39  C   UNL A   1      38.432  30.028  28.591  1.00  0.00     0.014 A 
ATOM     40  C   UNL A   1      40.387  29.176  30.394  1.00  0.00     0.010 A 
ATOM     41  C   UNL A   1      39.752  29.853  28.164  1.00  0.00     0.010 A 
ATOM     42  C   UNL A   1      40.735  29.392  29.053  1.00  0.00    -0.014 A 
BRANCH  42  43
ATOM     43  C   UNL A   1      42.087  29.031  28.549  1.00  0.00     0.031 A 
ATOM     44  C   UNL A   1      42.400  27.646  28.060  1.00  0.00     0.074 A 
ATOM     45  C   UNL A   1      43.069  29.954  28.606  1.00  0.00     0.049 A 
ATOM     46  N   UNL A   1      43.553  27.148  27.689  1.00  0.00    -0.248 NA
ATOM     47  C   UNL A   1      41.282  26.695  27.997  1.00  0.00     0.031 C 
ATOM     48  C   UNL A   1      42.915  31.328  29.092  1.00  0.00     0.029 A 
ATOM     49  N   UNL A   1      44.395  29.872  28.263  1.00  0.00    -0.354 N 
ATOM     50  C   UNL A   1      43.311  25.817  27.380  1.00  0.00     0.074 A 
ATOM     51  C   UNL A   1      41.897  25.586  27.606  1.00  0.00     0.031 C 
ATOM     52  C   UNL A   1      44.094  31.962  29.002  1.00  0.00     0.029 A 
ATOM     53  C   UNL A   1      45.093  31.035  28.482  1.00  0.00     0.049 A 
ATOM     54  H   UNL A   1      44.807  29.058  27.895  1.00  0.00     0.167 HD
ATOM     55  C   UNL A   1      44.182  24.870  26.954  1.00  0.00     0.031 A 
ATOM     56  C   UNL A   1      46.395  31.327  28.300  1.00  0.00     0.031 A 
ATOM     57  C   UNL A   1      45.581  25.093  26.706  1.00  0.00     0.049 A 
ATOM     58  C   UNL A   1      47.329  30.279  27.779  1.00  0.00     0.074 A 
ATOM     59  C   UNL A   1      46.529  24.194  26.243  1.00  0.00     0.029 A 
ATOM     60  N   UNL A   1      46.236  26.299  26.893  1.00  0.00    -0.354 N 
ATOM     61  N   UNL A   1      47.073  29.029  27.479  1.00  0.00    -0.248 NA
ATOM     62  C   UNL A   1      48.727  30.680  27.569  1.00  0.00     0.031 C 
ATOM     63  C   UNL A   1      47.761  24.858  26.161  1.00  0.00     0.029 A 
ATOM     64  C   UNL A   1      47.574  26.170  26.557  1.00  0.00     0.049 A 
ATOM     65  H   UNL A   1      45.812  27.126  27.219  1.00  0.00     0.167 HD
ATOM     66  C   UNL A   1      48.277  28.496  27.039  1.00  0.00     0.074 A 
ATOM     67  C   UNL A   1      49.260  29.559  27.102  1.00  0.00     0.031 C 
ATOM     68  C   UNL A   1      48.542  27.234  26.622  1.00  0.00     0.031 A 
BRANCH  55  69
ATOM     69  C   UNL A   1      43.634  23.487  26.751  1.00  0.00    -0.014 A 
ATOM     70  C   UNL A   1      43.085  22.764  27.823  1.00  0.00     0.010 A 
ATOM     71  C   UNL A   1      43.664  22.906  25.471  1.00  0.00     0.010 A 
ATOM     72  C   UNL A   1      42.619  21.461  27.630  1.00  0.00     0.020 A 
ATOM     73  C   UNL A   1      43.186  21.610  25.271  1.00  0.00     0.020 A 
ATOM     74  C   UNL A   1      42.687  20.886  26.357  1.00  0.00     0.054 A 
BRANCH  74  75
ATOM     75  S   UNL A   1      42.096  19.188  26.115  1.00  0.00     0.124 S 
ATOM     76  O   UNL A   1      42.830  18.785  24.918  1.00  0.00    -0.237 OA
ATOM     77  O   UNL A   1      42.495  18.519  27.350  1.00  0.00    -0.237 OA
ATOM     78  O   UNL A   1      40.655  19.352  25.939  1.00  0.00    -0.744 OA
ENDBRANCH  74  75
ENDBRANCH  55  69
BRANCH  56  79
ATOM     79  C   UNL A   1      46.884  32.692  28.612  1.00  0.00    -0.014 A 
ATOM     80  C   UNL A   1      47.384  32.984  29.892  1.00  0.00     0.010 A 
ATOM     81  C   UNL A   1      46.890  33.690  27.623  1.00  0.00     0.010 A 
ATOM     82  C   UNL A   1      47.883  34.256  30.181  1.00  0.00     0.020 A 
ATOM     83  C   UNL A   1      47.400  34.959  27.904  1.00  0.00     0.020 A 
ATOM     84  C   UNL A   1      47.887  35.236  29.185  1.00  0.00     0.054 A 
BRANCH  84  85
ATOM     85  S   UNL A   1      48.609  36.862  29.542  1.00  0.00     0.124 S 
ATOM     86  O   UNL A   1      47.590  37.767  29.021  1.00  0.00    -0.237 OA
ATOM     87  O   UNL A   1      48.754  36.842  30.996  1.00  0.00    -0.237 OA
ATOM     88  O   UNL A   1      49.869  36.836  28.802  1.00  0.00    -0.744 OA
ENDBRANCH  84  85
ENDBRANCH  56  79
BRANCH  68  89
ATOM     89  C   UNL A   1      49.947  26.943  26.185  1.00  0.00    -0.014 A 
ATOM     90  C   UNL A   1      50.918  26.536  27.115  1.00  0.00     0.010 A 
ATOM     91  C   UNL A   1      50.291  27.048  24.826  1.00  0.00     0.010 A 
ATOM     92  C   UNL A   1      52.221  26.256  26.695  1.00  0.00     0.020 A 
ATOM     93  C   UNL A   1      51.591  26.760  24.403  1.00  0.00     0.020 A 
ATOM     94  C   UNL A   1      52.551  26.377  25.342  1.00  0.00     0.054 A 
BRANCH  94  95
ATOM     95  S   UNL A   1      54.234  25.970  24.798  1.00  0.00     0.124 S 
ATOM     96  O   UNL A   1      55.049  26.760  25.716  1.00  0.00    -0.237 OA
ATOM     97  O   UNL A   1      54.301  24.522  24.987  1.00  0.00    -0.237 OA
ATOM     98  O   UNL A   1      54.256  26.408  23.404  1.00  0.00    -0.744 OA
ENDBRANCH  94  95
ENDBRANCH  68  89
ENDBRANCH  42  43
ENDBRANCH  34  37
ENDBRANCH  32  33
ENDBRANCH   1  32
TORSDOF 18
ENDMDL
MODEL 2
REMARK VINA RESULT:     -12.3      2.751      8.844
REMARK SMILES CC(=O)NS(=O)(=O)c1ccc(-c2ccn(C(F)F)c(=O)c2)cc1C(=O)NCCCCNC(=O)c1ccc(-c2c3nc(c(-c4ccc(S(=O)(=O)[O-])cc4)c4ccc([nH]4)c(-c4ccc(S(=O)(=O)[O-])cc4)c4nc(c(-c5ccc(S(=O)(=O)[O-])cc5)c5ccc2[nH]5)C=C4)C=C3)cc1
REMARK SMILES IDX 29 1 28 2 27 3 26 4 24 5 25 6 23 8 8 9 9 10 10 11 22 12
REMARK SMILES IDX 11 13 5 14 6 15 7 16 4 17 1 18 2 19 3 20 12 22 13 23 21 24
REMARK SMILES IDX 14 25 19 26 15 27 20 28 16 29 17 30 18 31 30 32 31 33 32 34
REMARK SMILES IDX 33 36 34 37 35 38 93 39 36 40 92 41 37 42 38 43 39 44 86 45
REMARK SMILES IDX 40 46 91 47 85 48 87 49 41 50 90 51 84 52 83 53 42 55 72 56
REMARK SMILES IDX 53 57 71 58 54 59 57 60 70 61 88 62 55 63 56 64 69 66 89 67
REMARK SMILES IDX 58 68 43 69 44 70 52 71 45 72 51 73 46 74 47 75 48 76 49 77
REMARK SMILES IDX 50 78 73 79 74 80 82 81 75 82 81 83 76 84 77 85 78 86 79 87
REMARK SMILES IDX 80 88 59 89 60 90 68 91 61 92 67 93 62 94 63 95 64 96 65 97
REMARK SMILES IDX 66 98
REMARK H PARENT 26 7 4 21 31 35 87 54 57 65
REMARK Flexibility Score: inf
ROOT
ATOM      1  C   UNL A   1      39.348  21.777  25.713  1.00  0.00     0.023 C 
ENDROOT
BRANCH   1   2
ATOM      2  C   UNL A   1      38.903  23.075  26.401  1.00  0.00     0.023 C 
BRANCH   2   3
ATOM      3  C   UNL A   1      37.659  23.761  25.844  1.00  0.00     0.116 C 
BRANCH   3   4
ATOM      4  N   UNL A   1      37.346  23.424  24.470  1.00  0.00    -0.352 N 
ATOM      5  C   UNL A   1      36.158  23.434  23.791  1.00  0.00     0.252 C 
ATOM      6  O   UNL A   1      36.155  23.211  22.582  1.00  0.00    -0.269 OA
ATOM      7  H   UNL A   1      38.120  23.135  23.933  1.00  0.00     0.163 HD
BRANCH   5   8
ATOM      8  C   UNL A   1      34.853  23.635  24.453  1.00  0.00     0.060 A 
ATOM      9  C   UNL A   1      34.132  22.679  25.170  1.00  0.00     0.100 A 
ATOM     10  C   UNL A   1      32.894  23.018  25.743  1.00  0.00     0.024 A 
ATOM     11  C   UNL A   1      32.463  24.342  25.760  1.00  0.00     0.010 A 
ATOM     12  C   UNL A   1      34.426  24.981  24.515  1.00  0.00     0.024 A 
ATOM     13  C   UNL A   1      33.276  25.347  25.231  1.00  0.00    -0.017 A 
BRANCH   9  14
ATOM     14  S   UNL A   1      34.801  21.131  25.721  1.00  0.00     0.264 S 
ATOM     15  O   UNL A   1      35.431  21.386  26.996  1.00  0.00    -0.201 OA
ATOM     16  O   UNL A   1      35.573  20.589  24.623  1.00  0.00    -0.201 OA
BRANCH  14  17
ATOM     17  N   UNL A   1      33.523  20.119  25.971  1.00  0.00    -0.249 N 
ATOM     18  C   UNL A   1      32.562  20.022  23.649  1.00  0.00     0.115 C 
ATOM     19  C   UNL A   1      32.751  19.433  25.020  1.00  0.00     0.230 C 
ATOM     20  O   UNL A   1      32.151  18.428  25.379  1.00  0.00    -0.274 OA
ATOM     21  H   UNL A   1      33.267  19.979  26.912  1.00  0.00     0.183 HD
ENDBRANCH  14  17
ENDBRANCH   9  14
BRANCH  13  22
ATOM     22  C   UNL A   1      33.026  26.755  25.601  1.00  0.00    -0.011 A 
ATOM     23  C   UNL A   1      33.625  27.909  24.963  1.00  0.00     0.027 A 
ATOM     24  C   UNL A   1      32.209  26.950  26.654  1.00  0.00     0.080 A 
ATOM     25  C   UNL A   1      33.344  29.145  25.397  1.00  0.00     0.095 A 
ATOM     26  C   UNL A   1      31.872  28.314  27.137  1.00  0.00     0.255 A 
ATOM     27  N   UNL A   1      32.482  29.354  26.461  1.00  0.00    -0.258 N 
ATOM     28  O   UNL A   1      31.089  28.425  28.075  1.00  0.00    -0.269 OA
BRANCH  27  29
ATOM     29  C   UNL A   1      32.162  30.685  26.909  1.00  0.00     0.451 C 
ATOM     30  F   UNL A   1      33.290  31.411  27.113  1.00  0.00    -0.185 F 
ATOM     31  F   UNL A   1      31.404  31.342  25.997  1.00  0.00    -0.185 F 
ENDBRANCH  27  29
ENDBRANCH  13  22
ENDBRANCH   5   8
ENDBRANCH   3   4
ENDBRANCH   2   3
ENDBRANCH   1   2
BRANCH   1  32
ATOM     32  C   UNL A   1      39.347  20.487  26.535  1.00  0.00     0.116 C 
BRANCH  32  33
ATOM     33  N   UNL A   1      40.317  19.498  26.101  1.00  0.00    -0.352 N 
ATOM     34  C   UNL A   1      41.690  19.549  26.017  1.00  0.00     0.251 C 
ATOM     35  H   UNL A   1      39.924  18.641  25.818  1.00  0.00     0.163 HD
ATOM     36  O   UNL A   1      42.288  18.569  25.578  1.00  0.00    -0.269 OA
BRANCH  34  37
ATOM     37  C   UNL A   1      42.457  20.766  26.379  1.00  0.00     0.039 A 
ATOM     38  C   UNL A   1      43.055  21.490  25.338  1.00  0.00     0.014 A 
ATOM     39  C   UNL A   1      42.618  21.204  27.696  1.00  0.00     0.014 A 
ATOM     40  C   UNL A   1      43.706  22.699  25.603  1.00  0.00     0.010 A 
ATOM     41  C   UNL A   1      43.223  22.438  27.955  1.00  0.00     0.010 A 
ATOM     42  C   UNL A   1      43.742  23.213  26.907  1.00  0.00    -0.014 A 
BRANCH  42  43
ATOM     43  C   UNL A   1      44.211  24.600  27.166  1.00  0.00     0.031 A 
ATOM     44  C   UNL A   1      43.266  25.681  27.607  1.00  0.00     0.074 A 
ATOM     45  C   UNL A   1      45.503  24.904  26.925  1.00  0.00     0.049 A 
ATOM     46  N   UNL A   1      43.501  26.958  27.773  1.00  0.00    -0.248 NA
ATOM     47  C   UNL A   1      41.879  25.281  27.879  1.00  0.00     0.031 C 
ATOM     48  C   UNL A   1      46.523  23.961  26.458  1.00  0.00     0.029 A 
ATOM     49  N   UNL A   1      46.176  26.095  27.027  1.00  0.00    -0.354 N 
ATOM     50  C   UNL A   1      42.287  27.524  28.135  1.00  0.00     0.074 A 
ATOM     51  C   UNL A   1      41.317  26.447  28.167  1.00  0.00     0.031 C 
ATOM     52  C   UNL A   1      47.693  24.606  26.330  1.00  0.00     0.029 A 
ATOM     53  C   UNL A   1      47.501  26.011  26.674  1.00  0.00     0.049 A 
ATOM     54  H   UNL A   1      45.750  26.931  27.325  1.00  0.00     0.167 HD
ATOM     55  C   UNL A   1      42.000  28.821  28.411  1.00  0.00     0.031 A 
ATOM     56  C   UNL A   1      48.459  26.955  26.618  1.00  0.00     0.031 A 
ATOM     57  C   UNL A   1      42.958  29.894  28.402  1.00  0.00     0.049 A 
ATOM     58  C   UNL A   1      48.131  28.373  26.976  1.00  0.00     0.074 A 
ATOM     59  C   UNL A   1      42.757  31.232  28.700  1.00  0.00     0.029 A 
ATOM     60  N   UNL A   1      44.300  29.754  28.088  1.00  0.00    -0.354 N 
ATOM     61  N   UNL A   1      46.976  28.881  27.331  1.00  0.00    -0.248 NA
ATOM     62  C   UNL A   1      49.234  29.342  26.929  1.00  0.00     0.031 C 
ATOM     63  C   UNL A   1      43.978  31.903  28.554  1.00  0.00     0.029 A 
ATOM     64  C   UNL A   1      44.940  30.979  28.182  1.00  0.00     0.049 A 
ATOM     65  H   UNL A   1      44.735  28.908  27.833  1.00  0.00     0.167 HD
ATOM     66  C   UNL A   1      47.216  30.231  27.556  1.00  0.00     0.074 A 
ATOM     67  C   UNL A   1      48.625  30.458  27.307  1.00  0.00     0.031 C 
ATOM     68  C   UNL A   1      46.341  31.194  27.934  1.00  0.00     0.031 A 
BRANCH  55  69
ATOM     69  C   UNL A   1      40.568  29.146  28.724  1.00  0.00    -0.014 A 
ATOM     70  C   UNL A   1      39.634  29.353  27.695  1.00  0.00     0.010 A 
ATOM     71  C   UNL A   1      40.152  29.242  30.063  1.00  0.00     0.010 A 
ATOM     72  C   UNL A   1      38.315  29.699  28.000  1.00  0.00     0.020 A 
ATOM     73  C   UNL A   1      38.832  29.574  30.372  1.00  0.00     0.020 A 
ATOM     74  C   UNL A   1      37.926  29.823  29.338  1.00  0.00     0.054 A 
BRANCH  74  75
ATOM     75  S   UNL A   1      36.216  30.288  29.728  1.00  0.00     0.124 S 
ATOM     76  O   UNL A   1      35.485  29.699  28.610  1.00  0.00    -0.237 OA
ATOM     77  O   UNL A   1      35.990  29.659  31.026  1.00  0.00    -0.237 OA
ATOM     78  O   UNL A   1      36.258  31.749  29.748  1.00  0.00    -0.744 OA
ENDBRANCH  74  75
ENDBRANCH  55  69
BRANCH  56  79
ATOM     79  C   UNL A   1      49.833  26.575  26.208  1.00  0.00    -0.014 A 
ATOM     80  C   UNL A   1      50.277  26.847  24.903  1.00  0.00     0.010 A 
ATOM     81  C   UNL A   1      50.711  25.980  27.129  1.00  0.00     0.010 A 
ATOM     82  C   UNL A   1      51.583  26.528  24.523  1.00  0.00     0.020 A 
ATOM     83  C   UNL A   1      52.021  25.671  26.755  1.00  0.00     0.020 A 
ATOM     84  C   UNL A   1      52.446  25.941  25.451  1.00  0.00     0.054 A 
BRANCH  84  85
ATOM     85  S   UNL A   1      54.164  25.601  24.975  1.00  0.00     0.124 S 
ATOM     86  O   UNL A   1      54.909  26.419  25.926  1.00  0.00    -0.237 OA
ATOM     87  O   UNL A   1      54.274  24.156  25.162  1.00  0.00    -0.237 OA
ATOM     88  O   UNL A   1      54.216  26.042  23.583  1.00  0.00    -0.744 OA
ENDBRANCH  84  85
ENDBRANCH  56  79
BRANCH  68  89
ATOM     89  C   UNL A   1      46.891  32.578  28.117  1.00  0.00    -0.014 A 
ATOM     90  C   UNL A   1      47.407  32.986  29.359  1.00  0.00     0.010 A 
ATOM     91  C   UNL A   1      46.918  33.468  27.030  1.00  0.00     0.010 A 
ATOM     92  C   UNL A   1      47.927  34.273  29.516  1.00  0.00     0.020 A 
ATOM     93  C   UNL A   1      47.447  34.753  27.182  1.00  0.00     0.020 A 
ATOM     94  C   UNL A   1      47.937  35.151  28.428  1.00  0.00     0.054 A 
BRANCH  94  95
ATOM     95  S   UNL A   1      48.654  36.806  28.628  1.00  0.00     0.124 S 
ATOM     96  O   UNL A   1      50.042  36.497  28.962  1.00  0.00    -0.237 OA
ATOM     97  O   UNL A   1      48.445  37.418  27.317  1.00  0.00    -0.237 OA
ATOM     98  O   UNL A   1      47.865  37.390  29.711  1.00  0.00    -0.744 OA
ENDBRANCH  94  95
ENDBRANCH  68  89
ENDBRANCH  42  43
ENDBRANCH  34  37
ENDBRANCH  32  33
ENDBRANCH   1  32
TORSDOF 18
ENDMDL
MODEL 3
REMARK VINA RESULT:     -12.2      4.324      9.256
REMARK SMILES CC(=O)NS(=O)(=O)c1ccc(-c2ccn(C(F)F)c(=O)c2)cc1C(=O)NCCCCNC(=O)c1ccc(-c2c3nc(c(-c4ccc(S(=O)(=O)[O-])cc4)c4ccc([nH]4)c(-c4ccc(S(=O)(=O)[O-])cc4)c4nc(c(-c5ccc(S(=O)(=O)[O-])cc5)c5ccc2[nH]5)C=C4)C=C3)cc1
REMARK SMILES IDX 29 1 28 2 27 3 26 4 24 5 25 6 23 8 8 9 9 10 10 11 22 12
REMARK SMILES IDX 11 13 5 14 6 15 7 16 4 17 1 18 2 19 3 20 12 22 13 23 21 24
REMARK SMILES IDX 14 25 19 26 15 27 20 28 16 29 17 30 18 31 30 32 31 33 32 34
REMARK SMILES IDX 33 36 34 37 35 38 93 39 36 40 92 41 37 42 38 43 39 44 86 45
REMARK SMILES IDX 40 46 91 47 85 48 87 49 41 50 90 51 84 52 83 53 42 55 72 56
REMARK SMILES IDX 53 57 71 58 54 59 57 60 70 61 88 62 55 63 56 64 69 66 89 67
REMARK SMILES IDX 58 68 43 69 44 70 52 71 45 72 51 73 46 74 47 75 48 76 49 77
REMARK SMILES IDX 50 78 73 79 74 80 82 81 75 82 81 83 76 84 77 85 78 86 79 87
REMARK SMILES IDX 80 88 59 89 60 90 68 91 61 92 67 93 62 94 63 95 64 96 65 97
REMARK SMILES IDX 66 98
REMARK H PARENT 26 7 4 21 31 35 87 54 57 65
REMARK Flexibility Score: inf
ROOT
ATOM      1  C   UNL A   1      34.461  24.105  25.762  1.00  0.00     0.023 C 
ENDROOT
BRANCH   1   2
ATOM      2  C   UNL A   1      33.466  25.158  26.268  1.00  0.00     0.023 C 
BRANCH   2   3
ATOM      3  C   UNL A   1      32.047  24.682  26.566  1.00  0.00     0.116 C 
BRANCH   3   4
ATOM      4  N   UNL A   1      31.012  25.342  25.794  1.00  0.00    -0.352 N 
ATOM      5  C   UNL A   1      30.605  25.163  24.500  1.00  0.00     0.252 C 
ATOM      6  O   UNL A   1      29.618  25.772  24.093  1.00  0.00    -0.269 OA
ATOM      7  H   UNL A   1      30.520  26.040  26.284  1.00  0.00     0.163 HD
BRANCH   5   8
ATOM      8  C   UNL A   1      31.337  24.319  23.535  1.00  0.00     0.060 A 
ATOM      9  C   UNL A   1      32.172  24.767  22.510  1.00  0.00     0.100 A 
ATOM     10  C   UNL A   1      32.800  23.838  21.660  1.00  0.00     0.024 A 
ATOM     11  C   UNL A   1      32.745  22.476  21.941  1.00  0.00     0.010 A 
ATOM     12  C   UNL A   1      31.325  22.937  23.834  1.00  0.00     0.024 A 
ATOM     13  C   UNL A   1      32.088  22.026  23.089  1.00  0.00    -0.017 A 
BRANCH   9  14
ATOM     14  S   UNL A   1      32.793  26.424  22.379  1.00  0.00     0.264 S 
ATOM     15  O   UNL A   1      33.735  26.423  21.284  1.00  0.00    -0.201 OA
ATOM     16  O   UNL A   1      33.217  26.822  23.705  1.00  0.00    -0.201 OA
BRANCH  14  17
ATOM     17  N   UNL A   1      31.517  27.381  21.961  1.00  0.00    -0.249 N 
ATOM     18  C   UNL A   1      31.365  28.845  24.000  1.00  0.00     0.115 C 
ATOM     19  C   UNL A   1      31.106  28.592  22.540  1.00  0.00     0.230 C 
ATOM     20  O   UNL A   1      30.436  29.359  21.861  1.00  0.00    -0.274 OA
ATOM     21  H   UNL A   1      30.972  27.060  21.206  1.00  0.00     0.183 HD
ENDBRANCH  14  17
ENDBRANCH   9  14
BRANCH  13  22
ATOM     22  C   UNL A   1      32.366  20.668  23.601  1.00  0.00    -0.011 A 
ATOM     23  C   UNL A   1      32.718  20.344  24.968  1.00  0.00     0.027 A 
ATOM     24  C   UNL A   1      32.331  19.677  22.690  1.00  0.00     0.080 A 
ATOM     25  C   UNL A   1      32.974  19.076  25.319  1.00  0.00     0.095 A 
ATOM     26  C   UNL A   1      32.593  18.264  23.065  1.00  0.00     0.255 A 
ATOM     27  N   UNL A   1      32.911  18.048  24.393  1.00  0.00    -0.258 N 
ATOM     28  O   UNL A   1      32.505  17.402  22.195  1.00  0.00    -0.269 OA
BRANCH  27  29
ATOM     29  C   UNL A   1      33.162  16.683  24.779  1.00  0.00     0.451 C 
ATOM     30  F   UNL A   1      34.162  16.614  25.693  1.00  0.00    -0.185 F 
ATOM     31  F   UNL A   1      32.059  16.116  25.327  1.00  0.00    -0.185 F 
ENDBRANCH  27  29
ENDBRANCH  13  22
ENDBRANCH   5   8
ENDBRANCH   3   4
ENDBRANCH   2   3
ENDBRANCH   1   2
BRANCH   1  32
ATOM     32  C   UNL A   1      35.942  24.483  25.699  1.00  0.00     0.116 C 
BRANCH  32  33
ATOM     33  N   UNL A   1      36.846  23.352  25.595  1.00  0.00    -0.352 N 
ATOM     34  C   UNL A   1      38.130  23.172  26.055  1.00  0.00     0.251 C 
ATOM     35  H   UNL A   1      36.475  22.578  25.111  1.00  0.00     0.163 HD
ATOM     36  O   UNL A   1      38.701  22.113  25.802  1.00  0.00    -0.269 OA
BRANCH  34  37
ATOM     37  C   UNL A   1      38.862  24.235  26.786  1.00  0.00     0.039 A 
ATOM     38  C   UNL A   1      39.733  25.049  26.048  1.00  0.00     0.014 A 
ATOM     39  C   UNL A   1      38.731  24.445  28.161  1.00  0.00     0.014 A 
ATOM     40  C   UNL A   1      40.375  26.131  26.658  1.00  0.00     0.010 A 
ATOM     41  C   UNL A   1      39.331  25.558  28.760  1.00  0.00     0.010 A 
ATOM     42  C   UNL A   1      40.131  26.431  28.006  1.00  0.00    -0.014 A 
BRANCH  42  43
ATOM     43  C   UNL A   1      40.609  27.707  28.602  1.00  0.00     0.031 A 
ATOM     44  C   UNL A   1      41.998  27.844  29.156  1.00  0.00     0.074 A 
ATOM     45  C   UNL A   1      39.744  28.736  28.711  1.00  0.00     0.049 A 
ATOM     46  N   UNL A   1      42.528  28.853  29.800  1.00  0.00    -0.248 NA
ATOM     47  C   UNL A   1      42.899  26.697  28.982  1.00  0.00     0.031 C 
ATOM     48  C   UNL A   1      38.353  28.729  28.249  1.00  0.00     0.029 A 
ATOM     49  N   UNL A   1      39.904  29.984  29.258  1.00  0.00    -0.354 N 
ATOM     50  C   UNL A   1      43.813  28.455  30.140  1.00  0.00     0.074 A 
ATOM     51  C   UNL A   1      43.982  27.109  29.627  1.00  0.00     0.031 C 
ATOM     52  C   UNL A   1      37.794  29.919  28.516  1.00  0.00     0.029 A 
ATOM     53  C   UNL A   1      38.773  30.762  29.196  1.00  0.00     0.049 A 
ATOM     54  H   UNL A   1      40.750  30.294  29.656  1.00  0.00     0.167 HD
ATOM     55  C   UNL A   1      44.765  29.140  30.820  1.00  0.00     0.031 A 
ATOM     56  C   UNL A   1      38.537  32.009  29.644  1.00  0.00     0.031 A 
ATOM     57  C   UNL A   1      44.615  30.482  31.315  1.00  0.00     0.049 A 
ATOM     58  C   UNL A   1      39.620  32.766  30.349  1.00  0.00     0.074 A 
ATOM     59  C   UNL A   1      45.542  31.261  31.989  1.00  0.00     0.029 A 
ATOM     60  N   UNL A   1      43.470  31.250  31.186  1.00  0.00    -0.354 N 
ATOM     61  N   UNL A   1      40.835  32.373  30.645  1.00  0.00    -0.248 NA
ATOM     62  C   UNL A   1      39.303  34.136  30.777  1.00  0.00     0.031 C 
ATOM     63  C   UNL A   1      44.950  32.499  32.276  1.00  0.00     0.029 A 
ATOM     64  C   UNL A   1      43.663  32.492  31.767  1.00  0.00     0.049 A 
ATOM     65  H   UNL A   1      42.639  30.955  30.747  1.00  0.00     0.167 HD
ATOM     66  C   UNL A   1      41.430  33.450  31.290  1.00  0.00     0.074 A 
ATOM     67  C   UNL A   1      40.447  34.514  31.332  1.00  0.00     0.031 C 
ATOM     68  C   UNL A   1      42.680  33.543  31.802  1.00  0.00     0.031 A 
BRANCH  55  69
ATOM     69  C   UNL A   1      46.056  28.421  31.087  1.00  0.00    -0.014 A 
ATOM     70  C   UNL A   1      47.097  28.433  30.144  1.00  0.00     0.010 A 
ATOM     71  C   UNL A   1      46.231  27.730  32.299  1.00  0.00     0.010 A 
ATOM     72  C   UNL A   1      48.276  27.724  30.387  1.00  0.00     0.020 A 
ATOM     73  C   UNL A   1      47.413  27.031  32.551  1.00  0.00     0.020 A 
ATOM     74  C   UNL A   1      48.420  27.013  31.583  1.00  0.00     0.054 A 
BRANCH  74  75
ATOM     75  S   UNL A   1      49.946  26.080  31.885  1.00  0.00     0.124 S 
ATOM     76  O   UNL A   1      49.647  25.423  33.155  1.00  0.00    -0.237 OA
ATOM     77  O   UNL A   1      50.029  25.195  30.726  1.00  0.00    -0.237 OA
ATOM     78  O   UNL A   1      50.973  27.118  31.945  1.00  0.00    -0.744 OA
ENDBRANCH  74  75
ENDBRANCH  55  69
BRANCH  56  79
ATOM     79  C   UNL A   1      37.203  32.620  29.426  1.00  0.00    -0.014 A 
ATOM     80  C   UNL A   1      36.268  32.658  30.474  1.00  0.00     0.010 A 
ATOM     81  C   UNL A   1      36.880  33.199  28.188  1.00  0.00     0.010 A 
ATOM     82  C   UNL A   1      35.025  33.268  30.287  1.00  0.00     0.020 A 
ATOM     83  C   UNL A   1      35.643  33.821  28.001  1.00  0.00     0.020 A 
ATOM     84  C   UNL A   1      34.720  33.845  29.051  1.00  0.00     0.054 A 
BRANCH  84  85
ATOM     85  S   UNL A   1      33.135  34.703  28.839  1.00  0.00     0.124 S 
ATOM     86  O   UNL A   1      33.563  36.008  28.345  1.00  0.00    -0.237 OA
ATOM     87  O   UNL A   1      32.434  33.860  27.874  1.00  0.00    -0.237 OA
ATOM     88  O   UNL A   1      32.568  34.692  30.185  1.00  0.00    -0.744 OA
ENDBRANCH  84  85
ENDBRANCH  56  79
BRANCH  68  89
ATOM     89  C   UNL A   1      43.059  34.849  32.436  1.00  0.00    -0.014 A 
ATOM     90  C   UNL A   1      43.708  35.847  31.690  1.00  0.00     0.010 A 
ATOM     91  C   UNL A   1      42.737  35.091  33.783  1.00  0.00     0.010 A 
ATOM     92  C   UNL A   1      44.047  37.065  32.287  1.00  0.00     0.020 A 
ATOM     93  C   UNL A   1      43.066  36.311  34.379  1.00  0.00     0.020 A 
ATOM     94  C   UNL A   1      43.730  37.286  33.630  1.00  0.00     0.054 A 
BRANCH  94  95
ATOM     95  S   UNL A   1      44.133  38.886  34.387  1.00  0.00     0.124 S 
ATOM     96  O   UNL A   1      45.423  39.193  33.775  1.00  0.00    -0.237 OA
ATOM     97  O   UNL A   1      43.021  39.738  33.970  1.00  0.00    -0.237 OA
ATOM     98  O   UNL A   1      44.173  38.585  35.817  1.00  0.00    -0.744 OA
ENDBRANCH  94  95
ENDBRANCH  68  89
ENDBRANCH  42  43
ENDBRANCH  34  37
ENDBRANCH  32  33
ENDBRANCH   1  32
TORSDOF 18
ENDMDL
