MODEL 1
REMARK VINA RESULT:      -9.5      0.000      0.000
REMARK SMILES CC(C)CCc1cc2c(cc1Cl)C=C(C(=O)NCCCCNC(=O)c1ccc(-c3c4nc(c(-c5ccc(S(=O)(=O)[O-])cc5)c5ccc([nH]5)c(-c5ccc(S(=O)(=O)[O-])cc5)c5nc(c(-c6ccc(S(=O)(=O)[O-])cc6)c6ccc3[nH]6)C=C5)C=C4)cc1)[C@H](C(F)(F)F)O2
REMARK SMILES IDX 19 1 18 2 17 3 15 4 16 5 14 7 6 8 7 9 11 10 8 11 10 12 12 13
REMARK SMILES IDX 9 14 90 15 13 16 85 17 5 18 4 19 2 20 1 21 3 22 86 23 87 24
REMARK SMILES IDX 88 25 89 26 20 27 21 28 22 29 23 30 24 32 25 33 26 34 84 35
REMARK SMILES IDX 27 36 83 37 28 38 29 39 30 40 77 41 31 42 82 43 76 44 78 45
REMARK SMILES IDX 32 46 81 47 75 48 74 49 33 51 63 52 44 53 62 54 45 55 48 56
REMARK SMILES IDX 61 57 79 58 46 59 47 60 60 62 80 63 49 64 34 65 35 66 43 67
REMARK SMILES IDX 36 68 42 69 37 70 38 71 39 72 40 73 41 74 64 75 65 76 73 77
REMARK SMILES IDX 66 78 72 79 67 80 68 81 69 82 70 83 71 84 50 85 51 86 59 87
REMARK SMILES IDX 52 88 58 89 53 90 54 91 55 92 56 93 57 94
REMARK H PARENT 17 6 22 31 78 50 48 61
REMARK Flexibility Score: inf
ROOT
ATOM      1  C   UNL A   1      34.728  34.213  28.643  1.00  0.00     0.023 C 
ENDROOT
BRANCH   1   2
ATOM      2  C   UNL A   1      35.405  33.821  29.955  1.00  0.00     0.116 C 
BRANCH   2   3
ATOM      3  N   UNL A   1      34.427  33.590  31.000  1.00  0.00    -0.352 N 
ATOM      4  C   UNL A   1      34.468  33.096  32.260  1.00  0.00     0.251 C 
ATOM      5  O   UNL A   1      33.412  33.136  32.895  1.00  0.00    -0.270 OA
ATOM      6  H   UNL A   1      33.518  33.855  30.730  1.00  0.00     0.163 HD
BRANCH   4   7
ATOM      7  C   UNL A   1      35.692  32.538  32.905  1.00  0.00     0.067 C 
ATOM      8  C   UNL A   1      39.660  29.527  33.899  1.00  0.00    -0.026 A 
ATOM      9  C   UNL A   1      39.198  30.776  34.377  1.00  0.00     0.052 A 
ATOM     10  C   UNL A   1      38.840  28.855  32.978  1.00  0.00     0.045 A 
ATOM     11  C   UNL A   1      38.009  31.351  33.921  1.00  0.00     0.128 A 
ATOM     12  C   UNL A   1      37.664  29.452  32.496  1.00  0.00     0.032 A 
ATOM     13  Cl  UNL A   1      39.131  27.252  32.410  1.00  0.00    -0.084 Cl
ATOM     14  C   UNL A   1      37.246  30.698  32.965  1.00  0.00     0.019 A 
ATOM     15  O   UNL A   1      37.631  32.526  34.501  1.00  0.00    -0.475 OA
ATOM     16  C   UNL A   1      36.012  31.299  32.492  1.00  0.00     0.025 C 
ATOM     17  C   UNL A   1      36.593  33.308  33.836  1.00  0.00     0.314 C 
BRANCH   8  18
ATOM     18  C   UNL A   1      40.944  29.024  34.532  1.00  0.00     0.037 C 
BRANCH  18  19
ATOM     19  C   UNL A   1      41.862  28.011  33.832  1.00  0.00     0.008 C 
BRANCH  19  20
ATOM     20  C   UNL A   1      42.550  26.980  34.745  1.00  0.00    -0.017 C 
ATOM     21  C   UNL A   1      41.554  25.987  35.342  1.00  0.00     0.007 C 
ATOM     22  C   UNL A   1      43.619  26.226  33.948  1.00  0.00     0.007 C 
ENDBRANCH  19  20
ENDBRANCH  18  19
ENDBRANCH   8  18
BRANCH  17  23
ATOM     23  C   UNL A   1      37.244  34.553  33.211  1.00  0.00     0.429 C 
ATOM     24  F   UNL A   1      37.792  34.232  32.010  1.00  0.00    -0.167 F 
ATOM     25  F   UNL A   1      36.353  35.545  32.985  1.00  0.00    -0.167 F 
ATOM     26  F   UNL A   1      38.234  35.073  33.968  1.00  0.00    -0.167 F 
ENDBRANCH  17  23
ENDBRANCH   4   7
ENDBRANCH   2   3
ENDBRANCH   1   2
BRANCH   1  27
ATOM     27  C   UNL A   1      34.466  33.045  27.690  1.00  0.00     0.023 C 
BRANCH  27  28
ATOM     28  C   UNL A   1      33.746  31.857  28.313  1.00  0.00     0.116 C 
BRANCH  28  29
ATOM     29  N   UNL A   1      33.543  30.741  27.398  1.00  0.00    -0.352 N 
ATOM     30  C   UNL A   1      34.457  29.763  27.044  1.00  0.00     0.251 C 
ATOM     31  H   UNL A   1      32.653  30.675  26.984  1.00  0.00     0.163 HD
ATOM     32  O   UNL A   1      34.188  28.908  26.234  1.00  0.00    -0.269 OA
BRANCH  30  33
ATOM     33  C   UNL A   1      35.802  29.853  27.655  1.00  0.00     0.039 A 
ATOM     34  C   UNL A   1      36.902  30.168  26.856  1.00  0.00     0.014 A 
ATOM     35  C   UNL A   1      35.964  29.432  28.975  1.00  0.00     0.014 A 
ATOM     36  C   UNL A   1      38.176  29.880  27.322  1.00  0.00     0.010 A 
ATOM     37  C   UNL A   1      37.253  29.216  29.466  1.00  0.00     0.010 A 
ATOM     38  C   UNL A   1      38.363  29.372  28.620  1.00  0.00    -0.014 A 
BRANCH  38  39
ATOM     39  C   UNL A   1      39.717  28.946  29.051  1.00  0.00     0.031 A 
ATOM     40  C   UNL A   1      40.527  29.810  29.981  1.00  0.00     0.074 A 
ATOM     41  C   UNL A   1      40.184  27.743  28.667  1.00  0.00     0.049 A 
ATOM     42  N   UNL A   1      41.735  29.608  30.443  1.00  0.00    -0.248 NA
ATOM     43  C   UNL A   1      39.907  31.057  30.459  1.00  0.00     0.031 C 
ATOM     44  C   UNL A   1      39.463  26.795  27.817  1.00  0.00     0.029 A 
ATOM     45  N   UNL A   1      41.354  27.097  28.971  1.00  0.00    -0.354 N 
ATOM     46  C   UNL A   1      42.028  30.711  31.239  1.00  0.00     0.074 A 
ATOM     47  C   UNL A   1      40.878  31.587  31.190  1.00  0.00     0.031 C 
ATOM     48  C   UNL A   1      40.174  25.662  27.723  1.00  0.00     0.029 A 
ATOM     49  C   UNL A   1      41.435  25.832  28.442  1.00  0.00     0.049 A 
ATOM     50  H   UNL A   1      42.068  27.500  29.516  1.00  0.00     0.167 HD
ATOM     51  C   UNL A   1      43.152  30.965  31.949  1.00  0.00     0.031 A 
ATOM     52  C   UNL A   1      42.415  24.911  28.511  1.00  0.00     0.031 A 
ATOM     53  C   UNL A   1      44.284  30.080  32.011  1.00  0.00     0.049 A 
ATOM     54  C   UNL A   1      43.672  25.234  29.261  1.00  0.00     0.074 A 
ATOM     55  C   UNL A   1      45.479  30.260  32.686  1.00  0.00     0.029 A 
ATOM     56  N   UNL A   1      44.357  28.842  31.390  1.00  0.00    -0.354 N 
ATOM     57  N   UNL A   1      43.958  26.312  29.950  1.00  0.00    -0.248 NA
ATOM     58  C   UNL A   1      44.745  24.232  29.229  1.00  0.00     0.031 C 
ATOM     59  C   UNL A   1      46.289  29.149  32.442  1.00  0.00     0.029 A 
ATOM     60  C   UNL A   1      45.581  28.253  31.657  1.00  0.00     0.049 A 
ATOM     61  H   UNL A   1      43.645  28.441  30.842  1.00  0.00     0.167 HD
ATOM     62  C   UNL A   1      45.246  26.121  30.432  1.00  0.00     0.074 A 
ATOM     63  C   UNL A   1      45.677  24.816  29.974  1.00  0.00     0.031 C 
ATOM     64  C   UNL A   1      46.000  26.958  31.184  1.00  0.00     0.031 A 
BRANCH  51  65
ATOM     65  C   UNL A   1      43.237  32.263  32.707  1.00  0.00    -0.014 A 
ATOM     66  C   UNL A   1      42.955  32.282  34.085  1.00  0.00     0.010 A 
ATOM     67  C   UNL A   1      43.503  33.474  32.043  1.00  0.00     0.010 A 
ATOM     68  C   UNL A   1      42.920  33.491  34.786  1.00  0.00     0.020 A 
ATOM     69  C   UNL A   1      43.489  34.683  32.746  1.00  0.00     0.020 A 
ATOM     70  C   UNL A   1      43.180  34.685  34.109  1.00  0.00     0.054 A 
BRANCH  70  71
ATOM     71  S   UNL A   1      43.141  36.248  35.032  1.00  0.00     0.124 S 
ATOM     72  O   UNL A   1      42.659  37.188  34.026  1.00  0.00    -0.237 OA
ATOM     73  O   UNL A   1      42.214  35.958  36.123  1.00  0.00    -0.237 OA
ATOM     74  O   UNL A   1      44.533  36.429  35.446  1.00  0.00    -0.744 OA
ENDBRANCH  70  71
ENDBRANCH  51  65
BRANCH  52  75
ATOM     75  C   UNL A   1      42.212  23.601  27.839  1.00  0.00    -0.014 A 
ATOM     76  C   UNL A   1      41.686  22.510  28.557  1.00  0.00     0.010 A 
ATOM     77  C   UNL A   1      42.658  23.406  26.522  1.00  0.00     0.010 A 
ATOM     78  C   UNL A   1      41.673  21.233  27.994  1.00  0.00     0.020 A 
ATOM     79  C   UNL A   1      42.624  22.132  25.945  1.00  0.00     0.020 A 
ATOM     80  C   UNL A   1      42.165  21.049  26.698  1.00  0.00     0.054 A 
BRANCH  80  81
ATOM     81  S   UNL A   1      42.215  19.371  26.009  1.00  0.00     0.124 S 
ATOM     82  O   UNL A   1      43.190  19.522  24.933  1.00  0.00    -0.237 OA
ATOM     83  O   UNL A   1      42.653  18.566  27.147  1.00  0.00    -0.237 OA
ATOM     84  O   UNL A   1      40.838  19.141  25.580  1.00  0.00    -0.744 OA
ENDBRANCH  80  81
ENDBRANCH  52  75
BRANCH  64  85
ATOM     85  C   UNL A   1      47.385  26.512  31.563  1.00  0.00    -0.014 A 
ATOM     86  C   UNL A   1      48.448  26.700  30.663  1.00  0.00     0.010 A 
ATOM     87  C   UNL A   1      47.599  25.784  32.746  1.00  0.00     0.010 A 
ATOM     88  C   UNL A   1      49.699  26.137  30.923  1.00  0.00     0.020 A 
ATOM     89  C   UNL A   1      48.855  25.234  33.017  1.00  0.00     0.020 A 
ATOM     90  C   UNL A   1      49.890  25.394  32.091  1.00  0.00     0.054 A 
BRANCH  90  91
ATOM     91  S   UNL A   1      51.508  24.632  32.394  1.00  0.00     0.124 S 
ATOM     92  O   UNL A   1      51.229  23.218  32.167  1.00  0.00    -0.237 OA
ATOM     93  O   UNL A   1      52.361  25.275  31.396  1.00  0.00    -0.237 OA
ATOM     94  O   UNL A   1      51.802  24.998  33.778  1.00  0.00    -0.744 OA
ENDBRANCH  90  91
ENDBRANCH  64  85
ENDBRANCH  38  39
ENDBRANCH  30  33
ENDBRANCH  28  29
ENDBRANCH  27  28
ENDBRANCH   1  27
TORSDOF 18
ENDMDL
MODEL 2
REMARK VINA RESULT:      -9.4      5.060     11.590
REMARK SMILES CC(C)CCc1cc2c(cc1Cl)C=C(C(=O)NCCCCNC(=O)c1ccc(-c3c4nc(c(-c5ccc(S(=O)(=O)[O-])cc5)c5ccc([nH]5)c(-c5ccc(S(=O)(=O)[O-])cc5)c5nc(c(-c6ccc(S(=O)(=O)[O-])cc6)c6ccc3[nH]6)C=C5)C=C4)cc1)[C@H](C(F)(F)F)O2
REMARK SMILES IDX 19 1 18 2 17 3 15 4 16 5 14 7 6 8 7 9 11 10 8 11 10 12 12 13
REMARK SMILES IDX 9 14 90 15 13 16 85 17 5 18 4 19 2 20 1 21 3 22 86 23 87 24
REMARK SMILES IDX 88 25 89 26 20 27 21 28 22 29 23 30 24 32 25 33 26 34 84 35
REMARK SMILES IDX 27 36 83 37 28 38 29 39 30 40 77 41 31 42 82 43 76 44 78 45
REMARK SMILES IDX 32 46 81 47 75 48 74 49 33 51 63 52 44 53 62 54 45 55 48 56
REMARK SMILES IDX 61 57 79 58 46 59 47 60 60 62 80 63 49 64 34 65 35 66 43 67
REMARK SMILES IDX 36 68 42 69 37 70 38 71 39 72 40 73 41 74 64 75 65 76 73 77
REMARK SMILES IDX 66 78 72 79 67 80 68 81 69 82 70 83 71 84 50 85 51 86 59 87
REMARK SMILES IDX 52 88 58 89 53 90 54 91 55 92 56 93 57 94
REMARK H PARENT 17 6 22 31 78 50 48 61
REMARK Flexibility Score: inf
ROOT
ATOM      1  C   UNL A   1      35.760  21.447  24.650  1.00  0.00     0.023 C 
ENDROOT
BRANCH   1   2
ATOM      2  C   UNL A   1      34.828  21.982  25.735  1.00  0.00     0.116 C 
BRANCH   2   3
ATOM      3  N   UNL A   1      33.547  21.303  25.706  1.00  0.00    -0.352 N 
ATOM      4  C   UNL A   1      32.289  21.645  25.338  1.00  0.00     0.251 C 
ATOM      5  O   UNL A   1      31.448  20.744  25.373  1.00  0.00    -0.270 OA
ATOM      6  H   UNL A   1      33.605  20.376  26.029  1.00  0.00     0.163 HD
BRANCH   4   7
ATOM      7  C   UNL A   1      31.885  23.009  24.890  1.00  0.00     0.067 C 
ATOM      8  C   UNL A   1      31.134  28.032  24.841  1.00  0.00    -0.026 A 
ATOM      9  C   UNL A   1      31.004  26.985  23.899  1.00  0.00     0.052 A 
ATOM     10  C   UNL A   1      31.479  27.669  26.153  1.00  0.00     0.045 A 
ATOM     11  C   UNL A   1      31.256  25.651  24.233  1.00  0.00     0.128 A 
ATOM     12  C   UNL A   1      31.766  26.333  26.476  1.00  0.00     0.032 A 
ATOM     13  Cl  UNL A   1      31.517  28.766  27.485  1.00  0.00    -0.084 Cl
ATOM     14  C   UNL A   1      31.656  25.323  25.519  1.00  0.00     0.019 A 
ATOM     15  O   UNL A   1      31.034  24.721  23.261  1.00  0.00    -0.475 OA
ATOM     16  C   UNL A   1      31.919  23.937  25.862  1.00  0.00     0.025 C 
ATOM     17  C   UNL A   1      31.589  23.385  23.460  1.00  0.00     0.314 C 
BRANCH   8  18
ATOM     18  C   UNL A   1      30.777  29.415  24.329  1.00  0.00     0.037 C 
BRANCH  18  19
ATOM     19  C   UNL A   1      30.054  29.634  22.992  1.00  0.00     0.008 C 
BRANCH  19  20
ATOM     20  C   UNL A   1      28.641  30.240  23.081  1.00  0.00    -0.017 C 
ATOM     21  C   UNL A   1      28.366  31.225  21.944  1.00  0.00     0.007 C 
ATOM     22  C   UNL A   1      27.600  29.116  23.055  1.00  0.00     0.007 C 
ENDBRANCH  19  20
ENDBRANCH  18  19
ENDBRANCH   8  18
BRANCH  17  23
ATOM     23  C   UNL A   1      32.768  23.197  22.492  1.00  0.00     0.429 C 
ATOM     24  F   UNL A   1      32.600  23.990  21.402  1.00  0.00    -0.167 F 
ATOM     25  F   UNL A   1      33.954  23.536  23.047  1.00  0.00    -0.167 F 
ATOM     26  F   UNL A   1      32.889  21.931  22.041  1.00  0.00    -0.167 F 
ENDBRANCH  17  23
ENDBRANCH   4   7
ENDBRANCH   2   3
ENDBRANCH   1   2
BRANCH   1  27
ATOM     27  C   UNL A   1      36.726  22.485  24.075  1.00  0.00     0.023 C 
BRANCH  27  28
ATOM     28  C   UNL A   1      37.590  23.199  25.105  1.00  0.00     0.116 C 
BRANCH  28  29
ATOM     29  N   UNL A   1      38.764  22.444  25.521  1.00  0.00    -0.352 N 
ATOM     30  C   UNL A   1      39.799  22.873  26.333  1.00  0.00     0.251 C 
ATOM     31  H   UNL A   1      38.828  21.521  25.184  1.00  0.00     0.163 HD
ATOM     32  O   UNL A   1      40.750  22.167  26.573  1.00  0.00    -0.269 OA
BRANCH  30  33
ATOM     33  C   UNL A   1      39.720  24.260  26.842  1.00  0.00     0.039 A 
ATOM     34  C   UNL A   1      40.351  25.288  26.142  1.00  0.00     0.014 A 
ATOM     35  C   UNL A   1      39.177  24.475  28.109  1.00  0.00     0.014 A 
ATOM     36  C   UNL A   1      40.607  26.487  26.792  1.00  0.00     0.010 A 
ATOM     37  C   UNL A   1      39.371  25.710  28.730  1.00  0.00     0.010 A 
ATOM     38  C   UNL A   1      40.146  26.698  28.103  1.00  0.00    -0.014 A 
BRANCH  38  39
ATOM     39  C   UNL A   1      40.543  27.931  28.828  1.00  0.00     0.031 A 
ATOM     40  C   UNL A   1      41.966  28.121  29.285  1.00  0.00     0.074 A 
ATOM     41  C   UNL A   1      39.639  28.913  29.004  1.00  0.00     0.049 A 
ATOM     42  N   UNL A   1      42.486  29.121  29.951  1.00  0.00    -0.248 NA
ATOM     43  C   UNL A   1      42.930  27.059  28.953  1.00  0.00     0.031 C 
ATOM     44  C   UNL A   1      38.248  28.866  28.550  1.00  0.00     0.029 A 
ATOM     45  N   UNL A   1      39.763  30.153  29.574  1.00  0.00    -0.354 N 
ATOM     46  C   UNL A   1      43.825  28.797  30.140  1.00  0.00     0.074 A 
ATOM     47  C   UNL A   1      44.039  27.503  29.531  1.00  0.00     0.031 C 
ATOM     48  C   UNL A   1      37.667  30.048  28.797  1.00  0.00     0.029 A 
ATOM     49  C   UNL A   1      38.619  30.909  29.495  1.00  0.00     0.049 A 
ATOM     50  H   UNL A   1      40.592  30.472  30.000  1.00  0.00     0.167 HD
ATOM     51  C   UNL A   1      44.788  29.518  30.761  1.00  0.00     0.031 A 
ATOM     52  C   UNL A   1      38.352  32.151  29.945  1.00  0.00     0.031 A 
ATOM     53  C   UNL A   1      44.574  30.814  31.346  1.00  0.00     0.049 A 
ATOM     54  C   UNL A   1      39.419  32.910  30.674  1.00  0.00     0.074 A 
ATOM     55  C   UNL A   1      45.483  31.613  32.017  1.00  0.00     0.029 A 
ATOM     56  N   UNL A   1      43.375  31.510  31.316  1.00  0.00    -0.354 N 
ATOM     57  N   UNL A   1      40.661  32.558  30.903  1.00  0.00    -0.248 NA
ATOM     58  C   UNL A   1      39.050  34.223  31.221  1.00  0.00     0.031 C 
ATOM     59  C   UNL A   1      44.823  32.775  32.427  1.00  0.00     0.029 A 
ATOM     60  C   UNL A   1      43.517  32.722  31.967  1.00  0.00     0.049 A 
ATOM     61  H   UNL A   1      42.546  31.188  30.894  1.00  0.00     0.167 HD
ATOM     62  C   UNL A   1      41.222  33.602  31.626  1.00  0.00     0.074 A 
ATOM     63  C   UNL A   1      40.192  34.609  31.779  1.00  0.00     0.031 C 
ATOM     64  C   UNL A   1      42.479  33.710  32.121  1.00  0.00     0.031 A 
BRANCH  51  65
ATOM     65  C   UNL A   1      46.166  28.922  30.867  1.00  0.00    -0.014 A 
ATOM     66  C   UNL A   1      47.100  29.143  29.839  1.00  0.00     0.010 A 
ATOM     67  C   UNL A   1      46.507  28.069  31.932  1.00  0.00     0.010 A 
ATOM     68  C   UNL A   1      48.346  28.510  29.862  1.00  0.00     0.020 A 
ATOM     69  C   UNL A   1      47.761  27.450  31.970  1.00  0.00     0.020 A 
ATOM     70  C   UNL A   1      48.665  27.661  30.925  1.00  0.00     0.054 A 
BRANCH  70  71
ATOM     71  S   UNL A   1      50.290  26.853  30.950  1.00  0.00     0.124 S 
ATOM     72  O   UNL A   1      50.194  26.002  32.132  1.00  0.00    -0.237 OA
ATOM     73  O   UNL A   1      50.325  26.153  29.668  1.00  0.00    -0.237 OA
ATOM     74  O   UNL A   1      51.223  27.974  31.058  1.00  0.00    -0.744 OA
ENDBRANCH  70  71
ENDBRANCH  51  65
BRANCH  52  75
ATOM     75  C   UNL A   1      37.004  32.725  29.696  1.00  0.00    -0.014 A 
ATOM     76  C   UNL A   1      36.706  33.323  28.457  1.00  0.00     0.010 A 
ATOM     77  C   UNL A   1      36.062  32.789  30.735  1.00  0.00     0.010 A 
ATOM     78  C   UNL A   1      35.518  34.033  28.283  1.00  0.00     0.020 A 
ATOM     79  C   UNL A   1      34.858  33.479  30.556  1.00  0.00     0.020 A 
ATOM     80  C   UNL A   1      34.611  34.126  29.342  1.00  0.00     0.054 A 
BRANCH  80  81
ATOM     81  S   UNL A   1      33.107  35.118  29.127  1.00  0.00     0.124 S 
ATOM     82  O   UNL A   1      32.390  34.353  28.112  1.00  0.00    -0.237 OA
ATOM     83  O   UNL A   1      32.514  35.103  30.462  1.00  0.00    -0.237 OA
ATOM     84  O   UNL A   1      33.618  36.415  28.690  1.00  0.00    -0.744 OA
ENDBRANCH  80  81
ENDBRANCH  52  75
BRANCH  64  85
ATOM     85  C   UNL A   1      42.831  34.952  32.889  1.00  0.00    -0.014 A 
ATOM     86  C   UNL A   1      43.354  36.066  32.210  1.00  0.00     0.010 A 
ATOM     87  C   UNL A   1      42.775  34.961  34.293  1.00  0.00     0.010 A 
ATOM     88  C   UNL A   1      43.849  37.159  32.925  1.00  0.00     0.020 A 
ATOM     89  C   UNL A   1      43.253  36.061  35.011  1.00  0.00     0.020 A 
ATOM     90  C   UNL A   1      43.810  37.142  34.321  1.00  0.00     0.054 A 
BRANCH  90  91
ATOM     91  S   UNL A   1      44.496  38.549  35.237  1.00  0.00     0.124 S 
ATOM     92  O   UNL A   1      43.906  38.372  36.560  1.00  0.00    -0.237 OA
ATOM     93  O   UNL A   1      45.937  38.320  35.154  1.00  0.00    -0.237 OA
ATOM     94  O   UNL A   1      44.016  39.709  34.488  1.00  0.00    -0.744 OA
ENDBRANCH  90  91
ENDBRANCH  64  85
ENDBRANCH  38  39
ENDBRANCH  30  33
ENDBRANCH  28  29
ENDBRANCH  27  28
ENDBRANCH   1  27
TORSDOF 18
ENDMDL
MODEL 3
REMARK VINA RESULT:      -9.2      5.640     11.583
REMARK SMILES CC(C)CCc1cc2c(cc1Cl)C=C(C(=O)NCCCCNC(=O)c1ccc(-c3c4nc(c(-c5ccc(S(=O)(=O)[O-])cc5)c5ccc([nH]5)c(-c5ccc(S(=O)(=O)[O-])cc5)c5nc(c(-c6ccc(S(=O)(=O)[O-])cc6)c6ccc3[nH]6)C=C5)C=C4)cc1)[C@H](C(F)(F)F)O2
REMARK SMILES IDX 19 1 18 2 17 3 15 4 16 5 14 7 6 8 7 9 11 10 8 11 10 12 12 13
REMARK SMILES IDX 9 14 90 15 13 16 85 17 5 18 4 19 2 20 1 21 3 22 86 23 87 24
REMARK SMILES IDX 88 25 89 26 20 27 21 28 22 29 23 30 24 32 25 33 26 34 84 35
REMARK SMILES IDX 27 36 83 37 28 38 29 39 30 40 77 41 31 42 82 43 76 44 78 45
REMARK SMILES IDX 32 46 81 47 75 48 74 49 33 51 63 52 44 53 62 54 45 55 48 56
REMARK SMILES IDX 61 57 79 58 46 59 47 60 60 62 80 63 49 64 34 65 35 66 43 67
REMARK SMILES IDX 36 68 42 69 37 70 38 71 39 72 40 73 41 74 64 75 65 76 73 77
REMARK SMILES IDX 66 78 72 79 67 80 68 81 69 82 70 83 71 84 50 85 51 86 59 87
REMARK SMILES IDX 52 88 58 89 53 90 54 91 55 92 56 93 57 94
REMARK H PARENT 17 6 22 31 78 50 48 61
REMARK Flexibility Score: inf
ROOT
ATOM      1  C   UNL A   1      36.554  21.776  25.703  1.00  0.00     0.023 C 
ENDROOT
BRANCH   1   2
ATOM      2  C   UNL A   1      35.706  22.980  26.110  1.00  0.00     0.116 C 
BRANCH   2   3
ATOM      3  N   UNL A   1      34.755  22.624  27.145  1.00  0.00    -0.352 N 
ATOM      4  C   UNL A   1      33.420  22.775  27.313  1.00  0.00     0.251 C 
ATOM      5  O   UNL A   1      32.934  22.249  28.317  1.00  0.00    -0.270 OA
ATOM      6  H   UNL A   1      35.179  22.164  27.904  1.00  0.00     0.163 HD
BRANCH   4   7
ATOM      7  C   UNL A   1      32.530  23.510  26.367  1.00  0.00     0.067 C 
ATOM      8  C   UNL A   1      30.362  27.281  23.744  1.00  0.00    -0.026 A 
ATOM      9  C   UNL A   1      30.296  25.868  23.719  1.00  0.00     0.052 A 
ATOM     10  C   UNL A   1      31.136  27.863  24.761  1.00  0.00     0.045 A 
ATOM     11  C   UNL A   1      31.006  25.075  24.625  1.00  0.00     0.128 A 
ATOM     12  C   UNL A   1      31.876  27.064  25.647  1.00  0.00     0.032 A 
ATOM     13  Cl  UNL A   1      31.208  29.559  25.075  1.00  0.00    -0.084 Cl
ATOM     14  C   UNL A   1      31.813  25.671  25.582  1.00  0.00     0.019 A 
ATOM     15  O   UNL A   1      30.813  23.728  24.546  1.00  0.00    -0.475 OA
ATOM     16  C   UNL A   1      32.551  24.845  26.520  1.00  0.00     0.025 C 
ATOM     17  C   UNL A   1      31.766  22.864  25.239  1.00  0.00     0.314 C 
BRANCH   8  18
ATOM     18  C   UNL A   1      29.494  27.991  22.722  1.00  0.00     0.037 C 
BRANCH  18  19
ATOM     19  C   UNL A   1      28.208  28.734  23.112  1.00  0.00     0.008 C 
BRANCH  19  20
ATOM     20  C   UNL A   1      28.020  30.130  22.489  1.00  0.00    -0.017 C 
ATOM     21  C   UNL A   1      27.605  31.171  23.528  1.00  0.00     0.007 C 
ATOM     22  C   UNL A   1      29.323  30.566  21.811  1.00  0.00     0.007 C 
ENDBRANCH  19  20
ENDBRANCH  18  19
ENDBRANCH   8  18
BRANCH  17  23
ATOM     23  C   UNL A   1      32.645  22.165  24.188  1.00  0.00     0.429 C 
ATOM     24  F   UNL A   1      33.175  21.030  24.715  1.00  0.00    -0.167 F 
ATOM     25  F   UNL A   1      31.947  21.801  23.088  1.00  0.00    -0.167 F 
ATOM     26  F   UNL A   1      33.679  22.924  23.769  1.00  0.00    -0.167 F 
ENDBRANCH  17  23
ENDBRANCH   4   7
ENDBRANCH   2   3
ENDBRANCH   1   2
BRANCH   1  27
ATOM     27  C   UNL A   1      37.952  22.129  25.190  1.00  0.00     0.023 C 
BRANCH  27  28
ATOM     28  C   UNL A   1      39.086  21.837  26.163  1.00  0.00     0.116 C 
BRANCH  28  29
ATOM     29  N   UNL A   1      39.660  20.506  26.022  1.00  0.00    -0.352 N 
ATOM     30  C   UNL A   1      40.991  20.143  26.142  1.00  0.00     0.251 C 
ATOM     31  H   UNL A   1      39.028  19.779  25.816  1.00  0.00     0.163 HD
ATOM     32  O   UNL A   1      41.357  19.007  25.956  1.00  0.00    -0.269 OA
BRANCH  30  33
ATOM     33  C   UNL A   1      41.954  21.225  26.445  1.00  0.00     0.039 A 
ATOM     34  C   UNL A   1      42.302  21.487  27.770  1.00  0.00     0.014 A 
ATOM     35  C   UNL A   1      42.343  22.079  25.412  1.00  0.00     0.014 A 
ATOM     36  C   UNL A   1      42.879  22.708  28.086  1.00  0.00     0.010 A 
ATOM     37  C   UNL A   1      42.993  23.274  25.728  1.00  0.00     0.010 A 
ATOM     38  C   UNL A   1      43.202  23.626  27.071  1.00  0.00    -0.014 A 
BRANCH  38  39
ATOM     39  C   UNL A   1      43.695  24.977  27.437  1.00  0.00     0.031 A 
ATOM     40  C   UNL A   1      45.133  25.354  27.199  1.00  0.00     0.074 A 
ATOM     41  C   UNL A   1      42.826  25.890  27.911  1.00  0.00     0.049 A 
ATOM     42  N   UNL A   1      45.743  26.479  27.476  1.00  0.00    -0.248 NA
ATOM     43  C   UNL A   1      46.000  24.347  26.565  1.00  0.00     0.031 C 
ATOM     44  C   UNL A   1      41.397  25.658  28.127  1.00  0.00     0.029 A 
ATOM     45  N   UNL A   1      43.008  27.204  28.260  1.00  0.00    -0.354 N 
ATOM     46  C   UNL A   1      47.064  26.304  27.079  1.00  0.00     0.074 A 
ATOM     47  C   UNL A   1      47.175  24.963  26.551  1.00  0.00     0.031 C 
ATOM     48  C   UNL A   1      40.819  26.807  28.504  1.00  0.00     0.029 A 
ATOM     49  C   UNL A   1      41.847  27.837  28.633  1.00  0.00     0.049 A 
ATOM     50  H   UNL A   1      43.885  27.650  28.245  1.00  0.00     0.167 HD
ATOM     51  C   UNL A   1      48.089  27.187  27.145  1.00  0.00     0.031 A 
ATOM     52  C   UNL A   1      41.628  29.101  29.046  1.00  0.00     0.031 A 
ATOM     53  C   UNL A   1      47.967  28.527  27.652  1.00  0.00     0.049 A 
ATOM     54  C   UNL A   1      42.787  30.045  29.159  1.00  0.00     0.074 A 
ATOM     55  C   UNL A   1      48.955  29.489  27.780  1.00  0.00     0.029 A 
ATOM     56  N   UNL A   1      46.787  29.103  28.097  1.00  0.00    -0.354 N 
ATOM     57  N   UNL A   1      44.042  29.839  28.843  1.00  0.00    -0.248 NA
ATOM     58  C   UNL A   1      42.508  31.382  29.699  1.00  0.00     0.031 C 
ATOM     59  C   UNL A   1      48.379  30.632  28.339  1.00  0.00     0.029 A 
ATOM     60  C   UNL A   1      47.024  30.401  28.512  1.00  0.00     0.049 A 
ATOM     61  H   UNL A   1      45.911  28.654  28.116  1.00  0.00     0.167 HD
ATOM     62  C   UNL A   1      44.707  31.019  29.150  1.00  0.00     0.074 A 
ATOM     63  C   UNL A   1      43.712  31.942  29.657  1.00  0.00     0.031 C 
ATOM     64  C   UNL A   1      46.025  31.305  29.025  1.00  0.00     0.031 A 
BRANCH  51  65
ATOM     65  C   UNL A   1      49.447  26.735  26.680  1.00  0.00    -0.014 A 
ATOM     66  C   UNL A   1      49.870  27.037  25.372  1.00  0.00     0.010 A 
ATOM     67  C   UNL A   1      50.265  25.935  27.498  1.00  0.00     0.010 A 
ATOM     68  C   UNL A   1      51.079  26.535  24.882  1.00  0.00     0.020 A 
ATOM     69  C   UNL A   1      51.485  25.448  27.018  1.00  0.00     0.020 A 
ATOM     70  C   UNL A   1      51.875  25.737  25.707  1.00  0.00     0.054 A 
BRANCH  70  71
ATOM     71  S   UNL A   1      53.448  25.099  25.063  1.00  0.00     0.124 S 
ATOM     72  O   UNL A   1      54.425  25.772  25.913  1.00  0.00    -0.237 OA
ATOM     73  O   UNL A   1      53.321  23.657  25.266  1.00  0.00    -0.237 OA
ATOM     74  O   UNL A   1      53.436  25.522  23.663  1.00  0.00    -0.744 OA
ENDBRANCH  70  71
ENDBRANCH  51  65
BRANCH  52  75
ATOM     75  C   UNL A   1      40.238  29.513  29.373  1.00  0.00    -0.014 A 
ATOM     76  C   UNL A   1      39.404  30.049  28.373  1.00  0.00     0.010 A 
ATOM     77  C   UNL A   1      39.790  29.489  30.703  1.00  0.00     0.010 A 
ATOM     78  C   UNL A   1      38.174  30.616  28.708  1.00  0.00     0.020 A 
ATOM     79  C   UNL A   1      38.546  30.035  31.039  1.00  0.00     0.020 A 
ATOM     80  C   UNL A   1      37.763  30.626  30.044  1.00  0.00     0.054 A 
BRANCH  80  81
ATOM     81  S   UNL A   1      36.198  31.437  30.475  1.00  0.00     0.124 S 
ATOM     82  O   UNL A   1      36.578  32.846  30.450  1.00  0.00    -0.237 OA
ATOM     83  O   UNL A   1      35.304  31.007  29.403  1.00  0.00    -0.237 OA
ATOM     84  O   UNL A   1      35.889  30.894  31.796  1.00  0.00    -0.744 OA
ENDBRANCH  80  81
ENDBRANCH  52  75
BRANCH  64  85
ATOM     85  C   UNL A   1      46.495  32.668  29.449  1.00  0.00    -0.014 A 
ATOM     86  C   UNL A   1      46.558  33.707  28.505  1.00  0.00     0.010 A 
ATOM     87  C   UNL A   1      47.004  32.875  30.742  1.00  0.00     0.010 A 
ATOM     88  C   UNL A   1      47.155  34.925  28.836  1.00  0.00     0.020 A 
ATOM     89  C   UNL A   1      47.586  34.099  31.083  1.00  0.00     0.020 A 
ATOM     90  C   UNL A   1      47.680  35.107  30.119  1.00  0.00     0.054 A 
BRANCH  90  91
ATOM     91  S   UNL A   1      48.491  36.679  30.522  1.00  0.00     0.124 S 
ATOM     92  O   UNL A   1      48.442  37.386  29.246  1.00  0.00    -0.237 OA
ATOM     93  O   UNL A   1      47.639  37.223  31.577  1.00  0.00    -0.237 OA
ATOM     94  O   UNL A   1      49.824  36.271  30.960  1.00  0.00    -0.744 OA
ENDBRANCH  90  91
ENDBRANCH  64  85
ENDBRANCH  38  39
ENDBRANCH  30  33
ENDBRANCH  28  29
ENDBRANCH  27  28
ENDBRANCH   1  27
TORSDOF 18
ENDMDL
