MODEL 1
REMARK VINA RESULT:     -14.0      0.000      0.000
REMARK SMILES Cc1ccc(-c2nc(C)cc(N3CCCC[C@H]3C(=O)NCCCCNC(=O)c3ccc(-c4c5nc(c(-c6ccc(S(=O)(=O)[O-])cc6)c6ccc([nH]6)c(-c6ccc(S(=O)(=O)[O-])cc6)c6nc(c(-c7ccc(S(=O)(=O)[O-])cc7)c7ccc4[nH]7)C=C6)C=C5)cc3)n2)cc1
REMARK SMILES IDX 23 1 22 2 21 3 20 4 18 5 19 6 17 8 12 9 13 10 14 11 16 12
REMARK SMILES IDX 15 13 11 14 6 15 7 16 88 17 8 18 9 19 10 20 5 21 1 22 2 23
REMARK SMILES IDX 3 24 90 25 4 26 89 27 24 28 25 29 26 30 27 32 28 33 29 34
REMARK SMILES IDX 87 35 30 36 86 37 31 38 32 39 33 40 80 41 34 42 85 43 79 44
REMARK SMILES IDX 81 45 35 46 84 47 78 48 77 49 36 51 66 52 47 53 65 54 48 55
REMARK SMILES IDX 51 56 64 57 82 58 49 59 50 60 63 62 83 63 52 64 37 65 38 66
REMARK SMILES IDX 46 67 39 68 45 69 40 70 41 71 42 72 43 73 44 74 67 75 68 76
REMARK SMILES IDX 76 77 69 78 75 79 70 80 71 81 72 82 73 83 74 84 53 85 54 86
REMARK SMILES IDX 62 87 55 88 61 89 56 90 57 91 58 92 59 93 60 94
REMARK H PARENT 20 7 25 31 81 50 51 61
REMARK Flexibility Score: inf
ROOT
ATOM      1  C   UNL A   1      32.736  29.403  27.215  1.00  0.00     0.023 C 
ENDROOT
BRANCH   1   2
ATOM      2  C   UNL A   1      31.953  29.944  26.018  1.00  0.00     0.023 C 
BRANCH   2   3
ATOM      3  C   UNL A   1      31.460  28.895  25.009  1.00  0.00     0.116 C 
BRANCH   3   4
ATOM      4  N   UNL A   1      31.136  27.623  25.632  1.00  0.00    -0.354 N 
ATOM      5  C   UNL A   1      31.743  26.417  25.735  1.00  0.00     0.242 C 
ATOM      6  O   UNL A   1      31.155  25.618  26.487  1.00  0.00    -0.273 OA
ATOM      7  H   UNL A   1      30.265  27.643  26.090  1.00  0.00     0.163 HD
BRANCH   5   8
ATOM      8  C   UNL A   1      33.042  25.936  25.015  1.00  0.00     0.173 C 
ATOM      9  N   UNL A   1      32.826  24.551  24.530  1.00  0.00    -0.344 N 
ATOM     10  C   UNL A   1      32.074  24.408  23.291  1.00  0.00     0.119 C 
ATOM     11  C   UNL A   1      32.758  25.150  22.148  1.00  0.00     0.022 C 
ATOM     12  C   UNL A   1      33.732  26.730  23.900  1.00  0.00     0.035 C 
ATOM     13  C   UNL A   1      33.080  26.594  22.522  1.00  0.00     0.004 C 
BRANCH   9  14
ATOM     14  C   UNL A   1      33.819  23.620  24.798  1.00  0.00     0.133 A 
ATOM     15  C   UNL A   1      34.495  21.441  25.053  1.00  0.00     0.161 A 
ATOM     16  N   UNL A   1      35.742  21.770  25.430  1.00  0.00    -0.233 NA
ATOM     17  N   UNL A   1      33.518  22.313  24.751  1.00  0.00    -0.211 NA
ATOM     18  C   UNL A   1      36.026  23.086  25.458  1.00  0.00     0.043 A 
ATOM     19  C   UNL A   1      37.410  23.464  25.888  1.00  0.00     0.067 C 
ATOM     20  C   UNL A   1      35.091  24.049  25.132  1.00  0.00     0.070 A 
BRANCH  15  21
ATOM     21  C   UNL A   1      34.177  20.017  24.932  1.00  0.00     0.019 A 
ATOM     22  C   UNL A   1      33.238  15.804  24.588  1.00  0.00     0.044 C 
ATOM     23  C   UNL A   1      33.573  17.259  24.714  1.00  0.00    -0.051 A 
ATOM     24  C   UNL A   1      32.560  18.193  24.964  1.00  0.00     0.004 A 
ATOM     25  C   UNL A   1      34.888  17.711  24.563  1.00  0.00     0.004 A 
ATOM     26  C   UNL A   1      32.861  19.553  25.082  1.00  0.00     0.012 A 
ATOM     27  C   UNL A   1      35.183  19.075  24.665  1.00  0.00     0.012 A 
ENDBRANCH  15  21
ENDBRANCH   9  14
ENDBRANCH   5   8
ENDBRANCH   3   4
ENDBRANCH   2   3
ENDBRANCH   1   2
BRANCH   1  28
ATOM     28  C   UNL A   1      34.241  29.401  27.024  1.00  0.00     0.116 C 
BRANCH  28  29
ATOM     29  N   UNL A   1      34.899  30.691  27.180  1.00  0.00    -0.352 N 
ATOM     30  C   UNL A   1      36.094  30.981  27.819  1.00  0.00     0.251 C 
ATOM     31  H   UNL A   1      34.434  31.459  26.777  1.00  0.00     0.163 HD
ATOM     32  O   UNL A   1      36.359  32.124  28.126  1.00  0.00    -0.269 OA
BRANCH  30  33
ATOM     33  C   UNL A   1      37.077  29.882  28.055  1.00  0.00     0.039 A 
ATOM     34  C   UNL A   1      37.035  29.187  29.271  1.00  0.00     0.014 A 
ATOM     35  C   UNL A   1      38.124  29.660  27.170  1.00  0.00     0.014 A 
ATOM     36  C   UNL A   1      38.135  28.422  29.675  1.00  0.00     0.010 A 
ATOM     37  C   UNL A   1      39.261  29.030  27.627  1.00  0.00     0.010 A 
ATOM     38  C   UNL A   1      39.281  28.418  28.887  1.00  0.00    -0.014 A 
BRANCH  38  39
ATOM     39  C   UNL A   1      40.570  27.828  29.235  1.00  0.00     0.031 A 
ATOM     40  C   UNL A   1      40.868  26.429  28.820  1.00  0.00     0.074 A 
ATOM     41  C   UNL A   1      41.573  28.611  29.692  1.00  0.00     0.049 A 
ATOM     42  N   UNL A   1      41.898  25.754  29.205  1.00  0.00    -0.248 NA
ATOM     43  C   UNL A   1      39.983  25.657  27.948  1.00  0.00     0.031 C 
ATOM     44  C   UNL A   1      43.004  28.335  29.593  1.00  0.00     0.029 A 
ATOM     45  N   UNL A   1      41.508  29.721  30.535  1.00  0.00    -0.354 N 
ATOM     46  C   UNL A   1      41.977  24.625  28.421  1.00  0.00     0.074 A 
ATOM     47  C   UNL A   1      40.725  24.574  27.707  1.00  0.00     0.031 C 
ATOM     48  C   UNL A   1      43.645  29.023  30.547  1.00  0.00     0.029 A 
ATOM     49  C   UNL A   1      42.626  29.628  31.385  1.00  0.00     0.049 A 
ATOM     50  H   UNL A   1      40.821  30.426  30.536  1.00  0.00     0.167 HD
ATOM     51  C   UNL A   1      43.145  23.925  28.364  1.00  0.00     0.031 A 
ATOM     52  C   UNL A   1      42.566  29.517  32.746  1.00  0.00     0.031 A 
ATOM     53  C   UNL A   1      44.136  24.456  29.294  1.00  0.00     0.049 A 
ATOM     54  C   UNL A   1      43.305  28.313  33.290  1.00  0.00     0.074 A 
ATOM     55  C   UNL A   1      45.246  25.271  29.142  1.00  0.00     0.029 A 
ATOM     56  N   UNL A   1      43.892  24.367  30.656  1.00  0.00    -0.354 N 
ATOM     57  N   UNL A   1      43.708  27.315  32.555  1.00  0.00    -0.248 NA
ATOM     58  C   UNL A   1      43.600  28.108  34.705  1.00  0.00     0.031 C 
ATOM     59  C   UNL A   1      45.646  25.708  30.432  1.00  0.00     0.029 A 
ATOM     60  C   UNL A   1      44.791  25.141  31.361  1.00  0.00     0.049 A 
ATOM     61  H   UNL A   1      43.177  23.826  31.063  1.00  0.00     0.167 HD
ATOM     62  C   UNL A   1      44.274  26.349  33.345  1.00  0.00     0.074 A 
ATOM     63  C   UNL A   1      44.200  26.904  34.685  1.00  0.00     0.031 C 
ATOM     64  C   UNL A   1      44.728  25.174  32.816  1.00  0.00     0.031 A 
BRANCH  51  65
ATOM     65  C   UNL A   1      43.486  22.901  27.304  1.00  0.00    -0.014 A 
ATOM     66  C   UNL A   1      42.668  21.760  27.157  1.00  0.00     0.010 A 
ATOM     67  C   UNL A   1      44.605  22.968  26.454  1.00  0.00     0.010 A 
ATOM     68  C   UNL A   1      42.993  20.712  26.282  1.00  0.00     0.020 A 
ATOM     69  C   UNL A   1      44.962  21.917  25.596  1.00  0.00     0.020 A 
ATOM     70  C   UNL A   1      44.157  20.787  25.524  1.00  0.00     0.054 A 
BRANCH  70  71
ATOM     71  S   UNL A   1      44.603  19.399  24.449  1.00  0.00     0.124 S 
ATOM     72  O   UNL A   1      43.606  18.392  24.806  1.00  0.00    -0.237 OA
ATOM     73  O   UNL A   1      44.466  19.976  23.115  1.00  0.00    -0.237 OA
ATOM     74  O   UNL A   1      45.972  19.077  24.849  1.00  0.00    -0.744 OA
ENDBRANCH  70  71
ENDBRANCH  51  65
BRANCH  52  75
ATOM     75  C   UNL A   1      41.343  30.109  33.351  1.00  0.00    -0.014 A 
ATOM     76  C   UNL A   1      41.238  31.516  33.325  1.00  0.00     0.010 A 
ATOM     77  C   UNL A   1      40.176  29.332  33.453  1.00  0.00     0.010 A 
ATOM     78  C   UNL A   1      39.991  32.121  33.179  1.00  0.00     0.020 A 
ATOM     79  C   UNL A   1      38.922  29.941  33.317  1.00  0.00     0.020 A 
ATOM     80  C   UNL A   1      38.851  31.321  33.096  1.00  0.00     0.054 A 
BRANCH  80  81
ATOM     81  S   UNL A   1      37.334  32.074  32.436  1.00  0.00     0.124 S 
ATOM     82  O   UNL A   1      37.696  32.352  31.050  1.00  0.00    -0.237 OA
ATOM     83  O   UNL A   1      36.367  30.994  32.633  1.00  0.00    -0.237 OA
ATOM     84  O   UNL A   1      37.140  33.244  33.287  1.00  0.00    -0.744 OA
ENDBRANCH  80  81
ENDBRANCH  52  75
BRANCH  64  85
ATOM     85  C   UNL A   1      45.192  23.940  33.564  1.00  0.00    -0.014 A 
ATOM     86  C   UNL A   1      46.473  23.757  34.099  1.00  0.00     0.010 A 
ATOM     87  C   UNL A   1      44.236  22.928  33.854  1.00  0.00     0.010 A 
ATOM     88  C   UNL A   1      46.798  22.614  34.849  1.00  0.00     0.020 A 
ATOM     89  C   UNL A   1      44.535  21.809  34.635  1.00  0.00     0.020 A 
ATOM     90  C   UNL A   1      45.827  21.648  35.112  1.00  0.00     0.054 A 
BRANCH  90  91
ATOM     91  S   UNL A   1      46.238  20.220  36.147  1.00  0.00     0.124 S 
ATOM     92  O   UNL A   1      45.801  20.668  37.466  1.00  0.00    -0.237 OA
ATOM     93  O   UNL A   1      45.440  19.147  35.555  1.00  0.00    -0.237 OA
ATOM     94  O   UNL A   1      47.681  20.077  35.977  1.00  0.00    -0.744 OA
ENDBRANCH  90  91
ENDBRANCH  64  85
ENDBRANCH  38  39
ENDBRANCH  30  33
ENDBRANCH  28  29
ENDBRANCH   1  28
TORSDOF 16
ENDMDL
MODEL 2
REMARK VINA RESULT:     -13.4      4.076     10.959
REMARK SMILES Cc1ccc(-c2nc(C)cc(N3CCCC[C@H]3C(=O)NCCCCNC(=O)c3ccc(-c4c5nc(c(-c6ccc(S(=O)(=O)[O-])cc6)c6ccc([nH]6)c(-c6ccc(S(=O)(=O)[O-])cc6)c6nc(c(-c7ccc(S(=O)(=O)[O-])cc7)c7ccc4[nH]7)C=C6)C=C5)cc3)n2)cc1
REMARK SMILES IDX 23 1 22 2 21 3 20 4 18 5 19 6 17 8 12 9 13 10 14 11 16 12
REMARK SMILES IDX 15 13 11 14 6 15 7 16 88 17 8 18 9 19 10 20 5 21 1 22 2 23
REMARK SMILES IDX 3 24 90 25 4 26 89 27 24 28 25 29 26 30 27 32 28 33 29 34
REMARK SMILES IDX 87 35 30 36 86 37 31 38 32 39 33 40 80 41 34 42 85 43 79 44
REMARK SMILES IDX 81 45 35 46 84 47 78 48 77 49 36 51 66 52 47 53 65 54 48 55
REMARK SMILES IDX 51 56 64 57 82 58 49 59 50 60 63 62 83 63 52 64 37 65 38 66
REMARK SMILES IDX 46 67 39 68 45 69 40 70 41 71 42 72 43 73 44 74 67 75 68 76
REMARK SMILES IDX 76 77 69 78 75 79 70 80 71 81 72 82 73 83 74 84 53 85 54 86
REMARK SMILES IDX 62 87 55 88 61 89 56 90 57 91 58 92 59 93 60 94
REMARK H PARENT 20 7 25 31 81 50 51 61
REMARK Flexibility Score: inf
ROOT
ATOM      1  C   UNL A   1      36.633  21.559  24.623  1.00  0.00     0.023 C 
ENDROOT
BRANCH   1   2
ATOM      2  C   UNL A   1      35.437  20.993  25.388  1.00  0.00     0.023 C 
BRANCH   2   3
ATOM      3  C   UNL A   1      34.057  21.251  24.762  1.00  0.00     0.116 C 
BRANCH   3   4
ATOM      4  N   UNL A   1      34.104  22.205  23.668  1.00  0.00    -0.354 N 
ATOM      5  C   UNL A   1      33.932  23.543  23.545  1.00  0.00     0.242 C 
ATOM      6  O   UNL A   1      34.195  23.985  22.412  1.00  0.00    -0.273 OA
ATOM      7  H   UNL A   1      34.313  21.776  22.807  1.00  0.00     0.163 HD
BRANCH   5   8
ATOM      8  C   UNL A   1      33.433  24.545  24.633  1.00  0.00     0.173 C 
ATOM      9  N   UNL A   1      32.010  24.866  24.361  1.00  0.00    -0.344 N 
ATOM     10  C   UNL A   1      31.030  23.883  24.801  1.00  0.00     0.119 C 
ATOM     11  C   UNL A   1      31.126  23.651  26.305  1.00  0.00     0.022 C 
ATOM     12  C   UNL A   1      33.588  24.304  26.139  1.00  0.00     0.035 C 
ATOM     13  C   UNL A   1      32.556  23.347  26.742  1.00  0.00     0.004 C 
BRANCH   9  14
ATOM     14  C   UNL A   1      31.643  26.203  24.379  1.00  0.00     0.133 A 
ATOM     15  C   UNL A   1      31.886  28.328  25.212  1.00  0.00     0.161 A 
ATOM     16  N   UNL A   1      30.856  28.828  24.507  1.00  0.00    -0.233 NA
ATOM     17  N   UNL A   1      32.294  27.048  25.193  1.00  0.00    -0.211 NA
ATOM     18  C   UNL A   1      30.225  27.965  23.687  1.00  0.00     0.043 A 
ATOM     19  C   UNL A   1      29.070  28.509  22.904  1.00  0.00     0.067 C 
ATOM     20  C   UNL A   1      30.600  26.639  23.581  1.00  0.00     0.070 A 
BRANCH  15  21
ATOM     21  C   UNL A   1      32.646  29.256  26.051  1.00  0.00     0.019 A 
ATOM     22  C   UNL A   1      34.899  32.009  28.520  1.00  0.00     0.044 C 
ATOM     23  C   UNL A   1      34.129  31.054  27.658  1.00  0.00    -0.051 A 
ATOM     24  C   UNL A   1      32.830  31.373  27.246  1.00  0.00     0.004 A 
ATOM     25  C   UNL A   1      34.681  29.829  27.273  1.00  0.00     0.004 A 
ATOM     26  C   UNL A   1      32.103  30.489  26.443  1.00  0.00     0.012 A 
ATOM     27  C   UNL A   1      33.943  28.939  26.484  1.00  0.00     0.012 A 
ENDBRANCH  15  21
ENDBRANCH   9  14
ENDBRANCH   5   8
ENDBRANCH   3   4
ENDBRANCH   2   3
ENDBRANCH   1   2
BRANCH   1  28
ATOM     28  C   UNL A   1      37.511  22.487  25.441  1.00  0.00     0.116 C 
BRANCH  28  29
ATOM     29  N   UNL A   1      38.670  21.869  26.070  1.00  0.00    -0.352 N 
ATOM     30  C   UNL A   1      39.815  22.476  26.562  1.00  0.00     0.251 C 
ATOM     31  H   UNL A   1      38.636  20.890  26.159  1.00  0.00     0.163 HD
ATOM     32  O   UNL A   1      40.809  21.817  26.778  1.00  0.00    -0.269 OA
BRANCH  30  33
ATOM     33  C   UNL A   1      39.780  23.932  26.890  1.00  0.00     0.039 A 
ATOM     34  C   UNL A   1      40.421  24.835  26.029  1.00  0.00     0.014 A 
ATOM     35  C   UNL A   1      39.280  24.379  28.106  1.00  0.00     0.014 A 
ATOM     36  C   UNL A   1      40.723  26.127  26.473  1.00  0.00     0.010 A 
ATOM     37  C   UNL A   1      39.702  25.594  28.596  1.00  0.00     0.010 A 
ATOM     38  C   UNL A   1      40.438  26.473  27.790  1.00  0.00    -0.014 A 
BRANCH  38  39
ATOM     39  C   UNL A   1      40.839  27.701  28.469  1.00  0.00     0.031 A 
ATOM     40  C   UNL A   1      39.840  28.788  28.660  1.00  0.00     0.074 A 
ATOM     41  C   UNL A   1      42.011  27.751  29.142  1.00  0.00     0.049 A 
ATOM     42  N   UNL A   1      40.118  29.970  29.099  1.00  0.00    -0.248 NA
ATOM     43  C   UNL A   1      38.425  28.630  28.326  1.00  0.00     0.031 C 
ATOM     44  C   UNL A   1      42.331  28.635  30.262  1.00  0.00     0.029 A 
ATOM     45  N   UNL A   1      43.236  27.166  28.822  1.00  0.00    -0.354 N 
ATOM     46  C   UNL A   1      38.928  30.599  29.393  1.00  0.00     0.074 A 
ATOM     47  C   UNL A   1      37.906  29.755  28.826  1.00  0.00     0.031 C 
ATOM     48  C   UNL A   1      43.661  28.769  30.339  1.00  0.00     0.029 A 
ATOM     49  C   UNL A   1      44.219  28.110  29.174  1.00  0.00     0.049 A 
ATOM     50  H   UNL A   1      43.383  26.276  28.430  1.00  0.00     0.167 HD
ATOM     51  C   UNL A   1      38.930  31.701  30.194  1.00  0.00     0.031 A 
ATOM     52  C   UNL A   1      45.103  28.681  28.300  1.00  0.00     0.031 A 
ATOM     53  C   UNL A   1      40.287  32.122  30.527  1.00  0.00     0.049 A 
ATOM     54  C   UNL A   1      45.071  30.194  28.309  1.00  0.00     0.074 A 
ATOM     55  C   UNL A   1      41.084  31.971  31.650  1.00  0.00     0.029 A 
ATOM     56  N   UNL A   1      41.112  32.586  29.515  1.00  0.00    -0.354 N 
ATOM     57  N   UNL A   1      44.119  30.898  28.853  1.00  0.00    -0.248 NA
ATOM     58  C   UNL A   1      46.075  31.034  27.661  1.00  0.00     0.031 C 
ATOM     59  C   UNL A   1      42.414  32.311  31.290  1.00  0.00     0.029 A 
ATOM     60  C   UNL A   1      42.415  32.686  29.959  1.00  0.00     0.049 A 
ATOM     61  H   UNL A   1      40.810  32.813  28.605  1.00  0.00     0.167 HD
ATOM     62  C   UNL A   1      44.337  32.233  28.630  1.00  0.00     0.074 A 
ATOM     63  C   UNL A   1      45.589  32.266  27.896  1.00  0.00     0.031 C 
ATOM     64  C   UNL A   1      43.447  33.179  29.056  1.00  0.00     0.031 A 
BRANCH  51  65
ATOM     65  C   UNL A   1      37.707  32.273  30.877  1.00  0.00    -0.014 A 
ATOM     66  C   UNL A   1      37.412  33.646  30.729  1.00  0.00     0.010 A 
ATOM     67  C   UNL A   1      36.834  31.543  31.702  1.00  0.00     0.010 A 
ATOM     68  C   UNL A   1      36.369  34.268  31.431  1.00  0.00     0.020 A 
ATOM     69  C   UNL A   1      35.804  32.154  32.435  1.00  0.00     0.020 A 
ATOM     70  C   UNL A   1      35.585  33.519  32.303  1.00  0.00     0.054 A 
BRANCH  70  71
ATOM     71  S   UNL A   1      34.285  34.345  33.257  1.00  0.00     0.124 S 
ATOM     72  O   UNL A   1      33.951  35.486  32.408  1.00  0.00    -0.237 OA
ATOM     73  O   UNL A   1      33.261  33.310  33.354  1.00  0.00    -0.237 OA
ATOM     74  O   UNL A   1      34.944  34.688  34.516  1.00  0.00    -0.744 OA
ENDBRANCH  70  71
ENDBRANCH  51  65
BRANCH  52  75
ATOM     75  C   UNL A   1      45.408  27.843  27.110  1.00  0.00    -0.014 A 
ATOM     76  C   UNL A   1      46.393  26.846  27.270  1.00  0.00     0.010 A 
ATOM     77  C   UNL A   1      44.443  27.704  26.096  1.00  0.00     0.010 A 
ATOM     78  C   UNL A   1      46.283  25.637  26.583  1.00  0.00     0.020 A 
ATOM     79  C   UNL A   1      44.339  26.494  25.399  1.00  0.00     0.020 A 
ATOM     80  C   UNL A   1      45.209  25.445  25.713  1.00  0.00     0.054 A 
BRANCH  80  81
ATOM     81  S   UNL A   1      44.819  23.740  25.215  1.00  0.00     0.124 S 
ATOM     82  O   UNL A   1      43.370  23.782  25.050  1.00  0.00    -0.237 OA
ATOM     83  O   UNL A   1      45.593  23.617  23.980  1.00  0.00    -0.237 OA
ATOM     84  O   UNL A   1      45.307  22.941  26.335  1.00  0.00    -0.744 OA
ENDBRANCH  80  81
ENDBRANCH  52  75
BRANCH  64  85
ATOM     85  C   UNL A   1      43.438  34.657  28.724  1.00  0.00    -0.014 A 
ATOM     86  C   UNL A   1      43.118  35.200  27.474  1.00  0.00     0.010 A 
ATOM     87  C   UNL A   1      43.657  35.586  29.778  1.00  0.00     0.010 A 
ATOM     88  C   UNL A   1      43.055  36.590  27.272  1.00  0.00     0.020 A 
ATOM     89  C   UNL A   1      43.555  36.968  29.601  1.00  0.00     0.020 A 
ATOM     90  C   UNL A   1      43.274  37.464  28.336  1.00  0.00     0.054 A 
BRANCH  90  91
ATOM     91  S   UNL A   1      43.112  39.249  28.080  1.00  0.00     0.124 S 
ATOM     92  O   UNL A   1      41.695  39.466  28.359  1.00  0.00    -0.237 OA
ATOM     93  O   UNL A   1      44.036  39.806  29.066  1.00  0.00    -0.237 OA
ATOM     94  O   UNL A   1      43.514  39.434  26.689  1.00  0.00    -0.744 OA
ENDBRANCH  90  91
ENDBRANCH  64  85
ENDBRANCH  38  39
ENDBRANCH  30  33
ENDBRANCH  28  29
ENDBRANCH   1  28
TORSDOF 16
ENDMDL
MODEL 3
REMARK VINA RESULT:     -13.4      4.357     11.349
REMARK SMILES Cc1ccc(-c2nc(C)cc(N3CCCC[C@H]3C(=O)NCCCCNC(=O)c3ccc(-c4c5nc(c(-c6ccc(S(=O)(=O)[O-])cc6)c6ccc([nH]6)c(-c6ccc(S(=O)(=O)[O-])cc6)c6nc(c(-c7ccc(S(=O)(=O)[O-])cc7)c7ccc4[nH]7)C=C6)C=C5)cc3)n2)cc1
REMARK SMILES IDX 23 1 22 2 21 3 20 4 18 5 19 6 17 8 12 9 13 10 14 11 16 12
REMARK SMILES IDX 15 13 11 14 6 15 7 16 88 17 8 18 9 19 10 20 5 21 1 22 2 23
REMARK SMILES IDX 3 24 90 25 4 26 89 27 24 28 25 29 26 30 27 32 28 33 29 34
REMARK SMILES IDX 87 35 30 36 86 37 31 38 32 39 33 40 80 41 34 42 85 43 79 44
REMARK SMILES IDX 81 45 35 46 84 47 78 48 77 49 36 51 66 52 47 53 65 54 48 55
REMARK SMILES IDX 51 56 64 57 82 58 49 59 50 60 63 62 83 63 52 64 37 65 38 66
REMARK SMILES IDX 46 67 39 68 45 69 40 70 41 71 42 72 43 73 44 74 67 75 68 76
REMARK SMILES IDX 76 77 69 78 75 79 70 80 71 81 72 82 73 83 74 84 53 85 54 86
REMARK SMILES IDX 62 87 55 88 61 89 56 90 57 91 58 92 59 93 60 94
REMARK H PARENT 20 7 25 31 81 50 51 61
REMARK Flexibility Score: inf
ROOT
ATOM      1  C   UNL A   1      37.162  22.167  24.497  1.00  0.00     0.023 C 
ENDROOT
BRANCH   1   2
ATOM      2  C   UNL A   1      36.205  22.848  23.518  1.00  0.00     0.023 C 
BRANCH   2   3
ATOM      3  C   UNL A   1      34.732  22.420  23.612  1.00  0.00     0.116 C 
BRANCH   3   4
ATOM      4  N   UNL A   1      33.846  23.277  22.843  1.00  0.00    -0.354 N 
ATOM      5  C   UNL A   1      33.253  24.478  23.041  1.00  0.00     0.242 C 
ATOM      6  O   UNL A   1      32.656  24.919  22.042  1.00  0.00    -0.273 OA
ATOM      7  H   UNL A   1      33.624  22.892  21.964  1.00  0.00     0.163 HD
BRANCH   5   8
ATOM      8  C   UNL A   1      33.221  25.322  24.354  1.00  0.00     0.173 C 
ATOM      9  N   UNL A   1      31.837  25.814  24.564  1.00  0.00    -0.344 N 
ATOM     10  C   UNL A   1      30.893  24.864  25.139  1.00  0.00     0.119 C 
ATOM     11  C   UNL A   1      31.374  24.372  26.500  1.00  0.00     0.022 C 
ATOM     12  C   UNL A   1      33.756  24.815  25.698  1.00  0.00     0.035 C 
ATOM     13  C   UNL A   1      32.813  23.868  26.444  1.00  0.00     0.004 C 
BRANCH   9  14
ATOM     14  C   UNL A   1      31.677  27.156  24.873  1.00  0.00     0.133 A 
ATOM     15  C   UNL A   1      30.889  29.245  24.343  1.00  0.00     0.161 A 
ATOM     16  N   UNL A   1      31.444  29.835  25.416  1.00  0.00    -0.233 NA
ATOM     17  N   UNL A   1      30.992  27.943  24.030  1.00  0.00    -0.211 NA
ATOM     18  C   UNL A   1      32.116  29.024  26.256  1.00  0.00     0.043 A 
ATOM     19  C   UNL A   1      32.747  29.671  27.450  1.00  0.00     0.067 C 
ATOM     20  C   UNL A   1      32.244  27.667  26.027  1.00  0.00     0.070 A 
BRANCH  15  21
ATOM     21  C   UNL A   1      30.082  30.082  23.453  1.00  0.00     0.019 A 
ATOM     22  C   UNL A   1      27.684  32.551  20.825  1.00  0.00     0.044 C 
ATOM     23  C   UNL A   1      28.508  31.686  21.731  1.00  0.00    -0.051 A 
ATOM     24  C   UNL A   1      28.720  32.066  23.061  1.00  0.00     0.004 A 
ATOM     25  C   UNL A   1      29.094  30.507  21.261  1.00  0.00     0.004 A 
ATOM     26  C   UNL A   1      29.489  31.268  23.913  1.00  0.00     0.012 A 
ATOM     27  C   UNL A   1      29.877  29.719  22.113  1.00  0.00     0.012 A 
ENDBRANCH  15  21
ENDBRANCH   9  14
ENDBRANCH   5   8
ENDBRANCH   3   4
ENDBRANCH   2   3
ENDBRANCH   1   2
BRANCH   1  28
ATOM     28  C   UNL A   1      37.655  23.069  25.613  1.00  0.00     0.116 C 
BRANCH  28  29
ATOM     29  N   UNL A   1      38.738  22.534  26.426  1.00  0.00    -0.352 N 
ATOM     30  C   UNL A   1      39.776  23.215  27.043  1.00  0.00     0.251 C 
ATOM     31  H   UNL A   1      38.732  21.558  26.556  1.00  0.00     0.163 HD
ATOM     32  O   UNL A   1      40.756  22.614  27.427  1.00  0.00    -0.269 OA
BRANCH  30  33
ATOM     33  C   UNL A   1      39.635  24.680  27.292  1.00  0.00     0.039 A 
ATOM     34  C   UNL A   1      40.243  25.579  26.404  1.00  0.00     0.014 A 
ATOM     35  C   UNL A   1      39.067  25.153  28.468  1.00  0.00     0.014 A 
ATOM     36  C   UNL A   1      40.445  26.909  26.788  1.00  0.00     0.010 A 
ATOM     37  C   UNL A   1      39.392  26.417  28.905  1.00  0.00     0.010 A 
ATOM     38  C   UNL A   1      40.095  27.301  28.076  1.00  0.00    -0.014 A 
BRANCH  38  39
ATOM     39  C   UNL A   1      40.392  28.587  28.701  1.00  0.00     0.031 A 
ATOM     40  C   UNL A   1      39.352  29.652  28.709  1.00  0.00     0.074 A 
ATOM     41  C   UNL A   1      41.485  28.722  29.485  1.00  0.00     0.049 A 
ATOM     42  N   UNL A   1      39.553  30.869  29.086  1.00  0.00    -0.248 NA
ATOM     43  C   UNL A   1      37.984  29.425  28.245  1.00  0.00     0.031 C 
ATOM     44  C   UNL A   1      41.665  29.692  30.564  1.00  0.00     0.029 A 
ATOM     45  N   UNL A   1      42.752  28.156  29.335  1.00  0.00    -0.354 N 
ATOM     46  C   UNL A   1      38.324  31.479  29.210  1.00  0.00     0.074 A 
ATOM     47  C   UNL A   1      37.387  30.564  28.605  1.00  0.00     0.031 C 
ATOM     48  C   UNL A   1      42.977  29.875  30.767  1.00  0.00     0.029 A 
ATOM     49  C   UNL A   1      43.669  29.154  29.715  1.00  0.00     0.049 A 
ATOM     50  H   UNL A   1      42.961  27.245  29.026  1.00  0.00     0.167 HD
ATOM     51  C   UNL A   1      38.214  32.634  29.924  1.00  0.00     0.031 A 
ATOM     52  C   UNL A   1      44.624  29.690  28.898  1.00  0.00     0.031 A 
ATOM     53  C   UNL A   1      39.518  33.121  30.363  1.00  0.00     0.049 A 
ATOM     54  C   UNL A   1      44.554  31.199  28.793  1.00  0.00     0.074 A 
ATOM     55  C   UNL A   1      40.197  33.075  31.570  1.00  0.00     0.029 A 
ATOM     56  N   UNL A   1      40.432  33.539  29.409  1.00  0.00    -0.354 N 
ATOM     57  N   UNL A   1      43.533  31.908  29.184  1.00  0.00    -0.248 NA
ATOM     58  C   UNL A   1      45.599  32.023  28.191  1.00  0.00     0.031 C 
ATOM     59  C   UNL A   1      41.549  33.432  31.323  1.00  0.00     0.029 A 
ATOM     60  C   UNL A   1      41.679  33.713  29.975  1.00  0.00     0.049 A 
ATOM     61  H   UNL A   1      40.221  33.692  28.459  1.00  0.00     0.167 HD
ATOM     62  C   UNL A   1      43.740  33.230  28.887  1.00  0.00     0.074 A 
ATOM     63  C   UNL A   1      45.060  33.252  28.283  1.00  0.00     0.031 C 
ATOM     64  C   UNL A   1      42.787  34.174  29.149  1.00  0.00     0.031 A 
BRANCH  51  65
ATOM     65  C   UNL A   1      36.912  33.212  30.435  1.00  0.00    -0.014 A 
ATOM     66  C   UNL A   1      35.947  33.664  29.508  1.00  0.00     0.010 A 
ATOM     67  C   UNL A   1      36.587  33.380  31.792  1.00  0.00     0.010 A 
ATOM     68  C   UNL A   1      34.775  34.323  29.909  1.00  0.00     0.020 A 
ATOM     69  C   UNL A   1      35.434  34.064  32.211  1.00  0.00     0.020 A 
ATOM     70  C   UNL A   1      34.539  34.542  31.263  1.00  0.00     0.054 A 
BRANCH  70  71
ATOM     71  S   UNL A   1      33.056  35.454  31.766  1.00  0.00     0.124 S 
ATOM     72  O   UNL A   1      32.498  34.594  32.807  1.00  0.00    -0.237 OA
ATOM     73  O   UNL A   1      33.609  36.724  32.226  1.00  0.00    -0.237 OA
ATOM     74  O   UNL A   1      32.263  35.529  30.541  1.00  0.00    -0.744 OA
ENDBRANCH  70  71
ENDBRANCH  51  65
BRANCH  52  75
ATOM     75  C   UNL A   1      45.073  28.781  27.809  1.00  0.00    -0.014 A 
ATOM     76  C   UNL A   1      46.043  27.815  28.147  1.00  0.00     0.010 A 
ATOM     77  C   UNL A   1      44.233  28.558  26.703  1.00  0.00     0.010 A 
ATOM     78  C   UNL A   1      46.024  26.562  27.536  1.00  0.00     0.020 A 
ATOM     79  C   UNL A   1      44.222  27.303  26.083  1.00  0.00     0.020 A 
ATOM     80  C   UNL A   1      45.060  26.293  26.564  1.00  0.00     0.054 A 
BRANCH  80  81
ATOM     81  S   UNL A   1      44.747  24.553  26.141  1.00  0.00     0.124 S 
ATOM     82  O   UNL A   1      43.387  24.348  26.628  1.00  0.00    -0.237 OA
ATOM     83  O   UNL A   1      44.901  24.578  24.687  1.00  0.00    -0.237 OA
ATOM     84  O   UNL A   1      45.793  23.836  26.864  1.00  0.00    -0.744 OA
ENDBRANCH  80  81
ENDBRANCH  52  75
BRANCH  64  85
ATOM     85  C   UNL A   1      42.776  35.625  28.711  1.00  0.00    -0.014 A 
ATOM     86  C   UNL A   1      43.189  36.707  29.498  1.00  0.00     0.010 A 
ATOM     87  C   UNL A   1      42.432  35.919  27.363  1.00  0.00     0.010 A 
ATOM     88  C   UNL A   1      43.222  38.015  28.986  1.00  0.00     0.020 A 
ATOM     89  C   UNL A   1      42.503  37.208  26.830  1.00  0.00     0.020 A 
ATOM     90  C   UNL A   1      42.879  38.257  27.655  1.00  0.00     0.054 A 
BRANCH  90  91
ATOM     91  S   UNL A   1      43.002  39.935  26.987  1.00  0.00     0.124 S 
ATOM     92  O   UNL A   1      43.072  40.740  28.204  1.00  0.00    -0.237 OA
ATOM     93  O   UNL A   1      44.232  39.884  26.199  1.00  0.00    -0.237 OA
ATOM     94  O   UNL A   1      41.778  40.084  26.205  1.00  0.00    -0.744 OA
ENDBRANCH  90  91
ENDBRANCH  64  85
ENDBRANCH  38  39
ENDBRANCH  30  33
ENDBRANCH  28  29
ENDBRANCH   1  28
TORSDOF 16
ENDMDL
