MODEL 1
REMARK VINA RESULT:     -12.0      0.000      0.000
REMARK SMILES CC(C)Nc1ncc(C(=O)N2CCC[C@H](c3cccc(C(=O)NCCCCNC(=O)c4ccc(-c5c6nc(c(-c7ccc(S(=O)(=O)[O-])cc7)c7ccc([nH]7)c(-c7ccc(S(=O)(=O)[O-])cc7)c7nc(c(-c8ccc(S(=O)(=O)[O-])cc8)c8ccc5[nH]8)C=C7)C=C6)cc4)c3)C2)cn1
REMARK SMILES IDX 24 1 23 2 21 3 22 4 20 6 16 7 17 8 91 9 18 10 19 11 15 12
REMARK SMILES IDX 11 13 12 14 92 15 13 16 14 17 9 18 10 19 8 20 5 21 6 22
REMARK SMILES IDX 94 23 7 24 93 25 4 26 2 28 1 29 3 30 25 31 26 32 27 33 28 34
REMARK SMILES IDX 29 35 30 37 31 38 32 39 90 40 33 41 89 42 34 43 35 44 36 45
REMARK SMILES IDX 83 46 37 47 88 48 82 49 84 50 38 51 87 52 81 53 80 54 39 56
REMARK SMILES IDX 69 57 50 58 68 59 51 60 54 61 67 62 85 63 52 64 53 65 66 67
REMARK SMILES IDX 86 68 55 69 40 70 41 71 49 72 42 73 48 74 43 75 44 76 45 77
REMARK SMILES IDX 46 78 47 79 70 80 71 81 79 82 72 83 78 84 73 85 74 86 75 87
REMARK SMILES IDX 76 88 77 89 56 90 57 91 65 92 58 93 64 94 59 95 60 96 61 97
REMARK SMILES IDX 62 98 63 99
REMARK H PARENT 23 5 4 27 28 36 84 55 54 66
REMARK Flexibility Score: inf
ROOT
ATOM      1  C   UNL A   1      31.585  29.989  25.875  1.00  0.00     0.116 C 
ENDROOT
BRANCH   1   2
ATOM      2  N   UNL A   1      30.964  30.457  24.645  1.00  0.00    -0.352 N 
ATOM      3  C   UNL A   1      30.329  29.767  23.633  1.00  0.00     0.251 C 
ATOM      4  O   UNL A   1      29.885  30.387  22.670  1.00  0.00    -0.269 OA
ATOM      5  H   UNL A   1      31.003  31.432  24.513  1.00  0.00     0.163 HD
BRANCH   3   6
ATOM      6  C   UNL A   1      30.228  28.284  23.651  1.00  0.00     0.040 A 
ATOM      7  C   UNL A   1      31.138  26.095  23.025  1.00  0.00    -0.042 A 
ATOM      8  C   UNL A   1      29.889  25.535  23.337  1.00  0.00     0.004 A 
ATOM      9  C   UNL A   1      31.302  27.466  23.285  1.00  0.00     0.018 A 
ATOM     10  C   UNL A   1      28.852  26.319  23.859  1.00  0.00     0.001 A 
ATOM     11  C   UNL A   1      29.011  27.697  23.991  1.00  0.00     0.014 A 
BRANCH   7  12
ATOM     12  C   UNL A   1      32.235  25.336  22.266  1.00  0.00     0.039 C 
ATOM     13  N   UNL A   1      33.181  23.846  24.022  1.00  0.00    -0.338 N 
ATOM     14  C   UNL A   1      34.406  24.636  24.135  1.00  0.00     0.120 C 
ATOM     15  C   UNL A   1      32.498  23.883  22.722  1.00  0.00     0.128 C 
ATOM     16  C   UNL A   1      34.254  26.056  23.602  1.00  0.00     0.022 C 
ATOM     17  C   UNL A   1      33.603  26.052  22.222  1.00  0.00     0.012 C 
BRANCH  13  18
ATOM     18  C   UNL A   1      32.749  23.116  25.121  1.00  0.00     0.257 C 
ATOM     19  O   UNL A   1      32.146  23.600  26.073  1.00  0.00    -0.269 OA
BRANCH  18  20
ATOM     20  C   UNL A   1      33.126  21.701  25.215  1.00  0.00     0.076 A 
ATOM     21  C   UNL A   1      33.742  19.056  25.141  1.00  0.00     0.222 A 
ATOM     22  N   UNL A   1      32.463  19.401  25.357  1.00  0.00    -0.221 NA
ATOM     23  N   UNL A   1      34.735  19.941  24.961  1.00  0.00    -0.221 NA
ATOM     24  C   UNL A   1      32.181  20.718  25.386  1.00  0.00     0.130 A 
ATOM     25  C   UNL A   1      34.400  21.254  24.972  1.00  0.00     0.130 A 
BRANCH  21  26
ATOM     26  N   UNL A   1      33.973  17.713  25.109  1.00  0.00    -0.352 N 
ATOM     27  H   UNL A   1      34.671  17.349  25.701  1.00  0.00     0.163 HD
BRANCH  26  28
ATOM     28  C   UNL A   1      33.256  16.792  24.261  1.00  0.00     0.076 C 
ATOM     29  C   UNL A   1      34.076  16.592  22.986  1.00  0.00     0.030 C 
ATOM     30  C   UNL A   1      33.061  15.464  24.983  1.00  0.00     0.030 C 
ENDBRANCH  26  28
ENDBRANCH  21  26
ENDBRANCH  18  20
ENDBRANCH  13  18
ENDBRANCH   7  12
ENDBRANCH   3   6
ENDBRANCH   1   2
BRANCH   1  31
ATOM     31  C   UNL A   1      33.059  29.629  25.754  1.00  0.00     0.023 C 
BRANCH  31  32
ATOM     32  C   UNL A   1      33.731  29.095  27.009  1.00  0.00     0.023 C 
BRANCH  32  33
ATOM     33  C   UNL A   1      35.089  29.694  27.351  1.00  0.00     0.116 C 
BRANCH  33  34
ATOM     34  N   UNL A   1      35.133  30.371  28.640  1.00  0.00    -0.352 N 
ATOM     35  C   UNL A   1      36.167  30.453  29.548  1.00  0.00     0.251 C 
ATOM     36  H   UNL A   1      34.306  30.836  28.900  1.00  0.00     0.163 HD
ATOM     37  O   UNL A   1      35.999  31.024  30.618  1.00  0.00    -0.269 OA
BRANCH  35  38
ATOM     38  C   UNL A   1      37.461  29.803  29.240  1.00  0.00     0.039 A 
ATOM     39  C   UNL A   1      37.915  29.800  27.919  1.00  0.00     0.014 A 
ATOM     40  C   UNL A   1      38.247  29.256  30.256  1.00  0.00     0.014 A 
ATOM     41  C   UNL A   1      39.203  29.342  27.633  1.00  0.00     0.010 A 
ATOM     42  C   UNL A   1      39.556  28.874  29.982  1.00  0.00     0.010 A 
ATOM     43  C   UNL A   1      40.054  28.925  28.670  1.00  0.00    -0.014 A 
BRANCH  43  44
ATOM     44  C   UNL A   1      41.472  28.562  28.416  1.00  0.00     0.031 A 
ATOM     45  C   UNL A   1      42.534  29.627  28.417  1.00  0.00     0.074 A 
ATOM     46  C   UNL A   1      41.790  27.292  28.092  1.00  0.00     0.049 A 
ATOM     47  N   UNL A   1      43.802  29.526  28.111  1.00  0.00    -0.248 NA
ATOM     48  C   UNL A   1      42.108  30.988  28.780  1.00  0.00     0.031 C 
ATOM     49  C   UNL A   1      40.846  26.174  28.005  1.00  0.00     0.029 A 
ATOM     50  N   UNL A   1      42.997  26.730  27.756  1.00  0.00    -0.354 N 
ATOM     51  C   UNL A   1      44.319  30.812  28.216  1.00  0.00     0.074 A 
ATOM     52  C   UNL A   1      43.219  31.681  28.575  1.00  0.00     0.031 C 
ATOM     53  C   UNL A   1      41.513  25.059  27.662  1.00  0.00     0.029 A 
ATOM     54  C   UNL A   1      42.920  25.387  27.466  1.00  0.00     0.049 A 
ATOM     55  H   UNL A   1      43.838  27.240  27.728  1.00  0.00     0.167 HD
ATOM     56  C   UNL A   1      45.595  31.230  28.045  1.00  0.00     0.031 A 
ATOM     57  C   UNL A   1      43.873  24.519  27.074  1.00  0.00     0.031 A 
ATOM     58  C   UNL A   1      46.692  30.361  27.714  1.00  0.00     0.049 A 
ATOM     59  C   UNL A   1      45.287  25.002  26.911  1.00  0.00     0.074 A 
ATOM     60  C   UNL A   1      48.032  30.682  27.581  1.00  0.00     0.029 A 
ATOM     61  N   UNL A   1      46.578  29.003  27.465  1.00  0.00    -0.354 N 
ATOM     62  N   UNL A   1      45.766  26.212  27.075  1.00  0.00    -0.248 NA
ATOM     63  C   UNL A   1      46.291  24.002  26.522  1.00  0.00     0.031 C 
ATOM     64  C   UNL A   1      48.724  29.521  27.217  1.00  0.00     0.029 A 
ATOM     65  C   UNL A   1      47.821  28.471  27.168  1.00  0.00     0.049 A 
ATOM     66  H   UNL A   1      45.737  28.491  27.496  1.00  0.00     0.167 HD
ATOM     67  C   UNL A   1      47.132  26.113  26.834  1.00  0.00     0.074 A 
ATOM     68  C   UNL A   1      47.404  24.724  26.523  1.00  0.00     0.031 C 
ATOM     69  C   UNL A   1      48.076  27.086  26.869  1.00  0.00     0.031 A 
BRANCH  56  70
ATOM     70  C   UNL A   1      45.870  32.700  28.216  1.00  0.00    -0.014 A 
ATOM     71  C   UNL A   1      45.807  33.581  27.122  1.00  0.00     0.010 A 
ATOM     72  C   UNL A   1      46.171  33.211  29.493  1.00  0.00     0.010 A 
ATOM     73  C   UNL A   1      46.084  34.940  27.292  1.00  0.00     0.020 A 
ATOM     74  C   UNL A   1      46.422  34.574  29.671  1.00  0.00     0.020 A 
ATOM     75  C   UNL A   1      46.396  35.427  28.565  1.00  0.00     0.054 A 
BRANCH  75  76
ATOM     76  S   UNL A   1      46.739  37.197  28.759  1.00  0.00     0.124 S 
ATOM     77  O   UNL A   1      45.488  37.682  29.337  1.00  0.00    -0.237 OA
ATOM     78  O   UNL A   1      47.890  37.206  29.658  1.00  0.00    -0.237 OA
ATOM     79  O   UNL A   1      47.013  37.649  27.396  1.00  0.00    -0.744 OA
ENDBRANCH  75  76
ENDBRANCH  56  70
BRANCH  57  80
ATOM     80  C   UNL A   1      43.522  23.093  26.828  1.00  0.00    -0.014 A 
ATOM     81  C   UNL A   1      43.754  22.513  25.568  1.00  0.00     0.010 A 
ATOM     82  C   UNL A   1      42.972  22.305  27.854  1.00  0.00     0.010 A 
ATOM     83  C   UNL A   1      43.429  21.174  25.335  1.00  0.00     0.020 A 
ATOM     84  C   UNL A   1      42.668  20.959  27.632  1.00  0.00     0.020 A 
ATOM     85  C   UNL A   1      42.888  20.404  26.370  1.00  0.00     0.054 A 
BRANCH  85  86
ATOM     86  S   UNL A   1      42.528  18.652  26.063  1.00  0.00     0.124 S 
ATOM     87  O   UNL A   1      41.113  18.692  25.708  1.00  0.00    -0.237 OA
ATOM     88  O   UNL A   1      43.445  18.325  24.974  1.00  0.00    -0.237 OA
ATOM     89  O   UNL A   1      42.837  18.013  27.340  1.00  0.00    -0.744 OA
ENDBRANCH  85  86
ENDBRANCH  57  80
BRANCH  69  90
ATOM     90  C   UNL A   1      49.500  26.681  26.604  1.00  0.00    -0.014 A 
ATOM     91  C   UNL A   1      50.023  26.676  25.299  1.00  0.00     0.010 A 
ATOM     92  C   UNL A   1      50.342  26.365  27.686  1.00  0.00     0.010 A 
ATOM     93  C   UNL A   1      51.362  26.342  25.080  1.00  0.00     0.020 A 
ATOM     94  C   UNL A   1      51.686  26.052  27.471  1.00  0.00     0.020 A 
ATOM     95  C   UNL A   1      52.186  26.033  26.167  1.00  0.00     0.054 A 
BRANCH  95  96
ATOM     96  S   UNL A   1      53.935  25.657  25.863  1.00  0.00     0.124 S 
ATOM     97  O   UNL A   1      53.859  24.778  24.700  1.00  0.00    -0.237 OA
ATOM     98  O   UNL A   1      54.510  26.978  25.617  1.00  0.00    -0.237 OA
ATOM     99  O   UNL A   1      54.370  25.017  27.103  1.00  0.00    -0.744 OA
ENDBRANCH  95  96
ENDBRANCH  69  90
ENDBRANCH  43  44
ENDBRANCH  35  38
ENDBRANCH  33  34
ENDBRANCH  32  33
ENDBRANCH  31  32
ENDBRANCH   1  31
TORSDOF 19
ENDMDL
MODEL 2
REMARK VINA RESULT:     -12.0      1.983      3.055
REMARK SMILES CC(C)Nc1ncc(C(=O)N2CCC[C@H](c3cccc(C(=O)NCCCCNC(=O)c4ccc(-c5c6nc(c(-c7ccc(S(=O)(=O)[O-])cc7)c7ccc([nH]7)c(-c7ccc(S(=O)(=O)[O-])cc7)c7nc(c(-c8ccc(S(=O)(=O)[O-])cc8)c8ccc5[nH]8)C=C7)C=C6)cc4)c3)C2)cn1
REMARK SMILES IDX 24 1 23 2 21 3 22 4 20 6 16 7 17 8 91 9 18 10 19 11 15 12
REMARK SMILES IDX 11 13 12 14 92 15 13 16 14 17 9 18 10 19 8 20 5 21 6 22
REMARK SMILES IDX 94 23 7 24 93 25 4 26 2 28 1 29 3 30 25 31 26 32 27 33 28 34
REMARK SMILES IDX 29 35 30 37 31 38 32 39 90 40 33 41 89 42 34 43 35 44 36 45
REMARK SMILES IDX 83 46 37 47 88 48 82 49 84 50 38 51 87 52 81 53 80 54 39 56
REMARK SMILES IDX 69 57 50 58 68 59 51 60 54 61 67 62 85 63 52 64 53 65 66 67
REMARK SMILES IDX 86 68 55 69 40 70 41 71 49 72 42 73 48 74 43 75 44 76 45 77
REMARK SMILES IDX 46 78 47 79 70 80 71 81 79 82 72 83 78 84 73 85 74 86 75 87
REMARK SMILES IDX 76 88 77 89 56 90 57 91 65 92 58 93 64 94 59 95 60 96 61 97
REMARK SMILES IDX 62 98 63 99
REMARK H PARENT 23 5 4 27 28 36 84 55 54 66
REMARK Flexibility Score: inf
ROOT
ATOM      1  C   UNL A   1      32.104  30.007  26.932  1.00  0.00     0.116 C 
ENDROOT
BRANCH   1   2
ATOM      2  N   UNL A   1      31.298  30.168  25.731  1.00  0.00    -0.352 N 
ATOM      3  C   UNL A   1      31.163  29.364  24.617  1.00  0.00     0.251 C 
ATOM      4  O   UNL A   1      30.419  29.720  23.706  1.00  0.00    -0.269 OA
ATOM      5  H   UNL A   1      30.757  30.990  25.709  1.00  0.00     0.163 HD
BRANCH   3   6
ATOM      6  C   UNL A   1      31.949  28.112  24.465  1.00  0.00     0.040 A 
ATOM      7  C   UNL A   1      32.566  25.889  25.295  1.00  0.00    -0.042 A 
ATOM      8  C   UNL A   1      33.666  25.917  24.425  1.00  0.00     0.004 A 
ATOM      9  C   UNL A   1      31.670  26.969  25.221  1.00  0.00     0.018 A 
ATOM     10  C   UNL A   1      33.868  26.988  23.544  1.00  0.00     0.001 A 
ATOM     11  C   UNL A   1      33.026  28.098  23.582  1.00  0.00     0.014 A 
BRANCH   7  12
ATOM     12  C   UNL A   1      32.405  24.852  26.416  1.00  0.00     0.039 C 
ATOM     13  N   UNL A   1      32.870  22.706  25.243  1.00  0.00    -0.338 N 
ATOM     14  C   UNL A   1      31.463  22.308  25.260  1.00  0.00     0.120 C 
ATOM     15  C   UNL A   1      33.309  23.602  26.321  1.00  0.00     0.128 C 
ATOM     16  C   UNL A   1      30.511  23.481  25.460  1.00  0.00     0.022 C 
ATOM     17  C   UNL A   1      30.959  24.352  26.630  1.00  0.00     0.012 C 
BRANCH  13  18
ATOM     18  C   UNL A   1      33.694  22.218  24.238  1.00  0.00     0.257 C 
ATOM     19  O   UNL A   1      33.285  21.794  23.161  1.00  0.00    -0.269 OA
BRANCH  18  20
ATOM     20  C   UNL A   1      35.131  22.094  24.506  1.00  0.00     0.076 A 
ATOM     21  C   UNL A   1      37.764  22.062  25.173  1.00  0.00     0.222 A 
ATOM     22  N   UNL A   1      37.348  22.981  24.288  1.00  0.00    -0.221 NA
ATOM     23  N   UNL A   1      36.955  21.158  25.748  1.00  0.00    -0.221 NA
ATOM     24  C   UNL A   1      36.037  22.980  23.974  1.00  0.00     0.130 A 
ATOM     25  C   UNL A   1      35.641  21.211  25.423  1.00  0.00     0.130 A 
BRANCH  21  26
ATOM     26  N   UNL A   1      39.095  22.113  25.465  1.00  0.00    -0.352 N 
ATOM     27  H   UNL A   1      39.689  21.458  25.031  1.00  0.00     0.163 HD
BRANCH  26  28
ATOM     28  C   UNL A   1      39.685  23.067  26.371  1.00  0.00     0.076 C 
ATOM     29  C   UNL A   1      38.573  23.989  26.872  1.00  0.00     0.030 C 
ATOM     30  C   UNL A   1      40.340  22.338  27.540  1.00  0.00     0.030 C 
ENDBRANCH  26  28
ENDBRANCH  21  26
ENDBRANCH  18  20
ENDBRANCH  13  18
ENDBRANCH   7  12
ENDBRANCH   3   6
ENDBRANCH   1   2
BRANCH   1  31
ATOM     31  C   UNL A   1      33.562  30.413  26.786  1.00  0.00     0.023 C 
BRANCH  31  32
ATOM     32  C   UNL A   1      34.589  29.294  26.871  1.00  0.00     0.023 C 
BRANCH  32  33
ATOM     33  C   UNL A   1      35.900  29.637  27.567  1.00  0.00     0.116 C 
BRANCH  33  34
ATOM     34  N   UNL A   1      35.829  29.603  29.021  1.00  0.00    -0.352 N 
ATOM     35  C   UNL A   1      36.806  29.270  29.935  1.00  0.00     0.251 C 
ATOM     36  H   UNL A   1      34.958  29.852  29.406  1.00  0.00     0.163 HD
ATOM     37  O   UNL A   1      36.542  29.242  31.131  1.00  0.00    -0.269 OA
BRANCH  35  38
ATOM     38  C   UNL A   1      38.156  28.899  29.457  1.00  0.00     0.039 A 
ATOM     39  C   UNL A   1      38.565  29.333  28.193  1.00  0.00     0.014 A 
ATOM     40  C   UNL A   1      39.033  28.183  30.273  1.00  0.00     0.014 A 
ATOM     41  C   UNL A   1      39.888  29.137  27.791  1.00  0.00     0.010 A 
ATOM     42  C   UNL A   1      40.369  28.059  29.905  1.00  0.00     0.010 A 
ATOM     43  C   UNL A   1      40.815  28.546  28.665  1.00  0.00    -0.014 A 
BRANCH  43  44
ATOM     44  C   UNL A   1      42.257  28.447  28.322  1.00  0.00     0.031 A 
ATOM     45  C   UNL A   1      43.157  29.640  28.498  1.00  0.00     0.074 A 
ATOM     46  C   UNL A   1      42.736  27.317  27.764  1.00  0.00     0.049 A 
ATOM     47  N   UNL A   1      44.411  29.783  28.154  1.00  0.00    -0.248 NA
ATOM     48  C   UNL A   1      42.560  30.836  29.113  1.00  0.00     0.031 C 
ATOM     49  C   UNL A   1      41.957  26.106  27.492  1.00  0.00     0.029 A 
ATOM     50  N   UNL A   1      43.994  27.008  27.308  1.00  0.00    -0.354 N 
ATOM     51  C   UNL A   1      44.745  31.091  28.484  1.00  0.00     0.074 A 
ATOM     52  C   UNL A   1      43.551  31.711  29.018  1.00  0.00     0.031 C 
ATOM     53  C   UNL A   1      42.758  25.181  26.937  1.00  0.00     0.029 A 
ATOM     54  C   UNL A   1      44.095  25.743  26.777  1.00  0.00     0.049 A 
ATOM     55  H   UNL A   1      44.752  27.633  27.358  1.00  0.00     0.167 HD
ATOM     56  C   UNL A   1      45.940  31.717  28.368  1.00  0.00     0.031 A 
ATOM     57  C   UNL A   1      45.142  25.109  26.214  1.00  0.00     0.031 A 
ATOM     58  C   UNL A   1      47.132  31.093  27.862  1.00  0.00     0.049 A 
ATOM     59  C   UNL A   1      46.465  25.816  26.116  1.00  0.00     0.074 A 
ATOM     60  C   UNL A   1      48.406  31.626  27.765  1.00  0.00     0.029 A 
ATOM     61  N   UNL A   1      47.201  29.799  27.370  1.00  0.00    -0.354 N 
ATOM     62  N   UNL A   1      46.775  27.035  26.490  1.00  0.00    -0.248 NA
ATOM     63  C   UNL A   1      47.581  25.061  25.530  1.00  0.00     0.031 C 
ATOM     64  C   UNL A   1      49.238  30.664  27.181  1.00  0.00     0.029 A 
ATOM     65  C   UNL A   1      48.491  29.518  26.957  1.00  0.00     0.049 A 
ATOM     66  H   UNL A   1      46.443  29.172  27.323  1.00  0.00     0.167 HD
ATOM     67  C   UNL A   1      48.129  27.182  26.209  1.00  0.00     0.074 A 
ATOM     68  C   UNL A   1      48.580  25.927  25.643  1.00  0.00     0.031 C 
ATOM     69  C   UNL A   1      48.925  28.261  26.404  1.00  0.00     0.031 A 
BRANCH  56  70
ATOM     70  C   UNL A   1      46.012  33.157  28.802  1.00  0.00    -0.014 A 
ATOM     71  C   UNL A   1      45.868  34.201  27.871  1.00  0.00     0.010 A 
ATOM     72  C   UNL A   1      46.200  33.469  30.161  1.00  0.00     0.010 A 
ATOM     73  C   UNL A   1      45.957  35.533  28.283  1.00  0.00     0.020 A 
ATOM     74  C   UNL A   1      46.263  34.801  30.581  1.00  0.00     0.020 A 
ATOM     75  C   UNL A   1      46.160  35.824  29.636  1.00  0.00     0.054 A 
BRANCH  75  76
ATOM     76  S   UNL A   1      46.259  37.562  30.147  1.00  0.00     0.124 S 
ATOM     77  O   UNL A   1      47.446  38.017  29.428  1.00  0.00    -0.237 OA
ATOM     78  O   UNL A   1      44.990  38.110  29.673  1.00  0.00    -0.237 OA
ATOM     79  O   UNL A   1      46.399  37.488  31.599  1.00  0.00    -0.744 OA
ENDBRANCH  75  76
ENDBRANCH  56  70
BRANCH  57  80
ATOM     80  C   UNL A   1      44.986  23.714  25.717  1.00  0.00    -0.014 A 
ATOM     81  C   UNL A   1      44.460  23.472  24.435  1.00  0.00     0.010 A 
ATOM     82  C   UNL A   1      45.377  22.623  26.514  1.00  0.00     0.010 A 
ATOM     83  C   UNL A   1      44.315  22.164  23.965  1.00  0.00     0.020 A 
ATOM     84  C   UNL A   1      45.255  21.315  26.037  1.00  0.00     0.020 A 
ATOM     85  C   UNL A   1      44.715  21.093  24.769  1.00  0.00     0.054 A 
BRANCH  85  86
ATOM     86  S   UNL A   1      44.573  19.405  24.116  1.00  0.00     0.124 S 
ATOM     87  O   UNL A   1      43.282  18.982  24.649  1.00  0.00    -0.237 OA
ATOM     88  O   UNL A   1      44.622  19.619  22.672  1.00  0.00    -0.237 OA
ATOM     89  O   UNL A   1      45.738  18.725  24.677  1.00  0.00    -0.744 OA
ENDBRANCH  85  86
ENDBRANCH  57  80
BRANCH  69  90
ATOM     90  C   UNL A   1      50.379  28.125  26.041  1.00  0.00    -0.014 A 
ATOM     91  C   UNL A   1      51.332  27.725  26.993  1.00  0.00     0.010 A 
ATOM     92  C   UNL A   1      50.782  28.338  24.709  1.00  0.00     0.010 A 
ATOM     93  C   UNL A   1      52.669  27.559  26.623  1.00  0.00     0.020 A 
ATOM     94  C   UNL A   1      52.113  28.153  24.333  1.00  0.00     0.020 A 
ATOM     95  C   UNL A   1      53.052  27.773  25.295  1.00  0.00     0.054 A 
BRANCH  95  96
ATOM     96  S   UNL A   1      54.783  27.498  24.826  1.00  0.00     0.124 S 
ATOM     97  O   UNL A   1      55.422  27.306  26.124  1.00  0.00    -0.237 OA
ATOM     98  O   UNL A   1      54.702  26.307  23.982  1.00  0.00    -0.237 OA
ATOM     99  O   UNL A   1      55.150  28.726  24.124  1.00  0.00    -0.744 OA
ENDBRANCH  95  96
ENDBRANCH  69  90
ENDBRANCH  43  44
ENDBRANCH  35  38
ENDBRANCH  33  34
ENDBRANCH  32  33
ENDBRANCH  31  32
ENDBRANCH   1  31
TORSDOF 19
ENDMDL
MODEL 3
REMARK VINA RESULT:     -12.0      3.222      5.517
REMARK SMILES CC(C)Nc1ncc(C(=O)N2CCC[C@H](c3cccc(C(=O)NCCCCNC(=O)c4ccc(-c5c6nc(c(-c7ccc(S(=O)(=O)[O-])cc7)c7ccc([nH]7)c(-c7ccc(S(=O)(=O)[O-])cc7)c7nc(c(-c8ccc(S(=O)(=O)[O-])cc8)c8ccc5[nH]8)C=C7)C=C6)cc4)c3)C2)cn1
REMARK SMILES IDX 24 1 23 2 21 3 22 4 20 6 16 7 17 8 91 9 18 10 19 11 15 12
REMARK SMILES IDX 11 13 12 14 92 15 13 16 14 17 9 18 10 19 8 20 5 21 6 22
REMARK SMILES IDX 94 23 7 24 93 25 4 26 2 28 1 29 3 30 25 31 26 32 27 33 28 34
REMARK SMILES IDX 29 35 30 37 31 38 32 39 90 40 33 41 89 42 34 43 35 44 36 45
REMARK SMILES IDX 83 46 37 47 88 48 82 49 84 50 38 51 87 52 81 53 80 54 39 56
REMARK SMILES IDX 69 57 50 58 68 59 51 60 54 61 67 62 85 63 52 64 53 65 66 67
REMARK SMILES IDX 86 68 55 69 40 70 41 71 49 72 42 73 48 74 43 75 44 76 45 77
REMARK SMILES IDX 46 78 47 79 70 80 71 81 79 82 72 83 78 84 73 85 74 86 75 87
REMARK SMILES IDX 76 88 77 89 56 90 57 91 65 92 58 93 64 94 59 95 60 96 61 97
REMARK SMILES IDX 62 98 63 99
REMARK H PARENT 23 5 4 27 28 36 84 55 54 66
REMARK Flexibility Score: inf
ROOT
ATOM      1  C   UNL A   1      30.476  26.243  26.090  1.00  0.00     0.116 C 
ENDROOT
BRANCH   1   2
ATOM      2  N   UNL A   1      29.901  25.022  26.635  1.00  0.00    -0.352 N 
ATOM      3  C   UNL A   1      30.497  23.848  27.048  1.00  0.00     0.251 C 
ATOM      4  O   UNL A   1      29.793  22.934  27.470  1.00  0.00    -0.269 OA
ATOM      5  H   UNL A   1      28.921  25.036  26.724  1.00  0.00     0.163 HD
BRANCH   3   6
ATOM      6  C   UNL A   1      31.964  23.641  26.934  1.00  0.00     0.040 A 
ATOM      7  C   UNL A   1      34.065  24.017  25.727  1.00  0.00    -0.042 A 
ATOM      8  C   UNL A   1      34.631  22.974  26.477  1.00  0.00     0.004 A 
ATOM      9  C   UNL A   1      32.749  24.389  26.050  1.00  0.00     0.018 A 
ATOM     10  C   UNL A   1      33.903  22.323  27.481  1.00  0.00     0.001 A 
ATOM     11  C   UNL A   1      32.562  22.637  27.692  1.00  0.00     0.014 A 
BRANCH   7  12
ATOM     12  C   UNL A   1      34.737  24.624  24.488  1.00  0.00     0.039 C 
ATOM     13  N   UNL A   1      32.828  24.905  22.915  1.00  0.00    -0.338 N 
ATOM     14  C   UNL A   1      33.261  23.791  22.074  1.00  0.00     0.120 C 
ATOM     15  C   UNL A   1      33.879  25.609  23.661  1.00  0.00     0.128 C 
ATOM     16  C   UNL A   1      34.202  22.831  22.791  1.00  0.00     0.022 C 
ATOM     17  C   UNL A   1      35.320  23.591  23.499  1.00  0.00     0.012 C 
BRANCH  13  18
ATOM     18  C   UNL A   1      31.479  25.233  22.952  1.00  0.00     0.257 C 
ATOM     19  O   UNL A   1      30.572  24.407  22.995  1.00  0.00    -0.269 OA
BRANCH  18  20
ATOM     20  C   UNL A   1      31.095  26.643  22.823  1.00  0.00     0.076 A 
ATOM     21  C   UNL A   1      30.405  29.271  22.842  1.00  0.00     0.222 A 
ATOM     22  N   UNL A   1      29.457  28.366  23.130  1.00  0.00    -0.221 NA
ATOM     23  N   UNL A   1      31.675  28.954  22.545  1.00  0.00    -0.221 NA
ATOM     24  C   UNL A   1      29.823  27.070  23.117  1.00  0.00     0.130 A 
ATOM     25  C   UNL A   1      32.005  27.640  22.570  1.00  0.00     0.130 A 
BRANCH  21  26
ATOM     26  N   UNL A   1      29.987  30.568  22.880  1.00  0.00    -0.352 N 
ATOM     27  H   UNL A   1      30.621  31.267  22.600  1.00  0.00     0.163 HD
BRANCH  26  28
ATOM     28  C   UNL A   1      28.672  30.978  23.308  1.00  0.00     0.076 C 
ATOM     29  C   UNL A   1      28.604  32.504  23.221  1.00  0.00     0.030 C 
ATOM     30  C   UNL A   1      27.613  30.346  22.411  1.00  0.00     0.030 C 
ENDBRANCH  26  28
ENDBRANCH  21  26
ENDBRANCH  18  20
ENDBRANCH  13  18
ENDBRANCH   7  12
ENDBRANCH   3   6
ENDBRANCH   1   2
BRANCH   1  31
ATOM     31  C   UNL A   1      31.284  27.070  27.079  1.00  0.00     0.023 C 
BRANCH  31  32
ATOM     32  C   UNL A   1      32.111  28.205  26.495  1.00  0.00     0.023 C 
BRANCH  32  33
ATOM     33  C   UNL A   1      33.330  28.632  27.303  1.00  0.00     0.116 C 
BRANCH  33  34
ATOM     34  N   UNL A   1      33.356  30.049  27.638  1.00  0.00    -0.352 N 
ATOM     35  C   UNL A   1      34.392  30.809  28.138  1.00  0.00     0.251 C 
ATOM     36  H   UNL A   1      32.513  30.533  27.485  1.00  0.00     0.163 HD
ATOM     37  O   UNL A   1      34.208  31.988  28.416  1.00  0.00    -0.269 OA
BRANCH  35  38
ATOM     38  C   UNL A   1      35.707  30.178  28.383  1.00  0.00     0.039 A 
ATOM     39  C   UNL A   1      36.662  30.193  27.362  1.00  0.00     0.014 A 
ATOM     40  C   UNL A   1      36.018  29.631  29.630  1.00  0.00     0.014 A 
ATOM     41  C   UNL A   1      37.961  29.752  27.626  1.00  0.00     0.010 A 
ATOM     42  C   UNL A   1      37.331  29.267  29.913  1.00  0.00     0.010 A 
ATOM     43  C   UNL A   1      38.320  29.336  28.918  1.00  0.00    -0.014 A 
BRANCH  43  44
ATOM     44  C   UNL A   1      39.724  28.992  29.264  1.00  0.00     0.031 A 
ATOM     45  C   UNL A   1      40.615  30.021  29.904  1.00  0.00     0.074 A 
ATOM     46  C   UNL A   1      40.223  27.788  28.917  1.00  0.00     0.049 A 
ATOM     47  N   UNL A   1      41.893  29.947  30.178  1.00  0.00    -0.248 NA
ATOM     48  C   UNL A   1      39.997  31.311  30.251  1.00  0.00     0.031 C 
ATOM     49  C   UNL A   1      39.477  26.719  28.246  1.00  0.00     0.029 A 
ATOM     50  N   UNL A   1      41.484  27.266  29.066  1.00  0.00    -0.354 N 
ATOM     51  C   UNL A   1      42.237  31.187  30.703  1.00  0.00     0.074 A 
ATOM     52  C   UNL A   1      41.044  32.006  30.671  1.00  0.00     0.031 C 
ATOM     53  C   UNL A   1      40.288  25.664  28.062  1.00  0.00     0.029 A 
ATOM     54  C   UNL A   1      41.618  25.993  28.563  1.00  0.00     0.049 A 
ATOM     55  H   UNL A   1      42.222  27.757  29.494  1.00  0.00     0.167 HD
ATOM     56  C   UNL A   1      43.433  31.602  31.184  1.00  0.00     0.031 A 
ATOM     57  C   UNL A   1      42.693  25.183  28.501  1.00  0.00     0.031 A 
ATOM     58  C   UNL A   1      44.611  30.780  31.239  1.00  0.00     0.049 A 
ATOM     59  C   UNL A   1      44.006  25.658  29.060  1.00  0.00     0.074 A 
ATOM     60  C   UNL A   1      45.853  31.091  31.765  1.00  0.00     0.029 A 
ATOM     61  N   UNL A   1      44.695  29.484  30.754  1.00  0.00    -0.354 N 
ATOM     62  N   UNL A   1      44.295  26.814  29.608  1.00  0.00    -0.248 NA
ATOM     63  C   UNL A   1      45.134  24.717  29.002  1.00  0.00     0.031 C 
ATOM     64  C   UNL A   1      46.698  29.994  31.567  1.00  0.00     0.029 A 
ATOM     65  C   UNL A   1      45.969  28.985  30.957  1.00  0.00     0.049 A 
ATOM     66  H   UNL A   1      43.956  28.991  30.328  1.00  0.00     0.167 HD
ATOM     67  C   UNL A   1      45.631  26.729  29.984  1.00  0.00     0.074 A 
ATOM     68  C   UNL A   1      46.090  25.407  29.610  1.00  0.00     0.031 C 
ATOM     69  C   UNL A   1      46.407  27.664  30.587  1.00  0.00     0.031 A 
BRANCH  56  70
ATOM     70  C   UNL A   1      43.522  33.017  31.689  1.00  0.00    -0.014 A 
ATOM     71  C   UNL A   1      43.287  33.318  33.043  1.00  0.00     0.010 A 
ATOM     72  C   UNL A   1      43.869  34.056  30.805  1.00  0.00     0.010 A 
ATOM     73  C   UNL A   1      43.353  34.638  33.495  1.00  0.00     0.020 A 
ATOM     74  C   UNL A   1      43.962  35.374  31.260  1.00  0.00     0.020 A 
ATOM     75  C   UNL A   1      43.684  35.659  32.598  1.00  0.00     0.054 A 
BRANCH  75  76
ATOM     76  S   UNL A   1      43.775  37.363  33.214  1.00  0.00     0.124 S 
ATOM     77  O   UNL A   1      44.987  37.322  34.028  1.00  0.00    -0.237 OA
ATOM     78  O   UNL A   1      43.871  38.146  31.985  1.00  0.00    -0.237 OA
ATOM     79  O   UNL A   1      42.529  37.529  33.959  1.00  0.00    -0.744 OA
ENDBRANCH  75  76
ENDBRANCH  56  70
BRANCH  57  80
ATOM     80  C   UNL A   1      42.568  23.826  27.903  1.00  0.00    -0.014 A 
ATOM     81  C   UNL A   1      42.228  22.724  28.708  1.00  0.00     0.010 A 
ATOM     82  C   UNL A   1      42.769  23.631  26.525  1.00  0.00     0.010 A 
ATOM     83  C   UNL A   1      42.107  21.449  28.148  1.00  0.00     0.020 A 
ATOM     84  C   UNL A   1      42.625  22.362  25.958  1.00  0.00     0.020 A 
ATOM     85  C   UNL A   1      42.305  21.276  26.775  1.00  0.00     0.054 A 
BRANCH  85  86
ATOM     86  S   UNL A   1      42.085  19.623  26.059  1.00  0.00     0.124 S 
ATOM     87  O   UNL A   1      42.943  19.687  24.880  1.00  0.00    -0.237 OA
ATOM     88  O   UNL A   1      42.549  18.747  27.133  1.00  0.00    -0.237 OA
ATOM     89  O   UNL A   1      40.651  19.558  25.790  1.00  0.00    -0.744 OA
ENDBRANCH  85  86
ENDBRANCH  57  80
BRANCH  69  90
ATOM     90  C   UNL A   1      47.823  27.281  30.918  1.00  0.00    -0.014 A 
ATOM     91  C   UNL A   1      48.119  26.491  32.042  1.00  0.00     0.010 A 
ATOM     92  C   UNL A   1      48.864  27.665  30.052  1.00  0.00     0.010 A 
ATOM     93  C   UNL A   1      49.437  26.107  32.305  1.00  0.00     0.020 A 
ATOM     94  C   UNL A   1      50.178  27.265  30.301  1.00  0.00     0.020 A 
ATOM     95  C   UNL A   1      50.459  26.496  31.433  1.00  0.00     0.054 A 
BRANCH  95  96
ATOM     96  S   UNL A   1      52.154  25.940  31.764  1.00  0.00     0.124 S 
ATOM     97  O   UNL A   1      52.633  26.961  32.691  1.00  0.00    -0.237 OA
ATOM     98  O   UNL A   1      51.950  24.612  32.340  1.00  0.00    -0.237 OA
ATOM     99  O   UNL A   1      52.783  25.948  30.445  1.00  0.00    -0.744 OA
ENDBRANCH  95  96
ENDBRANCH  69  90
ENDBRANCH  43  44
ENDBRANCH  35  38
ENDBRANCH  33  34
ENDBRANCH  32  33
ENDBRANCH  31  32
ENDBRANCH   1  31
TORSDOF 19
ENDMDL
