MODEL 1
REMARK VINA RESULT:     -12.4      0.000      0.000
REMARK SMILES O=C(NCCCCNC(=O)c1ccc2c(c1)[C@@H]1C=CC[C@@H]1[C@H](c1ccncc1)N2)c1ccc(-c2c3nc(c(-c4ccc(S(=O)(=O)[O-])cc4)c4ccc([nH]4)c(-c4ccc(S(=O)(=O)[O-])cc4)c4nc(c(-c5ccc(S(=O)(=O)[O-])cc5)c5ccc2[nH]5)C=C4)C=C3)cc1
REMARK SMILES IDX 4 1 3 2 1 3 2 4 30 6 31 7 89 8 32 9 88 10 33 11 34 12 35 13
REMARK SMILES IDX 82 14 36 15 87 16 81 17 83 18 37 19 86 20 80 21 79 22 38 24
REMARK SMILES IDX 68 25 49 26 67 27 50 28 53 29 66 30 84 31 51 32 52 33 65 35
REMARK SMILES IDX 85 36 54 37 39 38 40 39 48 40 41 41 47 42 42 43 43 44 44 45
REMARK SMILES IDX 45 46 46 47 69 48 70 49 78 50 71 51 77 52 72 53 73 54 74 55
REMARK SMILES IDX 75 56 76 57 55 58 56 59 64 60 57 61 63 62 58 63 59 64 60 65
REMARK SMILES IDX 61 66 62 67 5 68 6 69 7 70 8 71 9 72 10 74 11 75 12 76 16 77
REMARK SMILES IDX 13 78 15 79 14 80 17 81 29 82 18 83 21 84 22 85 19 87 20 88
REMARK SMILES IDX 23 89 24 90 28 91 25 92 27 93 26 94
REMARK H PARENT 3 5 83 23 53 34 8 73 29 86
REMARK Flexibility Score: inf
ROOT
ATOM      1  C   UNL A   1      33.440  28.616  27.318  1.00  0.00     0.116 C 
ENDROOT
BRANCH   1   2
ATOM      2  N   UNL A   1      33.438  30.019  27.707  1.00  0.00    -0.352 N 
ATOM      3  O   UNL A   1      34.238  31.934  28.593  1.00  0.00    -0.269 OA
ATOM      4  C   UNL A   1      34.456  30.781  28.233  1.00  0.00     0.251 C 
ATOM      5  H   UNL A   1      32.584  30.492  27.576  1.00  0.00     0.163 HD
BRANCH   4   6
ATOM      6  C   UNL A   1      35.803  30.190  28.403  1.00  0.00     0.039 A 
ATOM      7  C   UNL A   1      36.192  29.645  29.628  1.00  0.00     0.014 A 
ATOM      8  C   UNL A   1      36.702  30.222  27.333  1.00  0.00     0.014 A 
ATOM      9  C   UNL A   1      37.524  29.308  29.837  1.00  0.00     0.010 A 
ATOM     10  C   UNL A   1      38.021  29.796  27.521  1.00  0.00     0.010 A 
ATOM     11  C   UNL A   1      38.458  29.388  28.789  1.00  0.00    -0.014 A 
BRANCH  11  12
ATOM     12  C   UNL A   1      39.877  29.035  29.057  1.00  0.00     0.031 A 
ATOM     13  C   UNL A   1      40.781  29.969  29.822  1.00  0.00     0.074 A 
ATOM     14  C   UNL A   1      40.335  27.831  28.663  1.00  0.00     0.049 A 
ATOM     15  N   UNL A   1      42.016  29.778  30.212  1.00  0.00    -0.248 NA
ATOM     16  C   UNL A   1      40.237  31.287  30.188  1.00  0.00     0.031 C 
ATOM     17  C   UNL A   1      39.561  26.841  27.909  1.00  0.00     0.029 A 
ATOM     18  N   UNL A   1      41.545  27.218  28.873  1.00  0.00    -0.354 N 
ATOM     19  C   UNL A   1      42.408  30.956  30.840  1.00  0.00     0.074 A 
ATOM     20  C   UNL A   1      41.282  31.863  30.766  1.00  0.00     0.031 C 
ATOM     21  C   UNL A   1      40.289  25.721  27.780  1.00  0.00     0.029 A 
ATOM     22  C   UNL A   1      41.596  25.931  28.394  1.00  0.00     0.049 A 
ATOM     23  H   UNL A   1      42.301  27.658  29.322  1.00  0.00     0.167 HD
ATOM     24  C   UNL A   1      43.592  31.255  31.428  1.00  0.00     0.031 A 
ATOM     25  C   UNL A   1      42.580  25.014  28.445  1.00  0.00     0.031 A 
ATOM     26  C   UNL A   1      44.704  30.346  31.524  1.00  0.00     0.049 A 
ATOM     27  C   UNL A   1      43.873  25.363  29.122  1.00  0.00     0.074 A 
ATOM     28  C   UNL A   1      45.932  30.548  32.132  1.00  0.00     0.029 A 
ATOM     29  N   UNL A   1      44.724  29.062  31.003  1.00  0.00    -0.354 N 
ATOM     30  N   UNL A   1      44.210  26.475  29.728  1.00  0.00    -0.248 NA
ATOM     31  C   UNL A   1      44.916  24.329  29.122  1.00  0.00     0.031 C 
ATOM     32  C   UNL A   1      46.707  29.397  31.950  1.00  0.00     0.029 A 
ATOM     33  C   UNL A   1      45.946  28.464  31.263  1.00  0.00     0.049 A 
ATOM     34  H   UNL A   1      43.979  28.637  30.520  1.00  0.00     0.167 HD
ATOM     35  C   UNL A   1      45.503  26.271  30.195  1.00  0.00     0.074 A 
ATOM     36  C   UNL A   1      45.878  24.923  29.816  1.00  0.00     0.031 C 
ATOM     37  C   UNL A   1      46.307  27.126  30.873  1.00  0.00     0.031 A 
BRANCH  24  38
ATOM     38  C   UNL A   1      43.756  32.641  31.994  1.00  0.00    -0.014 A 
ATOM     39  C   UNL A   1      43.434  32.927  33.331  1.00  0.00     0.010 A 
ATOM     40  C   UNL A   1      44.278  33.664  31.181  1.00  0.00     0.010 A 
ATOM     41  C   UNL A   1      43.593  34.221  33.836  1.00  0.00     0.020 A 
ATOM     42  C   UNL A   1      44.458  34.954  31.687  1.00  0.00     0.020 A 
ATOM     43  C   UNL A   1      44.096  35.229  33.007  1.00  0.00     0.054 A 
BRANCH  43  44
ATOM     44  S   UNL A   1      44.303  36.900  33.686  1.00  0.00     0.124 S 
ATOM     45  O   UNL A   1      44.517  37.690  32.476  1.00  0.00    -0.237 OA
ATOM     46  O   UNL A   1      43.035  37.133  34.370  1.00  0.00    -0.237 OA
ATOM     47  O   UNL A   1      45.465  36.775  34.562  1.00  0.00    -0.744 OA
ENDBRANCH  43  44
ENDBRANCH  24  38
BRANCH  25  48
ATOM     48  C   UNL A   1      42.363  23.672  27.846  1.00  0.00    -0.014 A 
ATOM     49  C   UNL A   1      42.865  23.375  26.567  1.00  0.00     0.010 A 
ATOM     50  C   UNL A   1      41.689  22.673  28.571  1.00  0.00     0.010 A 
ATOM     51  C   UNL A   1      42.689  22.101  26.020  1.00  0.00     0.020 A 
ATOM     52  C   UNL A   1      41.533  21.392  28.036  1.00  0.00     0.020 A 
ATOM     53  C   UNL A   1      42.027  21.117  26.759  1.00  0.00     0.054 A 
BRANCH  53  54
ATOM     54  S   UNL A   1      41.872  19.448  26.066  1.00  0.00     0.124 S 
ATOM     55  O   UNL A   1      42.378  18.620  27.156  1.00  0.00    -0.237 OA
ATOM     56  O   UNL A   1      40.439  19.342  25.803  1.00  0.00    -0.237 OA
ATOM     57  O   UNL A   1      42.712  19.498  24.872  1.00  0.00    -0.744 OA
ENDBRANCH  53  54
ENDBRANCH  25  48
BRANCH  37  58
ATOM     58  C   UNL A   1      47.664  26.615  31.267  1.00  0.00    -0.014 A 
ATOM     59  C   UNL A   1      48.772  26.773  30.415  1.00  0.00     0.010 A 
ATOM     60  C   UNL A   1      47.837  25.987  32.513  1.00  0.00     0.010 A 
ATOM     61  C   UNL A   1      50.024  26.276  30.788  1.00  0.00     0.020 A 
ATOM     62  C   UNL A   1      49.091  25.507  32.898  1.00  0.00     0.020 A 
ATOM     63  C   UNL A   1      50.174  25.639  32.025  1.00  0.00     0.054 A 
BRANCH  63  64
ATOM     64  S   UNL A   1      51.811  25.019  32.501  1.00  0.00     0.124 S 
ATOM     65  O   UNL A   1      51.655  23.580  32.311  1.00  0.00    -0.237 OA
ATOM     66  O   UNL A   1      52.699  25.685  31.553  1.00  0.00    -0.237 OA
ATOM     67  O   UNL A   1      51.952  25.455  33.889  1.00  0.00    -0.744 OA
ENDBRANCH  63  64
ENDBRANCH  37  58
ENDBRANCH  11  12
ENDBRANCH   4   6
ENDBRANCH   1   2
BRANCH   1  68
ATOM     68  C   UNL A   1      32.393  28.274  26.266  1.00  0.00     0.023 C 
BRANCH  68  69
ATOM     69  C   UNL A   1      31.880  29.448  25.441  1.00  0.00     0.023 C 
BRANCH  69  70
ATOM     70  C   UNL A   1      31.477  29.116  24.009  1.00  0.00     0.116 C 
BRANCH  70  71
ATOM     71  N   UNL A   1      32.594  29.153  23.074  1.00  0.00    -0.352 N 
ATOM     72  C   UNL A   1      33.330  28.107  22.569  1.00  0.00     0.251 C 
ATOM     73  H   UNL A   1      32.856  30.048  22.759  1.00  0.00     0.163 HD
ATOM     74  O   UNL A   1      34.311  28.306  21.859  1.00  0.00    -0.269 OA
BRANCH  72  75
ATOM     75  C   UNL A   1      32.947  26.727  22.920  1.00  0.00     0.040 A 
ATOM     76  C   UNL A   1      32.061  26.041  22.095  1.00  0.00     0.016 A 
ATOM     77  C   UNL A   1      33.536  26.090  24.012  1.00  0.00     0.020 A 
ATOM     78  C   UNL A   1      31.813  24.689  22.338  1.00  0.00     0.027 A 
ATOM     79  C   UNL A   1      33.359  24.712  24.202  1.00  0.00    -0.017 A 
ATOM     80  C   UNL A   1      32.448  24.012  23.391  1.00  0.00     0.038 A 
ATOM     81  C   UNL A   1      34.190  23.992  25.241  1.00  0.00     0.049 C 
ATOM     82  N   UNL A   1      32.247  22.645  23.534  1.00  0.00    -0.378 N 
ATOM     83  C   UNL A   1      35.674  24.217  25.051  1.00  0.00    -0.023 C 
ATOM     84  C   UNL A   1      34.131  22.460  25.120  1.00  0.00     0.031 C 
ATOM     85  C   UNL A   1      32.741  21.965  24.721  1.00  0.00     0.114 C 
ATOM     86  H   UNL A   1      31.774  22.140  22.835  1.00  0.00     0.161 HD
ATOM     87  C   UNL A   1      36.268  23.175  24.458  1.00  0.00    -0.030 C 
ATOM     88  C   UNL A   1      35.287  22.082  24.177  1.00  0.00     0.034 C 
BRANCH  85  89
ATOM     89  C   UNL A   1      32.698  20.451  24.566  1.00  0.00    -0.022 A 
ATOM     90  C   UNL A   1      32.402  19.899  23.312  1.00  0.00     0.026 A 
ATOM     91  C   UNL A   1      32.913  19.566  25.629  1.00  0.00     0.026 A 
ATOM     92  C   UNL A   1      32.348  18.521  23.175  1.00  0.00     0.111 A 
ATOM     93  C   UNL A   1      32.851  18.201  25.391  1.00  0.00     0.111 A 
ATOM     94  N   UNL A   1      32.575  17.658  24.186  1.00  0.00    -0.265 NA
ENDBRANCH  85  89
ENDBRANCH  72  75
ENDBRANCH  70  71
ENDBRANCH  69  70
ENDBRANCH  68  69
ENDBRANCH   1  68
TORSDOF 15
ENDMDL
MODEL 2
REMARK VINA RESULT:     -12.4      1.251      1.925
REMARK SMILES O=C(NCCCCNC(=O)c1ccc2c(c1)[C@@H]1C=CC[C@@H]1[C@H](c1ccncc1)N2)c1ccc(-c2c3nc(c(-c4ccc(S(=O)(=O)[O-])cc4)c4ccc([nH]4)c(-c4ccc(S(=O)(=O)[O-])cc4)c4nc(c(-c5ccc(S(=O)(=O)[O-])cc5)c5ccc2[nH]5)C=C4)C=C3)cc1
REMARK SMILES IDX 4 1 3 2 1 3 2 4 30 6 31 7 89 8 32 9 88 10 33 11 34 12 35 13
REMARK SMILES IDX 82 14 36 15 87 16 81 17 83 18 37 19 86 20 80 21 79 22 38 24
REMARK SMILES IDX 68 25 49 26 67 27 50 28 53 29 66 30 84 31 51 32 52 33 65 35
REMARK SMILES IDX 85 36 54 37 39 38 40 39 48 40 41 41 47 42 42 43 43 44 44 45
REMARK SMILES IDX 45 46 46 47 69 48 70 49 78 50 71 51 77 52 72 53 73 54 74 55
REMARK SMILES IDX 75 56 76 57 55 58 56 59 64 60 57 61 63 62 58 63 59 64 60 65
REMARK SMILES IDX 61 66 62 67 5 68 6 69 7 70 8 71 9 72 10 74 11 75 12 76 16 77
REMARK SMILES IDX 13 78 15 79 14 80 17 81 29 82 18 83 21 84 22 85 19 87 20 88
REMARK SMILES IDX 23 89 24 90 28 91 25 92 27 93 26 94
REMARK H PARENT 3 5 83 23 53 34 8 73 29 86
REMARK Flexibility Score: inf
ROOT
ATOM      1  C   UNL A   1      33.672  28.457  27.066  1.00  0.00     0.116 C 
ENDROOT
BRANCH   1   2
ATOM      2  N   UNL A   1      33.615  29.815  27.585  1.00  0.00    -0.352 N 
ATOM      3  O   UNL A   1      34.331  31.661  28.667  1.00  0.00    -0.269 OA
ATOM      4  C   UNL A   1      34.595  30.555  28.206  1.00  0.00     0.251 C 
ATOM      5  H   UNL A   1      32.749  30.272  27.478  1.00  0.00     0.163 HD
BRANCH   4   6
ATOM      6  C   UNL A   1      35.957  29.992  28.354  1.00  0.00     0.039 A 
ATOM      7  C   UNL A   1      36.351  29.385  29.548  1.00  0.00     0.014 A 
ATOM      8  C   UNL A   1      36.863  30.113  27.297  1.00  0.00     0.014 A 
ATOM      9  C   UNL A   1      37.690  29.072  29.750  1.00  0.00     0.010 A 
ATOM     10  C   UNL A   1      38.192  29.712  27.473  1.00  0.00     0.010 A 
ATOM     11  C   UNL A   1      38.630  29.241  28.719  1.00  0.00    -0.014 A 
BRANCH  11  12
ATOM     12  C   UNL A   1      40.056  28.913  28.979  1.00  0.00     0.031 A 
ATOM     13  C   UNL A   1      40.949  29.862  29.738  1.00  0.00     0.074 A 
ATOM     14  C   UNL A   1      40.532  27.716  28.584  1.00  0.00     0.049 A 
ATOM     15  N   UNL A   1      42.189  29.692  30.122  1.00  0.00    -0.248 NA
ATOM     16  C   UNL A   1      40.385  31.171  30.105  1.00  0.00     0.031 C 
ATOM     17  C   UNL A   1      39.770  26.712  27.835  1.00  0.00     0.029 A 
ATOM     18  N   UNL A   1      41.752  27.123  28.788  1.00  0.00    -0.354 N 
ATOM     19  C   UNL A   1      42.564  30.876  30.746  1.00  0.00     0.074 A 
ATOM     20  C   UNL A   1      41.424  31.765  30.677  1.00  0.00     0.031 C 
ATOM     21  C   UNL A   1      40.516  25.604  27.703  1.00  0.00     0.029 A 
ATOM     22  C   UNL A   1      41.822  25.837  28.310  1.00  0.00     0.049 A 
ATOM     23  H   UNL A   1      42.504  27.576  29.232  1.00  0.00     0.167 HD
ATOM     24  C   UNL A   1      43.746  31.195  31.327  1.00  0.00     0.031 A 
ATOM     25  C   UNL A   1      42.822  24.936  28.357  1.00  0.00     0.031 A 
ATOM     26  C   UNL A   1      44.874  30.305  31.419  1.00  0.00     0.049 A 
ATOM     27  C   UNL A   1      44.112  25.307  29.026  1.00  0.00     0.074 A 
ATOM     28  C   UNL A   1      46.101  30.528  32.019  1.00  0.00     0.029 A 
ATOM     29  N   UNL A   1      44.912  29.021  30.899  1.00  0.00    -0.354 N 
ATOM     30  N   UNL A   1      44.434  26.424  29.629  1.00  0.00    -0.248 NA
ATOM     31  C   UNL A   1      45.172  24.290  29.022  1.00  0.00     0.031 C 
ATOM     32  C   UNL A   1      46.894  29.389  31.834  1.00  0.00     0.029 A 
ATOM     33  C   UNL A   1      46.145  28.444  31.152  1.00  0.00     0.049 A 
ATOM     34  H   UNL A   1      44.172  28.583  30.420  1.00  0.00     0.167 HD
ATOM     35  C   UNL A   1      45.733  26.243  30.089  1.00  0.00     0.074 A 
ATOM     36  C   UNL A   1      46.127  24.901  29.710  1.00  0.00     0.031 C 
ATOM     37  C   UNL A   1      46.526  27.111  30.762  1.00  0.00     0.031 A 
BRANCH  24  38
ATOM     38  C   UNL A   1      43.891  32.585  31.891  1.00  0.00    -0.014 A 
ATOM     39  C   UNL A   1      43.657  32.849  33.251  1.00  0.00     0.010 A 
ATOM     40  C   UNL A   1      44.305  33.634  31.050  1.00  0.00     0.010 A 
ATOM     41  C   UNL A   1      43.795  34.147  33.753  1.00  0.00     0.020 A 
ATOM     42  C   UNL A   1      44.465  34.929  31.552  1.00  0.00     0.020 A 
ATOM     43  C   UNL A   1      44.191  35.181  32.897  1.00  0.00     0.054 A 
BRANCH  43  44
ATOM     44  S   UNL A   1      44.374  36.856  33.572  1.00  0.00     0.124 S 
ATOM     45  O   UNL A   1      45.003  36.591  34.864  1.00  0.00    -0.237 OA
ATOM     46  O   UNL A   1      45.224  37.513  32.584  1.00  0.00    -0.237 OA
ATOM     47  O   UNL A   1      43.002  37.354  33.637  1.00  0.00    -0.744 OA
ENDBRANCH  43  44
ENDBRANCH  24  38
BRANCH  25  48
ATOM     48  C   UNL A   1      42.624  23.590  27.760  1.00  0.00    -0.014 A 
ATOM     49  C   UNL A   1      43.104  23.306  26.470  1.00  0.00     0.010 A 
ATOM     50  C   UNL A   1      41.990  22.574  28.498  1.00  0.00     0.010 A 
ATOM     51  C   UNL A   1      42.947  22.029  25.925  1.00  0.00     0.020 A 
ATOM     52  C   UNL A   1      41.853  21.290  27.965  1.00  0.00     0.020 A 
ATOM     53  C   UNL A   1      42.324  21.028  26.677  1.00  0.00     0.054 A 
BRANCH  53  54
ATOM     54  S   UNL A   1      42.194  19.357  25.984  1.00  0.00     0.124 S 
ATOM     55  O   UNL A   1      40.760  19.241  25.742  1.00  0.00    -0.237 OA
ATOM     56  O   UNL A   1      43.033  19.438  24.791  1.00  0.00    -0.237 OA
ATOM     57  O   UNL A   1      42.723  18.508  27.049  1.00  0.00    -0.744 OA
ENDBRANCH  53  54
ENDBRANCH  25  48
BRANCH  37  58
ATOM     58  C   UNL A   1      47.894  26.623  31.150  1.00  0.00    -0.014 A 
ATOM     59  C   UNL A   1      49.017  26.913  30.354  1.00  0.00     0.010 A 
ATOM     60  C   UNL A   1      48.060  25.883  32.333  1.00  0.00     0.010 A 
ATOM     61  C   UNL A   1      50.279  26.436  30.719  1.00  0.00     0.020 A 
ATOM     62  C   UNL A   1      49.322  25.422  32.711  1.00  0.00     0.020 A 
ATOM     63  C   UNL A   1      50.423  25.687  31.891  1.00  0.00     0.054 A 
BRANCH  63  64
ATOM     64  S   UNL A   1      52.072  25.094  32.359  1.00  0.00     0.124 S 
ATOM     65  O   UNL A   1      52.880  25.520  31.220  1.00  0.00    -0.237 OA
ATOM     66  O   UNL A   1      52.329  25.801  33.611  1.00  0.00    -0.237 OA
ATOM     67  O   UNL A   1      51.892  23.650  32.493  1.00  0.00    -0.744 OA
ENDBRANCH  63  64
ENDBRANCH  37  58
ENDBRANCH  11  12
ENDBRANCH   4   6
ENDBRANCH   1   2
BRANCH   1  68
ATOM     68  C   UNL A   1      32.359  27.980  26.460  1.00  0.00     0.023 C 
BRANCH  68  69
ATOM     69  C   UNL A   1      31.373  29.078  26.077  1.00  0.00     0.023 C 
BRANCH  69  70
ATOM     70  C   UNL A   1      31.715  29.851  24.808  1.00  0.00     0.116 C 
BRANCH  70  71
ATOM     71  N   UNL A   1      30.682  29.764  23.785  1.00  0.00    -0.352 N 
ATOM     72  C   UNL A   1      30.503  28.800  22.822  1.00  0.00     0.251 C 
ATOM     73  H   UNL A   1      30.022  30.494  23.783  1.00  0.00     0.163 HD
ATOM     74  O   UNL A   1      29.636  28.915  21.961  1.00  0.00    -0.269 OA
BRANCH  72  75
ATOM     75  C   UNL A   1      31.394  27.625  22.811  1.00  0.00     0.040 A 
ATOM     76  C   UNL A   1      32.699  27.770  22.348  1.00  0.00     0.016 A 
ATOM     77  C   UNL A   1      30.963  26.410  23.343  1.00  0.00     0.020 A 
ATOM     78  C   UNL A   1      33.588  26.703  22.476  1.00  0.00     0.027 A 
ATOM     79  C   UNL A   1      31.879  25.370  23.555  1.00  0.00    -0.017 A 
ATOM     80  C   UNL A   1      33.193  25.494  23.071  1.00  0.00     0.038 A 
ATOM     81  C   UNL A   1      31.452  24.154  24.348  1.00  0.00     0.049 C 
ATOM     82  N   UNL A   1      34.138  24.496  23.267  1.00  0.00    -0.378 N 
ATOM     83  C   UNL A   1      30.886  24.518  25.703  1.00  0.00    -0.023 C 
ATOM     84  C   UNL A   1      32.627  23.258  24.777  1.00  0.00     0.031 C 
ATOM     85  C   UNL A   1      33.712  23.176  23.704  1.00  0.00     0.114 C 
ATOM     86  H   UNL A   1      35.092  24.682  23.111  1.00  0.00     0.161 HD
ATOM     87  C   UNL A   1      31.775  24.331  26.686  1.00  0.00    -0.030 C 
ATOM     88  C   UNL A   1      33.065  23.793  26.152  1.00  0.00     0.034 C 
BRANCH  85  89
ATOM     89  C   UNL A   1      34.889  22.319  24.149  1.00  0.00    -0.022 A 
ATOM     90  C   UNL A   1      36.193  22.807  23.984  1.00  0.00     0.026 A 
ATOM     91  C   UNL A   1      34.740  21.039  24.696  1.00  0.00     0.026 A 
ATOM     92  C   UNL A   1      37.264  22.019  24.375  1.00  0.00     0.111 A 
ATOM     93  C   UNL A   1      35.874  20.332  25.070  1.00  0.00     0.111 A 
ATOM     94  N   UNL A   1      37.134  20.795  24.924  1.00  0.00    -0.265 NA
ENDBRANCH  85  89
ENDBRANCH  72  75
ENDBRANCH  70  71
ENDBRANCH  69  70
ENDBRANCH  68  69
ENDBRANCH   1  68
TORSDOF 15
ENDMDL
MODEL 3
REMARK VINA RESULT:     -12.4      1.508      8.281
REMARK SMILES O=C(NCCCCNC(=O)c1ccc2c(c1)[C@@H]1C=CC[C@@H]1[C@H](c1ccncc1)N2)c1ccc(-c2c3nc(c(-c4ccc(S(=O)(=O)[O-])cc4)c4ccc([nH]4)c(-c4ccc(S(=O)(=O)[O-])cc4)c4nc(c(-c5ccc(S(=O)(=O)[O-])cc5)c5ccc2[nH]5)C=C4)C=C3)cc1
REMARK SMILES IDX 4 1 3 2 1 3 2 4 30 6 31 7 89 8 32 9 88 10 33 11 34 12 35 13
REMARK SMILES IDX 82 14 36 15 87 16 81 17 83 18 37 19 86 20 80 21 79 22 38 24
REMARK SMILES IDX 68 25 49 26 67 27 50 28 53 29 66 30 84 31 51 32 52 33 65 35
REMARK SMILES IDX 85 36 54 37 39 38 40 39 48 40 41 41 47 42 42 43 43 44 44 45
REMARK SMILES IDX 45 46 46 47 69 48 70 49 78 50 71 51 77 52 72 53 73 54 74 55
REMARK SMILES IDX 75 56 76 57 55 58 56 59 64 60 57 61 63 62 58 63 59 64 60 65
REMARK SMILES IDX 61 66 62 67 5 68 6 69 7 70 8 71 9 72 10 74 11 75 12 76 16 77
REMARK SMILES IDX 13 78 15 79 14 80 17 81 29 82 18 83 21 84 22 85 19 87 20 88
REMARK SMILES IDX 23 89 24 90 28 91 25 92 27 93 26 94
REMARK H PARENT 3 5 83 23 53 34 8 73 29 86
REMARK Flexibility Score: inf
ROOT
ATOM      1  C   UNL A   1      33.588  28.346  27.255  1.00  0.00     0.116 C 
ENDROOT
BRANCH   1   2
ATOM      2  N   UNL A   1      33.525  29.748  27.642  1.00  0.00    -0.352 N 
ATOM      3  O   UNL A   1      34.239  31.695  28.532  1.00  0.00    -0.269 OA
ATOM      4  C   UNL A   1      34.507  30.551  28.177  1.00  0.00     0.251 C 
ATOM      5  H   UNL A   1      32.655  30.186  27.501  1.00  0.00     0.163 HD
BRANCH   4   6
ATOM      6  C   UNL A   1      35.874  30.014  28.363  1.00  0.00     0.039 A 
ATOM      7  C   UNL A   1      36.271  29.486  29.592  1.00  0.00     0.014 A 
ATOM      8  C   UNL A   1      36.782  30.081  27.303  1.00  0.00     0.014 A 
ATOM      9  C   UNL A   1      37.613  29.202  29.816  1.00  0.00     0.010 A 
ATOM     10  C   UNL A   1      38.115  29.708  27.506  1.00  0.00     0.010 A 
ATOM     11  C   UNL A   1      38.555  29.319  28.779  1.00  0.00    -0.014 A 
BRANCH  11  12
ATOM     12  C   UNL A   1      39.984  29.024  29.063  1.00  0.00     0.031 A 
ATOM     13  C   UNL A   1      40.605  27.713  28.655  1.00  0.00     0.074 A 
ATOM     14  C   UNL A   1      40.744  29.978  29.636  1.00  0.00     0.049 A 
ATOM     15  N   UNL A   1      41.854  27.331  28.752  1.00  0.00    -0.248 NA
ATOM     16  C   UNL A   1      39.715  26.695  28.073  1.00  0.00     0.031 C 
ATOM     17  C   UNL A   1      40.260  31.286  30.084  1.00  0.00     0.029 A 
ATOM     18  N   UNL A   1      42.089  30.011  29.906  1.00  0.00    -0.354 N 
ATOM     19  C   UNL A   1      41.896  26.026  28.275  1.00  0.00     0.074 A 
ATOM     20  C   UNL A   1      40.542  25.674  27.902  1.00  0.00     0.031 C 
ATOM     21  C   UNL A   1      41.301  32.018  30.507  1.00  0.00     0.029 A 
ATOM     22  C   UNL A   1      42.516  31.216  30.410  1.00  0.00     0.049 A 
ATOM     23  H   UNL A   1      42.689  29.247  29.752  1.00  0.00     0.167 HD
ATOM     24  C   UNL A   1      42.961  25.197  28.155  1.00  0.00     0.031 A 
ATOM     25  C   UNL A   1      43.747  31.638  30.754  1.00  0.00     0.031 A 
ATOM     26  C   UNL A   1      44.312  25.552  28.503  1.00  0.00     0.049 A 
ATOM     27  C   UNL A   1      44.913  30.707  30.589  1.00  0.00     0.074 A 
ATOM     28  C   UNL A   1      45.462  24.791  28.383  1.00  0.00     0.029 A 
ATOM     29  N   UNL A   1      44.696  26.773  29.035  1.00  0.00    -0.354 N 
ATOM     30  N   UNL A   1      44.930  29.486  30.114  1.00  0.00    -0.248 NA
ATOM     31  C   UNL A   1      46.226  31.217  31.006  1.00  0.00     0.031 C 
ATOM     32  C   UNL A   1      46.538  25.539  28.874  1.00  0.00     0.029 A 
ATOM     33  C   UNL A   1      46.062  26.782  29.263  1.00  0.00     0.049 A 
ATOM     34  H   UNL A   1      44.088  27.523  29.224  1.00  0.00     0.167 HD
ATOM     35  C   UNL A   1      46.259  29.083  30.162  1.00  0.00     0.074 A 
ATOM     36  C   UNL A   1      47.016  30.198  30.695  1.00  0.00     0.031 C 
ATOM     37  C   UNL A   1      46.801  27.894  29.800  1.00  0.00     0.031 A 
BRANCH  24  38
ATOM     38  C   UNL A   1      42.702  23.803  27.645  1.00  0.00    -0.014 A 
ATOM     39  C   UNL A   1      42.701  23.517  26.269  1.00  0.00     0.010 A 
ATOM     40  C   UNL A   1      42.497  22.756  28.562  1.00  0.00     0.010 A 
ATOM     41  C   UNL A   1      42.457  22.217  25.817  1.00  0.00     0.020 A 
ATOM     42  C   UNL A   1      42.273  21.451  28.115  1.00  0.00     0.020 A 
ATOM     43  C   UNL A   1      42.236  21.193  26.744  1.00  0.00     0.054 A 
BRANCH  43  44
ATOM     44  S   UNL A   1      41.932  19.510  26.136  1.00  0.00     0.124 S 
ATOM     45  O   UNL A   1      42.378  18.698  27.265  1.00  0.00    -0.237 OA
ATOM     46  O   UNL A   1      40.492  19.507  25.893  1.00  0.00    -0.237 OA
ATOM     47  O   UNL A   1      42.761  19.421  24.937  1.00  0.00    -0.744 OA
ENDBRANCH  43  44
ENDBRANCH  24  38
BRANCH  25  48
ATOM     48  C   UNL A   1      43.931  33.017  31.274  1.00  0.00    -0.014 A 
ATOM     49  C   UNL A   1      44.158  34.086  30.391  1.00  0.00     0.010 A 
ATOM     50  C   UNL A   1      43.839  33.272  32.655  1.00  0.00     0.010 A 
ATOM     51  C   UNL A   1      44.296  35.388  30.880  1.00  0.00     0.020 A 
ATOM     52  C   UNL A   1      43.954  34.575  33.144  1.00  0.00     0.020 A 
ATOM     53  C   UNL A   1      44.191  35.624  32.254  1.00  0.00     0.054 A 
BRANCH  53  54
ATOM     54  S   UNL A   1      44.299  37.328  32.866  1.00  0.00     0.124 S 
ATOM     55  O   UNL A   1      44.173  38.100  31.635  1.00  0.00    -0.237 OA
ATOM     56  O   UNL A   1      43.165  37.411  33.784  1.00  0.00    -0.237 OA
ATOM     57  O   UNL A   1      45.611  37.375  33.507  1.00  0.00    -0.744 OA
ENDBRANCH  53  54
ENDBRANCH  25  48
BRANCH  37  58
ATOM     58  C   UNL A   1      48.289  27.752  29.949  1.00  0.00    -0.014 A 
ATOM     59  C   UNL A   1      49.159  28.128  28.910  1.00  0.00     0.010 A 
ATOM     60  C   UNL A   1      48.825  27.255  31.150  1.00  0.00     0.010 A 
ATOM     61  C   UNL A   1      50.540  27.973  29.057  1.00  0.00     0.020 A 
ATOM     62  C   UNL A   1      50.205  27.118  31.308  1.00  0.00     0.020 A 
ATOM     63  C   UNL A   1      51.054  27.461  30.253  1.00  0.00     0.054 A 
BRANCH  63  64
ATOM     64  S   UNL A   1      52.851  27.285  30.434  1.00  0.00     0.124 S 
ATOM     65  O   UNL A   1      53.302  27.359  29.048  1.00  0.00    -0.237 OA
ATOM     66  O   UNL A   1      53.206  28.428  31.273  1.00  0.00    -0.237 OA
ATOM     67  O   UNL A   1      53.005  25.980  31.074  1.00  0.00    -0.744 OA
ENDBRANCH  63  64
ENDBRANCH  37  58
ENDBRANCH  11  12
ENDBRANCH   4   6
ENDBRANCH   1   2
BRANCH   1  68
ATOM     68  C   UNL A   1      32.486  27.930  26.289  1.00  0.00     0.023 C 
BRANCH  68  69
ATOM     69  C   UNL A   1      31.457  29.006  25.961  1.00  0.00     0.023 C 
BRANCH  69  70
ATOM     70  C   UNL A   1      31.741  29.822  24.704  1.00  0.00     0.116 C 
BRANCH  70  71
ATOM     71  N   UNL A   1      30.690  29.716  23.701  1.00  0.00    -0.352 N 
ATOM     72  C   UNL A   1      30.494  28.733  22.759  1.00  0.00     0.251 C 
ATOM     73  H   UNL A   1      30.030  30.445  23.697  1.00  0.00     0.163 HD
ATOM     74  O   UNL A   1      29.612  28.833  21.911  1.00  0.00    -0.269 OA
BRANCH  72  75
ATOM     75  C   UNL A   1      31.386  27.559  22.754  1.00  0.00     0.040 A 
ATOM     76  C   UNL A   1      32.680  27.694  22.262  1.00  0.00     0.016 A 
ATOM     77  C   UNL A   1      30.966  26.355  23.320  1.00  0.00     0.020 A 
ATOM     78  C   UNL A   1      33.573  26.629  22.394  1.00  0.00     0.027 A 
ATOM     79  C   UNL A   1      31.886  25.319  23.536  1.00  0.00    -0.017 A 
ATOM     80  C   UNL A   1      33.190  25.433  23.022  1.00  0.00     0.038 A 
ATOM     81  C   UNL A   1      31.477  24.121  24.363  1.00  0.00     0.049 C 
ATOM     82  N   UNL A   1      34.140  24.440  23.219  1.00  0.00    -0.378 N 
ATOM     83  C   UNL A   1      30.939  24.513  25.721  1.00  0.00    -0.023 C 
ATOM     84  C   UNL A   1      32.661  23.234  24.786  1.00  0.00     0.031 C 
ATOM     85  C   UNL A   1      33.724  23.129  23.693  1.00  0.00     0.114 C 
ATOM     86  H   UNL A   1      35.090  24.623  23.040  1.00  0.00     0.161 HD
ATOM     87  C   UNL A   1      31.847  24.347  26.689  1.00  0.00    -0.030 C 
ATOM     88  C   UNL A   1      33.126  23.798  26.141  1.00  0.00     0.034 C 
BRANCH  85  89
ATOM     89  C   UNL A   1      34.910  22.282  24.131  1.00  0.00    -0.022 A 
ATOM     90  C   UNL A   1      34.686  20.977  24.593  1.00  0.00     0.026 A 
ATOM     91  C   UNL A   1      36.229  22.751  24.126  1.00  0.00     0.026 A 
ATOM     92  C   UNL A   1      35.766  20.212  25.007  1.00  0.00     0.111 A 
ATOM     93  C   UNL A   1      37.245  21.904  24.546  1.00  0.00     0.111 A 
ATOM     94  N   UNL A   1      37.043  20.644  24.985  1.00  0.00    -0.265 NA
ENDBRANCH  85  89
ENDBRANCH  72  75
ENDBRANCH  70  71
ENDBRANCH  69  70
ENDBRANCH  68  69
ENDBRANCH   1  68
TORSDOF 15
ENDMDL
