MODEL 1
REMARK VINA RESULT:      -8.7      0.000      0.000
REMARK SMILES C[C@H]([C@@H](C)O)[NH+]1CCC(C)(C(=O)NCCCCNC(=O)c2ccc(-c3c4nc(c(-c5ccc(S(=O)(=O)[O-])cc5)c5ccc([nH]5)c(-c5ccc(S(=O)(=O)[O-])cc5)c5nc(c(-c6ccc(S(=O)(=O)[O-])cc6)c6ccc3[nH]6)C=C5)C=C4)cc2)CC1
REMARK SMILES IDX 15 1 14 2 13 3 11 4 12 5 9 7 6 8 7 9 82 10 8 12 81 13 10 14
REMARK SMILES IDX 2 15 1 16 3 17 4 18 5 19 16 21 17 22 18 23 19 24 20 26 21 27
REMARK SMILES IDX 22 28 80 29 23 30 79 31 24 32 25 33 26 34 73 35 27 36 78 37
REMARK SMILES IDX 72 38 74 39 28 40 77 41 71 42 70 43 29 45 59 46 40 47 58 48
REMARK SMILES IDX 41 49 44 50 57 51 75 52 42 53 43 54 56 56 76 57 45 58 30 59
REMARK SMILES IDX 31 60 39 61 32 62 38 63 33 64 34 65 35 66 36 67 37 68 60 69
REMARK SMILES IDX 61 70 69 71 62 72 68 73 63 74 64 75 65 76 66 77 67 78 46 79
REMARK SMILES IDX 47 80 55 81 48 82 54 83 49 84 50 85 51 86 52 87 53 88
REMARK H PARENT 13 6 6 11 5 20 18 25 74 44 44 55
REMARK Flexibility Score: inf
ROOT
ATOM      1  C   UNL A   1      43.620  22.000  25.888  1.00  0.00     0.023 C 
ENDROOT
BRANCH   1   2
ATOM      2  C   UNL A   1      43.543  23.210  24.959  1.00  0.00     0.116 C 
BRANCH   2   3
ATOM      3  N   UNL A   1      44.864  23.696  24.602  1.00  0.00    -0.356 N 
ATOM      4  C   UNL A   1      45.653  24.679  25.116  1.00  0.00     0.226 C 
ATOM      5  O   UNL A   1      46.723  24.878  24.535  1.00  0.00    -0.274 OA
ATOM      6  H   UNL A   1      45.268  23.221  23.840  1.00  0.00     0.163 HD
BRANCH   4   7
ATOM      7  C   UNL A   1      45.250  25.485  26.366  1.00  0.00     0.057 C 
ATOM      8  N   UNL A   1      44.520  28.329  25.673  1.00  0.00    -0.331 N 
ATOM      9  C   UNL A   1      43.689  27.186  25.268  1.00  0.00     0.263 C 
ATOM     10  C   UNL A   1      45.921  27.918  25.704  1.00  0.00     0.263 C 
ATOM     11  H   UNL A   1      44.519  29.081  24.984  1.00  0.00     0.348 HD
ATOM     12  C   UNL A   1      43.807  26.016  26.252  1.00  0.00     0.078 C 
ATOM     13  C   UNL A   1      46.225  26.683  26.561  1.00  0.00     0.078 C 
ATOM     14  C   UNL A   1      45.439  24.599  27.618  1.00  0.00     0.022 C 
BRANCH   8  15
ATOM     15  C   UNL A   1      43.935  29.049  26.829  1.00  0.00     0.209 C 
ATOM     16  C   UNL A   1      42.524  29.480  26.382  1.00  0.00     0.078 C 
BRANCH  15  17
ATOM     17  C   UNL A   1      44.704  30.231  27.508  1.00  0.00     0.169 C 
ATOM     18  C   UNL A   1      45.165  31.360  26.598  1.00  0.00     0.045 C 
BRANCH  17  19
ATOM     19  O   UNL A   1      43.882  30.805  28.540  1.00  0.00    -0.387 OA
ATOM     20  H   UNL A   1      43.525  30.099  29.100  1.00  0.00     0.211 HD
ENDBRANCH  17  19
ENDBRANCH  15  17
ENDBRANCH   8  15
ENDBRANCH   4   7
ENDBRANCH   2   3
ENDBRANCH   1   2
BRANCH   1  21
ATOM     21  C   UNL A   1      42.304  21.241  26.050  1.00  0.00     0.023 C 
BRANCH  21  22
ATOM     22  C   UNL A   1      41.221  21.989  26.818  1.00  0.00     0.116 C 
BRANCH  22  23
ATOM     23  N   UNL A   1      39.933  21.981  26.142  1.00  0.00    -0.352 N 
ATOM     24  C   UNL A   1      38.968  22.963  26.123  1.00  0.00     0.251 C 
ATOM     25  H   UNL A   1      39.725  21.168  25.628  1.00  0.00     0.163 HD
ATOM     26  O   UNL A   1      37.887  22.759  25.600  1.00  0.00    -0.269 OA
BRANCH  24  27
ATOM     27  C   UNL A   1      39.258  24.251  26.787  1.00  0.00     0.039 A 
ATOM     28  C   UNL A   1      38.853  24.434  28.110  1.00  0.00     0.014 A 
ATOM     29  C   UNL A   1      39.979  25.244  26.119  1.00  0.00     0.014 A 
ATOM     30  C   UNL A   1      39.233  25.591  28.790  1.00  0.00     0.010 A 
ATOM     31  C   UNL A   1      40.419  26.361  26.820  1.00  0.00     0.010 A 
ATOM     32  C   UNL A   1      40.051  26.545  28.162  1.00  0.00    -0.014 A 
BRANCH  32  33
ATOM     33  C   UNL A   1      40.534  27.743  28.892  1.00  0.00     0.031 A 
ATOM     34  C   UNL A   1      41.899  27.736  29.524  1.00  0.00     0.074 A 
ATOM     35  C   UNL A   1      39.720  28.805  29.045  1.00  0.00     0.049 A 
ATOM     36  N   UNL A   1      42.474  28.658  30.252  1.00  0.00    -0.248 NA
ATOM     37  C   UNL A   1      42.713  26.525  29.336  1.00  0.00     0.031 C 
ATOM     38  C   UNL A   1      38.357  28.912  28.520  1.00  0.00     0.029 A 
ATOM     39  N   UNL A   1      39.919  29.998  29.695  1.00  0.00    -0.354 N 
ATOM     40  C   UNL A   1      43.706  28.133  30.623  1.00  0.00     0.074 A 
ATOM     41  C   UNL A   1      43.774  26.792  30.083  1.00  0.00     0.031 C 
ATOM     42  C   UNL A   1      37.852  30.114  28.847  1.00  0.00     0.029 A 
ATOM     43  C   UNL A   1      38.839  30.847  29.633  1.00  0.00     0.049 A 
ATOM     44  H   UNL A   1      40.756  30.224  30.159  1.00  0.00     0.167 HD
ATOM     45  C   UNL A   1      44.701  28.720  31.330  1.00  0.00     0.031 A 
ATOM     46  C   UNL A   1      38.660  32.075  30.157  1.00  0.00     0.031 A 
ATOM     47  C   UNL A   1      44.634  30.058  31.853  1.00  0.00     0.049 A 
ATOM     48  C   UNL A   1      39.779  32.709  30.937  1.00  0.00     0.074 A 
ATOM     49  C   UNL A   1      45.609  30.763  32.536  1.00  0.00     0.029 A 
ATOM     50  N   UNL A   1      43.531  30.891  31.754  1.00  0.00    -0.354 N 
ATOM     51  N   UNL A   1      40.964  32.220  31.220  1.00  0.00    -0.248 NA
ATOM     52  C   UNL A   1      39.544  34.063  31.454  1.00  0.00     0.031 C 
ATOM     53  C   UNL A   1      45.078  32.009  32.889  1.00  0.00     0.029 A 
ATOM     54  C   UNL A   1      43.792  32.099  32.379  1.00  0.00     0.049 A 
ATOM     55  H   UNL A   1      42.685  30.659  31.305  1.00  0.00     0.167 HD
ATOM     56  C   UNL A   1      41.624  33.217  31.929  1.00  0.00     0.074 A 
ATOM     57  C   UNL A   1      40.713  34.341  32.017  1.00  0.00     0.031 C 
ATOM     58  C   UNL A   1      42.873  33.206  32.457  1.00  0.00     0.031 A 
BRANCH  45  59
ATOM     59  C   UNL A   1      45.945  27.909  31.576  1.00  0.00    -0.014 A 
ATOM     60  C   UNL A   1      46.078  27.118  32.733  1.00  0.00     0.010 A 
ATOM     61  C   UNL A   1      46.986  27.916  30.631  1.00  0.00     0.010 A 
ATOM     62  C   UNL A   1      47.246  26.388  32.963  1.00  0.00     0.020 A 
ATOM     63  C   UNL A   1      48.146  27.165  30.842  1.00  0.00     0.020 A 
ATOM     64  C   UNL A   1      48.276  26.421  32.018  1.00  0.00     0.054 A 
BRANCH  64  65
ATOM     65  S   UNL A   1      49.777  25.455  32.336  1.00  0.00     0.124 S 
ATOM     66  O   UNL A   1      49.305  24.479  33.316  1.00  0.00    -0.237 OA
ATOM     67  O   UNL A   1      50.098  24.916  31.017  1.00  0.00    -0.237 OA
ATOM     68  O   UNL A   1      50.724  26.444  32.848  1.00  0.00    -0.744 OA
ENDBRANCH  64  65
ENDBRANCH  45  59
BRANCH  46  69
ATOM     69  C   UNL A   1      37.375  32.794  29.940  1.00  0.00    -0.014 A 
ATOM     70  C   UNL A   1      37.124  33.455  28.726  1.00  0.00     0.010 A 
ATOM     71  C   UNL A   1      36.385  32.802  30.940  1.00  0.00     0.010 A 
ATOM     72  C   UNL A   1      35.914  34.125  28.519  1.00  0.00     0.020 A 
ATOM     73  C   UNL A   1      35.164  33.448  30.728  1.00  0.00     0.020 A 
ATOM     74  C   UNL A   1      34.940  34.114  29.521  1.00  0.00     0.054 A 
BRANCH  74  75
ATOM     75  S   UNL A   1      33.355  34.939  29.210  1.00  0.00     0.124 S 
ATOM     76  O   UNL A   1      32.747  34.063  28.214  1.00  0.00    -0.237 OA
ATOM     77  O   UNL A   1      32.728  34.928  30.529  1.00  0.00    -0.237 OA
ATOM     78  O   UNL A   1      33.746  36.261  28.727  1.00  0.00    -0.744 OA
ENDBRANCH  74  75
ENDBRANCH  46  69
BRANCH  58  79
ATOM     79  C   UNL A   1      43.343  34.455  33.153  1.00  0.00    -0.014 A 
ATOM     80  C   UNL A   1      43.168  34.628  34.537  1.00  0.00     0.010 A 
ATOM     81  C   UNL A   1      44.020  35.444  32.416  1.00  0.00     0.010 A 
ATOM     82  C   UNL A   1      43.637  35.784  35.167  1.00  0.00     0.020 A 
ATOM     83  C   UNL A   1      44.514  36.587  33.048  1.00  0.00     0.020 A 
ATOM     84  C   UNL A   1      44.308  36.756  34.417  1.00  0.00     0.054 A 
BRANCH  84  85
ATOM     85  S   UNL A   1      44.949  38.225  35.266  1.00  0.00     0.124 S 
ATOM     86  O   UNL A   1      44.951  37.793  36.661  1.00  0.00    -0.237 OA
ATOM     87  O   UNL A   1      46.267  38.397  34.660  1.00  0.00    -0.237 OA
ATOM     88  O   UNL A   1      43.979  39.267  34.937  1.00  0.00    -0.744 OA
ENDBRANCH  84  85
ENDBRANCH  58  79
ENDBRANCH  32  33
ENDBRANCH  24  27
ENDBRANCH  22  23
ENDBRANCH  21  22
ENDBRANCH   1  21
TORSDOF 17
ENDMDL
MODEL 2
REMARK VINA RESULT:      -8.6      2.210      3.181
REMARK SMILES C[C@H]([C@@H](C)O)[NH+]1CCC(C)(C(=O)NCCCCNC(=O)c2ccc(-c3c4nc(c(-c5ccc(S(=O)(=O)[O-])cc5)c5ccc([nH]5)c(-c5ccc(S(=O)(=O)[O-])cc5)c5nc(c(-c6ccc(S(=O)(=O)[O-])cc6)c6ccc3[nH]6)C=C5)C=C4)cc2)CC1
REMARK SMILES IDX 15 1 14 2 13 3 11 4 12 5 9 7 6 8 7 9 82 10 8 12 81 13 10 14
REMARK SMILES IDX 2 15 1 16 3 17 4 18 5 19 16 21 17 22 18 23 19 24 20 26 21 27
REMARK SMILES IDX 22 28 80 29 23 30 79 31 24 32 25 33 26 34 73 35 27 36 78 37
REMARK SMILES IDX 72 38 74 39 28 40 77 41 71 42 70 43 29 45 59 46 40 47 58 48
REMARK SMILES IDX 41 49 44 50 57 51 75 52 42 53 43 54 56 56 76 57 45 58 30 59
REMARK SMILES IDX 31 60 39 61 32 62 38 63 33 64 34 65 35 66 36 67 37 68 60 69
REMARK SMILES IDX 61 70 69 71 62 72 68 73 63 74 64 75 65 76 66 77 67 78 46 79
REMARK SMILES IDX 47 80 55 81 48 82 54 83 49 84 50 85 51 86 52 87 53 88
REMARK H PARENT 13 6 6 11 5 20 18 25 74 44 44 55
REMARK Flexibility Score: inf
ROOT
ATOM      1  C   UNL A   1      46.202  21.215  24.484  1.00  0.00     0.023 C 
ENDROOT
BRANCH   1   2
ATOM      2  C   UNL A   1      46.011  22.606  25.085  1.00  0.00     0.116 C 
BRANCH   2   3
ATOM      3  N   UNL A   1      46.851  23.593  24.430  1.00  0.00    -0.356 N 
ATOM      4  C   UNL A   1      47.085  24.911  24.676  1.00  0.00     0.226 C 
ATOM      5  O   UNL A   1      47.830  25.490  23.881  1.00  0.00    -0.274 OA
ATOM      6  H   UNL A   1      47.349  23.240  23.658  1.00  0.00     0.163 HD
BRANCH   4   7
ATOM      7  C   UNL A   1      46.476  25.641  25.889  1.00  0.00     0.057 C 
ATOM      8  N   UNL A   1      44.146  27.383  25.090  1.00  0.00    -0.331 N 
ATOM      9  C   UNL A   1      44.080  25.916  25.038  1.00  0.00     0.263 C 
ATOM     10  C   UNL A   1      45.514  27.814  24.813  1.00  0.00     0.263 C 
ATOM     11  H   UNL A   1      43.612  27.829  24.344  1.00  0.00     0.348 HD
ATOM     12  C   UNL A   1      44.993  25.265  26.084  1.00  0.00     0.078 C 
ATOM     13  C   UNL A   1      46.594  27.180  25.697  1.00  0.00     0.078 C 
ATOM     14  C   UNL A   1      47.318  25.320  27.144  1.00  0.00     0.022 C 
BRANCH   8  15
ATOM     15  C   UNL A   1      43.426  27.923  26.268  1.00  0.00     0.209 C 
ATOM     16  C   UNL A   1      42.062  28.405  25.739  1.00  0.00     0.078 C 
BRANCH  15  17
ATOM     17  C   UNL A   1      44.092  28.997  27.190  1.00  0.00     0.169 C 
ATOM     18  C   UNL A   1      43.709  30.448  26.938  1.00  0.00     0.045 C 
BRANCH  17  19
ATOM     19  O   UNL A   1      43.797  28.696  28.566  1.00  0.00    -0.387 OA
ATOM     20  H   UNL A   1      42.932  28.261  28.624  1.00  0.00     0.211 HD
ENDBRANCH  17  19
ENDBRANCH  15  17
ENDBRANCH   8  15
ENDBRANCH   4   7
ENDBRANCH   2   3
ENDBRANCH   1   2
BRANCH   1  21
ATOM     21  C   UNL A   1      44.910  20.423  24.295  1.00  0.00     0.023 C 
BRANCH  21  22
ATOM     22  C   UNL A   1      44.371  19.761  25.557  1.00  0.00     0.116 C 
BRANCH  22  23
ATOM     23  N   UNL A   1      43.049  19.181  25.378  1.00  0.00    -0.352 N 
ATOM     24  C   UNL A   1      41.835  19.669  25.803  1.00  0.00     0.251 C 
ATOM     25  H   UNL A   1      43.019  18.329  24.885  1.00  0.00     0.163 HD
ATOM     26  O   UNL A   1      40.820  19.005  25.673  1.00  0.00    -0.269 OA
BRANCH  24  27
ATOM     27  C   UNL A   1      41.794  20.993  26.457  1.00  0.00     0.039 A 
ATOM     28  C   UNL A   1      41.615  21.057  27.840  1.00  0.00     0.014 A 
ATOM     29  C   UNL A   1      41.994  22.157  25.710  1.00  0.00     0.014 A 
ATOM     30  C   UNL A   1      41.705  22.290  28.487  1.00  0.00     0.010 A 
ATOM     31  C   UNL A   1      42.157  23.373  26.365  1.00  0.00     0.010 A 
ATOM     32  C   UNL A   1      42.015  23.451  27.758  1.00  0.00    -0.014 A 
BRANCH  32  33
ATOM     33  C   UNL A   1      42.197  24.758  28.437  1.00  0.00     0.031 A 
ATOM     34  C   UNL A   1      43.460  25.036  29.203  1.00  0.00     0.074 A 
ATOM     35  C   UNL A   1      41.198  25.663  28.422  1.00  0.00     0.049 A 
ATOM     36  N   UNL A   1      43.780  26.089  29.910  1.00  0.00    -0.248 NA
ATOM     37  C   UNL A   1      44.489  23.983  29.195  1.00  0.00     0.031 C 
ATOM     38  C   UNL A   1      39.906  25.489  27.754  1.00  0.00     0.029 A 
ATOM     39  N   UNL A   1      41.112  26.908  28.992  1.00  0.00    -0.354 N 
ATOM     40  C   UNL A   1      45.034  25.818  30.445  1.00  0.00     0.074 A 
ATOM     41  C   UNL A   1      45.395  24.482  30.023  1.00  0.00     0.031 C 
ATOM     42  C   UNL A   1      39.167  26.597  27.931  1.00  0.00     0.029 A 
ATOM     43  C   UNL A   1      39.915  27.542  28.754  1.00  0.00     0.049 A 
ATOM     44  H   UNL A   1      41.839  27.310  29.520  1.00  0.00     0.167 HD
ATOM     45  C   UNL A   1      45.824  26.617  31.200  1.00  0.00     0.031 A 
ATOM     46  C   UNL A   1      39.467  28.747  29.158  1.00  0.00     0.031 A 
ATOM     47  C   UNL A   1      45.467  27.950  31.607  1.00  0.00     0.049 A 
ATOM     48  C   UNL A   1      40.363  29.618  29.994  1.00  0.00     0.074 A 
ATOM     49  C   UNL A   1      46.221  28.860  32.327  1.00  0.00     0.029 A 
ATOM     50  N   UNL A   1      44.255  28.562  31.330  1.00  0.00    -0.354 N 
ATOM     51  N   UNL A   1      41.575  29.370  30.434  1.00  0.00    -0.248 NA
ATOM     52  C   UNL A   1      39.839  30.936  30.376  1.00  0.00     0.031 C 
ATOM     53  C   UNL A   1      45.445  30.007  32.524  1.00  0.00     0.029 A 
ATOM     54  C   UNL A   1      44.230  29.832  31.880  1.00  0.00     0.049 A 
ATOM     55  H   UNL A   1      43.520  28.154  30.818  1.00  0.00     0.167 HD
ATOM     56  C   UNL A   1      41.966  30.511  31.125  1.00  0.00     0.074 A 
ATOM     57  C   UNL A   1      40.870  31.454  31.031  1.00  0.00     0.031 C 
ATOM     58  C   UNL A   1      43.130  30.757  31.777  1.00  0.00     0.031 A 
BRANCH  45  59
ATOM     59  C   UNL A   1      47.154  26.061  31.636  1.00  0.00    -0.014 A 
ATOM     60  C   UNL A   1      48.292  26.174  30.814  1.00  0.00     0.010 A 
ATOM     61  C   UNL A   1      47.278  25.439  32.891  1.00  0.00     0.010 A 
ATOM     62  C   UNL A   1      49.515  25.634  31.218  1.00  0.00     0.020 A 
ATOM     63  C   UNL A   1      48.506  24.922  33.312  1.00  0.00     0.020 A 
ATOM     64  C   UNL A   1      49.613  25.006  32.463  1.00  0.00     0.054 A 
BRANCH  64  65
ATOM     65  S   UNL A   1      51.215  24.323  32.967  1.00  0.00     0.124 S 
ATOM     66  O   UNL A   1      52.119  24.924  31.990  1.00  0.00    -0.237 OA
ATOM     67  O   UNL A   1      51.357  24.812  34.336  1.00  0.00    -0.237 OA
ATOM     68  O   UNL A   1      51.033  22.879  32.841  1.00  0.00    -0.744 OA
ENDBRANCH  64  65
ENDBRANCH  45  59
BRANCH  46  69
ATOM     69  C   UNL A   1      38.111  29.207  28.755  1.00  0.00    -0.014 A 
ATOM     70  C   UNL A   1      37.876  29.683  27.453  1.00  0.00     0.010 A 
ATOM     71  C   UNL A   1      37.039  29.150  29.665  1.00  0.00     0.010 A 
ATOM     72  C   UNL A   1      36.600  30.109  27.073  1.00  0.00     0.020 A 
ATOM     73  C   UNL A   1      35.756  29.550  29.281  1.00  0.00     0.020 A 
ATOM     74  C   UNL A   1      35.547  30.037  27.989  1.00  0.00     0.054 A 
BRANCH  74  75
ATOM     75  S   UNL A   1      33.887  30.539  27.456  1.00  0.00     0.124 S 
ATOM     76  O   UNL A   1      34.005  30.484  26.003  1.00  0.00    -0.237 OA
ATOM     77  O   UNL A   1      33.038  29.517  28.062  1.00  0.00    -0.237 OA
ATOM     78  O   UNL A   1      33.737  31.877  28.022  1.00  0.00    -0.744 OA
ENDBRANCH  74  75
ENDBRANCH  46  69
BRANCH  58  79
ATOM     79  C   UNL A   1      43.293  32.111  32.415  1.00  0.00    -0.014 A 
ATOM     80  C   UNL A   1      43.703  33.226  31.664  1.00  0.00     0.010 A 
ATOM     81  C   UNL A   1      42.976  32.277  33.776  1.00  0.00     0.010 A 
ATOM     82  C   UNL A   1      43.821  34.480  32.270  1.00  0.00     0.020 A 
ATOM     83  C   UNL A   1      43.066  33.534  34.378  1.00  0.00     0.020 A 
ATOM     84  C   UNL A   1      43.501  34.625  33.624  1.00  0.00     0.054 A 
BRANCH  84  85
ATOM     85  S   UNL A   1      43.616  36.271  34.377  1.00  0.00     0.124 S 
ATOM     86  O   UNL A   1      44.871  36.179  35.118  1.00  0.00    -0.237 OA
ATOM     87  O   UNL A   1      43.636  37.156  33.214  1.00  0.00    -0.237 OA
ATOM     88  O   UNL A   1      42.411  36.362  35.199  1.00  0.00    -0.744 OA
ENDBRANCH  84  85
ENDBRANCH  58  79
ENDBRANCH  32  33
ENDBRANCH  24  27
ENDBRANCH  22  23
ENDBRANCH  21  22
ENDBRANCH   1  21
TORSDOF 17
ENDMDL
MODEL 3
REMARK VINA RESULT:      -8.3      4.371      6.804
REMARK SMILES C[C@H]([C@@H](C)O)[NH+]1CCC(C)(C(=O)NCCCCNC(=O)c2ccc(-c3c4nc(c(-c5ccc(S(=O)(=O)[O-])cc5)c5ccc([nH]5)c(-c5ccc(S(=O)(=O)[O-])cc5)c5nc(c(-c6ccc(S(=O)(=O)[O-])cc6)c6ccc3[nH]6)C=C5)C=C4)cc2)CC1
REMARK SMILES IDX 15 1 14 2 13 3 11 4 12 5 9 7 6 8 7 9 82 10 8 12 81 13 10 14
REMARK SMILES IDX 2 15 1 16 3 17 4 18 5 19 16 21 17 22 18 23 19 24 20 26 21 27
REMARK SMILES IDX 22 28 80 29 23 30 79 31 24 32 25 33 26 34 73 35 27 36 78 37
REMARK SMILES IDX 72 38 74 39 28 40 77 41 71 42 70 43 29 45 59 46 40 47 58 48
REMARK SMILES IDX 41 49 44 50 57 51 75 52 42 53 43 54 56 56 76 57 45 58 30 59
REMARK SMILES IDX 31 60 39 61 32 62 38 63 33 64 34 65 35 66 36 67 37 68 60 69
REMARK SMILES IDX 61 70 69 71 62 72 68 73 63 74 64 75 65 76 66 77 67 78 46 79
REMARK SMILES IDX 47 80 55 81 48 82 54 83 49 84 50 85 51 86 52 87 53 88
REMARK H PARENT 13 6 6 11 5 20 18 25 74 44 44 55
REMARK Flexibility Score: inf
ROOT
ATOM      1  C   UNL A   1      37.676  22.018  25.458  1.00  0.00     0.023 C 
ENDROOT
BRANCH   1   2
ATOM      2  C   UNL A   1      36.348  21.275  25.327  1.00  0.00     0.116 C 
BRANCH   2   3
ATOM      3  N   UNL A   1      35.530  21.427  26.517  1.00  0.00    -0.356 N 
ATOM      4  C   UNL A   1      34.269  21.902  26.711  1.00  0.00     0.226 C 
ATOM      5  O   UNL A   1      33.878  21.946  27.881  1.00  0.00    -0.274 OA
ATOM      6  H   UNL A   1      35.973  21.128  27.343  1.00  0.00     0.163 HD
BRANCH   4   7
ATOM      7  C   UNL A   1      33.366  22.339  25.541  1.00  0.00     0.057 C 
ATOM      8  N   UNL A   1      32.613  25.253  25.740  1.00  0.00    -0.331 N 
ATOM      9  C   UNL A   1      33.987  24.818  25.452  1.00  0.00     0.263 C 
ATOM     10  C   UNL A   1      31.967  24.268  26.602  1.00  0.00     0.263 C 
ATOM     11  H   UNL A   1      32.579  26.104  26.302  1.00  0.00     0.348 HD
ATOM     12  C   UNL A   1      34.018  23.470  24.721  1.00  0.00     0.078 C 
ATOM     13  C   UNL A   1      31.991  22.825  26.085  1.00  0.00     0.078 C 
ATOM     14  C   UNL A   1      33.046  21.106  24.666  1.00  0.00     0.022 C 
BRANCH   8  15
ATOM     15  C   UNL A   1      31.923  25.733  24.519  1.00  0.00     0.209 C 
ATOM     16  C   UNL A   1      32.828  26.834  23.933  1.00  0.00     0.078 C 
BRANCH  15  17
ATOM     17  C   UNL A   1      30.428  26.192  24.572  1.00  0.00     0.169 C 
ATOM     18  C   UNL A   1      30.090  27.503  23.879  1.00  0.00     0.045 C 
BRANCH  17  19
ATOM     19  O   UNL A   1      29.592  25.166  24.007  1.00  0.00    -0.387 OA
ATOM     20  H   UNL A   1      29.640  24.370  24.558  1.00  0.00     0.211 HD
ENDBRANCH  17  19
ENDBRANCH  15  17
ENDBRANCH   8  15
ENDBRANCH   4   7
ENDBRANCH   2   3
ENDBRANCH   1   2
BRANCH   1  21
ATOM     21  C   UNL A   1      37.540  23.525  25.664  1.00  0.00     0.023 C 
BRANCH  21  22
ATOM     22  C   UNL A   1      38.518  24.128  26.666  1.00  0.00     0.116 C 
BRANCH  22  23
ATOM     23  N   UNL A   1      39.897  24.103  26.202  1.00  0.00    -0.352 N 
ATOM     24  C   UNL A   1      40.919  24.973  26.507  1.00  0.00     0.251 C 
ATOM     25  H   UNL A   1      40.129  23.368  25.590  1.00  0.00     0.163 HD
ATOM     26  O   UNL A   1      41.997  24.884  25.944  1.00  0.00    -0.269 OA
BRANCH  24  27
ATOM     27  C   UNL A   1      40.669  26.040  27.498  1.00  0.00     0.039 A 
ATOM     28  C   UNL A   1      39.740  25.810  28.515  1.00  0.00     0.014 A 
ATOM     29  C   UNL A   1      41.396  27.232  27.453  1.00  0.00     0.014 A 
ATOM     30  C   UNL A   1      39.590  26.754  29.531  1.00  0.00     0.010 A 
ATOM     31  C   UNL A   1      41.298  28.136  28.505  1.00  0.00     0.010 A 
ATOM     32  C   UNL A   1      40.395  27.906  29.553  1.00  0.00    -0.014 A 
BRANCH  32  33
ATOM     33  C   UNL A   1      40.309  28.882  30.668  1.00  0.00     0.031 A 
ATOM     34  C   UNL A   1      41.191  28.722  31.875  1.00  0.00     0.074 A 
ATOM     35  C   UNL A   1      39.390  29.867  30.623  1.00  0.00     0.049 A 
ATOM     36  N   UNL A   1      41.222  29.433  32.973  1.00  0.00    -0.248 NA
ATOM     37  C   UNL A   1      42.146  27.602  31.857  1.00  0.00     0.031 C 
ATOM     38  C   UNL A   1      38.445  30.096  29.529  1.00  0.00     0.029 A 
ATOM     39  N   UNL A   1      39.097  30.857  31.528  1.00  0.00    -0.354 N 
ATOM     40  C   UNL A   1      42.182  28.836  33.781  1.00  0.00     0.074 A 
ATOM     41  C   UNL A   1      42.674  27.676  33.070  1.00  0.00     0.031 C 
ATOM     42  C   UNL A   1      37.694  31.173  29.814  1.00  0.00     0.029 A 
ATOM     43  C   UNL A   1      38.078  31.688  31.124  1.00  0.00     0.049 A 
ATOM     44  H   UNL A   1      39.571  30.962  32.383  1.00  0.00     0.167 HD
ATOM     45  C   UNL A   1      42.631  29.230  34.997  1.00  0.00     0.031 A 
ATOM     46  C   UNL A   1      37.512  32.742  31.743  1.00  0.00     0.031 A 
ATOM     47  C   UNL A   1      42.148  30.391  35.695  1.00  0.00     0.049 A 
ATOM     48  C   UNL A   1      38.028  33.163  33.092  1.00  0.00     0.074 A 
ATOM     49  C   UNL A   1      42.575  30.906  36.906  1.00  0.00     0.029 A 
ATOM     50  N   UNL A   1      41.129  31.217  35.245  1.00  0.00    -0.354 N 
ATOM     51  N   UNL A   1      38.984  32.625  33.812  1.00  0.00    -0.248 NA
ATOM     52  C   UNL A   1      37.400  34.341  33.704  1.00  0.00     0.031 C 
ATOM     53  C   UNL A   1      41.784  32.018  37.210  1.00  0.00     0.029 A 
ATOM     54  C   UNL A   1      40.900  32.228  36.163  1.00  0.00     0.049 A 
ATOM     55  H   UNL A   1      40.641  31.102  34.398  1.00  0.00     0.167 HD
ATOM     56  C   UNL A   1      39.088  33.413  34.952  1.00  0.00     0.074 A 
ATOM     57  C   UNL A   1      38.108  34.473  34.818  1.00  0.00     0.031 C 
ATOM     58  C   UNL A   1      39.920  33.274  36.013  1.00  0.00     0.031 A 
BRANCH  45  59
ATOM     59  C   UNL A   1      43.698  28.390  35.646  1.00  0.00    -0.014 A 
ATOM     60  C   UNL A   1      43.362  27.328  36.507  1.00  0.00     0.010 A 
ATOM     61  C   UNL A   1      45.054  28.645  35.374  1.00  0.00     0.010 A 
ATOM     62  C   UNL A   1      44.361  26.570  37.121  1.00  0.00     0.020 A 
ATOM     63  C   UNL A   1      46.057  27.871  35.964  1.00  0.00     0.020 A 
ATOM     64  C   UNL A   1      45.703  26.850  36.850  1.00  0.00     0.054 A 
BRANCH  64  65
ATOM     65  S   UNL A   1      46.980  25.843  37.653  1.00  0.00     0.124 S 
ATOM     66  O   UNL A   1      46.199  24.719  38.164  1.00  0.00    -0.237 OA
ATOM     67  O   UNL A   1      47.883  25.528  36.549  1.00  0.00    -0.237 OA
ATOM     68  O   UNL A   1      47.534  26.731  38.672  1.00  0.00    -0.744 OA
ENDBRANCH  64  65
ENDBRANCH  45  59
BRANCH  46  69
ATOM     69  C   UNL A   1      36.407  33.486  31.080  1.00  0.00    -0.014 A 
ATOM     70  C   UNL A   1      36.519  33.878  29.734  1.00  0.00     0.010 A 
ATOM     71  C   UNL A   1      35.227  33.787  31.784  1.00  0.00     0.010 A 
ATOM     72  C   UNL A   1      35.478  34.570  29.108  1.00  0.00     0.020 A 
ATOM     73  C   UNL A   1      34.173  34.457  31.155  1.00  0.00     0.020 A 
ATOM     74  C   UNL A   1      34.310  34.853  29.822  1.00  0.00     0.054 A 
BRANCH  74  75
ATOM     75  S   UNL A   1      32.948  35.701  28.974  1.00  0.00     0.124 S 
ATOM     76  O   UNL A   1      32.428  34.648  28.109  1.00  0.00    -0.237 OA
ATOM     77  O   UNL A   1      32.083  36.096  30.082  1.00  0.00    -0.237 OA
ATOM     78  O   UNL A   1      33.610  36.807  28.287  1.00  0.00    -0.744 OA
ENDBRANCH  74  75
ENDBRANCH  46  69
BRANCH  58  79
ATOM     79  C   UNL A   1      39.833  34.309  37.103  1.00  0.00    -0.014 A 
ATOM     80  C   UNL A   1      39.080  34.079  38.267  1.00  0.00     0.010 A 
ATOM     81  C   UNL A   1      40.562  35.506  36.981  1.00  0.00     0.010 A 
ATOM     82  C   UNL A   1      39.035  35.042  39.279  1.00  0.00     0.020 A 
ATOM     83  C   UNL A   1      40.542  36.458  38.002  1.00  0.00     0.020 A 
ATOM     84  C   UNL A   1      39.767  36.226  39.139  1.00  0.00     0.054 A 
BRANCH  84  85
ATOM     85  S   UNL A   1      39.730  37.439  40.487  1.00  0.00     0.124 S 
ATOM     86  O   UNL A   1      38.459  38.117  40.251  1.00  0.00    -0.237 OA
ATOM     87  O   UNL A   1      39.782  36.598  41.680  1.00  0.00    -0.237 OA
ATOM     88  O   UNL A   1      40.923  38.252  40.254  1.00  0.00    -0.744 OA
ENDBRANCH  84  85
ENDBRANCH  58  79
ENDBRANCH  32  33
ENDBRANCH  24  27
ENDBRANCH  22  23
ENDBRANCH  21  22
ENDBRANCH   1  21
TORSDOF 17
ENDMDL
