MODEL 1
REMARK VINA RESULT:     -11.6      0.000      0.000
REMARK SMILES CCOc1cc2c(cc1/C=C1/C(=O)N(c3cccc(C(=O)NCCCCNC(=O)c4ccc(-c5c6nc(c(-c7ccc(S(=O)(=O)[O-])cc7)c7ccc([nH]7)c(-c7ccc(S(=O)(=O)[O-])cc7)c7nc(c(-c8ccc(S(=O)(=O)[O-])cc8)c8ccc5[nH]8)C=C7)C=C6)cc4)c3)C(=S)N=C1O)OCO2
REMARK SMILES IDX 24 1 23 2 22 3 20 4 21 5 19 7 15 8 16 9 90 10 17 11 18 12
REMARK SMILES IDX 14 13 10 14 11 15 12 16 94 17 13 18 93 19 91 20 92 21 9 22
REMARK SMILES IDX 4 23 5 24 6 25 8 26 7 27 98 28 96 29 97 30 3 31 2 32 1 33
REMARK SMILES IDX 95 34 25 36 26 37 27 38 28 39 29 41 30 42 31 43 89 44 32 45
REMARK SMILES IDX 88 46 33 47 34 48 35 49 82 50 36 51 87 52 81 53 83 54 37 55
REMARK SMILES IDX 86 56 80 57 79 58 38 60 68 61 49 62 67 63 50 64 53 65 66 66
REMARK SMILES IDX 84 67 51 68 52 69 65 71 85 72 54 73 39 74 40 75 48 76 41 77
REMARK SMILES IDX 47 78 42 79 43 80 44 81 45 82 46 83 69 84 70 85 78 86 71 87
REMARK SMILES IDX 77 88 72 89 73 90 74 91 75 92 76 93 55 94 56 95 64 96 57 97
REMARK SMILES IDX 63 98 58 99 59 100 60 101 61 102 62 103
REMARK H PARENT 22 6 95 35 27 40 83 59 53 70
REMARK Flexibility Score: inf
ROOT
ATOM      1  C   UNL A   1      36.149  34.830  33.387  1.00  0.00     0.023 C 
ENDROOT
BRANCH   1   2
ATOM      2  C   UNL A   1      34.876  34.472  32.637  1.00  0.00     0.116 C 
BRANCH   2   3
ATOM      3  N   UNL A   1      33.765  35.395  32.820  1.00  0.00    -0.352 N 
ATOM      4  C   UNL A   1      32.939  36.019  31.907  1.00  0.00     0.251 C 
ATOM      5  O   UNL A   1      32.055  36.767  32.325  1.00  0.00    -0.269 OA
ATOM      6  H   UNL A   1      33.570  35.612  33.760  1.00  0.00     0.163 HD
BRANCH   4   7
ATOM      7  C   UNL A   1      33.134  35.884  30.436  1.00  0.00     0.041 A 
ATOM      8  C   UNL A   1      33.442  34.466  28.493  1.00  0.00     0.052 A 
ATOM      9  C   UNL A   1      33.947  35.571  27.790  1.00  0.00     0.027 A 
ATOM     10  C   UNL A   1      32.891  34.689  29.759  1.00  0.00     0.040 A 
ATOM     11  C   UNL A   1      34.022  36.828  28.394  1.00  0.00     0.003 A 
ATOM     12  C   UNL A   1      33.661  36.973  29.733  1.00  0.00     0.014 A 
BRANCH   8  13
ATOM     13  N   UNL A   1      33.622  33.111  28.015  1.00  0.00    -0.251 N 
ATOM     14  C   UNL A   1      31.665  30.319  26.658  1.00  0.00     0.031 C 
ATOM     15  C   UNL A   1      32.756  31.051  26.991  1.00  0.00     0.103 C 
ATOM     16  C   UNL A   1      32.542  32.488  27.362  1.00  0.00     0.270 C 
ATOM     17  C   UNL A   1      34.160  30.658  27.014  1.00  0.00     0.226 C 
ATOM     18  O   UNL A   1      31.477  33.040  27.085  1.00  0.00    -0.268 OA
ATOM     19  N   UNL A   1      35.108  31.272  27.607  1.00  0.00    -0.184 NA
ATOM     20  C   UNL A   1      34.802  32.394  28.338  1.00  0.00     0.210 C 
ATOM     21  S   UNL A   1      35.858  32.762  29.623  1.00  0.00    -0.038 S 
BRANCH  14  22
ATOM     22  C   UNL A   1      31.548  28.921  26.168  1.00  0.00     0.021 A 
ATOM     23  C   UNL A   1      31.462  28.652  24.773  1.00  0.00     0.130 A 
ATOM     24  C   UNL A   1      31.620  27.358  24.266  1.00  0.00     0.097 A 
ATOM     25  C   UNL A   1      31.741  26.331  25.166  1.00  0.00     0.169 A 
ATOM     26  C   UNL A   1      31.535  27.825  27.044  1.00  0.00     0.062 A 
ATOM     27  C   UNL A   1      31.670  26.554  26.518  1.00  0.00     0.166 A 
ATOM     28  O   UNL A   1      31.932  25.022  24.859  1.00  0.00    -0.453 OA
ATOM     29  O   UNL A   1      31.802  25.406  27.236  1.00  0.00    -0.454 OA
ATOM     30  C   UNL A   1      32.039  24.453  26.178  1.00  0.00     0.468 C 
BRANCH  23  31
ATOM     31  O   UNL A   1      31.288  29.670  23.864  1.00  0.00    -0.493 OA
BRANCH  31  32
ATOM     32  C   UNL A   1      30.273  29.340  22.893  1.00  0.00     0.226 C 
ATOM     33  C   UNL A   1      28.990  30.137  23.095  1.00  0.00     0.049 C 
ENDBRANCH  31  32
ENDBRANCH  23  31
ENDBRANCH  14  22
BRANCH  17  34
ATOM     34  O   UNL A   1      34.520  29.584  26.316  1.00  0.00    -0.493 OA
ATOM     35  H   UNL A   1      34.013  29.313  25.576  1.00  0.00     0.295 HD
ENDBRANCH  17  34
ENDBRANCH   8  13
ENDBRANCH   4   7
ENDBRANCH   2   3
ENDBRANCH   1   2
BRANCH   1  36
ATOM     36  C   UNL A   1      36.940  33.672  33.975  1.00  0.00     0.023 C 
BRANCH  36  37
ATOM     37  C   UNL A   1      37.539  32.694  32.972  1.00  0.00     0.116 C 
BRANCH  37  38
ATOM     38  N   UNL A   1      36.748  31.487  32.777  1.00  0.00    -0.352 N 
ATOM     39  C   UNL A   1      37.050  30.344  32.071  1.00  0.00     0.251 C 
ATOM     40  H   UNL A   1      35.866  31.489  33.213  1.00  0.00     0.163 HD
ATOM     41  O   UNL A   1      36.204  29.459  31.956  1.00  0.00    -0.269 OA
BRANCH  39  42
ATOM     42  C   UNL A   1      38.372  30.199  31.422  1.00  0.00     0.039 A 
ATOM     43  C   UNL A   1      39.454  29.758  32.186  1.00  0.00     0.014 A 
ATOM     44  C   UNL A   1      38.540  30.468  30.061  1.00  0.00     0.014 A 
ATOM     45  C   UNL A   1      40.682  29.509  31.567  1.00  0.00     0.010 A 
ATOM     46  C   UNL A   1      39.734  30.131  29.431  1.00  0.00     0.010 A 
ATOM     47  C   UNL A   1      40.821  29.649  30.175  1.00  0.00    -0.014 A 
BRANCH  47  48
ATOM     48  C   UNL A   1      42.090  29.288  29.489  1.00  0.00     0.031 A 
ATOM     49  C   UNL A   1      43.185  30.310  29.325  1.00  0.00     0.074 A 
ATOM     50  C   UNL A   1      42.238  28.053  28.968  1.00  0.00     0.049 A 
ATOM     51  N   UNL A   1      44.352  30.181  28.747  1.00  0.00    -0.248 NA
ATOM     52  C   UNL A   1      42.925  31.659  29.854  1.00  0.00     0.031 C 
ATOM     53  C   UNL A   1      41.232  26.989  29.009  1.00  0.00     0.029 A 
ATOM     54  N   UNL A   1      43.293  27.482  28.302  1.00  0.00    -0.354 N 
ATOM     55  C   UNL A   1      44.958  31.429  28.834  1.00  0.00     0.074 A 
ATOM     56  C   UNL A   1      44.007  32.317  29.465  1.00  0.00     0.031 C 
ATOM     57  C   UNL A   1      41.734  25.885  28.433  1.00  0.00     0.029 A 
ATOM     58  C   UNL A   1      43.078  26.171  27.944  1.00  0.00     0.049 A 
ATOM     59  H   UNL A   1      44.128  27.965  28.098  1.00  0.00     0.167 HD
ATOM     60  C   UNL A   1      46.202  31.800  28.446  1.00  0.00     0.031 A 
ATOM     61  C   UNL A   1      43.872  25.295  27.297  1.00  0.00     0.031 A 
ATOM     62  C   UNL A   1      47.150  30.912  27.824  1.00  0.00     0.049 A 
ATOM     63  C   UNL A   1      45.249  25.731  26.873  1.00  0.00     0.074 A 
ATOM     64  C   UNL A   1      48.455  31.176  27.445  1.00  0.00     0.029 A 
ATOM     65  N   UNL A   1      46.894  29.592  27.484  1.00  0.00    -0.354 N 
ATOM     66  N   UNL A   1      45.832  26.895  27.035  1.00  0.00    -0.248 NA
ATOM     67  C   UNL A   1      46.081  24.726  26.197  1.00  0.00     0.031 C 
ATOM     68  C   UNL A   1      48.969  30.033  26.825  1.00  0.00     0.029 A 
ATOM     69  C   UNL A   1      48.008  29.035  26.879  1.00  0.00     0.049 A 
ATOM     70  H   UNL A   1      46.046  29.120  27.650  1.00  0.00     0.167 HD
ATOM     71  C   UNL A   1      47.109  26.755  26.503  1.00  0.00     0.074 A 
ATOM     72  C   UNL A   1      47.219  25.388  26.036  1.00  0.00     0.031 C 
ATOM     73  C   UNL A   1      48.102  27.675  26.411  1.00  0.00     0.031 A 
BRANCH  60  74
ATOM     74  C   UNL A   1      46.608  33.231  28.685  1.00  0.00    -0.014 A 
ATOM     75  C   UNL A   1      47.249  33.617  29.877  1.00  0.00     0.010 A 
ATOM     76  C   UNL A   1      46.383  34.199  27.688  1.00  0.00     0.010 A 
ATOM     77  C   UNL A   1      47.614  34.948  30.088  1.00  0.00     0.020 A 
ATOM     78  C   UNL A   1      46.776  35.527  27.882  1.00  0.00     0.020 A 
ATOM     79  C   UNL A   1      47.374  35.897  29.089  1.00  0.00     0.054 A 
BRANCH  79  80
ATOM     80  S   UNL A   1      47.881  37.613  29.382  1.00  0.00     0.124 S 
ATOM     81  O   UNL A   1      48.415  37.541  30.739  1.00  0.00    -0.237 OA
ATOM     82  O   UNL A   1      48.869  37.838  28.330  1.00  0.00    -0.237 OA
ATOM     83  O   UNL A   1      46.641  38.371  29.242  1.00  0.00    -0.744 OA
ENDBRANCH  79  80
ENDBRANCH  60  74
BRANCH  61  84
ATOM     84  C   UNL A   1      43.393  23.910  27.031  1.00  0.00    -0.014 A 
ATOM     85  C   UNL A   1      42.743  23.596  25.824  1.00  0.00     0.010 A 
ATOM     86  C   UNL A   1      43.591  22.892  27.982  1.00  0.00     0.010 A 
ATOM     87  C   UNL A   1      42.282  22.299  25.581  1.00  0.00     0.020 A 
ATOM     88  C   UNL A   1      43.161  21.587  27.730  1.00  0.00     0.020 A 
ATOM     89  C   UNL A   1      42.497  21.300  26.535  1.00  0.00     0.054 A 
BRANCH  89  90
ATOM     90  S   UNL A   1      41.938  19.613  26.178  1.00  0.00     0.124 S 
ATOM     91  O   UNL A   1      42.733  19.270  25.003  1.00  0.00    -0.237 OA
ATOM     92  O   UNL A   1      42.282  18.899  27.406  1.00  0.00    -0.237 OA
ATOM     93  O   UNL A   1      40.505  19.770  25.940  1.00  0.00    -0.744 OA
ENDBRANCH  89  90
ENDBRANCH  61  84
BRANCH  73  94
ATOM     94  C   UNL A   1      49.409  27.223  25.811  1.00  0.00    -0.014 A 
ATOM     95  C   UNL A   1      49.747  27.524  24.480  1.00  0.00     0.010 A 
ATOM     96  C   UNL A   1      50.326  26.512  26.607  1.00  0.00     0.010 A 
ATOM     97  C   UNL A   1      50.960  27.083  23.943  1.00  0.00     0.020 A 
ATOM     98  C   UNL A   1      51.553  26.097  26.084  1.00  0.00     0.020 A 
ATOM     99  C   UNL A   1      51.853  26.370  24.748  1.00  0.00     0.054 A 
BRANCH  99 100
ATOM    100  S   UNL A   1      53.429  25.825  24.034  1.00  0.00     0.124 S 
ATOM    101  O   UNL A   1      53.169  25.940  22.601  1.00  0.00    -0.237 OA
ATOM    102  O   UNL A   1      54.378  26.793  24.579  1.00  0.00    -0.237 OA
ATOM    103  O   UNL A   1      53.584  24.461  24.532  1.00  0.00    -0.744 OA
ENDBRANCH  99 100
ENDBRANCH  73  94
ENDBRANCH  47  48
ENDBRANCH  39  42
ENDBRANCH  37  38
ENDBRANCH  36  37
ENDBRANCH   1  36
TORSDOF 19
ENDMDL
MODEL 2
REMARK VINA RESULT:     -11.4      5.873     12.623
REMARK SMILES CCOc1cc2c(cc1/C=C1/C(=O)N(c3cccc(C(=O)NCCCCNC(=O)c4ccc(-c5c6nc(c(-c7ccc(S(=O)(=O)[O-])cc7)c7ccc([nH]7)c(-c7ccc(S(=O)(=O)[O-])cc7)c7nc(c(-c8ccc(S(=O)(=O)[O-])cc8)c8ccc5[nH]8)C=C7)C=C6)cc4)c3)C(=S)N=C1O)OCO2
REMARK SMILES IDX 24 1 23 2 22 3 20 4 21 5 19 7 15 8 16 9 90 10 17 11 18 12
REMARK SMILES IDX 14 13 10 14 11 15 12 16 94 17 13 18 93 19 91 20 92 21 9 22
REMARK SMILES IDX 4 23 5 24 6 25 8 26 7 27 98 28 96 29 97 30 3 31 2 32 1 33
REMARK SMILES IDX 95 34 25 36 26 37 27 38 28 39 29 41 30 42 31 43 89 44 32 45
REMARK SMILES IDX 88 46 33 47 34 48 35 49 82 50 36 51 87 52 81 53 83 54 37 55
REMARK SMILES IDX 86 56 80 57 79 58 38 60 68 61 49 62 67 63 50 64 53 65 66 66
REMARK SMILES IDX 84 67 51 68 52 69 65 71 85 72 54 73 39 74 40 75 48 76 41 77
REMARK SMILES IDX 47 78 42 79 43 80 44 81 45 82 46 83 69 84 70 85 78 86 71 87
REMARK SMILES IDX 77 88 72 89 73 90 74 91 75 92 76 93 55 94 56 95 64 96 57 97
REMARK SMILES IDX 63 98 58 99 59 100 60 101 61 102 62 103
REMARK H PARENT 22 6 95 35 27 40 83 59 53 70
REMARK Flexibility Score: inf
ROOT
ATOM      1  C   UNL A   1      37.234  24.182  26.515  1.00  0.00     0.023 C 
ENDROOT
BRANCH   1   2
ATOM      2  C   UNL A   1      36.154  23.115  26.443  1.00  0.00     0.116 C 
BRANCH   2   3
ATOM      3  N   UNL A   1      36.607  21.800  26.013  1.00  0.00    -0.352 N 
ATOM      4  C   UNL A   1      36.016  20.854  25.198  1.00  0.00     0.251 C 
ATOM      5  O   UNL A   1      36.617  19.803  24.982  1.00  0.00    -0.269 OA
ATOM      6  H   UNL A   1      37.488  21.540  26.363  1.00  0.00     0.163 HD
BRANCH   4   7
ATOM      7  C   UNL A   1      34.644  21.028  24.644  1.00  0.00     0.041 A 
ATOM      8  C   UNL A   1      32.987  22.443  23.578  1.00  0.00     0.052 A 
ATOM      9  C   UNL A   1      31.984  21.561  24.011  1.00  0.00     0.027 A 
ATOM     10  C   UNL A   1      34.319  22.064  23.768  1.00  0.00     0.040 A 
ATOM     11  C   UNL A   1      32.307  20.409  24.731  1.00  0.00     0.003 A 
ATOM     12  C   UNL A   1      33.633  20.169  25.090  1.00  0.00     0.014 A 
BRANCH   8  13
ATOM     13  N   UNL A   1      32.678  23.774  23.098  1.00  0.00    -0.251 N 
ATOM     14  C   UNL A   1      30.592  26.666  23.964  1.00  0.00     0.031 C 
ATOM     15  C   UNL A   1      31.557  25.948  23.339  1.00  0.00     0.103 C 
ATOM     16  C   UNL A   1      31.937  24.627  23.938  1.00  0.00     0.270 C 
ATOM     17  C   UNL A   1      32.336  26.283  22.154  1.00  0.00     0.226 C 
ATOM     18  O   UNL A   1      31.604  24.359  25.092  1.00  0.00    -0.268 OA
ATOM     19  N   UNL A   1      33.010  25.471  21.436  1.00  0.00    -0.184 NA
ATOM     20  C   UNL A   1      32.986  24.138  21.763  1.00  0.00     0.210 C 
ATOM     21  S   UNL A   1      33.263  23.047  20.484  1.00  0.00    -0.038 S 
BRANCH  14  22
ATOM     22  C   UNL A   1      30.058  28.024  23.682  1.00  0.00     0.021 A 
ATOM     23  C   UNL A   1      30.544  29.151  24.401  1.00  0.00     0.130 A 
ATOM     24  C   UNL A   1      30.269  30.459  23.986  1.00  0.00     0.097 A 
ATOM     25  C   UNL A   1      29.411  30.624  22.930  1.00  0.00     0.169 A 
ATOM     26  C   UNL A   1      29.082  28.250  22.700  1.00  0.00     0.062 A 
ATOM     27  C   UNL A   1      28.810  29.552  22.322  1.00  0.00     0.166 A 
ATOM     28  O   UNL A   1      29.054  31.811  22.374  1.00  0.00    -0.453 OA
ATOM     29  O   UNL A   1      27.990  29.930  21.305  1.00  0.00    -0.454 OA
ATOM     30  C   UNL A   1      28.208  31.357  21.300  1.00  0.00     0.468 C 
BRANCH  23  31
ATOM     31  O   UNL A   1      31.364  28.996  25.496  1.00  0.00    -0.493 OA
BRANCH  31  32
ATOM     32  C   UNL A   1      32.656  29.597  25.274  1.00  0.00     0.226 C 
ATOM     33  C   UNL A   1      33.716  28.577  24.878  1.00  0.00     0.049 C 
ENDBRANCH  31  32
ENDBRANCH  23  31
ENDBRANCH  14  22
BRANCH  17  34
ATOM     34  O   UNL A   1      32.405  27.562  21.791  1.00  0.00    -0.493 OA
ATOM     35  H   UNL A   1      32.257  27.804  20.898  1.00  0.00     0.295 HD
ENDBRANCH  17  34
ENDBRANCH   8  13
ENDBRANCH   4   7
ENDBRANCH   2   3
ENDBRANCH   1   2
BRANCH   1  36
ATOM     36  C   UNL A   1      38.538  23.879  25.792  1.00  0.00     0.023 C 
BRANCH  36  37
ATOM     37  C   UNL A   1      39.804  23.958  26.635  1.00  0.00     0.116 C 
BRANCH  37  38
ATOM     38  N   UNL A   1      40.972  24.433  25.907  1.00  0.00    -0.352 N 
ATOM     39  C   UNL A   1      41.684  25.602  26.057  1.00  0.00     0.251 C 
ATOM     40  H   UNL A   1      41.300  23.831  25.202  1.00  0.00     0.163 HD
ATOM     41  O   UNL A   1      42.600  25.859  25.279  1.00  0.00    -0.269 OA
BRANCH  39  42
ATOM     42  C   UNL A   1      41.323  26.561  27.125  1.00  0.00     0.039 A 
ATOM     43  C   UNL A   1      40.436  26.155  28.125  1.00  0.00     0.014 A 
ATOM     44  C   UNL A   1      41.874  27.845  27.158  1.00  0.00     0.014 A 
ATOM     45  C   UNL A   1      40.170  27.007  29.200  1.00  0.00     0.010 A 
ATOM     46  C   UNL A   1      41.680  28.653  28.274  1.00  0.00     0.010 A 
ATOM     47  C   UNL A   1      40.825  28.246  29.308  1.00  0.00    -0.014 A 
BRANCH  47  48
ATOM     48  C   UNL A   1      40.630  29.117  30.497  1.00  0.00     0.031 A 
ATOM     49  C   UNL A   1      41.490  28.939  31.721  1.00  0.00     0.074 A 
ATOM     50  C   UNL A   1      39.644  30.038  30.495  1.00  0.00     0.049 A 
ATOM     51  N   UNL A   1      41.458  29.597  32.852  1.00  0.00    -0.248 NA
ATOM     52  C   UNL A   1      42.498  27.867  31.680  1.00  0.00     0.031 C 
ATOM     53  C   UNL A   1      38.706  30.273  29.395  1.00  0.00     0.029 A 
ATOM     54  N   UNL A   1      39.267  30.950  31.449  1.00  0.00    -0.354 N 
ATOM     55  C   UNL A   1      42.429  29.013  33.658  1.00  0.00     0.074 A 
ATOM     56  C   UNL A   1      42.990  27.910  32.909  1.00  0.00     0.031 C 
ATOM     57  C   UNL A   1      37.890  31.289  29.720  1.00  0.00     0.029 A 
ATOM     58  C   UNL A   1      38.217  31.751  31.065  1.00  0.00     0.049 A 
ATOM     59  H   UNL A   1      39.707  31.024  32.328  1.00  0.00     0.167 HD
ATOM     60  C   UNL A   1      42.836  29.374  34.898  1.00  0.00     0.031 A 
ATOM     61  C   UNL A   1      37.587  32.747  31.718  1.00  0.00     0.031 A 
ATOM     62  C   UNL A   1      42.280  30.476  35.640  1.00  0.00     0.049 A 
ATOM     63  C   UNL A   1      38.055  33.129  33.096  1.00  0.00     0.074 A 
ATOM     64  C   UNL A   1      42.661  30.958  36.880  1.00  0.00     0.029 A 
ATOM     65  N   UNL A   1      41.223  31.265  35.212  1.00  0.00    -0.354 N 
ATOM     66  N   UNL A   1      39.028  32.613  33.809  1.00  0.00    -0.248 NA
ATOM     67  C   UNL A   1      37.350  34.240  33.749  1.00  0.00     0.031 C 
ATOM     68  C   UNL A   1      41.798  32.001  37.227  1.00  0.00     0.029 A 
ATOM     69  C   UNL A   1      40.922  32.214  36.174  1.00  0.00     0.049 A 
ATOM     70  H   UNL A   1      40.755  31.165  34.351  1.00  0.00     0.167 HD
ATOM     71  C   UNL A   1      39.069  33.354  34.985  1.00  0.00     0.074 A 
ATOM     72  C   UNL A   1      38.038  34.367  34.876  1.00  0.00     0.031 C 
ATOM     73  C   UNL A   1      39.888  33.212  36.057  1.00  0.00     0.031 A 
BRANCH  60  74
ATOM     74  C   UNL A   1      43.938  28.565  35.533  1.00  0.00    -0.014 A 
ATOM     75  C   UNL A   1      45.291  28.915  35.361  1.00  0.00     0.010 A 
ATOM     76  C   UNL A   1      43.619  27.462  36.346  1.00  0.00     0.010 A 
ATOM     77  C   UNL A   1      46.302  28.153  35.949  1.00  0.00     0.020 A 
ATOM     78  C   UNL A   1      44.627  26.714  36.963  1.00  0.00     0.020 A 
ATOM     79  C   UNL A   1      45.964  27.055  36.746  1.00  0.00     0.054 A 
BRANCH  79  80
ATOM     80  S   UNL A   1      47.298  26.099  37.517  1.00  0.00     0.124 S 
ATOM     81  O   UNL A   1      48.373  26.241  36.539  1.00  0.00    -0.237 OA
ATOM     82  O   UNL A   1      47.504  26.799  38.782  1.00  0.00    -0.237 OA
ATOM     83  O   UNL A   1      46.740  24.754  37.635  1.00  0.00    -0.744 OA
ENDBRANCH  79  80
ENDBRANCH  60  74
BRANCH  61  84
ATOM     84  C   UNL A   1      36.460  33.471  31.065  1.00  0.00    -0.014 A 
ATOM     85  C   UNL A   1      35.310  33.815  31.797  1.00  0.00     0.010 A 
ATOM     86  C   UNL A   1      36.534  33.828  29.706  1.00  0.00     0.010 A 
ATOM     87  C   UNL A   1      34.248  34.483  31.180  1.00  0.00     0.020 A 
ATOM     88  C   UNL A   1      35.488  34.523  29.093  1.00  0.00     0.020 A 
ATOM     89  C   UNL A   1      34.345  34.836  29.831  1.00  0.00     0.054 A 
BRANCH  89  90
ATOM     90  S   UNL A   1      32.977  35.748  29.065  1.00  0.00     0.124 S 
ATOM     91  O   UNL A   1      32.377  34.731  28.207  1.00  0.00    -0.237 OA
ATOM     92  O   UNL A   1      32.181  36.152  30.221  1.00  0.00    -0.237 OA
ATOM     93  O   UNL A   1      33.645  36.843  28.366  1.00  0.00    -0.744 OA
ENDBRANCH  89  90
ENDBRANCH  61  84
BRANCH  73  94
ATOM     94  C   UNL A   1      39.724  34.196  37.187  1.00  0.00    -0.014 A 
ATOM     95  C   UNL A   1      39.028  33.856  38.360  1.00  0.00     0.010 A 
ATOM     96  C   UNL A   1      40.306  35.472  37.082  1.00  0.00     0.010 A 
ATOM     97  C   UNL A   1      38.880  34.790  39.389  1.00  0.00     0.020 A 
ATOM     98  C   UNL A   1      40.188  36.398  38.121  1.00  0.00     0.020 A 
ATOM     99  C   UNL A   1      39.458  36.056  39.261  1.00  0.00     0.054 A 
BRANCH  99 100
ATOM    100  S   UNL A   1      39.268  37.244  40.618  1.00  0.00     0.124 S 
ATOM    101  O   UNL A   1      38.722  36.406  41.682  1.00  0.00    -0.237 OA
ATOM    102  O   UNL A   1      40.636  37.712  40.827  1.00  0.00    -0.237 OA
ATOM    103  O   UNL A   1      38.349  38.244  40.079  1.00  0.00    -0.744 OA
ENDBRANCH  99 100
ENDBRANCH  73  94
ENDBRANCH  47  48
ENDBRANCH  39  42
ENDBRANCH  37  38
ENDBRANCH  36  37
ENDBRANCH   1  36
TORSDOF 19
ENDMDL
MODEL 3
REMARK VINA RESULT:     -11.3      4.224      7.938
REMARK SMILES CCOc1cc2c(cc1/C=C1/C(=O)N(c3cccc(C(=O)NCCCCNC(=O)c4ccc(-c5c6nc(c(-c7ccc(S(=O)(=O)[O-])cc7)c7ccc([nH]7)c(-c7ccc(S(=O)(=O)[O-])cc7)c7nc(c(-c8ccc(S(=O)(=O)[O-])cc8)c8ccc5[nH]8)C=C7)C=C6)cc4)c3)C(=S)N=C1O)OCO2
REMARK SMILES IDX 24 1 23 2 22 3 20 4 21 5 19 7 15 8 16 9 90 10 17 11 18 12
REMARK SMILES IDX 14 13 10 14 11 15 12 16 94 17 13 18 93 19 91 20 92 21 9 22
REMARK SMILES IDX 4 23 5 24 6 25 8 26 7 27 98 28 96 29 97 30 3 31 2 32 1 33
REMARK SMILES IDX 95 34 25 36 26 37 27 38 28 39 29 41 30 42 31 43 89 44 32 45
REMARK SMILES IDX 88 46 33 47 34 48 35 49 82 50 36 51 87 52 81 53 83 54 37 55
REMARK SMILES IDX 86 56 80 57 79 58 38 60 68 61 49 62 67 63 50 64 53 65 66 66
REMARK SMILES IDX 84 67 51 68 52 69 65 71 85 72 54 73 39 74 40 75 48 76 41 77
REMARK SMILES IDX 47 78 42 79 43 80 44 81 45 82 46 83 69 84 70 85 78 86 71 87
REMARK SMILES IDX 77 88 72 89 73 90 74 91 75 92 76 93 55 94 56 95 64 96 57 97
REMARK SMILES IDX 63 98 58 99 59 100 60 101 61 102 62 103
REMARK H PARENT 22 6 95 35 27 40 83 59 53 70
REMARK Flexibility Score: inf
ROOT
ATOM      1  C   UNL A   1      36.016  32.678  30.280  1.00  0.00     0.023 C 
ENDROOT
BRANCH   1   2
ATOM      2  C   UNL A   1      36.378  33.927  31.067  1.00  0.00     0.116 C 
BRANCH   2   3
ATOM      3  N   UNL A   1      37.746  34.395  30.896  1.00  0.00    -0.352 N 
ATOM      4  C   UNL A   1      38.857  34.281  31.709  1.00  0.00     0.251 C 
ATOM      5  O   UNL A   1      39.920  34.769  31.328  1.00  0.00    -0.269 OA
ATOM      6  H   UNL A   1      37.908  34.875  30.053  1.00  0.00     0.163 HD
BRANCH   4   7
ATOM      7  C   UNL A   1      38.790  33.664  33.063  1.00  0.00     0.041 A 
ATOM      8  C   UNL A   1      39.703  32.132  34.707  1.00  0.00     0.052 A 
ATOM      9  C   UNL A   1      38.471  32.148  35.379  1.00  0.00     0.027 A 
ATOM     10  C   UNL A   1      39.885  33.025  33.647  1.00  0.00     0.040 A 
ATOM     11  C   UNL A   1      37.414  32.935  34.915  1.00  0.00     0.003 A 
ATOM     12  C   UNL A   1      37.559  33.654  33.729  1.00  0.00     0.014 A 
BRANCH   8  13
ATOM     13  N   UNL A   1      40.706  31.122  34.977  1.00  0.00    -0.251 N 
ATOM     14  C   UNL A   1      41.401  27.586  34.285  1.00  0.00     0.031 C 
ATOM     15  C   UNL A   1      41.627  28.862  34.684  1.00  0.00     0.103 C 
ATOM     16  C   UNL A   1      40.626  29.904  34.278  1.00  0.00     0.270 C 
ATOM     17  C   UNL A   1      42.744  29.409  35.443  1.00  0.00     0.226 C 
ATOM     18  O   UNL A   1      39.816  29.659  33.383  1.00  0.00    -0.268 OA
ATOM     19  N   UNL A   1      42.773  30.534  36.044  1.00  0.00    -0.184 NA
ATOM     20  C   UNL A   1      41.641  31.312  36.026  1.00  0.00     0.210 C 
ATOM     21  S   UNL A   1      41.449  32.386  37.334  1.00  0.00    -0.038 S 
BRANCH  14  22
ATOM     22  C   UNL A   1      42.227  26.361  34.443  1.00  0.00     0.021 A 
ATOM     23  C   UNL A   1      41.836  25.342  35.356  1.00  0.00     0.130 A 
ATOM     24  C   UNL A   1      42.429  24.075  35.337  1.00  0.00     0.097 A 
ATOM     25  C   UNL A   1      43.488  23.880  34.490  1.00  0.00     0.169 A 
ATOM     26  C   UNL A   1      43.397  26.152  33.697  1.00  0.00     0.062 A 
ATOM     27  C   UNL A   1      43.978  24.898  33.712  1.00  0.00     0.166 A 
ATOM     28  O   UNL A   1      44.163  22.714  34.316  1.00  0.00    -0.453 OA
ATOM     29  O   UNL A   1      45.034  24.501  32.951  1.00  0.00    -0.454 OA
ATOM     30  C   UNL A   1      45.097  23.099  33.288  1.00  0.00     0.468 C 
BRANCH  23  31
ATOM     31  O   UNL A   1      40.808  25.546  36.249  1.00  0.00    -0.493 OA
BRANCH  31  32
ATOM     32  C   UNL A   1      41.300  25.642  37.602  1.00  0.00     0.226 C 
ATOM     33  C   UNL A   1      42.643  26.357  37.686  1.00  0.00     0.049 C 
ENDBRANCH  31  32
ENDBRANCH  23  31
ENDBRANCH  14  22
BRANCH  17  34
ATOM     34  O   UNL A   1      43.872  28.705  35.490  1.00  0.00    -0.493 OA
ATOM     35  H   UNL A   1      43.857  27.782  35.323  1.00  0.00     0.295 HD
ENDBRANCH  17  34
ENDBRANCH   8  13
ENDBRANCH   4   7
ENDBRANCH   2   3
ENDBRANCH   1   2
BRANCH   1  36
ATOM     36  C   UNL A   1      34.586  32.588  29.769  1.00  0.00     0.023 C 
BRANCH  36  37
ATOM     37  C   UNL A   1      34.424  32.365  28.271  1.00  0.00     0.116 C 
BRANCH  37  38
ATOM     38  N   UNL A   1      33.863  31.067  27.922  1.00  0.00    -0.352 N 
ATOM     39  C   UNL A   1      34.475  29.836  27.855  1.00  0.00     0.251 C 
ATOM     40  H   UNL A   1      32.904  31.071  27.701  1.00  0.00     0.163 HD
ATOM     41  O   UNL A   1      33.839  28.862  27.456  1.00  0.00    -0.269 OA
BRANCH  39  42
ATOM     42  C   UNL A   1      35.901  29.693  28.224  1.00  0.00     0.039 A 
ATOM     43  C   UNL A   1      36.225  29.266  29.514  1.00  0.00     0.014 A 
ATOM     44  C   UNL A   1      36.915  29.951  27.298  1.00  0.00     0.014 A 
ATOM     45  C   UNL A   1      37.559  29.019  29.846  1.00  0.00     0.010 A 
ATOM     46  C   UNL A   1      38.231  29.616  27.601  1.00  0.00     0.010 A 
ATOM     47  C   UNL A   1      38.571  29.148  28.879  1.00  0.00    -0.014 A 
BRANCH  47  48
ATOM     48  C   UNL A   1      39.981  28.789  29.188  1.00  0.00     0.031 A 
ATOM     49  C   UNL A   1      40.888  29.781  29.867  1.00  0.00     0.074 A 
ATOM     50  C   UNL A   1      40.460  27.585  28.811  1.00  0.00     0.049 A 
ATOM     51  N   UNL A   1      42.145  29.649  30.206  1.00  0.00    -0.248 NA
ATOM     52  C   UNL A   1      40.318  31.101  30.184  1.00  0.00     0.031 C 
ATOM     53  C   UNL A   1      39.702  26.556  28.096  1.00  0.00     0.029 A 
ATOM     54  N   UNL A   1      41.701  27.023  28.978  1.00  0.00    -0.354 N 
ATOM     55  C   UNL A   1      42.518  30.868  30.763  1.00  0.00     0.074 A 
ATOM     56  C   UNL A   1      41.373  31.745  30.661  1.00  0.00     0.031 C 
ATOM     57  C   UNL A   1      40.479  25.475  27.924  1.00  0.00     0.029 A 
ATOM     58  C   UNL A   1      41.803  25.747  28.476  1.00  0.00     0.049 A 
ATOM     59  H   UNL A   1      42.450  27.489  29.417  1.00  0.00     0.167 HD
ATOM     60  C   UNL A   1      43.697  31.220  31.329  1.00  0.00     0.031 A 
ATOM     61  C   UNL A   1      42.841  24.888  28.461  1.00  0.00     0.031 A 
ATOM     62  C   UNL A   1      44.834  30.343  31.434  1.00  0.00     0.049 A 
ATOM     63  C   UNL A   1      44.141  25.302  29.094  1.00  0.00     0.074 A 
ATOM     64  C   UNL A   1      46.055  30.585  32.040  1.00  0.00     0.029 A 
ATOM     65  N   UNL A   1      44.893  29.057  30.918  1.00  0.00    -0.354 N 
ATOM     66  N   UNL A   1      44.448  26.433  29.684  1.00  0.00    -0.248 NA
ATOM     67  C   UNL A   1      45.230  24.316  29.074  1.00  0.00     0.031 C 
ATOM     68  C   UNL A   1      46.871  29.468  31.841  1.00  0.00     0.029 A 
ATOM     69  C   UNL A   1      46.137  28.503  31.170  1.00  0.00     0.049 A 
ATOM     70  H   UNL A   1      44.159  28.605  30.443  1.00  0.00     0.167 HD
ATOM     71  C   UNL A   1      45.757  26.284  30.130  1.00  0.00     0.074 A 
ATOM     72  C   UNL A   1      46.174  24.947  29.759  1.00  0.00     0.031 C 
ATOM     73  C   UNL A   1      46.542  27.173  30.788  1.00  0.00     0.031 A 
BRANCH  60  74
ATOM     74  C   UNL A   1      43.816  32.618  31.879  1.00  0.00    -0.014 A 
ATOM     75  C   UNL A   1      43.669  32.874  33.255  1.00  0.00     0.010 A 
ATOM     76  C   UNL A   1      44.117  33.687  31.015  1.00  0.00     0.010 A 
ATOM     77  C   UNL A   1      43.775  34.176  33.750  1.00  0.00     0.020 A 
ATOM     78  C   UNL A   1      44.255  34.988  31.511  1.00  0.00     0.020 A 
ATOM     79  C   UNL A   1      44.066  35.226  32.874  1.00  0.00     0.054 A 
BRANCH  79  80
ATOM     80  S   UNL A   1      44.222  36.902  33.550  1.00  0.00     0.124 S 
ATOM     81  O   UNL A   1      45.560  36.867  34.134  1.00  0.00    -0.237 OA
ATOM     82  O   UNL A   1      44.077  37.740  32.363  1.00  0.00    -0.237 OA
ATOM     83  O   UNL A   1      43.126  36.992  34.512  1.00  0.00    -0.744 OA
ENDBRANCH  79  80
ENDBRANCH  60  74
BRANCH  61  84
ATOM     84  C   UNL A   1      42.685  23.540  27.845  1.00  0.00    -0.014 A 
ATOM     85  C   UNL A   1      42.157  22.469  28.589  1.00  0.00     0.010 A 
ATOM     86  C   UNL A   1      43.057  23.321  26.506  1.00  0.00     0.010 A 
ATOM     87  C   UNL A   1      42.023  21.202  28.014  1.00  0.00     0.020 A 
ATOM     88  C   UNL A   1      42.895  22.064  25.917  1.00  0.00     0.020 A 
ATOM     89  C   UNL A   1      42.390  21.008  26.679  1.00  0.00     0.054 A 
BRANCH  89  90
ATOM     90  S   UNL A   1      42.160  19.369  25.938  1.00  0.00     0.124 S 
ATOM     91  O   UNL A   1      42.669  18.487  26.983  1.00  0.00    -0.237 OA
ATOM     92  O   UNL A   1      40.716  19.322  25.718  1.00  0.00    -0.237 OA
ATOM     93  O   UNL A   1      42.964  19.427  24.720  1.00  0.00    -0.744 OA
ENDBRANCH  89  90
ENDBRANCH  61  84
BRANCH  73  94
ATOM     94  C   UNL A   1      47.924  26.716  31.180  1.00  0.00    -0.014 A 
ATOM     95  C   UNL A   1      49.028  26.910  30.332  1.00  0.00     0.010 A 
ATOM     96  C   UNL A   1      48.123  26.111  32.435  1.00  0.00     0.010 A 
ATOM     97  C   UNL A   1      50.298  26.466  30.713  1.00  0.00     0.020 A 
ATOM     98  C   UNL A   1      49.395  25.695  32.833  1.00  0.00     0.020 A 
ATOM     99  C   UNL A   1      50.472  25.859  31.960  1.00  0.00     0.054 A 
BRANCH  99 100
ATOM    100  S   UNL A   1      52.133  25.310  32.439  1.00  0.00     0.124 S 
ATOM    101  O   UNL A   1      52.948  25.807  31.335  1.00  0.00    -0.237 OA
ATOM    102  O   UNL A   1      52.334  25.983  33.721  1.00  0.00    -0.237 OA
ATOM    103  O   UNL A   1      52.009  23.857  32.518  1.00  0.00    -0.744 OA
ENDBRANCH  99 100
ENDBRANCH  73  94
ENDBRANCH  47  48
ENDBRANCH  39  42
ENDBRANCH  37  38
ENDBRANCH  36  37
ENDBRANCH   1  36
TORSDOF 19
ENDMDL
