MODEL 1
REMARK VINA RESULT:     -10.8      0.000      0.000
REMARK SMILES CC(C)[C@@H](C)[N@@H+]1[C@@H](C(=O)NCCCCNC(=O)c2ccc(-c3c4nc(c(-c5ccc(S(=O)(=O)[O-])cc5)c5ccc([nH]5)c(-c5ccc(S(=O)(=O)[O-])cc5)c5nc(c(-c6ccc(S(=O)(=O)[O-])cc6)c6ccc3[nH]6)C=C5)C=C4)cc2)C[C@H]2CCCC[C@H]21
REMARK SMILES IDX 13 1 12 2 11 3 10 4 8 5 9 6 7 8 6 9 84 10 78 12 79 13 83 14
REMARK SMILES IDX 80 15 82 16 81 17 4 18 5 19 2 20 1 21 3 22 14 23 15 24 16 25
REMARK SMILES IDX 17 27 18 28 19 29 77 30 20 31 76 32 21 33 22 34 23 35 70 36
REMARK SMILES IDX 24 37 75 38 69 39 71 40 25 41 74 42 68 43 67 44 26 46 56 47
REMARK SMILES IDX 37 48 55 49 38 50 41 51 54 52 72 53 39 54 40 55 53 57 73 58
REMARK SMILES IDX 42 59 27 60 28 61 36 62 29 63 35 64 30 65 31 66 32 67 33 68
REMARK SMILES IDX 34 69 57 70 58 71 66 72 59 73 65 74 60 75 61 76 62 77 63 78
REMARK SMILES IDX 64 79 43 80 44 81 52 82 45 83 51 84 46 85 47 86 48 87 49 88
REMARK SMILES IDX 50 89
REMARK H PARENT 10 7 6 11 15 26 71 45 41 56
REMARK Flexibility Score: inf
ROOT
ATOM      1  C   UNL A   1      38.479  19.352  25.223  1.00  0.00     0.023 C 
ENDROOT
BRANCH   1   2
ATOM      2  C   UNL A   1      37.251  20.232  24.968  1.00  0.00     0.023 C 
BRANCH   2   3
ATOM      3  C   UNL A   1      37.543  21.731  24.923  1.00  0.00     0.116 C 
BRANCH   3   4
ATOM      4  N   UNL A   1      36.906  22.364  23.788  1.00  0.00    -0.351 N 
ATOM      5  C   UNL A   1      35.735  23.065  23.718  1.00  0.00     0.278 C 
ATOM      6  O   UNL A   1      35.412  23.497  22.607  1.00  0.00    -0.268 OA
ATOM      7  H   UNL A   1      37.391  22.277  22.936  1.00  0.00     0.163 HD
BRANCH   5   8
ATOM      8  C   UNL A   1      34.891  23.307  24.996  1.00  0.00     0.275 C 
ATOM      9  N   UNL A   1      33.464  22.995  24.727  1.00  0.00    -0.320 N 
ATOM     10  C   UNL A   1      32.692  24.249  24.773  1.00  0.00     0.188 C 
ATOM     11  H   UNL A   1      33.393  22.621  23.781  1.00  0.00     0.349 HD
ATOM     12  C   UNL A   1      34.926  24.787  25.417  1.00  0.00     0.085 C 
ATOM     13  C   UNL A   1      33.477  25.132  25.737  1.00  0.00     0.054 C 
ATOM     14  C   UNL A   1      32.582  24.852  23.360  1.00  0.00     0.065 C 
ATOM     15  C   UNL A   1      33.134  26.618  25.672  1.00  0.00     0.010 C 
ATOM     16  C   UNL A   1      32.119  26.307  23.391  1.00  0.00     0.006 C 
ATOM     17  C   UNL A   1      33.043  27.162  24.252  1.00  0.00     0.001 C 
BRANCH   9  18
ATOM     18  C   UNL A   1      32.893  21.830  25.431  1.00  0.00     0.184 C 
ATOM     19  C   UNL A   1      33.873  21.493  26.572  1.00  0.00     0.075 C 
BRANCH  18  20
ATOM     20  C   UNL A   1      32.497  20.566  24.594  1.00  0.00     0.041 C 
ATOM     21  C   UNL A   1      32.237  20.906  23.116  1.00  0.00     0.013 C 
ATOM     22  C   UNL A   1      33.563  19.462  24.608  1.00  0.00     0.013 C 
ENDBRANCH  18  20
ENDBRANCH   9  18
ENDBRANCH   5   8
ENDBRANCH   3   4
ENDBRANCH   2   3
ENDBRANCH   1   2
BRANCH   1  23
ATOM     23  C   UNL A   1      39.622  20.029  25.970  1.00  0.00     0.116 C 
BRANCH  23  24
ATOM     24  N   UNL A   1      40.785  19.170  26.137  1.00  0.00    -0.352 N 
ATOM     25  C   UNL A   1      42.090  19.530  26.380  1.00  0.00     0.251 C 
ATOM     26  H   UNL A   1      40.614  18.203  26.066  1.00  0.00     0.163 HD
ATOM     27  O   UNL A   1      42.973  18.681  26.371  1.00  0.00    -0.269 OA
BRANCH  25  28
ATOM     28  C   UNL A   1      42.420  20.953  26.619  1.00  0.00     0.039 A 
ATOM     29  C   UNL A   1      42.615  21.388  27.932  1.00  0.00     0.014 A 
ATOM     30  C   UNL A   1      42.558  21.843  25.553  1.00  0.00     0.014 A 
ATOM     31  C   UNL A   1      43.012  22.706  28.171  1.00  0.00     0.010 A 
ATOM     32  C   UNL A   1      43.022  23.135  25.787  1.00  0.00     0.010 A 
ATOM     33  C   UNL A   1      43.250  23.580  27.098  1.00  0.00    -0.014 A 
BRANCH  33  34
ATOM     34  C   UNL A   1      43.731  24.968  27.324  1.00  0.00     0.031 A 
ATOM     35  C   UNL A   1      45.173  25.316  27.073  1.00  0.00     0.074 A 
ATOM     36  C   UNL A   1      42.888  25.897  27.814  1.00  0.00     0.049 A 
ATOM     37  N   UNL A   1      45.792  26.453  27.263  1.00  0.00    -0.248 NA
ATOM     38  C   UNL A   1      46.037  24.238  26.567  1.00  0.00     0.031 C 
ATOM     39  C   UNL A   1      41.475  25.676  28.134  1.00  0.00     0.029 A 
ATOM     40  N   UNL A   1      43.098  27.215  28.135  1.00  0.00    -0.354 N 
ATOM     41  C   UNL A   1      47.119  26.222  26.920  1.00  0.00     0.074 A 
ATOM     42  C   UNL A   1      47.225  24.825  26.560  1.00  0.00     0.031 C 
ATOM     43  C   UNL A   1      40.940  26.826  28.575  1.00  0.00     0.029 A 
ATOM     44  C   UNL A   1      41.977  27.854  28.608  1.00  0.00     0.049 A 
ATOM     45  H   UNL A   1      43.970  27.660  28.035  1.00  0.00     0.167 HD
ATOM     46  C   UNL A   1      48.153  27.097  26.885  1.00  0.00     0.031 A 
ATOM     47  C   UNL A   1      41.800  29.124  29.022  1.00  0.00     0.031 A 
ATOM     48  C   UNL A   1      48.044  28.487  27.237  1.00  0.00     0.049 A 
ATOM     49  C   UNL A   1      42.964  30.076  28.986  1.00  0.00     0.074 A 
ATOM     50  C   UNL A   1      49.021  29.468  27.188  1.00  0.00     0.029 A 
ATOM     51  N   UNL A   1      46.889  29.096  27.706  1.00  0.00    -0.354 N 
ATOM     52  N   UNL A   1      44.198  29.855  28.602  1.00  0.00    -0.248 NA
ATOM     53  C   UNL A   1      42.706  31.453  29.429  1.00  0.00     0.031 C 
ATOM     54  C   UNL A   1      48.468  30.658  27.674  1.00  0.00     0.029 A 
ATOM     55  C   UNL A   1      47.133  30.434  27.970  1.00  0.00     0.049 A 
ATOM     56  H   UNL A   1      46.025  28.644  27.833  1.00  0.00     0.167 HD
ATOM     57  C   UNL A   1      44.859  31.072  28.728  1.00  0.00     0.074 A 
ATOM     58  C   UNL A   1      43.883  32.027  29.215  1.00  0.00     0.031 C 
ATOM     59  C   UNL A   1      46.153  31.372  28.458  1.00  0.00     0.031 A 
BRANCH  46  60
ATOM     60  C   UNL A   1      49.495  26.559  26.460  1.00  0.00    -0.014 A 
ATOM     61  C   UNL A   1      50.357  25.941  27.385  1.00  0.00     0.010 A 
ATOM     62  C   UNL A   1      49.900  26.669  25.117  1.00  0.00     0.010 A 
ATOM     63  C   UNL A   1      51.622  25.501  26.991  1.00  0.00     0.020 A 
ATOM     64  C   UNL A   1      51.154  26.200  24.711  1.00  0.00     0.020 A 
ATOM     65  C   UNL A   1      52.017  25.643  25.657  1.00  0.00     0.054 A 
BRANCH  65  66
ATOM     66  S   UNL A   1      53.670  25.073  25.174  1.00  0.00     0.124 S 
ATOM     67  O   UNL A   1      53.510  23.621  25.215  1.00  0.00    -0.237 OA
ATOM     68  O   UNL A   1      53.833  25.649  23.841  1.00  0.00    -0.237 OA
ATOM     69  O   UNL A   1      54.543  25.633  26.202  1.00  0.00    -0.744 OA
ENDBRANCH  65  66
ENDBRANCH  46  60
BRANCH  47  70
ATOM     70  C   UNL A   1      40.455  29.573  29.473  1.00  0.00    -0.014 A 
ATOM     71  C   UNL A   1      40.144  29.612  30.843  1.00  0.00     0.010 A 
ATOM     72  C   UNL A   1      39.491  29.995  28.538  1.00  0.00     0.010 A 
ATOM     73  C   UNL A   1      38.890  30.059  31.272  1.00  0.00     0.020 A 
ATOM     74  C   UNL A   1      38.246  30.466  28.965  1.00  0.00     0.020 A 
ATOM     75  C   UNL A   1      37.951  30.488  30.330  1.00  0.00     0.054 A 
BRANCH  75  76
ATOM     76  S   UNL A   1      36.358  31.130  30.916  1.00  0.00     0.124 S 
ATOM     77  O   UNL A   1      35.547  31.084  29.703  1.00  0.00    -0.237 OA
ATOM     78  O   UNL A   1      35.994  30.172  31.957  1.00  0.00    -0.237 OA
ATOM     79  O   UNL A   1      36.686  32.469  31.400  1.00  0.00    -0.744 OA
ENDBRANCH  75  76
ENDBRANCH  47  70
BRANCH  59  80
ATOM     80  C   UNL A   1      46.587  32.801  28.650  1.00  0.00    -0.014 A 
ATOM     81  C   UNL A   1      47.135  33.243  29.866  1.00  0.00     0.010 A 
ATOM     82  C   UNL A   1      46.495  33.702  27.571  1.00  0.00     0.010 A 
ATOM     83  C   UNL A   1      47.556  34.568  30.011  1.00  0.00     0.020 A 
ATOM     84  C   UNL A   1      46.939  35.019  27.704  1.00  0.00     0.020 A 
ATOM     85  C   UNL A   1      47.454  35.448  28.929  1.00  0.00     0.054 A 
BRANCH  85  86
ATOM     86  S   UNL A   1      48.048  37.150  29.127  1.00  0.00     0.124 S 
ATOM     87  O   UNL A   1      48.758  37.373  27.871  1.00  0.00    -0.237 OA
ATOM     88  O   UNL A   1      46.809  37.906  29.291  1.00  0.00    -0.237 OA
ATOM     89  O   UNL A   1      48.893  37.086  30.318  1.00  0.00    -0.744 OA
ENDBRANCH  85  86
ENDBRANCH  59  80
ENDBRANCH  33  34
ENDBRANCH  25  28
ENDBRANCH  23  24
ENDBRANCH   1  23
TORSDOF 16
ENDMDL
MODEL 2
REMARK VINA RESULT:     -10.7      5.927      8.212
REMARK SMILES CC(C)[C@@H](C)[N@@H+]1[C@@H](C(=O)NCCCCNC(=O)c2ccc(-c3c4nc(c(-c5ccc(S(=O)(=O)[O-])cc5)c5ccc([nH]5)c(-c5ccc(S(=O)(=O)[O-])cc5)c5nc(c(-c6ccc(S(=O)(=O)[O-])cc6)c6ccc3[nH]6)C=C5)C=C4)cc2)C[C@H]2CCCC[C@H]21
REMARK SMILES IDX 13 1 12 2 11 3 10 4 8 5 9 6 7 8 6 9 84 10 78 12 79 13 83 14
REMARK SMILES IDX 80 15 82 16 81 17 4 18 5 19 2 20 1 21 3 22 14 23 15 24 16 25
REMARK SMILES IDX 17 27 18 28 19 29 77 30 20 31 76 32 21 33 22 34 23 35 70 36
REMARK SMILES IDX 24 37 75 38 69 39 71 40 25 41 74 42 68 43 67 44 26 46 56 47
REMARK SMILES IDX 37 48 55 49 38 50 41 51 54 52 72 53 39 54 40 55 53 57 73 58
REMARK SMILES IDX 42 59 27 60 28 61 36 62 29 63 35 64 30 65 31 66 32 67 33 68
REMARK SMILES IDX 34 69 57 70 58 71 66 72 59 73 65 74 60 75 61 76 62 77 63 78
REMARK SMILES IDX 64 79 43 80 44 81 52 82 45 83 51 84 46 85 47 86 48 87 49 88
REMARK SMILES IDX 50 89
REMARK H PARENT 10 7 6 11 15 26 71 45 41 56
REMARK Flexibility Score: inf
ROOT
ATOM      1  C   UNL A   1      39.808  22.242  26.867  1.00  0.00     0.023 C 
ENDROOT
BRANCH   1   2
ATOM      2  C   UNL A   1      38.592  22.802  26.124  1.00  0.00     0.023 C 
BRANCH   2   3
ATOM      3  C   UNL A   1      37.717  21.746  25.450  1.00  0.00     0.116 C 
BRANCH   3   4
ATOM      4  N   UNL A   1      37.206  22.209  24.178  1.00  0.00    -0.351 N 
ATOM      5  C   UNL A   1      36.044  22.867  23.887  1.00  0.00     0.278 C 
ATOM      6  O   UNL A   1      35.844  23.142  22.700  1.00  0.00    -0.268 OA
ATOM      7  H   UNL A   1      37.784  22.022  23.404  1.00  0.00     0.163 HD
BRANCH   5   8
ATOM      8  C   UNL A   1      35.061  23.255  25.021  1.00  0.00     0.275 C 
ATOM      9  N   UNL A   1      33.661  23.044  24.571  1.00  0.00    -0.320 N 
ATOM     10  C   UNL A   1      33.004  24.356  24.446  1.00  0.00     0.188 C 
ATOM     11  H   UNL A   1      33.686  22.618  23.645  1.00  0.00     0.349 HD
ATOM     12  C   UNL A   1      35.169  24.751  25.367  1.00  0.00     0.085 C 
ATOM     13  C   UNL A   1      33.726  25.231  25.464  1.00  0.00     0.054 C 
ATOM     14  C   UNL A   1      33.139  24.878  23.003  1.00  0.00     0.065 C 
ATOM     15  C   UNL A   1      33.528  26.732  25.278  1.00  0.00     0.010 C 
ATOM     16  C   UNL A   1      32.806  26.364  22.896  1.00  0.00     0.006 C 
ATOM     17  C   UNL A   1      33.677  27.193  23.834  1.00  0.00     0.001 C 
BRANCH   9  18
ATOM     18  C   UNL A   1      32.900  21.974  25.246  1.00  0.00     0.184 C 
ATOM     19  C   UNL A   1      33.661  21.659  26.549  1.00  0.00     0.075 C 
BRANCH  18  20
ATOM     20  C   UNL A   1      32.542  20.680  24.437  1.00  0.00     0.041 C 
ATOM     21  C   UNL A   1      32.274  20.979  22.952  1.00  0.00     0.013 C 
ATOM     22  C   UNL A   1      33.642  19.609  24.477  1.00  0.00     0.013 C 
ENDBRANCH  18  20
ENDBRANCH   9  18
ENDBRANCH   5   8
ENDBRANCH   3   4
ENDBRANCH   2   3
ENDBRANCH   1   2
BRANCH   1  23
ATOM     23  C   UNL A   1      40.891  23.262  27.206  1.00  0.00     0.116 C 
BRANCH  23  24
ATOM     24  N   UNL A   1      41.297  24.066  26.063  1.00  0.00    -0.352 N 
ATOM     25  C   UNL A   1      41.486  25.427  25.995  1.00  0.00     0.251 C 
ATOM     26  H   UNL A   1      41.456  23.570  25.228  1.00  0.00     0.163 HD
ATOM     27  O   UNL A   1      41.711  25.962  24.916  1.00  0.00    -0.269 OA
BRANCH  25  28
ATOM     28  C   UNL A   1      41.384  26.237  27.229  1.00  0.00     0.039 A 
ATOM     29  C   UNL A   1      42.358  27.206  27.481  1.00  0.00     0.014 A 
ATOM     30  C   UNL A   1      40.321  26.058  28.116  1.00  0.00     0.014 A 
ATOM     31  C   UNL A   1      42.231  28.040  28.595  1.00  0.00     0.010 A 
ATOM     32  C   UNL A   1      40.158  26.935  29.185  1.00  0.00     0.010 A 
ATOM     33  C   UNL A   1      41.112  27.932  29.437  1.00  0.00    -0.014 A 
BRANCH  33  34
ATOM     34  C   UNL A   1      40.924  28.846  30.593  1.00  0.00     0.031 A 
ATOM     35  C   UNL A   1      41.788  28.703  31.816  1.00  0.00     0.074 A 
ATOM     36  C   UNL A   1      39.936  29.762  30.567  1.00  0.00     0.049 A 
ATOM     37  N   UNL A   1      41.739  29.367  32.943  1.00  0.00    -0.248 NA
ATOM     38  C   UNL A   1      42.824  27.660  31.777  1.00  0.00     0.031 C 
ATOM     39  C   UNL A   1      39.006  29.976  29.456  1.00  0.00     0.029 A 
ATOM     40  N   UNL A   1      39.544  30.682  31.508  1.00  0.00    -0.354 N 
ATOM     41  C   UNL A   1      42.722  28.811  33.752  1.00  0.00     0.074 A 
ATOM     42  C   UNL A   1      43.315  27.722  33.007  1.00  0.00     0.031 C 
ATOM     43  C   UNL A   1      38.174  30.984  29.767  1.00  0.00     0.029 A 
ATOM     44  C   UNL A   1      38.483  31.460  31.112  1.00  0.00     0.049 A 
ATOM     45  H   UNL A   1      39.984  30.775  32.385  1.00  0.00     0.167 HD
ATOM     46  C   UNL A   1      43.113  29.184  34.994  1.00  0.00     0.031 A 
ATOM     47  C   UNL A   1      37.830  32.447  31.757  1.00  0.00     0.031 A 
ATOM     48  C   UNL A   1      42.526  30.271  35.730  1.00  0.00     0.049 A 
ATOM     49  C   UNL A   1      38.273  32.838  33.141  1.00  0.00     0.074 A 
ATOM     50  C   UNL A   1      42.884  30.761  36.976  1.00  0.00     0.029 A 
ATOM     51  N   UNL A   1      41.457  31.038  35.292  1.00  0.00    -0.354 N 
ATOM     52  N   UNL A   1      39.244  32.339  33.866  1.00  0.00    -0.248 NA
ATOM     53  C   UNL A   1      37.538  33.934  33.785  1.00  0.00     0.031 C 
ATOM     54  C   UNL A   1      41.999  31.792  37.309  1.00  0.00     0.029 A 
ATOM     55  C   UNL A   1      41.128  31.983  36.248  1.00  0.00     0.049 A 
ATOM     56  H   UNL A   1      41.000  30.926  34.427  1.00  0.00     0.167 HD
ATOM     57  C   UNL A   1      39.258  33.081  35.043  1.00  0.00     0.074 A 
ATOM     58  C   UNL A   1      38.203  34.068  34.926  1.00  0.00     0.031 C 
ATOM     59  C   UNL A   1      40.073  32.958  36.119  1.00  0.00     0.031 A 
BRANCH  46  60
ATOM     60  C   UNL A   1      44.225  28.391  35.633  1.00  0.00    -0.014 A 
ATOM     61  C   UNL A   1      43.950  27.261  36.425  1.00  0.00     0.010 A 
ATOM     62  C   UNL A   1      45.563  28.778  35.436  1.00  0.00     0.010 A 
ATOM     63  C   UNL A   1      44.986  26.571  37.059  1.00  0.00     0.020 A 
ATOM     64  C   UNL A   1      46.605  28.071  36.044  1.00  0.00     0.020 A 
ATOM     65  C   UNL A   1      46.307  26.988  36.872  1.00  0.00     0.054 A 
BRANCH  65  66
ATOM     66  S   UNL A   1      47.632  26.082  37.717  1.00  0.00     0.124 S 
ATOM     67  O   UNL A   1      47.427  26.479  39.108  1.00  0.00    -0.237 OA
ATOM     68  O   UNL A   1      47.318  24.689  37.409  1.00  0.00    -0.237 OA
ATOM     69  O   UNL A   1      48.852  26.593  37.097  1.00  0.00    -0.744 OA
ENDBRANCH  65  66
ENDBRANCH  46  60
BRANCH  47  70
ATOM     70  C   UNL A   1      36.710  33.155  31.081  1.00  0.00    -0.014 A 
ATOM     71  C   UNL A   1      36.944  33.892  29.907  1.00  0.00     0.010 A 
ATOM     72  C   UNL A   1      35.400  33.071  31.587  1.00  0.00     0.010 A 
ATOM     73  C   UNL A   1      35.890  34.538  29.254  1.00  0.00     0.020 A 
ATOM     74  C   UNL A   1      34.339  33.694  30.922  1.00  0.00     0.020 A 
ATOM     75  C   UNL A   1      34.593  34.430  29.763  1.00  0.00     0.054 A 
BRANCH  75  76
ATOM     76  S   UNL A   1      33.231  35.217  28.858  1.00  0.00     0.124 S 
ATOM     77  O   UNL A   1      32.405  35.735  29.943  1.00  0.00    -0.237 OA
ATOM     78  O   UNL A   1      33.925  36.222  28.055  1.00  0.00    -0.237 OA
ATOM     79  O   UNL A   1      32.647  34.116  28.094  1.00  0.00    -0.744 OA
ENDBRANCH  75  76
ENDBRANCH  47  70
BRANCH  59  80
ATOM     80  C   UNL A   1      39.884  33.937  37.247  1.00  0.00    -0.014 A 
ATOM     81  C   UNL A   1      40.452  35.222  37.204  1.00  0.00     0.010 A 
ATOM     82  C   UNL A   1      39.075  33.581  38.344  1.00  0.00     0.010 A 
ATOM     83  C   UNL A   1      40.241  36.124  38.251  1.00  0.00     0.020 A 
ATOM     84  C   UNL A   1      38.840  34.489  39.379  1.00  0.00     0.020 A 
ATOM     85  C   UNL A   1      39.436  35.751  39.332  1.00  0.00     0.054 A 
BRANCH  85  86
ATOM     86  S   UNL A   1      39.139  36.953  40.657  1.00  0.00     0.124 S 
ATOM     87  O   UNL A   1      40.495  37.386  40.985  1.00  0.00    -0.237 OA
ATOM     88  O   UNL A   1      38.302  37.955  40.000  1.00  0.00    -0.237 OA
ATOM     89  O   UNL A   1      38.467  36.171  41.691  1.00  0.00    -0.744 OA
ENDBRANCH  85  86
ENDBRANCH  59  80
ENDBRANCH  33  34
ENDBRANCH  25  28
ENDBRANCH  23  24
ENDBRANCH   1  23
TORSDOF 16
ENDMDL
MODEL 3
REMARK VINA RESULT:     -10.7      3.751      5.578
REMARK SMILES CC(C)[C@@H](C)[N@@H+]1[C@@H](C(=O)NCCCCNC(=O)c2ccc(-c3c4nc(c(-c5ccc(S(=O)(=O)[O-])cc5)c5ccc([nH]5)c(-c5ccc(S(=O)(=O)[O-])cc5)c5nc(c(-c6ccc(S(=O)(=O)[O-])cc6)c6ccc3[nH]6)C=C5)C=C4)cc2)C[C@H]2CCCC[C@H]21
REMARK SMILES IDX 13 1 12 2 11 3 10 4 8 5 9 6 7 8 6 9 84 10 78 12 79 13 83 14
REMARK SMILES IDX 80 15 82 16 81 17 4 18 5 19 2 20 1 21 3 22 14 23 15 24 16 25
REMARK SMILES IDX 17 27 18 28 19 29 77 30 20 31 76 32 21 33 22 34 23 35 70 36
REMARK SMILES IDX 24 37 75 38 69 39 71 40 25 41 74 42 68 43 67 44 26 46 56 47
REMARK SMILES IDX 37 48 55 49 38 50 41 51 54 52 72 53 39 54 40 55 53 57 73 58
REMARK SMILES IDX 42 59 27 60 28 61 36 62 29 63 35 64 30 65 31 66 32 67 33 68
REMARK SMILES IDX 34 69 57 70 58 71 66 72 59 73 65 74 60 75 61 76 62 77 63 78
REMARK SMILES IDX 64 79 43 80 44 81 52 82 45 83 51 84 46 85 47 86 48 87 49 88
REMARK SMILES IDX 50 89
REMARK H PARENT 10 7 6 11 15 26 71 45 41 56
REMARK Flexibility Score: inf
ROOT
ATOM      1  C   UNL A   1      35.548  24.086  24.342  1.00  0.00     0.023 C 
ENDROOT
BRANCH   1   2
ATOM      2  C   UNL A   1      34.376  23.100  24.317  1.00  0.00     0.023 C 
BRANCH   2   3
ATOM      3  C   UNL A   1      33.061  23.689  23.808  1.00  0.00     0.116 C 
BRANCH   3   4
ATOM      4  N   UNL A   1      33.277  24.909  23.061  1.00  0.00    -0.351 N 
ATOM      5  C   UNL A   1      32.696  26.138  23.202  1.00  0.00     0.278 C 
ATOM      6  O   UNL A   1      33.060  27.017  22.415  1.00  0.00    -0.268 OA
ATOM      7  H   UNL A   1      33.946  24.844  22.342  1.00  0.00     0.163 HD
BRANCH   5   8
ATOM      8  C   UNL A   1      31.653  26.386  24.321  1.00  0.00     0.275 C 
ATOM      9  N   UNL A   1      31.082  27.751  24.188  1.00  0.00    -0.320 N 
ATOM     10  C   UNL A   1      31.531  28.561  25.333  1.00  0.00     0.188 C 
ATOM     11  H   UNL A   1      31.460  28.172  23.341  1.00  0.00     0.349 HD
ATOM     12  C   UNL A   1      32.305  26.337  25.714  1.00  0.00     0.085 C 
ATOM     13  C   UNL A   1      31.737  27.544  26.450  1.00  0.00     0.054 C 
ATOM     14  C   UNL A   1      32.820  29.321  24.967  1.00  0.00     0.065 C 
ATOM     15  C   UNL A   1      32.574  28.040  27.626  1.00  0.00     0.010 C 
ATOM     16  C   UNL A   1      33.526  29.882  26.200  1.00  0.00     0.006 C 
ATOM     17  C   UNL A   1      33.838  28.779  27.206  1.00  0.00     0.001 C 
BRANCH   9  18
ATOM     18  C   UNL A   1      29.655  27.842  23.820  1.00  0.00     0.184 C 
ATOM     19  C   UNL A   1      29.104  26.404  23.869  1.00  0.00     0.075 C 
BRANCH  18  20
ATOM     20  C   UNL A   1      29.267  28.585  22.496  1.00  0.00     0.041 C 
ATOM     21  C   UNL A   1      27.925  29.326  22.617  1.00  0.00     0.013 C 
ATOM     22  C   UNL A   1      30.303  29.626  22.050  1.00  0.00     0.013 C 
ENDBRANCH  18  20
ENDBRANCH   9  18
ENDBRANCH   5   8
ENDBRANCH   3   4
ENDBRANCH   2   3
ENDBRANCH   1   2
BRANCH   1  23
ATOM     23  C   UNL A   1      36.378  24.080  25.622  1.00  0.00     0.116 C 
BRANCH  23  24
ATOM     24  N   UNL A   1      37.272  22.936  25.718  1.00  0.00    -0.352 N 
ATOM     25  C   UNL A   1      38.557  22.890  26.208  1.00  0.00     0.251 C 
ATOM     26  H   UNL A   1      36.909  22.083  25.388  1.00  0.00     0.163 HD
ATOM     27  O   UNL A   1      39.218  21.864  26.102  1.00  0.00    -0.269 OA
BRANCH  25  28
ATOM     28  C   UNL A   1      39.140  24.097  26.833  1.00  0.00     0.039 A 
ATOM     29  C   UNL A   1      39.912  24.957  26.048  1.00  0.00     0.014 A 
ATOM     30  C   UNL A   1      38.905  24.391  28.178  1.00  0.00     0.014 A 
ATOM     31  C   UNL A   1      40.397  26.146  26.598  1.00  0.00     0.010 A 
ATOM     32  C   UNL A   1      39.329  25.608  28.704  1.00  0.00     0.010 A 
ATOM     33  C   UNL A   1      40.082  26.496  27.921  1.00  0.00    -0.014 A 
BRANCH  33  34
ATOM     34  C   UNL A   1      40.535  27.782  28.509  1.00  0.00     0.031 A 
ATOM     35  C   UNL A   1      41.947  27.926  29.010  1.00  0.00     0.074 A 
ATOM     36  C   UNL A   1      39.662  28.798  28.652  1.00  0.00     0.049 A 
ATOM     37  N   UNL A   1      42.512  28.947  29.603  1.00  0.00    -0.248 NA
ATOM     38  C   UNL A   1      42.830  26.762  28.846  1.00  0.00     0.031 C 
ATOM     39  C   UNL A   1      38.256  28.772  28.241  1.00  0.00     0.029 A 
ATOM     40  N   UNL A   1      39.827  30.052  29.187  1.00  0.00    -0.354 N 
ATOM     41  C   UNL A   1      43.807  28.542  29.899  1.00  0.00     0.074 A 
ATOM     42  C   UNL A   1      43.928  27.166  29.469  1.00  0.00     0.031 C 
ATOM     43  C   UNL A   1      37.697  29.963  28.511  1.00  0.00     0.029 A 
ATOM     44  C   UNL A   1      38.690  30.822  29.149  1.00  0.00     0.049 A 
ATOM     45  H   UNL A   1      40.680  30.367  29.563  1.00  0.00     0.167 HD
ATOM     46  C   UNL A   1      44.814  29.255  30.459  1.00  0.00     0.031 A 
ATOM     47  C   UNL A   1      38.468  32.080  29.580  1.00  0.00     0.031 A 
ATOM     48  C   UNL A   1      44.694  30.624  30.881  1.00  0.00     0.049 A 
ATOM     49  C   UNL A   1      39.597  32.850  30.209  1.00  0.00     0.074 A 
ATOM     50  C   UNL A   1      45.669  31.451  31.415  1.00  0.00     0.029 A 
ATOM     51  N   UNL A   1      43.527  31.371  30.820  1.00  0.00    -0.354 N 
ATOM     52  N   UNL A   1      40.833  32.470  30.427  1.00  0.00    -0.248 NA
ATOM     53  C   UNL A   1      39.302  34.224  30.638  1.00  0.00     0.031 C 
ATOM     54  C   UNL A   1      45.078  32.681  31.720  1.00  0.00     0.029 A 
ATOM     55  C   UNL A   1      43.750  32.641  31.325  1.00  0.00     0.049 A 
ATOM     56  H   UNL A   1      42.667  31.045  30.470  1.00  0.00     0.167 HD
ATOM     57  C   UNL A   1      41.473  33.567  30.993  1.00  0.00     0.074 A 
ATOM     58  C   UNL A   1      40.489  34.628  31.073  1.00  0.00     0.031 C 
ATOM     59  C   UNL A   1      42.759  33.686  31.402  1.00  0.00     0.031 A 
BRANCH  46  60
ATOM     60  C   UNL A   1      46.131  28.548  30.656  1.00  0.00    -0.014 A 
ATOM     61  C   UNL A   1      47.114  28.547  29.648  1.00  0.00     0.010 A 
ATOM     62  C   UNL A   1      46.393  27.878  31.865  1.00  0.00     0.010 A 
ATOM     63  C   UNL A   1      48.305  27.838  29.820  1.00  0.00     0.020 A 
ATOM     64  C   UNL A   1      47.597  27.192  32.053  1.00  0.00     0.020 A 
ATOM     65  C   UNL A   1      48.534  27.156  31.018  1.00  0.00     0.054 A 
BRANCH  65  66
ATOM     66  S   UNL A   1      50.084  26.233  31.211  1.00  0.00     0.124 S 
ATOM     67  O   UNL A   1      51.083  27.283  31.025  1.00  0.00    -0.237 OA
ATOM     68  O   UNL A   1      49.977  25.702  32.567  1.00  0.00    -0.237 OA
ATOM     69  O   UNL A   1      50.027  25.234  30.147  1.00  0.00    -0.744 OA
ENDBRANCH  65  66
ENDBRANCH  46  60
BRANCH  47  70
ATOM     70  C   UNL A   1      37.128  32.698  29.394  1.00  0.00    -0.014 A 
ATOM     71  C   UNL A   1      36.215  32.746  30.463  1.00  0.00     0.010 A 
ATOM     72  C   UNL A   1      36.768  33.271  28.160  1.00  0.00     0.010 A 
ATOM     73  C   UNL A   1      34.965  33.350  30.300  1.00  0.00     0.020 A 
ATOM     74  C   UNL A   1      35.528  33.897  28.001  1.00  0.00     0.020 A 
ATOM     75  C   UNL A   1      34.631  33.926  29.071  1.00  0.00     0.054 A 
BRANCH  75  76
ATOM     76  S   UNL A   1      33.031  34.767  28.907  1.00  0.00     0.124 S 
ATOM     77  O   UNL A   1      32.544  34.763  30.282  1.00  0.00    -0.237 OA
ATOM     78  O   UNL A   1      33.414  36.073  28.374  1.00  0.00    -0.237 OA
ATOM     79  O   UNL A   1      32.292  33.916  27.976  1.00  0.00    -0.744 OA
ENDBRANCH  75  76
ENDBRANCH  47  70
BRANCH  59  80
ATOM     80  C   UNL A   1      43.193  35.023  31.943  1.00  0.00    -0.014 A 
ATOM     81  C   UNL A   1      43.783  35.992  31.114  1.00  0.00     0.010 A 
ATOM     82  C   UNL A   1      42.955  35.331  33.297  1.00  0.00     0.010 A 
ATOM     83  C   UNL A   1      44.154  37.236  31.635  1.00  0.00     0.020 A 
ATOM     84  C   UNL A   1      43.299  36.582  33.813  1.00  0.00     0.020 A 
ATOM     85  C   UNL A   1      43.910  37.522  32.981  1.00  0.00     0.054 A 
BRANCH  85  86
ATOM     86  S   UNL A   1      44.358  39.158  33.622  1.00  0.00     0.124 S 
ATOM     87  O   UNL A   1      43.088  39.629  34.168  1.00  0.00    -0.237 OA
ATOM     88  O   UNL A   1      45.389  38.845  34.610  1.00  0.00    -0.237 OA
ATOM     89  O   UNL A   1      44.834  39.875  32.442  1.00  0.00    -0.744 OA
ENDBRANCH  85  86
ENDBRANCH  59  80
ENDBRANCH  33  34
ENDBRANCH  25  28
ENDBRANCH  23  24
ENDBRANCH   1  23
TORSDOF 16
ENDMDL
