MODEL 1
REMARK VINA RESULT:     -11.4      0.000      0.000
REMARK SMILES CC1C[NH+]([C@H]2COC[C@@H]2C(=O)NCCCCNC(=O)c2ccc(-c3c4nc(c(-c5ccc(S(=O)(=O)[O-])cc5)c5ccc([nH]5)c(-c5ccc(S(=O)(=O)[O-])cc5)c5nc(c(-c6ccc(S(=O)(=O)[O-])cc6)c6ccc3[nH]6)C=C5)C=C4)cc2)C1
REMARK SMILES IDX 15 1 14 2 13 3 12 4 10 5 11 6 9 8 5 9 6 10 7 11 8 12 4 13
REMARK SMILES IDX 1 14 2 15 3 16 80 17 16 19 17 20 18 21 19 23 20 24 21 25
REMARK SMILES IDX 79 26 22 27 78 28 23 29 24 30 25 31 72 32 26 33 77 34 71 35
REMARK SMILES IDX 73 36 27 37 76 38 70 39 69 40 28 42 58 43 39 44 57 45 40 46
REMARK SMILES IDX 43 47 56 48 74 49 41 50 42 51 55 53 75 54 44 55 29 56 30 57
REMARK SMILES IDX 38 58 31 59 37 60 32 61 33 62 34 63 35 64 36 65 59 66 60 67
REMARK SMILES IDX 68 68 61 69 67 70 62 71 63 72 64 73 65 74 66 75 45 76 46 77
REMARK SMILES IDX 54 78 47 79 53 80 48 81 49 82 50 83 51 84 52 85
REMARK H PARENT 12 7 4 18 17 22 73 41 43 52
REMARK Flexibility Score: inf
ROOT
ATOM      1  C   UNL A   1      41.044  22.276  27.985  1.00  0.00     0.023 C 
ENDROOT
BRANCH   1   2
ATOM      2  C   UNL A   1      42.154  21.878  27.013  1.00  0.00     0.023 C 
BRANCH   2   3
ATOM      3  C   UNL A   1      41.706  20.995  25.843  1.00  0.00     0.116 C 
BRANCH   3   4
ATOM      4  N   UNL A   1      42.109  19.621  26.061  1.00  0.00    -0.356 N 
ATOM      5  C   UNL A   1      43.295  18.987  25.856  1.00  0.00     0.231 C 
ATOM      6  O   UNL A   1      43.293  17.771  26.071  1.00  0.00    -0.274 OA
ATOM      7  H   UNL A   1      41.397  19.043  26.423  1.00  0.00     0.163 HD
BRANCH   5   8
ATOM      8  C   UNL A   1      44.587  19.744  25.527  1.00  0.00     0.164 C 
ATOM      9  C   UNL A   1      44.698  20.365  24.139  1.00  0.00     0.225 C 
ATOM     10  C   UNL A   1      45.147  19.163  23.309  1.00  0.00     0.226 C 
ATOM     11  O   UNL A   1      46.024  18.398  24.141  1.00  0.00    -0.374 OA
ATOM     12  C   UNL A   1      45.771  18.774  25.512  1.00  0.00     0.180 C 
BRANCH   9  13
ATOM     13  N   UNL A   1      45.531  21.588  24.198  1.00  0.00    -0.329 N 
ATOM     14  C   UNL A   1      44.660  24.542  25.715  1.00  0.00     0.020 C 
ATOM     15  C   UNL A   1      45.519  23.546  24.965  1.00  0.00     0.096 C 
ATOM     16  C   UNL A   1      45.589  22.129  25.576  1.00  0.00     0.271 C 
ATOM     17  C   UNL A   1      44.879  22.839  23.746  1.00  0.00     0.271 C 
ATOM     18  H   UNL A   1      46.356  21.260  23.697  1.00  0.00     0.348 HD
ENDBRANCH   9  13
ENDBRANCH   5   8
ENDBRANCH   3   4
ENDBRANCH   2   3
ENDBRANCH   1   2
BRANCH   1  19
ATOM     19  C   UNL A   1      40.086  23.334  27.459  1.00  0.00     0.116 C 
BRANCH  19  20
ATOM     20  N   UNL A   1      40.604  24.051  26.305  1.00  0.00    -0.352 N 
ATOM     21  C   UNL A   1      40.967  25.374  26.214  1.00  0.00     0.251 C 
ATOM     22  H   UNL A   1      40.708  23.520  25.482  1.00  0.00     0.163 HD
ATOM     23  O   UNL A   1      41.285  25.856  25.138  1.00  0.00    -0.269 OA
BRANCH  21  24
ATOM     24  C   UNL A   1      40.922  26.212  27.433  1.00  0.00     0.039 A 
ATOM     25  C   UNL A   1      41.926  27.159  27.634  1.00  0.00     0.014 A 
ATOM     26  C   UNL A   1      39.868  26.089  28.343  1.00  0.00     0.014 A 
ATOM     27  C   UNL A   1      41.838  28.034  28.718  1.00  0.00     0.010 A 
ATOM     28  C   UNL A   1      39.744  27.006  29.379  1.00  0.00     0.010 A 
ATOM     29  C   UNL A   1      40.729  27.986  29.578  1.00  0.00    -0.014 A 
BRANCH  29  30
ATOM     30  C   UNL A   1      40.579  28.946  30.699  1.00  0.00     0.031 A 
ATOM     31  C   UNL A   1      41.444  28.809  31.921  1.00  0.00     0.074 A 
ATOM     32  C   UNL A   1      39.619  29.889  30.646  1.00  0.00     0.049 A 
ATOM     33  N   UNL A   1      41.414  29.499  33.032  1.00  0.00    -0.248 NA
ATOM     34  C   UNL A   1      42.455  27.740  31.903  1.00  0.00     0.031 C 
ATOM     35  C   UNL A   1      38.686  30.091  29.534  1.00  0.00     0.029 A 
ATOM     36  N   UNL A   1      39.261  30.850  31.557  1.00  0.00    -0.354 N 
ATOM     37  C   UNL A   1      42.384  28.934  33.852  1.00  0.00     0.074 A 
ATOM     38  C   UNL A   1      42.952  27.817  33.129  1.00  0.00     0.031 C 
ATOM     39  C   UNL A   1      37.879  31.126  29.820  1.00  0.00     0.029 A 
ATOM     40  C   UNL A   1      38.212  31.638  31.145  1.00  0.00     0.049 A 
ATOM     41  H   UNL A   1      39.712  30.965  32.424  1.00  0.00     0.167 HD
ATOM     42  C   UNL A   1      42.779  29.320  35.087  1.00  0.00     0.031 A 
ATOM     43  C   UNL A   1      37.586  32.655  31.767  1.00  0.00     0.031 A 
ATOM     44  C   UNL A   1      42.225  30.443  35.794  1.00  0.00     0.049 A 
ATOM     45  C   UNL A   1      38.052  33.076  33.134  1.00  0.00     0.074 A 
ATOM     46  C   UNL A   1      42.597  30.953  37.025  1.00  0.00     0.029 A 
ATOM     47  N   UNL A   1      41.184  31.232  35.331  1.00  0.00    -0.354 N 
ATOM     48  N   UNL A   1      39.013  32.569  33.868  1.00  0.00    -0.248 NA
ATOM     49  C   UNL A   1      37.357  34.215  33.749  1.00  0.00     0.031 C 
ATOM     50  C   UNL A   1      41.754  32.030  37.324  1.00  0.00     0.029 A 
ATOM     51  C   UNL A   1      40.889  32.217  36.258  1.00  0.00     0.049 A 
ATOM     52  H   UNL A   1      40.722  31.111  34.470  1.00  0.00     0.167 HD
ATOM     53  C   UNL A   1      39.054  33.341  35.022  1.00  0.00     0.074 A 
ATOM     54  C   UNL A   1      38.031  34.357  34.884  1.00  0.00     0.031 C 
ATOM     55  C   UNL A   1      39.867  33.221  36.100  1.00  0.00     0.031 A 
BRANCH  42  56
ATOM     56  C   UNL A   1      43.864  28.515  35.749  1.00  0.00    -0.014 A 
ATOM     57  C   UNL A   1      43.558  27.366  36.500  1.00  0.00     0.010 A 
ATOM     58  C   UNL A   1      45.209  28.899  35.602  1.00  0.00     0.010 A 
ATOM     59  C   UNL A   1      44.572  26.642  37.132  1.00  0.00     0.020 A 
ATOM     60  C   UNL A   1      46.230  28.162  36.210  1.00  0.00     0.020 A 
ATOM     61  C   UNL A   1      45.902  27.049  36.988  1.00  0.00     0.054 A 
BRANCH  61  62
ATOM     62  S   UNL A   1      47.201  26.085  37.809  1.00  0.00     0.124 S 
ATOM     63  O   UNL A   1      46.615  25.855  39.127  1.00  0.00    -0.237 OA
ATOM     64  O   UNL A   1      47.312  24.904  36.956  1.00  0.00    -0.237 OA
ATOM     65  O   UNL A   1      48.358  26.975  37.787  1.00  0.00    -0.744 OA
ENDBRANCH  61  62
ENDBRANCH  42  56
BRANCH  43  66
ATOM     66  C   UNL A   1      36.465  33.362  31.091  1.00  0.00    -0.014 A 
ATOM     67  C   UNL A   1      35.256  33.590  31.772  1.00  0.00     0.010 A 
ATOM     68  C   UNL A   1      36.606  33.828  29.771  1.00  0.00     0.010 A 
ATOM     69  C   UNL A   1      34.202  34.255  31.140  1.00  0.00     0.020 A 
ATOM     70  C   UNL A   1      35.563  34.514  29.144  1.00  0.00     0.020 A 
ATOM     71  C   UNL A   1      34.362  34.714  29.829  1.00  0.00     0.054 A 
BRANCH  71  72
ATOM     72  S   UNL A   1      33.001  35.624  29.047  1.00  0.00     0.124 S 
ATOM     73  O   UNL A   1      33.709  36.704  28.367  1.00  0.00    -0.237 OA
ATOM     74  O   UNL A   1      32.401  34.613  28.179  1.00  0.00    -0.237 OA
ATOM     75  O   UNL A   1      32.171  36.032  30.179  1.00  0.00    -0.744 OA
ENDBRANCH  71  72
ENDBRANCH  43  66
BRANCH  55  76
ATOM     76  C   UNL A   1      39.705  34.231  37.204  1.00  0.00    -0.014 A 
ATOM     77  C   UNL A   1      39.009  33.913  38.382  1.00  0.00     0.010 A 
ATOM     78  C   UNL A   1      40.310  35.495  37.079  1.00  0.00     0.010 A 
ATOM     79  C   UNL A   1      38.896  34.855  39.408  1.00  0.00     0.020 A 
ATOM     80  C   UNL A   1      40.219  36.431  38.113  1.00  0.00     0.020 A 
ATOM     81  C   UNL A   1      39.501  36.108  39.266  1.00  0.00     0.054 A 
BRANCH  81  82
ATOM     82  S   UNL A   1      39.383  37.297  40.631  1.00  0.00     0.124 S 
ATOM     83  O   UNL A   1      40.762  37.766  40.743  1.00  0.00    -0.237 OA
ATOM     84  O   UNL A   1      38.425  38.276  40.125  1.00  0.00    -0.237 OA
ATOM     85  O   UNL A   1      38.907  36.490  41.753  1.00  0.00    -0.744 OA
ENDBRANCH  81  82
ENDBRANCH  55  76
ENDBRANCH  29  30
ENDBRANCH  21  24
ENDBRANCH  19  20
ENDBRANCH   1  19
TORSDOF 15
ENDMDL
MODEL 2
REMARK VINA RESULT:     -11.2      5.972     12.004
REMARK SMILES CC1C[NH+]([C@H]2COC[C@@H]2C(=O)NCCCCNC(=O)c2ccc(-c3c4nc(c(-c5ccc(S(=O)(=O)[O-])cc5)c5ccc([nH]5)c(-c5ccc(S(=O)(=O)[O-])cc5)c5nc(c(-c6ccc(S(=O)(=O)[O-])cc6)c6ccc3[nH]6)C=C5)C=C4)cc2)C1
REMARK SMILES IDX 15 1 14 2 13 3 12 4 10 5 11 6 9 8 5 9 6 10 7 11 8 12 4 13
REMARK SMILES IDX 1 14 2 15 3 16 80 17 16 19 17 20 18 21 19 23 20 24 21 25
REMARK SMILES IDX 79 26 22 27 78 28 23 29 24 30 25 31 72 32 26 33 77 34 71 35
REMARK SMILES IDX 73 36 27 37 76 38 70 39 69 40 28 42 58 43 39 44 57 45 40 46
REMARK SMILES IDX 43 47 56 48 74 49 41 50 42 51 55 53 75 54 44 55 29 56 30 57
REMARK SMILES IDX 38 58 31 59 37 60 32 61 33 62 34 63 35 64 36 65 59 66 60 67
REMARK SMILES IDX 68 68 61 69 67 70 62 71 63 72 64 73 65 74 66 75 45 76 46 77
REMARK SMILES IDX 54 78 47 79 53 80 48 81 49 82 50 83 51 84 52 85
REMARK H PARENT 12 7 4 18 17 22 73 41 43 52
REMARK Flexibility Score: inf
ROOT
ATOM      1  C   UNL A   1      33.880  28.338  25.592  1.00  0.00     0.023 C 
ENDROOT
BRANCH   1   2
ATOM      2  C   UNL A   1      32.742  28.926  24.758  1.00  0.00     0.023 C 
BRANCH   2   3
ATOM      3  C   UNL A   1      32.102  27.955  23.759  1.00  0.00     0.116 C 
BRANCH   3   4
ATOM      4  N   UNL A   1      30.874  27.410  24.296  1.00  0.00    -0.356 N 
ATOM      5  C   UNL A   1      30.579  26.182  24.804  1.00  0.00     0.231 C 
ATOM      6  O   UNL A   1      29.397  26.004  25.113  1.00  0.00    -0.274 OA
ATOM      7  H   UNL A   1      30.116  28.040  24.295  1.00  0.00     0.163 HD
BRANCH   5   8
ATOM      8  C   UNL A   1      31.660  25.140  25.116  1.00  0.00     0.164 C 
ATOM      9  C   UNL A   1      31.283  23.672  24.947  1.00  0.00     0.225 C 
ATOM     10  C   UNL A   1      30.575  23.390  26.272  1.00  0.00     0.226 C 
ATOM     11  O   UNL A   1      31.270  24.141  27.273  1.00  0.00    -0.374 OA
ATOM     12  C   UNL A   1      32.012  25.184  26.605  1.00  0.00     0.180 C 
BRANCH   9  13
ATOM     13  N   UNL A   1      32.475  22.887  24.553  1.00  0.00    -0.329 N 
ATOM     14  C   UNL A   1      32.526  19.527  23.849  1.00  0.00     0.020 C 
ATOM     15  C   UNL A   1      33.050  20.939  24.010  1.00  0.00     0.096 C 
ATOM     16  C   UNL A   1      32.193  22.050  23.364  1.00  0.00     0.271 C 
ATOM     17  C   UNL A   1      32.734  21.661  25.343  1.00  0.00     0.271 C 
ATOM     18  H   UNL A   1      33.178  23.626  24.555  1.00  0.00     0.348 HD
ENDBRANCH   9  13
ENDBRANCH   5   8
ENDBRANCH   3   4
ENDBRANCH   2   3
ENDBRANCH   1   2
BRANCH   1  19
ATOM     19  C   UNL A   1      33.707  28.479  27.096  1.00  0.00     0.116 C 
BRANCH  19  20
ATOM     20  N   UNL A   1      33.579  29.861  27.530  1.00  0.00    -0.352 N 
ATOM     21  C   UNL A   1      34.514  30.647  28.163  1.00  0.00     0.251 C 
ATOM     22  H   UNL A   1      32.712  30.290  27.346  1.00  0.00     0.163 HD
ATOM     23  O   UNL A   1      34.217  31.762  28.561  1.00  0.00    -0.269 OA
BRANCH  21  24
ATOM     24  C   UNL A   1      35.869  30.100  28.391  1.00  0.00     0.039 A 
ATOM     25  C   UNL A   1      36.801  30.160  27.354  1.00  0.00     0.014 A 
ATOM     26  C   UNL A   1      36.225  29.576  29.637  1.00  0.00     0.014 A 
ATOM     27  C   UNL A   1      38.116  29.754  27.588  1.00  0.00     0.010 A 
ATOM     28  C   UNL A   1      37.550  29.240  29.888  1.00  0.00     0.010 A 
ATOM     29  C   UNL A   1      38.507  29.323  28.866  1.00  0.00    -0.014 A 
BRANCH  29  30
ATOM     30  C   UNL A   1      39.912  28.947  29.157  1.00  0.00     0.031 A 
ATOM     31  C   UNL A   1      40.845  29.958  29.767  1.00  0.00     0.074 A 
ATOM     32  C   UNL A   1      40.364  27.729  28.805  1.00  0.00     0.049 A 
ATOM     33  N   UNL A   1      42.122  29.847  30.026  1.00  0.00    -0.248 NA
ATOM     34  C   UNL A   1      40.274  31.272  30.103  1.00  0.00     0.031 C 
ATOM     35  C   UNL A   1      39.567  26.679  28.164  1.00  0.00     0.029 A 
ATOM     36  N   UNL A   1      41.610  27.169  28.929  1.00  0.00    -0.354 N 
ATOM     37  C   UNL A   1      42.511  31.081  30.533  1.00  0.00     0.074 A 
ATOM     38  C   UNL A   1      41.347  31.938  30.503  1.00  0.00     0.031 C 
ATOM     39  C   UNL A   1      40.339  25.597  27.972  1.00  0.00     0.029 A 
ATOM     40  C   UNL A   1      41.690  25.885  28.442  1.00  0.00     0.049 A 
ATOM     41  H   UNL A   1      42.376  27.642  29.328  1.00  0.00     0.167 HD
ATOM     42  C   UNL A   1      43.723  31.462  31.000  1.00  0.00     0.031 A 
ATOM     43  C   UNL A   1      42.734  25.037  28.379  1.00  0.00     0.031 A 
ATOM     44  C   UNL A   1      44.874  30.600  31.047  1.00  0.00     0.049 A 
ATOM     45  C   UNL A   1      44.068  25.477  28.917  1.00  0.00     0.074 A 
ATOM     46  C   UNL A   1      46.131  30.871  31.556  1.00  0.00     0.029 A 
ATOM     47  N   UNL A   1      44.905  29.299  30.571  1.00  0.00    -0.354 N 
ATOM     48  N   UNL A   1      44.402  26.628  29.450  1.00  0.00    -0.248 NA
ATOM     49  C   UNL A   1      45.163  24.499  28.855  1.00  0.00     0.031 C 
ATOM     50  C   UNL A   1      46.936  29.744  31.352  1.00  0.00     0.029 A 
ATOM     51  C   UNL A   1      46.165  28.757  30.759  1.00  0.00     0.049 A 
ATOM     52  H   UNL A   1      44.145  28.828  30.159  1.00  0.00     0.167 HD
ATOM     53  C   UNL A   1      45.738  26.505  29.809  1.00  0.00     0.074 A 
ATOM     54  C   UNL A   1      46.148  25.164  29.445  1.00  0.00     0.031 C 
ATOM     55  C   UNL A   1      46.553  27.419  30.390  1.00  0.00     0.031 A 
BRANCH  42  56
ATOM     56  C   UNL A   1      43.861  32.875  31.495  1.00  0.00    -0.014 A 
ATOM     57  C   UNL A   1      44.161  33.927  30.610  1.00  0.00     0.010 A 
ATOM     58  C   UNL A   1      43.667  33.162  32.858  1.00  0.00     0.010 A 
ATOM     59  C   UNL A   1      44.313  35.232  31.086  1.00  0.00     0.020 A 
ATOM     60  C   UNL A   1      43.790  34.470  33.334  1.00  0.00     0.020 A 
ATOM     61  C   UNL A   1      44.132  35.494  32.447  1.00  0.00     0.054 A 
BRANCH  61  62
ATOM     62  S   UNL A   1      44.322  37.198  33.038  1.00  0.00     0.124 S 
ATOM     63  O   UNL A   1      43.032  37.439  33.679  1.00  0.00    -0.237 OA
ATOM     64  O   UNL A   1      45.464  37.099  33.944  1.00  0.00    -0.237 OA
ATOM     65  O   UNL A   1      44.565  37.963  31.817  1.00  0.00    -0.744 OA
ENDBRANCH  61  62
ENDBRANCH  42  56
BRANCH  43  66
ATOM     66  C   UNL A   1      42.553  23.677  27.804  1.00  0.00    -0.014 A 
ATOM     67  C   UNL A   1      42.825  23.439  26.446  1.00  0.00     0.010 A 
ATOM     68  C   UNL A   1      42.127  22.610  28.615  1.00  0.00     0.010 A 
ATOM     69  C   UNL A   1      42.658  22.162  25.904  1.00  0.00     0.020 A 
ATOM     70  C   UNL A   1      41.981  21.326  28.082  1.00  0.00     0.020 A 
ATOM     71  C   UNL A   1      42.237  21.112  26.726  1.00  0.00     0.054 A 
BRANCH  71  72
ATOM     72  S   UNL A   1      42.080  19.450  26.014  1.00  0.00     0.124 S 
ATOM     73  O   UNL A   1      42.911  19.552  24.819  1.00  0.00    -0.237 OA
ATOM     74  O   UNL A   1      42.604  18.598  27.080  1.00  0.00    -0.237 OA
ATOM     75  O   UNL A   1      40.645  19.319  25.772  1.00  0.00    -0.744 OA
ENDBRANCH  71  72
ENDBRANCH  43  66
BRANCH  55  76
ATOM     76  C   UNL A   1      47.963  26.992  30.697  1.00  0.00    -0.014 A 
ATOM     77  C   UNL A   1      49.027  27.338  29.848  1.00  0.00     0.010 A 
ATOM     78  C   UNL A   1      48.229  26.283  31.883  1.00  0.00     0.010 A 
ATOM     79  C   UNL A   1      50.334  26.959  30.167  1.00  0.00     0.020 A 
ATOM     80  C   UNL A   1      49.537  25.922  32.216  1.00  0.00     0.020 A 
ATOM     81  C   UNL A   1      50.580  26.252  31.348  1.00  0.00     0.054 A 
BRANCH  81  82
ATOM     82  S   UNL A   1      52.289  25.812  31.765  1.00  0.00     0.124 S 
ATOM     83  O   UNL A   1      52.623  26.818  32.771  1.00  0.00    -0.237 OA
ATOM     84  O   UNL A   1      52.159  24.445  32.263  1.00  0.00    -0.237 OA
ATOM     85  O   UNL A   1      53.000  25.941  30.495  1.00  0.00    -0.744 OA
ENDBRANCH  81  82
ENDBRANCH  55  76
ENDBRANCH  29  30
ENDBRANCH  21  24
ENDBRANCH  19  20
ENDBRANCH   1  19
TORSDOF 15
ENDMDL
MODEL 3
REMARK VINA RESULT:     -11.2      5.935     11.876
REMARK SMILES CC1C[NH+]([C@H]2COC[C@@H]2C(=O)NCCCCNC(=O)c2ccc(-c3c4nc(c(-c5ccc(S(=O)(=O)[O-])cc5)c5ccc([nH]5)c(-c5ccc(S(=O)(=O)[O-])cc5)c5nc(c(-c6ccc(S(=O)(=O)[O-])cc6)c6ccc3[nH]6)C=C5)C=C4)cc2)C1
REMARK SMILES IDX 15 1 14 2 13 3 12 4 10 5 11 6 9 8 5 9 6 10 7 11 8 12 4 13
REMARK SMILES IDX 1 14 2 15 3 16 80 17 16 19 17 20 18 21 19 23 20 24 21 25
REMARK SMILES IDX 79 26 22 27 78 28 23 29 24 30 25 31 72 32 26 33 77 34 71 35
REMARK SMILES IDX 73 36 27 37 76 38 70 39 69 40 28 42 58 43 39 44 57 45 40 46
REMARK SMILES IDX 43 47 56 48 74 49 41 50 42 51 55 53 75 54 44 55 29 56 30 57
REMARK SMILES IDX 38 58 31 59 37 60 32 61 33 62 34 63 35 64 36 65 59 66 60 67
REMARK SMILES IDX 68 68 61 69 67 70 62 71 63 72 64 73 65 74 66 75 45 76 46 77
REMARK SMILES IDX 54 78 47 79 53 80 48 81 49 82 50 83 51 84 52 85
REMARK H PARENT 12 7 4 18 17 22 73 41 43 52
REMARK Flexibility Score: inf
ROOT
ATOM      1  C   UNL A   1      32.688  27.900  26.078  1.00  0.00     0.023 C 
ENDROOT
BRANCH   1   2
ATOM      2  C   UNL A   1      31.337  27.305  26.472  1.00  0.00     0.023 C 
BRANCH   2   3
ATOM      3  C   UNL A   1      30.678  26.429  25.400  1.00  0.00     0.116 C 
BRANCH   3   4
ATOM      4  N   UNL A   1      30.413  27.202  24.205  1.00  0.00    -0.356 N 
ATOM      5  C   UNL A   1      30.750  26.993  22.903  1.00  0.00     0.231 C 
ATOM      6  O   UNL A   1      30.436  27.895  22.121  1.00  0.00    -0.274 OA
ATOM      7  H   UNL A   1      29.895  28.025  24.362  1.00  0.00     0.163 HD
BRANCH   5   8
ATOM      8  C   UNL A   1      31.343  25.668  22.409  1.00  0.00     0.164 C 
ATOM      9  C   UNL A   1      32.484  25.069  23.223  1.00  0.00     0.225 C 
ATOM     10  C   UNL A   1      33.681  25.850  22.680  1.00  0.00     0.226 C 
ATOM     11  O   UNL A   1      33.438  26.050  21.284  1.00  0.00    -0.374 OA
ATOM     12  C   UNL A   1      32.023  25.875  21.053  1.00  0.00     0.180 C 
BRANCH   9  13
ATOM     13  N   UNL A   1      32.450  23.591  23.129  1.00  0.00    -0.329 N 
ATOM     14  C   UNL A   1      34.474  21.420  24.854  1.00  0.00     0.020 C 
ATOM     15  C   UNL A   1      33.372  21.875  23.920  1.00  0.00     0.096 C 
ATOM     16  C   UNL A   1      32.435  22.971  24.474  1.00  0.00     0.271 C 
ATOM     17  C   UNL A   1      33.745  22.928  22.849  1.00  0.00     0.271 C 
ATOM     18  H   UNL A   1      31.689  23.477  22.459  1.00  0.00     0.348 HD
ENDBRANCH   9  13
ENDBRANCH   5   8
ENDBRANCH   3   4
ENDBRANCH   2   3
ENDBRANCH   1   2
BRANCH   1  19
ATOM     19  C   UNL A   1      33.556  28.339  27.247  1.00  0.00     0.116 C 
BRANCH  19  20
ATOM     20  N   UNL A   1      33.438  29.757  27.547  1.00  0.00    -0.352 N 
ATOM     21  C   UNL A   1      34.385  30.598  28.085  1.00  0.00     0.251 C 
ATOM     22  H   UNL A   1      32.568  30.168  27.338  1.00  0.00     0.163 HD
ATOM     23  O   UNL A   1      34.095  31.747  28.378  1.00  0.00    -0.269 OA
BRANCH  21  24
ATOM     24  C   UNL A   1      35.743  30.072  28.341  1.00  0.00     0.039 A 
ATOM     25  C   UNL A   1      36.680  30.101  27.307  1.00  0.00     0.014 A 
ATOM     26  C   UNL A   1      36.096  29.599  29.608  1.00  0.00     0.014 A 
ATOM     27  C   UNL A   1      37.997  29.715  27.564  1.00  0.00     0.010 A 
ATOM     28  C   UNL A   1      37.422  29.285  29.879  1.00  0.00     0.010 A 
ATOM     29  C   UNL A   1      38.384  29.337  28.860  1.00  0.00    -0.014 A 
BRANCH  29  30
ATOM     30  C   UNL A   1      39.791  28.985  29.173  1.00  0.00     0.031 A 
ATOM     31  C   UNL A   1      40.696  30.010  29.800  1.00  0.00     0.074 A 
ATOM     32  C   UNL A   1      40.270  27.776  28.826  1.00  0.00     0.049 A 
ATOM     33  N   UNL A   1      41.970  29.921  30.079  1.00  0.00    -0.248 NA
ATOM     34  C   UNL A   1      40.096  31.313  30.130  1.00  0.00     0.031 C 
ATOM     35  C   UNL A   1      39.502  26.714  28.169  1.00  0.00     0.029 A 
ATOM     36  N   UNL A   1      41.524  27.237  28.968  1.00  0.00    -0.354 N 
ATOM     37  C   UNL A   1      42.330  31.160  30.596  1.00  0.00     0.074 A 
ATOM     38  C   UNL A   1      41.151  31.997  30.549  1.00  0.00     0.031 C 
ATOM     39  C   UNL A   1      40.296  25.646  27.987  1.00  0.00     0.029 A 
ATOM     40  C   UNL A   1      41.633  25.956  28.480  1.00  0.00     0.049 A 
ATOM     41  H   UNL A   1      42.274  27.722  29.380  1.00  0.00     0.167 HD
ATOM     42  C   UNL A   1      43.527  31.561  31.083  1.00  0.00     0.031 A 
ATOM     43  C   UNL A   1      42.693  25.127  28.432  1.00  0.00     0.031 A 
ATOM     44  C   UNL A   1      44.692  30.719  31.147  1.00  0.00     0.049 A 
ATOM     45  C   UNL A   1      44.011  25.589  28.992  1.00  0.00     0.074 A 
ATOM     46  C   UNL A   1      45.936  31.011  31.677  1.00  0.00     0.029 A 
ATOM     47  N   UNL A   1      44.754  29.420  30.668  1.00  0.00    -0.354 N 
ATOM     48  N   UNL A   1      44.315  26.744  29.533  1.00  0.00    -0.248 NA
ATOM     49  C   UNL A   1      45.123  24.630  28.945  1.00  0.00     0.031 C 
ATOM     50  C   UNL A   1      46.764  29.899  31.484  1.00  0.00     0.029 A 
ATOM     51  C   UNL A   1      46.020  28.899  30.876  1.00  0.00     0.049 A 
ATOM     52  H   UNL A   1      44.008  28.937  30.243  1.00  0.00     0.167 HD
ATOM     53  C   UNL A   1      45.648  26.643  29.914  1.00  0.00     0.074 A 
ATOM     54  C   UNL A   1      46.087  25.310  29.553  1.00  0.00     0.031 C 
ATOM     55  C   UNL A   1      46.437  27.569  30.510  1.00  0.00     0.031 A 
BRANCH  42  56
ATOM     56  C   UNL A   1      43.632  32.976  31.584  1.00  0.00    -0.014 A 
ATOM     57  C   UNL A   1      43.434  33.279  32.943  1.00  0.00     0.010 A 
ATOM     58  C   UNL A   1      43.953  34.013  30.690  1.00  0.00     0.010 A 
ATOM     59  C   UNL A   1      43.508  34.600  33.392  1.00  0.00     0.020 A 
ATOM     60  C   UNL A   1      44.055  35.332  31.140  1.00  0.00     0.020 A 
ATOM     61  C   UNL A   1      43.812  35.620  32.485  1.00  0.00     0.054 A 
BRANCH  61  62
ATOM     62  S   UNL A   1      43.914  37.325  33.095  1.00  0.00     0.124 S 
ATOM     63  O   UNL A   1      43.839  38.092  31.854  1.00  0.00    -0.237 OA
ATOM     64  O   UNL A   1      42.746  37.425  33.967  1.00  0.00    -0.237 OA
ATOM     65  O   UNL A   1      45.203  37.372  33.780  1.00  0.00    -0.744 OA
ENDBRANCH  61  62
ENDBRANCH  42  56
BRANCH  43  66
ATOM     66  C   UNL A   1      42.546  23.766  27.851  1.00  0.00    -0.014 A 
ATOM     67  C   UNL A   1      42.350  22.654  28.688  1.00  0.00     0.010 A 
ATOM     68  C   UNL A   1      42.580  23.576  26.457  1.00  0.00     0.010 A 
ATOM     69  C   UNL A   1      42.209  21.374  28.145  1.00  0.00     0.020 A 
ATOM     70  C   UNL A   1      42.415  22.301  25.909  1.00  0.00     0.020 A 
ATOM     71  C   UNL A   1      42.241  21.206  26.758  1.00  0.00     0.054 A 
BRANCH  71  72
ATOM     72  S   UNL A   1      42.000  19.543  26.071  1.00  0.00     0.124 S 
ATOM     73  O   UNL A   1      40.563  19.524  25.819  1.00  0.00    -0.237 OA
ATOM     74  O   UNL A   1      42.852  19.564  24.884  1.00  0.00    -0.237 OA
ATOM     75  O   UNL A   1      42.462  18.663  27.142  1.00  0.00    -0.744 OA
ENDBRANCH  71  72
ENDBRANCH  43  66
BRANCH  55  76
ATOM     76  C   UNL A   1      47.849  27.167  30.839  1.00  0.00    -0.014 A 
ATOM     77  C   UNL A   1      48.135  26.383  31.970  1.00  0.00     0.010 A 
ATOM     78  C   UNL A   1      48.893  27.532  29.970  1.00  0.00     0.010 A 
ATOM     79  C   UNL A   1      49.449  25.993  32.241  1.00  0.00     0.020 A 
ATOM     80  C   UNL A   1      50.205  27.124  30.226  1.00  0.00     0.020 A 
ATOM     81  C   UNL A   1      50.476  26.367  31.368  1.00  0.00     0.054 A 
BRANCH  81  82
ATOM     82  S   UNL A   1      52.166  25.808  31.713  1.00  0.00     0.124 S 
ATOM     83  O   UNL A   1      52.792  25.905  30.397  1.00  0.00    -0.237 OA
ATOM     84  O   UNL A   1      52.631  26.778  32.703  1.00  0.00    -0.237 OA
ATOM     85  O   UNL A   1      51.986  24.450  32.219  1.00  0.00    -0.744 OA
ENDBRANCH  81  82
ENDBRANCH  55  76
ENDBRANCH  29  30
ENDBRANCH  21  24
ENDBRANCH  19  20
ENDBRANCH   1  19
TORSDOF 15
ENDMDL
