MODEL 1
REMARK VINA RESULT:     -11.6      0.000      0.000
REMARK SMILES C=CCN1C(=O)/C(=C/c2ccccc2[N+](=O)[O-])S/C1=[NH+]\c1ccc(O)cc1C(=O)NCCCCNC(=O)c1ccc(-c2c3nc(c(-c4ccc(S(=O)(=O)[O-])cc4)c4ccc([nH]4)c(-c4ccc(S(=O)(=O)[O-])cc4)c4nc(c(-c5ccc(S(=O)(=O)[O-])cc5)c5ccc2[nH]5)C=C4)C=C3)cc1
REMARK SMILES IDX 32 1 31 2 30 3 28 4 29 5 27 7 21 8 22 9 23 10 26 11 24 12
REMARK SMILES IDX 20 13 4 14 5 15 19 16 6 17 7 18 18 19 8 20 3 22 2 23 1 24
REMARK SMILES IDX 9 25 10 26 14 27 11 28 13 29 12 30 15 31 16 32 17 33 25 34
REMARK SMILES IDX 33 36 34 37 35 38 36 39 37 41 38 42 39 43 97 44 40 45 96 46
REMARK SMILES IDX 41 47 42 48 43 49 90 50 44 51 95 52 89 53 91 54 45 55 94 56
REMARK SMILES IDX 88 57 87 58 46 60 76 61 57 62 75 63 58 64 61 65 74 66 92 67
REMARK SMILES IDX 59 68 60 69 73 71 93 72 62 73 47 74 48 75 56 76 49 77 55 78
REMARK SMILES IDX 50 79 51 80 52 81 53 82 54 83 77 84 78 85 86 86 79 87 85 88
REMARK SMILES IDX 80 89 81 90 82 91 83 92 84 93 63 94 64 95 72 96 65 97 71 98
REMARK SMILES IDX 66 99 67 100 68 101 69 102 70 103
REMARK H PARENT 30 6 20 21 25 35 35 40 91 59 61 70
REMARK Flexibility Score: inf
ROOT
ATOM      1  C   UNL A   1      37.272  23.241  24.790  1.00  0.00     0.023 C 
ENDROOT
BRANCH   1   2
ATOM      2  C   UNL A   1      35.944  22.771  24.210  1.00  0.00     0.116 C 
BRANCH   2   3
ATOM      3  N   UNL A   1      35.174  23.755  23.495  1.00  0.00    -0.352 N 
ATOM      4  C   UNL A   1      34.008  24.409  23.825  1.00  0.00     0.255 C 
ATOM      5  O   UNL A   1      33.624  25.254  23.006  1.00  0.00    -0.269 OA
ATOM      6  H   UNL A   1      35.545  24.003  22.618  1.00  0.00     0.163 HD
BRANCH   4   7
ATOM      7  C   UNL A   1      33.138  24.172  25.034  1.00  0.00     0.090 A 
ATOM      8  C   UNL A   1      31.856  24.686  25.338  1.00  0.00     0.138 A 
ATOM      9  C   UNL A   1      31.217  24.284  26.531  1.00  0.00     0.056 A 
ATOM     10  C   UNL A   1      31.780  23.351  27.393  1.00  0.00     0.050 A 
ATOM     11  C   UNL A   1      33.684  23.210  25.925  1.00  0.00     0.064 A 
ATOM     12  C   UNL A   1      33.008  22.807  27.075  1.00  0.00     0.116 A 
BRANCH   8  13
ATOM     13  N   UNL A   1      31.110  25.621  24.610  1.00  0.00    -0.234 N 
ATOM     14  N   UNL A   1      30.616  27.786  23.921  1.00  0.00    -0.182 N 
ATOM     15  C   UNL A   1      30.879  29.110  24.216  1.00  0.00     0.348 C 
ATOM     16  C   UNL A   1      31.403  26.875  24.580  1.00  0.00     0.324 C 
ATOM     17  O   UNL A   1      30.331  30.097  23.747  1.00  0.00    -0.240 OA
ATOM     18  C   UNL A   1      31.971  29.201  25.226  1.00  0.00     0.110 C 
ATOM     19  S   UNL A   1      32.707  27.666  25.423  1.00  0.00     0.007 SA
ATOM     20  C   UNL A   1      32.278  30.328  25.883  1.00  0.00     0.039 C 
ATOM     21  H   UNL A   1      30.331  25.306  24.098  1.00  0.00     0.313 HD
BRANCH  14  22
ATOM     22  C   UNL A   1      29.642  27.414  22.891  1.00  0.00     0.275 C 
BRANCH  22  23
ATOM     23  C   UNL A   1      28.208  27.589  23.333  1.00  0.00     0.011 C 
ATOM     24  C   UNL A   1      27.461  26.658  23.942  1.00  0.00     0.008 C 
ENDBRANCH  22  23
ENDBRANCH  14  22
BRANCH  20  25
ATOM     25  C   UNL A   1      33.374  30.453  26.860  1.00  0.00     0.054 A 
ATOM     26  C   UNL A   1      34.253  29.368  27.010  1.00  0.00     0.015 A 
ATOM     27  C   UNL A   1      33.621  31.605  27.631  1.00  0.00     0.276 A 
ATOM     28  C   UNL A   1      35.336  29.439  27.895  1.00  0.00     0.001 A 
ATOM     29  C   UNL A   1      34.709  31.684  28.514  1.00  0.00     0.086 A 
ATOM     30  C   UNL A   1      35.565  30.592  28.643  1.00  0.00     0.007 A 
BRANCH  27  31
ATOM     31  N   UNL A   1      32.752  32.772  27.539  1.00  0.00     0.063 N 
ATOM     32  O   UNL A   1      31.573  32.574  27.214  1.00  0.00    -0.258 OA
ATOM     33  O   UNL A   1      33.247  33.882  27.772  1.00  0.00    -0.258 OA
ENDBRANCH  27  31
ENDBRANCH  20  25
ENDBRANCH   8  13
BRANCH  12  34
ATOM     34  O   UNL A   1      33.522  21.868  27.917  1.00  0.00    -0.508 OA
ATOM     35  H   UNL A   1      33.736  22.096  28.800  1.00  0.00     0.293 HD
ENDBRANCH  12  34
ENDBRANCH   4   7
ENDBRANCH   2   3
ENDBRANCH   1   2
BRANCH   1  36
ATOM     36  C   UNL A   1      37.255  24.091  26.068  1.00  0.00     0.023 C 
BRANCH  36  37
ATOM     37  C   UNL A   1      38.548  24.296  26.862  1.00  0.00     0.116 C 
BRANCH  37  38
ATOM     38  N   UNL A   1      39.672  24.818  26.099  1.00  0.00    -0.352 N 
ATOM     39  C   UNL A   1      40.458  25.935  26.297  1.00  0.00     0.251 C 
ATOM     40  H   UNL A   1      39.912  24.283  25.308  1.00  0.00     0.163 HD
ATOM     41  O   UNL A   1      41.364  26.206  25.515  1.00  0.00    -0.269 OA
BRANCH  39  42
ATOM     42  C   UNL A   1      40.148  26.876  27.386  1.00  0.00     0.039 A 
ATOM     43  C   UNL A   1      39.671  26.346  28.590  1.00  0.00     0.014 A 
ATOM     44  C   UNL A   1      40.408  28.240  27.264  1.00  0.00     0.014 A 
ATOM     45  C   UNL A   1      39.605  27.156  29.720  1.00  0.00     0.010 A 
ATOM     46  C   UNL A   1      40.416  29.029  28.407  1.00  0.00     0.010 A 
ATOM     47  C   UNL A   1      40.060  28.481  29.650  1.00  0.00    -0.014 A 
BRANCH  47  48
ATOM     48  C   UNL A   1      40.262  29.287  30.877  1.00  0.00     0.031 A 
ATOM     49  C   UNL A   1      41.391  28.964  31.808  1.00  0.00     0.074 A 
ATOM     50  C   UNL A   1      39.342  30.220  31.200  1.00  0.00     0.049 A 
ATOM     51  N   UNL A   1      41.643  29.451  32.994  1.00  0.00    -0.248 NA
ATOM     52  C   UNL A   1      42.340  27.930  31.365  1.00  0.00     0.031 C 
ATOM     53  C   UNL A   1      38.167  30.570  30.392  1.00  0.00     0.029 A 
ATOM     54  N   UNL A   1      39.235  31.030  32.301  1.00  0.00    -0.354 N 
ATOM     55  C   UNL A   1      42.756  28.760  33.454  1.00  0.00     0.074 A 
ATOM     56  C   UNL A   1      43.111  27.797  32.434  1.00  0.00     0.031 C 
ATOM     57  C   UNL A   1      37.469  31.531  31.019  1.00  0.00     0.029 A 
ATOM     58  C   UNL A   1      38.120  31.836  32.288  1.00  0.00     0.049 A 
ATOM     59  H   UNL A   1      39.893  31.034  33.033  1.00  0.00     0.167 HD
ATOM     60  C   UNL A   1      43.425  28.923  34.620  1.00  0.00     0.031 A 
ATOM     61  C   UNL A   1      37.664  32.714  33.202  1.00  0.00     0.031 A 
ATOM     62  C   UNL A   1      43.073  29.902  35.612  1.00  0.00     0.049 A 
ATOM     63  C   UNL A   1      38.454  32.910  34.465  1.00  0.00     0.074 A 
ATOM     64  C   UNL A   1      43.723  30.202  36.796  1.00  0.00     0.029 A 
ATOM     65  N   UNL A   1      41.975  30.747  35.532  1.00  0.00    -0.354 N 
ATOM     66  N   UNL A   1      39.544  32.294  34.855  1.00  0.00    -0.248 NA
ATOM     67  C   UNL A   1      37.962  33.924  35.405  1.00  0.00     0.031 C 
ATOM     68  C   UNL A   1      42.996  31.204  37.449  1.00  0.00     0.029 A 
ATOM     69  C   UNL A   1      41.921  31.560  36.651  1.00  0.00     0.049 A 
ATOM     70  H   UNL A   1      41.329  30.765  34.789  1.00  0.00     0.167 HD
ATOM     71  C   UNL A   1      39.883  32.863  36.076  1.00  0.00     0.074 A 
ATOM     72  C   UNL A   1      38.890  33.881  36.352  1.00  0.00     0.031 C 
ATOM     73  C   UNL A   1      40.922  32.568  36.897  1.00  0.00     0.031 A 
BRANCH  60  74
ATOM     74  C   UNL A   1      44.597  28.015  34.881  1.00  0.00    -0.014 A 
ATOM     75  C   UNL A   1      45.899  28.375  34.485  1.00  0.00     0.010 A 
ATOM     76  C   UNL A   1      44.400  26.795  35.552  1.00  0.00     0.010 A 
ATOM     77  C   UNL A   1      46.973  27.512  34.714  1.00  0.00     0.020 A 
ATOM     78  C   UNL A   1      45.476  25.940  35.808  1.00  0.00     0.020 A 
ATOM     79  C   UNL A   1      46.753  26.296  35.370  1.00  0.00     0.054 A 
BRANCH  79  80
ATOM     80  S   UNL A   1      48.167  25.201  35.672  1.00  0.00     0.124 S 
ATOM     81  O   UNL A   1      48.505  25.522  37.056  1.00  0.00    -0.237 OA
ATOM     82  O   UNL A   1      47.598  23.873  35.456  1.00  0.00    -0.237 OA
ATOM     83  O   UNL A   1      49.150  25.622  34.676  1.00  0.00    -0.744 OA
ENDBRANCH  79  80
ENDBRANCH  60  74
BRANCH  61  84
ATOM     84  C   UNL A   1      36.414  33.480  32.945  1.00  0.00    -0.014 A 
ATOM     85  C   UNL A   1      36.431  34.885  32.924  1.00  0.00     0.010 A 
ATOM     86  C   UNL A   1      35.202  32.807  32.698  1.00  0.00     0.010 A 
ATOM     87  C   UNL A   1      35.258  35.605  32.678  1.00  0.00     0.020 A 
ATOM     88  C   UNL A   1      34.032  33.524  32.427  1.00  0.00     0.020 A 
ATOM     89  C   UNL A   1      34.066  34.920  32.431  1.00  0.00     0.054 A 
BRANCH  89  90
ATOM     90  S   UNL A   1      32.566  35.873  32.060  1.00  0.00     0.124 S 
ATOM     91  O   UNL A   1      32.558  35.869  30.601  1.00  0.00    -0.237 OA
ATOM     92  O   UNL A   1      31.519  35.079  32.701  1.00  0.00    -0.237 OA
ATOM     93  O   UNL A   1      32.823  37.169  32.684  1.00  0.00    -0.744 OA
ENDBRANCH  89  90
ENDBRANCH  61  84
BRANCH  73  94
ATOM     94  C   UNL A   1      41.053  33.382  38.152  1.00  0.00    -0.014 A 
ATOM     95  C   UNL A   1      41.813  34.564  38.174  1.00  0.00     0.010 A 
ATOM     96  C   UNL A   1      40.356  32.988  39.309  1.00  0.00     0.010 A 
ATOM     97  C   UNL A   1      41.896  35.326  39.342  1.00  0.00     0.020 A 
ATOM     98  C   UNL A   1      40.417  33.759  40.470  1.00  0.00     0.020 A 
ATOM     99  C   UNL A   1      41.197  34.918  40.483  1.00  0.00     0.054 A 
BRANCH  99 100
ATOM    100  S   UNL A   1      41.277  35.949  41.972  1.00  0.00     0.124 S 
ATOM    101  O   UNL A   1      41.094  37.289  41.423  1.00  0.00    -0.237 OA
ATOM    102  O   UNL A   1      40.168  35.441  42.777  1.00  0.00    -0.237 OA
ATOM    103  O   UNL A   1      42.607  35.672  42.512  1.00  0.00    -0.744 OA
ENDBRANCH  99 100
ENDBRANCH  73  94
ENDBRANCH  47  48
ENDBRANCH  39  42
ENDBRANCH  37  38
ENDBRANCH  36  37
ENDBRANCH   1  36
TORSDOF 20
ENDMDL
MODEL 2
REMARK VINA RESULT:     -11.5      5.002      9.924
REMARK SMILES C=CCN1C(=O)/C(=C/c2ccccc2[N+](=O)[O-])S/C1=[NH+]\c1ccc(O)cc1C(=O)NCCCCNC(=O)c1ccc(-c2c3nc(c(-c4ccc(S(=O)(=O)[O-])cc4)c4ccc([nH]4)c(-c4ccc(S(=O)(=O)[O-])cc4)c4nc(c(-c5ccc(S(=O)(=O)[O-])cc5)c5ccc2[nH]5)C=C4)C=C3)cc1
REMARK SMILES IDX 32 1 31 2 30 3 28 4 29 5 27 7 21 8 22 9 23 10 26 11 24 12
REMARK SMILES IDX 20 13 4 14 5 15 19 16 6 17 7 18 18 19 8 20 3 22 2 23 1 24
REMARK SMILES IDX 9 25 10 26 14 27 11 28 13 29 12 30 15 31 16 32 17 33 25 34
REMARK SMILES IDX 33 36 34 37 35 38 36 39 37 41 38 42 39 43 97 44 40 45 96 46
REMARK SMILES IDX 41 47 42 48 43 49 90 50 44 51 95 52 89 53 91 54 45 55 94 56
REMARK SMILES IDX 88 57 87 58 46 60 76 61 57 62 75 63 58 64 61 65 74 66 92 67
REMARK SMILES IDX 59 68 60 69 73 71 93 72 62 73 47 74 48 75 56 76 49 77 55 78
REMARK SMILES IDX 50 79 51 80 52 81 53 82 54 83 77 84 78 85 86 86 79 87 85 88
REMARK SMILES IDX 80 89 81 90 82 91 83 92 84 93 63 94 64 95 72 96 65 97 71 98
REMARK SMILES IDX 66 99 67 100 68 101 69 102 70 103
REMARK H PARENT 30 6 20 21 25 35 35 40 91 59 61 70
REMARK Flexibility Score: inf
ROOT
ATOM      1  C   UNL A   1      34.524  24.411  25.476  1.00  0.00     0.023 C 
ENDROOT
BRANCH   1   2
ATOM      2  C   UNL A   1      34.364  25.894  25.792  1.00  0.00     0.116 C 
BRANCH   2   3
ATOM      3  N   UNL A   1      34.364  26.791  24.665  1.00  0.00    -0.352 N 
ATOM      4  C   UNL A   1      34.252  28.162  24.598  1.00  0.00     0.255 C 
ATOM      5  O   UNL A   1      34.347  28.646  23.463  1.00  0.00    -0.269 OA
ATOM      6  H   UNL A   1      34.460  26.348  23.792  1.00  0.00     0.163 HD
BRANCH   4   7
ATOM      7  C   UNL A   1      33.981  29.113  25.736  1.00  0.00     0.090 A 
ATOM      8  C   UNL A   1      32.905  30.014  25.923  1.00  0.00     0.138 A 
ATOM      9  C   UNL A   1      32.848  30.784  27.104  1.00  0.00     0.056 A 
ATOM     10  C   UNL A   1      33.782  30.644  28.124  1.00  0.00     0.050 A 
ATOM     11  C   UNL A   1      34.913  28.980  26.799  1.00  0.00     0.064 A 
ATOM     12  C   UNL A   1      34.803  29.729  27.969  1.00  0.00     0.116 A 
BRANCH   8  13
ATOM     13  N   UNL A   1      31.861  30.300  25.035  1.00  0.00    -0.234 N 
ATOM     14  N   UNL A   1      30.208  29.686  23.519  1.00  0.00    -0.182 N 
ATOM     15  C   UNL A   1      29.769  28.620  22.759  1.00  0.00     0.348 C 
ATOM     16  C   UNL A   1      31.177  29.383  24.443  1.00  0.00     0.324 C 
ATOM     17  O   UNL A   1      28.906  28.632  21.893  1.00  0.00    -0.240 OA
ATOM     18  C   UNL A   1      30.507  27.382  23.141  1.00  0.00     0.110 C 
ATOM     19  S   UNL A   1      31.401  27.661  24.576  1.00  0.00     0.007 SA
ATOM     20  C   UNL A   1      30.476  26.251  22.422  1.00  0.00     0.039 C 
ATOM     21  H   UNL A   1      31.640  31.243  24.856  1.00  0.00     0.313 HD
BRANCH  14  22
ATOM     22  C   UNL A   1      29.586  31.008  23.407  1.00  0.00     0.275 C 
BRANCH  22  23
ATOM     23  C   UNL A   1      28.112  30.950  23.084  1.00  0.00     0.011 C 
ATOM     24  C   UNL A   1      27.117  31.277  23.919  1.00  0.00     0.008 C 
ENDBRANCH  22  23
ENDBRANCH  14  22
BRANCH  20  25
ATOM     25  C   UNL A   1      31.168  25.005  22.794  1.00  0.00     0.054 A 
ATOM     26  C   UNL A   1      30.554  24.165  23.737  1.00  0.00     0.015 A 
ATOM     27  C   UNL A   1      32.392  24.583  22.242  1.00  0.00     0.276 A 
ATOM     28  C   UNL A   1      31.143  22.948  24.105  1.00  0.00     0.001 A 
ATOM     29  C   UNL A   1      32.983  23.362  22.602  1.00  0.00     0.086 A 
ATOM     30  C   UNL A   1      32.353  22.547  23.540  1.00  0.00     0.007 A 
BRANCH  27  31
ATOM     31  N   UNL A   1      33.098  25.401  21.262  1.00  0.00     0.063 N 
ATOM     32  O   UNL A   1      33.862  26.273  21.700  1.00  0.00    -0.258 OA
ATOM     33  O   UNL A   1      32.877  25.188  20.064  1.00  0.00    -0.258 OA
ENDBRANCH  27  31
ENDBRANCH  20  25
ENDBRANCH   8  13
BRANCH  12  34
ATOM     34  O   UNL A   1      35.685  29.585  28.998  1.00  0.00    -0.508 OA
ATOM     35  H   UNL A   1      35.617  28.850  29.574  1.00  0.00     0.293 HD
ENDBRANCH  12  34
ENDBRANCH   4   7
ENDBRANCH   2   3
ENDBRANCH   1   2
BRANCH   1  36
ATOM     36  C   UNL A   1      35.801  23.697  25.936  1.00  0.00     0.023 C 
BRANCH  36  37
ATOM     37  C   UNL A   1      37.037  23.692  25.031  1.00  0.00     0.116 C 
BRANCH  37  38
ATOM     38  N   UNL A   1      37.954  22.582  25.235  1.00  0.00    -0.352 N 
ATOM     39  C   UNL A   1      39.024  22.438  26.094  1.00  0.00     0.251 C 
ATOM     40  H   UNL A   1      37.782  21.799  24.662  1.00  0.00     0.163 HD
ATOM     41  O   UNL A   1      39.687  21.405  26.099  1.00  0.00    -0.269 OA
BRANCH  39  42
ATOM     42  C   UNL A   1      39.454  23.566  26.937  1.00  0.00     0.039 A 
ATOM     43  C   UNL A   1      40.573  23.379  27.755  1.00  0.00     0.014 A 
ATOM     44  C   UNL A   1      38.832  24.811  26.858  1.00  0.00     0.014 A 
ATOM     45  C   UNL A   1      41.165  24.478  28.373  1.00  0.00     0.010 A 
ATOM     46  C   UNL A   1      39.465  25.917  27.410  1.00  0.00     0.010 A 
ATOM     47  C   UNL A   1      40.661  25.763  28.131  1.00  0.00    -0.014 A 
BRANCH  47  48
ATOM     48  C   UNL A   1      41.414  26.971  28.541  1.00  0.00     0.031 A 
ATOM     49  C   UNL A   1      40.683  28.168  29.070  1.00  0.00     0.074 A 
ATOM     50  C   UNL A   1      42.742  27.019  28.307  1.00  0.00     0.049 A 
ATOM     51  N   UNL A   1      41.144  29.360  29.339  1.00  0.00    -0.248 NA
ATOM     52  C   UNL A   1      39.236  28.016  29.289  1.00  0.00     0.031 C 
ATOM     53  C   UNL A   1      43.544  25.929  27.735  1.00  0.00     0.029 A 
ATOM     54  N   UNL A   1      43.651  28.027  28.498  1.00  0.00    -0.354 N 
ATOM     55  C   UNL A   1      40.041  30.111  29.724  1.00  0.00     0.074 A 
ATOM     56  C   UNL A   1      38.884  29.249  29.623  1.00  0.00     0.031 C 
ATOM     57  C   UNL A   1      44.823  26.325  27.637  1.00  0.00     0.029 A 
ATOM     58  C   UNL A   1      44.927  27.705  28.097  1.00  0.00     0.049 A 
ATOM     59  H   UNL A   1      43.414  28.900  28.886  1.00  0.00     0.167 HD
ATOM     60  C   UNL A   1      40.002  31.400  30.134  1.00  0.00     0.031 A 
ATOM     61  C   UNL A   1      46.055  28.442  28.089  1.00  0.00     0.031 A 
ATOM     62  C   UNL A   1      41.167  32.235  30.252  1.00  0.00     0.049 A 
ATOM     63  C   UNL A   1      45.992  29.855  28.594  1.00  0.00     0.074 A 
ATOM     64  C   UNL A   1      41.253  33.534  30.724  1.00  0.00     0.029 A 
ATOM     65  N   UNL A   1      42.453  31.851  29.899  1.00  0.00    -0.354 N 
ATOM     66  N   UNL A   1      44.950  30.529  29.019  1.00  0.00    -0.248 NA
ATOM     67  C   UNL A   1      47.254  30.603  28.633  1.00  0.00     0.031 C 
ATOM     68  C   UNL A   1      42.586  33.946  30.622  1.00  0.00     0.029 A 
ATOM     69  C   UNL A   1      43.337  32.890  30.131  1.00  0.00     0.049 A 
ATOM     70  H   UNL A   1      42.700  30.969  29.537  1.00  0.00     0.167 HD
ATOM     71  C   UNL A   1      45.434  31.774  29.398  1.00  0.00     0.074 A 
ATOM     72  C   UNL A   1      46.865  31.754  29.166  1.00  0.00     0.031 C 
ATOM     73  C   UNL A   1      44.757  32.840  29.893  1.00  0.00     0.031 A 
BRANCH  60  74
ATOM     74  C   UNL A   1      38.656  31.981  30.475  1.00  0.00    -0.014 A 
ATOM     75  C   UNL A   1      38.201  32.031  31.805  1.00  0.00     0.010 A 
ATOM     76  C   UNL A   1      37.842  32.504  29.454  1.00  0.00     0.010 A 
ATOM     77  C   UNL A   1      36.940  32.552  32.103  1.00  0.00     0.020 A 
ATOM     78  C   UNL A   1      36.591  33.052  29.751  1.00  0.00     0.020 A 
ATOM     79  C   UNL A   1      36.139  33.055  31.072  1.00  0.00     0.054 A 
BRANCH  79  80
ATOM     80  S   UNL A   1      34.513  33.743  31.488  1.00  0.00     0.124 S 
ATOM     81  O   UNL A   1      33.950  32.692  32.331  1.00  0.00    -0.237 OA
ATOM     82  O   UNL A   1      34.856  34.985  32.177  1.00  0.00    -0.237 OA
ATOM     83  O   UNL A   1      33.867  33.913  30.189  1.00  0.00    -0.744 OA
ENDBRANCH  79  80
ENDBRANCH  60  74
BRANCH  61  84
ATOM     84  C   UNL A   1      47.331  27.851  27.601  1.00  0.00    -0.014 A 
ATOM     85  C   UNL A   1      47.698  27.967  26.249  1.00  0.00     0.010 A 
ATOM     86  C   UNL A   1      48.199  27.190  28.491  1.00  0.00     0.010 A 
ATOM     87  C   UNL A   1      48.900  27.417  25.792  1.00  0.00     0.020 A 
ATOM     88  C   UNL A   1      49.413  26.660  28.041  1.00  0.00     0.020 A 
ATOM     89  C   UNL A   1      49.749  26.767  26.691  1.00  0.00     0.054 A 
BRANCH  89  90
ATOM     90  S   UNL A   1      51.330  26.109  26.086  1.00  0.00     0.124 S 
ATOM     91  O   UNL A   1      51.311  24.747  26.612  1.00  0.00    -0.237 OA
ATOM     92  O   UNL A   1      51.190  26.229  24.637  1.00  0.00    -0.237 OA
ATOM     93  O   UNL A   1      52.321  27.000  26.684  1.00  0.00    -0.744 OA
ENDBRANCH  89  90
ENDBRANCH  61  84
BRANCH  73  94
ATOM     94  C   UNL A   1      45.563  34.057  30.246  1.00  0.00    -0.014 A 
ATOM     95  C   UNL A   1      45.775  35.083  29.308  1.00  0.00     0.010 A 
ATOM     96  C   UNL A   1      46.062  34.202  31.553  1.00  0.00     0.010 A 
ATOM     97  C   UNL A   1      46.499  36.223  29.665  1.00  0.00     0.020 A 
ATOM     98  C   UNL A   1      46.765  35.351  31.919  1.00  0.00     0.020 A 
ATOM     99  C   UNL A   1      46.989  36.349  30.970  1.00  0.00     0.054 A 
BRANCH  99 100
ATOM    100  S   UNL A   1      47.882  37.861  31.425  1.00  0.00     0.124 S 
ATOM    101  O   UNL A   1      46.918  38.899  31.071  1.00  0.00    -0.237 OA
ATOM    102  O   UNL A   1      48.114  37.679  32.856  1.00  0.00    -0.237 OA
ATOM    103  O   UNL A   1      49.083  37.815  30.595  1.00  0.00    -0.744 OA
ENDBRANCH  99 100
ENDBRANCH  73  94
ENDBRANCH  47  48
ENDBRANCH  39  42
ENDBRANCH  37  38
ENDBRANCH  36  37
ENDBRANCH   1  36
TORSDOF 20
ENDMDL
MODEL 3
REMARK VINA RESULT:     -11.4      9.628     16.443
REMARK SMILES C=CCN1C(=O)/C(=C/c2ccccc2[N+](=O)[O-])S/C1=[NH+]\c1ccc(O)cc1C(=O)NCCCCNC(=O)c1ccc(-c2c3nc(c(-c4ccc(S(=O)(=O)[O-])cc4)c4ccc([nH]4)c(-c4ccc(S(=O)(=O)[O-])cc4)c4nc(c(-c5ccc(S(=O)(=O)[O-])cc5)c5ccc2[nH]5)C=C4)C=C3)cc1
REMARK SMILES IDX 32 1 31 2 30 3 28 4 29 5 27 7 21 8 22 9 23 10 26 11 24 12
REMARK SMILES IDX 20 13 4 14 5 15 19 16 6 17 7 18 18 19 8 20 3 22 2 23 1 24
REMARK SMILES IDX 9 25 10 26 14 27 11 28 13 29 12 30 15 31 16 32 17 33 25 34
REMARK SMILES IDX 33 36 34 37 35 38 36 39 37 41 38 42 39 43 97 44 40 45 96 46
REMARK SMILES IDX 41 47 42 48 43 49 90 50 44 51 95 52 89 53 91 54 45 55 94 56
REMARK SMILES IDX 88 57 87 58 46 60 76 61 57 62 75 63 58 64 61 65 74 66 92 67
REMARK SMILES IDX 59 68 60 69 73 71 93 72 62 73 47 74 48 75 56 76 49 77 55 78
REMARK SMILES IDX 50 79 51 80 52 81 53 82 54 83 77 84 78 85 86 86 79 87 85 88
REMARK SMILES IDX 80 89 81 90 82 91 83 92 84 93 63 94 64 95 72 96 65 97 71 98
REMARK SMILES IDX 66 99 67 100 68 101 69 102 70 103
REMARK H PARENT 30 6 20 21 25 35 35 40 91 59 61 70
REMARK Flexibility Score: inf
ROOT
ATOM      1  C   UNL A   1      47.973  40.031  29.408  1.00  0.00     0.023 C 
ENDROOT
BRANCH   1   2
ATOM      2  C   UNL A   1      47.546  40.370  27.984  1.00  0.00     0.116 C 
BRANCH   2   3
ATOM      3  N   UNL A   1      47.498  39.273  27.053  1.00  0.00    -0.352 N 
ATOM      4  C   UNL A   1      46.439  38.522  26.591  1.00  0.00     0.255 C 
ATOM      5  O   UNL A   1      46.725  37.673  25.737  1.00  0.00    -0.269 OA
ATOM      6  H   UNL A   1      48.372  39.013  26.684  1.00  0.00     0.163 HD
BRANCH   4   7
ATOM      7  C   UNL A   1      45.003  38.593  27.044  1.00  0.00     0.090 A 
ATOM      8  C   UNL A   1      44.280  39.682  27.585  1.00  0.00     0.138 A 
ATOM      9  C   UNL A   1      42.915  39.513  27.905  1.00  0.00     0.056 A 
ATOM     10  C   UNL A   1      42.237  38.327  27.648  1.00  0.00     0.050 A 
ATOM     11  C   UNL A   1      44.283  37.398  26.781  1.00  0.00     0.064 A 
ATOM     12  C   UNL A   1      42.925  37.279  27.072  1.00  0.00     0.116 A 
BRANCH   8  13
ATOM     13  N   UNL A   1      44.762  40.956  27.911  1.00  0.00    -0.234 N 
ATOM     14  N   UNL A   1      45.094  43.215  27.474  1.00  0.00    -0.182 N 
ATOM     15  C   UNL A   1      45.030  44.149  26.459  1.00  0.00     0.348 C 
ATOM     16  C   UNL A   1      44.549  41.991  27.176  1.00  0.00     0.324 C 
ATOM     17  O   UNL A   1      45.425  45.306  26.489  1.00  0.00    -0.240 OA
ATOM     18  C   UNL A   1      44.385  43.552  25.255  1.00  0.00     0.110 C 
ATOM     19  S   UNL A   1      43.686  42.041  25.663  1.00  0.00     0.007 SA
ATOM     20  C   UNL A   1      44.400  44.128  24.045  1.00  0.00     0.039 C 
ATOM     21  H   UNL A   1      45.285  41.064  28.739  1.00  0.00     0.313 HD
BRANCH  14  22
ATOM     22  C   UNL A   1      45.606  43.567  28.802  1.00  0.00     0.275 C 
BRANCH  22  23
ATOM     23  C   UNL A   1      44.559  43.487  29.887  1.00  0.00     0.011 C 
ATOM     24  C   UNL A   1      44.636  44.072  31.090  1.00  0.00     0.008 C 
ENDBRANCH  22  23
ENDBRANCH  14  22
BRANCH  20  25
ATOM     25  C   UNL A   1      43.741  43.576  22.849  1.00  0.00     0.054 A 
ATOM     26  C   UNL A   1      42.354  43.751  22.719  1.00  0.00     0.015 A 
ATOM     27  C   UNL A   1      44.416  42.912  21.807  1.00  0.00     0.276 A 
ATOM     28  C   UNL A   1      41.674  43.282  21.587  1.00  0.00     0.001 A 
ATOM     29  C   UNL A   1      43.742  42.446  20.668  1.00  0.00     0.086 A 
ATOM     30  C   UNL A   1      42.365  42.633  20.564  1.00  0.00     0.007 A 
BRANCH  27  31
ATOM     31  N   UNL A   1      45.855  42.684  21.869  1.00  0.00     0.063 N 
ATOM     32  O   UNL A   1      46.237  41.508  21.956  1.00  0.00    -0.258 OA
ATOM     33  O   UNL A   1      46.599  43.672  21.850  1.00  0.00    -0.258 OA
ENDBRANCH  27  31
ENDBRANCH  20  25
ENDBRANCH   8  13
BRANCH  12  34
ATOM     34  O   UNL A   1      42.230  36.140  26.798  1.00  0.00    -0.508 OA
ATOM     35  H   UNL A   1      41.317  36.185  26.595  1.00  0.00     0.293 HD
ENDBRANCH  12  34
ENDBRANCH   4   7
ENDBRANCH   2   3
ENDBRANCH   1   2
BRANCH   1  36
ATOM     36  C   UNL A   1      47.043  39.163  30.266  1.00  0.00     0.023 C 
BRANCH  36  37
ATOM     37  C   UNL A   1      47.428  37.714  30.577  1.00  0.00     0.116 C 
BRANCH  37  38
ATOM     38  N   UNL A   1      48.705  37.278  30.036  1.00  0.00    -0.352 N 
ATOM     39  C   UNL A   1      49.063  36.111  29.392  1.00  0.00     0.251 C 
ATOM     40  H   UNL A   1      49.439  37.925  30.147  1.00  0.00     0.163 HD
ATOM     41  O   UNL A   1      50.219  35.933  29.019  1.00  0.00    -0.269 OA
BRANCH  39  42
ATOM     42  C   UNL A   1      48.089  35.016  29.246  1.00  0.00     0.039 A 
ATOM     43  C   UNL A   1      47.447  34.875  28.011  1.00  0.00     0.014 A 
ATOM     44  C   UNL A   1      47.878  34.090  30.266  1.00  0.00     0.014 A 
ATOM     45  C   UNL A   1      46.718  33.720  27.743  1.00  0.00     0.010 A 
ATOM     46  C   UNL A   1      47.217  32.905  29.973  1.00  0.00     0.010 A 
ATOM     47  C   UNL A   1      46.672  32.692  28.696  1.00  0.00    -0.014 A 
BRANCH  47  48
ATOM     48  C   UNL A   1      46.145  31.351  28.352  1.00  0.00     0.031 A 
ATOM     49  C   UNL A   1      44.713  31.013  28.638  1.00  0.00     0.074 A 
ATOM     50  C   UNL A   1      47.003  30.411  27.904  1.00  0.00     0.049 A 
ATOM     51  N   UNL A   1      44.108  29.858  28.548  1.00  0.00    -0.248 NA
ATOM     52  C   UNL A   1      43.859  32.107  29.126  1.00  0.00     0.031 C 
ATOM     53  C   UNL A   1      48.434  30.619  27.650  1.00  0.00     0.029 A 
ATOM     54  N   UNL A   1      46.807  29.089  27.602  1.00  0.00    -0.354 N 
ATOM     55  C   UNL A   1      42.813  30.078  29.000  1.00  0.00     0.074 A 
ATOM     56  C   UNL A   1      42.731  31.467  29.395  1.00  0.00     0.031 C 
ATOM     57  C   UNL A   1      48.979  29.470  27.220  1.00  0.00     0.029 A 
ATOM     58  C   UNL A   1      47.951  28.436  27.205  1.00  0.00     0.049 A 
ATOM     59  H   UNL A   1      45.929  28.646  27.663  1.00  0.00     0.167 HD
ATOM     60  C   UNL A   1      41.787  29.198  29.071  1.00  0.00     0.031 A 
ATOM     61  C   UNL A   1      48.154  27.145  26.878  1.00  0.00     0.031 A 
ATOM     62  C   UNL A   1      41.880  27.827  28.651  1.00  0.00     0.049 A 
ATOM     63  C   UNL A   1      46.985  26.202  26.918  1.00  0.00     0.074 A 
ATOM     64  C   UNL A   1      40.884  26.867  28.612  1.00  0.00     0.029 A 
ATOM     65  N   UNL A   1      43.041  27.219  28.191  1.00  0.00    -0.354 N 
ATOM     66  N   UNL A   1      45.749  26.443  27.286  1.00  0.00    -0.248 NA
ATOM     67  C   UNL A   1      47.232  24.820  26.490  1.00  0.00     0.031 C 
ATOM     68  C   UNL A   1      41.452  25.670  28.162  1.00  0.00     0.029 A 
ATOM     69  C   UNL A   1      42.789  25.895  27.878  1.00  0.00     0.049 A 
ATOM     70  H   UNL A   1      43.914  27.665  28.102  1.00  0.00     0.167 HD
ATOM     71  C   UNL A   1      45.064  25.248  27.110  1.00  0.00     0.074 A 
ATOM     72  C   UNL A   1      46.019  24.291  26.591  1.00  0.00     0.031 C 
ATOM     73  C   UNL A   1      43.760  24.966  27.358  1.00  0.00     0.031 A 
BRANCH  60  74
ATOM     74  C   UNL A   1      40.481  29.698  29.628  1.00  0.00    -0.014 A 
ATOM     75  C   UNL A   1      39.471  30.195  28.784  1.00  0.00     0.010 A 
ATOM     76  C   UNL A   1      40.250  29.652  31.015  1.00  0.00     0.010 A 
ATOM     77  C   UNL A   1      38.273  30.676  29.318  1.00  0.00     0.020 A 
ATOM     78  C   UNL A   1      39.042  30.107  31.552  1.00  0.00     0.020 A 
ATOM     79  C   UNL A   1      38.069  30.634  30.701  1.00  0.00     0.054 A 
BRANCH  79  80
ATOM     80  S   UNL A   1      36.498  31.248  31.368  1.00  0.00     0.124 S 
ATOM     81  O   UNL A   1      36.094  30.151  32.243  1.00  0.00    -0.237 OA
ATOM     82  O   UNL A   1      36.897  32.479  32.048  1.00  0.00    -0.237 OA
ATOM     83  O   UNL A   1      35.668  31.438  30.181  1.00  0.00    -0.744 OA
ENDBRANCH  79  80
ENDBRANCH  60  74
BRANCH  61  84
ATOM     84  C   UNL A   1      49.508  26.680  26.471  1.00  0.00    -0.014 A 
ATOM     85  C   UNL A   1      50.351  26.045  27.399  1.00  0.00     0.010 A 
ATOM     86  C   UNL A   1      49.954  26.850  25.147  1.00  0.00     0.010 A 
ATOM     87  C   UNL A   1      51.621  25.603  27.017  1.00  0.00     0.020 A 
ATOM     88  C   UNL A   1      51.215  26.387  24.755  1.00  0.00     0.020 A 
ATOM     89  C   UNL A   1      52.045  25.776  25.697  1.00  0.00     0.054 A 
BRANCH  89  90
ATOM     90  S   UNL A   1      53.676  25.147  25.208  1.00  0.00     0.124 S 
ATOM     91  O   UNL A   1      53.468  23.703  25.247  1.00  0.00    -0.237 OA
ATOM     92  O   UNL A   1      53.854  25.725  23.878  1.00  0.00    -0.237 OA
ATOM     93  O   UNL A   1      54.569  25.681  26.234  1.00  0.00    -0.744 OA
ENDBRANCH  89  90
ENDBRANCH  61  84
BRANCH  73  94
ATOM     94  C   UNL A   1      43.288  23.577  27.038  1.00  0.00    -0.014 A 
ATOM     95  C   UNL A   1      43.296  23.095  25.717  1.00  0.00     0.010 A 
ATOM     96  C   UNL A   1      42.889  22.723  28.082  1.00  0.00     0.010 A 
ATOM     97  C   UNL A   1      42.885  21.789  25.443  1.00  0.00     0.020 A 
ATOM     98  C   UNL A   1      42.501  21.410  27.814  1.00  0.00     0.020 A 
ATOM     99  C   UNL A   1      42.490  20.954  26.494  1.00  0.00     0.054 A 
BRANCH  99 100
ATOM    100  S   UNL A   1      42.009  19.246  26.120  1.00  0.00     0.124 S 
ATOM    101  O   UNL A   1      42.731  18.994  24.876  1.00  0.00    -0.237 OA
ATOM    102  O   UNL A   1      42.493  18.512  27.288  1.00  0.00    -0.237 OA
ATOM    103  O   UNL A   1      40.555  19.316  25.995  1.00  0.00    -0.744 OA
ENDBRANCH  99 100
ENDBRANCH  73  94
ENDBRANCH  47  48
ENDBRANCH  39  42
ENDBRANCH  37  38
ENDBRANCH  36  37
ENDBRANCH   1  36
TORSDOF 20
ENDMDL
