MODEL 1
REMARK VINA RESULT:     -10.6      0.000      0.000
REMARK SMILES [NH3+][C@H]1C=C[C@@H](C(=O)NC2(CC(=O)NCCCCNC(=O)c3ccc(-c4c5nc(c(-c6ccc(S(=O)(=O)[O-])cc6)c6ccc([nH]6)c(-c6ccc(S(=O)(=O)[O-])cc6)c6nc(c(-c7ccc(S(=O)(=O)[O-])cc7)c7ccc4[nH]7)C=C6)C=C5)cc3)CCC2)C1
REMARK SMILES IDX 15 1 14 2 13 3 11 4 12 5 10 7 9 8 81 9 83 10 82 11 8 12 6 13
REMARK SMILES IDX 7 14 5 16 2 17 3 18 84 19 4 20 1 21 16 25 17 26 18 27 19 28
REMARK SMILES IDX 20 30 21 31 22 32 80 33 23 34 79 35 24 36 25 37 26 38 73 39
REMARK SMILES IDX 27 40 78 41 72 42 74 43 28 44 77 45 71 46 70 47 29 49 59 50
REMARK SMILES IDX 40 51 58 52 41 53 44 54 57 55 75 56 42 57 43 58 56 60 76 61
REMARK SMILES IDX 45 62 30 63 31 64 39 65 32 66 38 67 33 68 34 69 35 70 36 71
REMARK SMILES IDX 37 72 60 73 61 74 69 75 62 76 68 77 63 78 64 79 65 80 66 81
REMARK SMILES IDX 67 82 46 83 47 84 55 85 48 86 54 87 49 88 50 89 51 90 52 91
REMARK SMILES IDX 53 92
REMARK H PARENT 13 6 8 15 1 22 1 23 1 24 18 29 74 48 44 59
REMARK Flexibility Score: inf
ROOT
ATOM      1  C   UNL A   1      31.463  28.303  25.672  1.00  0.00     0.023 C 
ENDROOT
BRANCH   1   2
ATOM      2  C   UNL A   1      30.770  27.007  25.261  1.00  0.00     0.116 C 
BRANCH   2   3
ATOM      3  N   UNL A   1      30.908  26.013  26.307  1.00  0.00    -0.356 N 
ATOM      4  C   UNL A   1      30.936  24.658  26.193  1.00  0.00     0.222 C 
ATOM      5  O   UNL A   1      30.821  23.975  27.213  1.00  0.00    -0.275 OA
ATOM      6  H   UNL A   1      30.994  26.367  27.222  1.00  0.00     0.163 HD
BRANCH   4   7
ATOM      7  C   UNL A   1      31.124  23.986  24.848  1.00  0.00     0.128 C 
BRANCH   7   8
ATOM      8  C   UNL A   1      32.546  23.472  24.500  1.00  0.00     0.049 C 
ATOM      9  C   UNL A   1      33.516  24.649  24.145  1.00  0.00     0.029 C 
ATOM     10  C   UNL A   1      32.680  23.044  23.022  1.00  0.00     0.029 C 
ATOM     11  C   UNL A   1      33.120  24.474  22.673  1.00  0.00     0.005 C 
BRANCH   8  12
ATOM     12  N   UNL A   1      33.085  22.652  25.610  1.00  0.00    -0.350 N 
ATOM     13  C   UNL A   1      34.257  22.093  26.005  1.00  0.00     0.227 C 
ATOM     14  O   UNL A   1      34.231  21.618  27.153  1.00  0.00    -0.274 OA
ATOM     15  H   UNL A   1      32.374  22.451  26.261  1.00  0.00     0.164 HD
BRANCH  13  16
ATOM     16  C   UNL A   1      35.563  21.955  25.217  1.00  0.00     0.107 C 
ATOM     17  C   UNL A   1      38.003  22.002  25.365  1.00  0.00     0.205 C 
ATOM     18  C   UNL A   1      37.487  20.630  25.057  1.00  0.00     0.033 C 
ATOM     19  C   UNL A   1      36.736  22.772  25.760  1.00  0.00     0.087 C 
ATOM     20  C   UNL A   1      36.147  20.596  24.997  1.00  0.00    -0.012 C 
BRANCH  17  21
ATOM     21  N   UNL A   1      38.977  22.000  26.443  1.00  0.00    -0.352 N 
ATOM     22  H   UNL A   1      39.586  22.814  26.352  1.00  0.00     0.345 HD
ATOM     23  H   UNL A   1      39.536  21.149  26.394  1.00  0.00     0.345 HD
ATOM     24  H   UNL A   1      38.491  22.037  27.339  1.00  0.00     0.345 HD
ENDBRANCH  17  21
ENDBRANCH  13  16
ENDBRANCH   8  12
ENDBRANCH   7   8
ENDBRANCH   4   7
ENDBRANCH   2   3
ENDBRANCH   1   2
BRANCH   1  25
ATOM     25  C   UNL A   1      32.977  28.219  25.837  1.00  0.00     0.023 C 
BRANCH  25  26
ATOM     26  C   UNL A   1      33.470  28.495  27.250  1.00  0.00     0.116 C 
BRANCH  26  27
ATOM     27  N   UNL A   1      33.418  29.900  27.628  1.00  0.00    -0.352 N 
ATOM     28  C   UNL A   1      34.423  30.680  28.159  1.00  0.00     0.251 C 
ATOM     29  H   UNL A   1      32.554  30.351  27.488  1.00  0.00     0.163 HD
ATOM     30  O   UNL A   1      34.204  31.840  28.481  1.00  0.00    -0.269 OA
BRANCH  28  31
ATOM     31  C   UNL A   1      35.754  30.074  28.389  1.00  0.00     0.039 A 
ATOM     32  C   UNL A   1      36.686  30.084  27.349  1.00  0.00     0.014 A 
ATOM     33  C   UNL A   1      36.104  29.574  29.644  1.00  0.00     0.014 A 
ATOM     34  C   UNL A   1      37.997  29.670  27.594  1.00  0.00     0.010 A 
ATOM     35  C   UNL A   1      37.429  29.248  29.910  1.00  0.00     0.010 A 
ATOM     36  C   UNL A   1      38.392  29.296  28.889  1.00  0.00    -0.014 A 
BRANCH  36  37
ATOM     37  C   UNL A   1      39.801  28.949  29.205  1.00  0.00     0.031 A 
ATOM     38  C   UNL A   1      40.702  29.977  29.836  1.00  0.00     0.074 A 
ATOM     39  C   UNL A   1      40.293  27.745  28.849  1.00  0.00     0.049 A 
ATOM     40  N   UNL A   1      41.982  29.903  30.094  1.00  0.00    -0.248 NA
ATOM     41  C   UNL A   1      40.091  31.269  30.191  1.00  0.00     0.031 C 
ATOM     42  C   UNL A   1      39.539  26.681  28.181  1.00  0.00     0.029 A 
ATOM     43  N   UNL A   1      41.552  27.216  28.992  1.00  0.00    -0.354 N 
ATOM     44  C   UNL A   1      42.334  31.144  30.611  1.00  0.00     0.074 A 
ATOM     45  C   UNL A   1      41.146  31.968  30.585  1.00  0.00     0.031 C 
ATOM     46  C   UNL A   1      40.342  25.619  28.000  1.00  0.00     0.029 A 
ATOM     47  C   UNL A   1      41.674  25.938  28.501  1.00  0.00     0.049 A 
ATOM     48  H   UNL A   1      42.297  27.707  29.407  1.00  0.00     0.167 HD
ATOM     49  C   UNL A   1      43.532  31.557  31.089  1.00  0.00     0.031 A 
ATOM     50  C   UNL A   1      42.740  25.115  28.456  1.00  0.00     0.031 A 
ATOM     51  C   UNL A   1      44.704  30.726  31.150  1.00  0.00     0.049 A 
ATOM     52  C   UNL A   1      44.055  25.586  29.018  1.00  0.00     0.074 A 
ATOM     53  C   UNL A   1      45.948  31.029  31.675  1.00  0.00     0.029 A 
ATOM     54  N   UNL A   1      44.775  29.425  30.677  1.00  0.00    -0.354 N 
ATOM     55  N   UNL A   1      44.350  26.744  29.559  1.00  0.00    -0.248 NA
ATOM     56  C   UNL A   1      45.174  24.635  28.975  1.00  0.00     0.031 C 
ATOM     57  C   UNL A   1      46.781  29.922  31.491  1.00  0.00     0.029 A 
ATOM     58  C   UNL A   1      46.043  28.914  30.889  1.00  0.00     0.049 A 
ATOM     59  H   UNL A   1      44.032  28.936  30.253  1.00  0.00     0.167 HD
ATOM     60  C   UNL A   1      45.684  26.652  29.941  1.00  0.00     0.074 A 
ATOM     61  C   UNL A   1      46.132  25.321  29.585  1.00  0.00     0.031 C 
ATOM     62  C   UNL A   1      46.467  27.585  30.534  1.00  0.00     0.031 A 
BRANCH  49  63
ATOM     63  C   UNL A   1      43.628  32.971  31.594  1.00  0.00    -0.014 A 
ATOM     64  C   UNL A   1      43.911  34.034  30.717  1.00  0.00     0.010 A 
ATOM     65  C   UNL A   1      43.404  33.247  32.954  1.00  0.00     0.010 A 
ATOM     66  C   UNL A   1      44.013  35.341  31.197  1.00  0.00     0.020 A 
ATOM     67  C   UNL A   1      43.478  34.558  33.435  1.00  0.00     0.020 A 
ATOM     68  C   UNL A   1      43.802  35.594  32.556  1.00  0.00     0.054 A 
BRANCH  68  69
ATOM     69  S   UNL A   1      43.922  37.303  33.151  1.00  0.00     0.124 S 
ATOM     70  O   UNL A   1      43.872  38.059  31.903  1.00  0.00    -0.237 OA
ATOM     71  O   UNL A   1      42.745  37.430  34.008  1.00  0.00    -0.237 OA
ATOM     72  O   UNL A   1      45.205  37.336  33.850  1.00  0.00    -0.744 OA
ENDBRANCH  68  69
ENDBRANCH  49  63
BRANCH  50  73
ATOM     73  C   UNL A   1      42.608  23.751  27.876  1.00  0.00    -0.014 A 
ATOM     74  C   UNL A   1      42.827  23.539  26.503  1.00  0.00     0.010 A 
ATOM     75  C   UNL A   1      42.263  22.657  28.690  1.00  0.00     0.010 A 
ATOM     76  C   UNL A   1      42.680  22.264  25.949  1.00  0.00     0.020 A 
ATOM     77  C   UNL A   1      42.140  21.375  28.145  1.00  0.00     0.020 A 
ATOM     78  C   UNL A   1      42.335  21.190  26.775  1.00  0.00     0.054 A 
BRANCH  78  79
ATOM     79  S   UNL A   1      42.190  19.535  26.044  1.00  0.00     0.124 S 
ATOM     80  O   UNL A   1      43.082  19.633  24.893  1.00  0.00    -0.237 OA
ATOM     81  O   UNL A   1      42.648  18.668  27.127  1.00  0.00    -0.237 OA
ATOM     82  O   UNL A   1      40.768  19.425  25.729  1.00  0.00    -0.744 OA
ENDBRANCH  78  79
ENDBRANCH  50  73
BRANCH  62  83
ATOM     83  C   UNL A   1      47.880  27.193  30.867  1.00  0.00    -0.014 A 
ATOM     84  C   UNL A   1      48.181  26.502  32.054  1.00  0.00     0.010 A 
ATOM     85  C   UNL A   1      48.910  27.465  29.948  1.00  0.00     0.010 A 
ATOM     86  C   UNL A   1      49.494  26.111  32.327  1.00  0.00     0.020 A 
ATOM     87  C   UNL A   1      50.219  27.054  30.208  1.00  0.00     0.020 A 
ATOM     88  C   UNL A   1      50.506  26.389  31.402  1.00  0.00     0.054 A 
BRANCH  88  89
ATOM     89  S   UNL A   1      52.193  25.824  31.754  1.00  0.00     0.124 S 
ATOM     90  O   UNL A   1      52.873  26.094  30.490  1.00  0.00    -0.237 OA
ATOM     91  O   UNL A   1      52.590  26.673  32.875  1.00  0.00    -0.237 OA
ATOM     92  O   UNL A   1      52.023  24.410  32.082  1.00  0.00    -0.744 OA
ENDBRANCH  88  89
ENDBRANCH  62  83
ENDBRANCH  36  37
ENDBRANCH  28  31
ENDBRANCH  26  27
ENDBRANCH  25  26
ENDBRANCH   1  25
TORSDOF 18
ENDMDL
MODEL 2
REMARK VINA RESULT:     -10.3      3.717     10.679
REMARK SMILES [NH3+][C@H]1C=C[C@@H](C(=O)NC2(CC(=O)NCCCCNC(=O)c3ccc(-c4c5nc(c(-c6ccc(S(=O)(=O)[O-])cc6)c6ccc([nH]6)c(-c6ccc(S(=O)(=O)[O-])cc6)c6nc(c(-c7ccc(S(=O)(=O)[O-])cc7)c7ccc4[nH]7)C=C6)C=C5)cc3)CCC2)C1
REMARK SMILES IDX 15 1 14 2 13 3 11 4 12 5 10 7 9 8 81 9 83 10 82 11 8 12 6 13
REMARK SMILES IDX 7 14 5 16 2 17 3 18 84 19 4 20 1 21 16 25 17 26 18 27 19 28
REMARK SMILES IDX 20 30 21 31 22 32 80 33 23 34 79 35 24 36 25 37 26 38 73 39
REMARK SMILES IDX 27 40 78 41 72 42 74 43 28 44 77 45 71 46 70 47 29 49 59 50
REMARK SMILES IDX 40 51 58 52 41 53 44 54 57 55 75 56 42 57 43 58 56 60 76 61
REMARK SMILES IDX 45 62 30 63 31 64 39 65 32 66 38 67 33 68 34 69 35 70 36 71
REMARK SMILES IDX 37 72 60 73 61 74 69 75 62 76 68 77 63 78 64 79 65 80 66 81
REMARK SMILES IDX 67 82 46 83 47 84 55 85 48 86 54 87 49 88 50 89 51 90 52 91
REMARK SMILES IDX 53 92
REMARK H PARENT 13 6 8 15 1 22 1 23 1 24 18 29 74 48 44 59
REMARK Flexibility Score: inf
ROOT
ATOM      1  C   UNL A   1      41.938  19.887  25.988  1.00  0.00     0.023 C 
ENDROOT
BRANCH   1   2
ATOM      2  C   UNL A   1      42.878  21.059  26.251  1.00  0.00     0.116 C 
BRANCH   2   3
ATOM      3  N   UNL A   1      43.653  21.354  25.062  1.00  0.00    -0.356 N 
ATOM      4  C   UNL A   1      43.894  22.562  24.483  1.00  0.00     0.222 C 
ATOM      5  O   UNL A   1      44.375  22.589  23.348  1.00  0.00    -0.275 OA
ATOM      6  H   UNL A   1      44.059  20.577  24.615  1.00  0.00     0.163 HD
BRANCH   4   7
ATOM      7  C   UNL A   1      43.602  23.857  25.213  1.00  0.00     0.128 C 
BRANCH   7   8
ATOM      8  C   UNL A   1      44.802  24.596  25.862  1.00  0.00     0.049 C 
ATOM      9  C   UNL A   1      46.077  23.689  25.921  1.00  0.00     0.029 C 
ATOM     10  C   UNL A   1      44.790  24.512  27.405  1.00  0.00     0.029 C 
ATOM     11  C   UNL A   1      45.635  23.231  27.318  1.00  0.00     0.005 C 
BRANCH   8  12
ATOM     12  N   UNL A   1      45.080  25.861  25.144  1.00  0.00    -0.350 N 
ATOM     13  C   UNL A   1      45.063  27.200  25.367  1.00  0.00     0.227 C 
ATOM     14  O   UNL A   1      45.566  27.874  24.452  1.00  0.00    -0.274 OA
ATOM     15  H   UNL A   1      45.363  25.672  24.220  1.00  0.00     0.164 HD
BRANCH  13  16
ATOM     16  C   UNL A   1      44.488  27.962  26.566  1.00  0.00     0.107 C 
ATOM     17  C   UNL A   1      44.588  30.039  27.850  1.00  0.00     0.205 C 
ATOM     18  C   UNL A   1      43.291  29.896  27.116  1.00  0.00     0.033 C 
ATOM     19  C   UNL A   1      45.458  28.931  27.242  1.00  0.00     0.087 C 
ATOM     20  C   UNL A   1      43.241  28.768  26.393  1.00  0.00    -0.012 C 
BRANCH  17  21
ATOM     21  N   UNL A   1      45.192  31.347  27.660  1.00  0.00    -0.352 N 
ATOM     22  H   UNL A   1      44.839  31.990  28.370  1.00  0.00     0.345 HD
ATOM     23  H   UNL A   1      44.956  31.699  26.733  1.00  0.00     0.345 HD
ATOM     24  H   UNL A   1      46.205  31.269  27.746  1.00  0.00     0.345 HD
ENDBRANCH  17  21
ENDBRANCH  13  16
ENDBRANCH   8  12
ENDBRANCH   7   8
ENDBRANCH   4   7
ENDBRANCH   2   3
ENDBRANCH   1   2
BRANCH   1  25
ATOM     25  C   UNL A   1      40.462  20.147  26.269  1.00  0.00     0.023 C 
BRANCH  25  26
ATOM     26  C   UNL A   1      40.129  21.598  26.583  1.00  0.00     0.116 C 
BRANCH  26  27
ATOM     27  N   UNL A   1      38.976  22.109  25.855  1.00  0.00    -0.352 N 
ATOM     28  C   UNL A   1      38.451  23.384  25.870  1.00  0.00     0.251 C 
ATOM     29  H   UNL A   1      38.510  21.460  25.280  1.00  0.00     0.163 HD
ATOM     30  O   UNL A   1      37.434  23.643  25.243  1.00  0.00    -0.269 OA
BRANCH  28  31
ATOM     31  C   UNL A   1      39.105  24.417  26.704  1.00  0.00     0.039 A 
ATOM     32  C   UNL A   1      39.994  25.308  26.098  1.00  0.00     0.014 A 
ATOM     33  C   UNL A   1      38.781  24.555  28.055  1.00  0.00     0.014 A 
ATOM     34  C   UNL A   1      40.491  26.390  26.828  1.00  0.00     0.010 A 
ATOM     35  C   UNL A   1      39.205  25.679  28.753  1.00  0.00     0.010 A 
ATOM     36  C   UNL A   1      40.061  26.612  28.147  1.00  0.00    -0.014 A 
BRANCH  36  37
ATOM     37  C   UNL A   1      40.492  27.807  28.916  1.00  0.00     0.031 A 
ATOM     38  C   UNL A   1      41.825  27.809  29.614  1.00  0.00     0.074 A 
ATOM     39  C   UNL A   1      39.652  28.854  29.057  1.00  0.00     0.049 A 
ATOM     40  N   UNL A   1      42.336  28.710  30.413  1.00  0.00    -0.248 NA
ATOM     41  C   UNL A   1      42.682  26.629  29.413  1.00  0.00     0.031 C 
ATOM     42  C   UNL A   1      38.310  28.953  28.478  1.00  0.00     0.029 A 
ATOM     43  N   UNL A   1      39.803  30.034  29.744  1.00  0.00    -0.354 N 
ATOM     44  C   UNL A   1      43.555  28.192  30.834  1.00  0.00     0.074 A 
ATOM     45  C   UNL A   1      43.687  26.880  30.241  1.00  0.00     0.031 C 
ATOM     46  C   UNL A   1      37.774  30.140  28.810  1.00  0.00     0.029 A 
ATOM     47  C   UNL A   1      38.713  30.868  29.654  1.00  0.00     0.049 A 
ATOM     48  H   UNL A   1      40.614  30.260  30.253  1.00  0.00     0.167 HD
ATOM     49  C   UNL A   1      44.495  28.764  31.623  1.00  0.00     0.031 A 
ATOM     50  C   UNL A   1      38.495  32.083  30.194  1.00  0.00     0.031 A 
ATOM     51  C   UNL A   1      44.381  30.084  32.182  1.00  0.00     0.049 A 
ATOM     52  C   UNL A   1      39.565  32.711  31.045  1.00  0.00     0.074 A 
ATOM     53  C   UNL A   1      45.306  30.781  32.940  1.00  0.00     0.029 A 
ATOM     54  N   UNL A   1      43.279  30.911  32.035  1.00  0.00    -0.354 N 
ATOM     55  N   UNL A   1      40.738  32.229  31.380  1.00  0.00    -0.248 NA
ATOM     56  C   UNL A   1      39.287  34.052  31.578  1.00  0.00     0.031 C 
ATOM     57  C   UNL A   1      44.749  32.017  33.280  1.00  0.00     0.029 A 
ATOM     58  C   UNL A   1      43.494  32.108  32.696  1.00  0.00     0.049 A 
ATOM     59  H   UNL A   1      42.462  30.682  31.534  1.00  0.00     0.167 HD
ATOM     60  C   UNL A   1      41.347  33.217  32.147  1.00  0.00     0.074 A 
ATOM     61  C   UNL A   1      40.421  34.329  32.210  1.00  0.00     0.031 C 
ATOM     62  C   UNL A   1      42.564  33.205  32.743  1.00  0.00     0.031 A 
BRANCH  49  63
ATOM     63  C   UNL A   1      45.734  27.964  31.918  1.00  0.00    -0.014 A 
ATOM     64  C   UNL A   1      46.876  28.073  31.103  1.00  0.00     0.010 A 
ATOM     65  C   UNL A   1      45.771  27.114  33.037  1.00  0.00     0.010 A 
ATOM     66  C   UNL A   1      48.016  27.314  31.375  1.00  0.00     0.020 A 
ATOM     67  C   UNL A   1      46.920  26.373  33.330  1.00  0.00     0.020 A 
ATOM     68  C   UNL A   1      48.029  26.463  32.485  1.00  0.00     0.054 A 
BRANCH  68  69
ATOM     69  S   UNL A   1      49.528  25.502  32.827  1.00  0.00     0.124 S 
ATOM     70  O   UNL A   1      50.393  26.506  33.440  1.00  0.00    -0.237 OA
ATOM     71  O   UNL A   1      49.043  24.458  33.728  1.00  0.00    -0.237 OA
ATOM     72  O   UNL A   1      49.949  25.037  31.508  1.00  0.00    -0.744 OA
ENDBRANCH  68  69
ENDBRANCH  49  63
BRANCH  50  73
ATOM     73  C   UNL A   1      37.217  32.799  29.930  1.00  0.00    -0.014 A 
ATOM     74  C   UNL A   1      36.188  32.790  30.888  1.00  0.00     0.010 A 
ATOM     75  C   UNL A   1      37.021  33.493  28.722  1.00  0.00     0.010 A 
ATOM     76  C   UNL A   1      34.976  33.441  30.635  1.00  0.00     0.020 A 
ATOM     77  C   UNL A   1      35.821  34.167  28.476  1.00  0.00     0.020 A 
ATOM     78  C   UNL A   1      34.801  34.124  29.428  1.00  0.00     0.054 A 
BRANCH  78  79
ATOM     79  S   UNL A   1      33.237  34.997  29.136  1.00  0.00     0.124 S 
ATOM     80  O   UNL A   1      33.700  36.304  28.680  1.00  0.00    -0.237 OA
ATOM     81  O   UNL A   1      32.592  34.166  28.122  1.00  0.00    -0.237 OA
ATOM     82  O   UNL A   1      32.589  34.983  30.445  1.00  0.00    -0.744 OA
ENDBRANCH  78  79
ENDBRANCH  50  73
BRANCH  62  83
ATOM     83  C   UNL A   1      42.981  34.441  33.489  1.00  0.00    -0.014 A 
ATOM     84  C   UNL A   1      42.802  34.546  34.879  1.00  0.00     0.010 A 
ATOM     85  C   UNL A   1      43.618  35.487  32.796  1.00  0.00     0.010 A 
ATOM     86  C   UNL A   1      43.232  35.686  35.561  1.00  0.00     0.020 A 
ATOM     87  C   UNL A   1      44.070  36.619  33.479  1.00  0.00     0.020 A 
ATOM     88  C   UNL A   1      43.864  36.716  34.857  1.00  0.00     0.054 A 
BRANCH  88  89
ATOM     89  S   UNL A   1      44.462  38.164  35.772  1.00  0.00     0.124 S 
ATOM     90  O   UNL A   1      45.893  37.890  35.870  1.00  0.00    -0.237 OA
ATOM     91  O   UNL A   1      44.093  39.274  34.897  1.00  0.00    -0.237 OA
ATOM     92  O   UNL A   1      43.727  38.103  37.034  1.00  0.00    -0.744 OA
ENDBRANCH  88  89
ENDBRANCH  62  83
ENDBRANCH  36  37
ENDBRANCH  28  31
ENDBRANCH  26  27
ENDBRANCH  25  26
ENDBRANCH   1  25
TORSDOF 18
ENDMDL
MODEL 3
REMARK VINA RESULT:     -10.2      1.247      2.108
REMARK SMILES [NH3+][C@H]1C=C[C@@H](C(=O)NC2(CC(=O)NCCCCNC(=O)c3ccc(-c4c5nc(c(-c6ccc(S(=O)(=O)[O-])cc6)c6ccc([nH]6)c(-c6ccc(S(=O)(=O)[O-])cc6)c6nc(c(-c7ccc(S(=O)(=O)[O-])cc7)c7ccc4[nH]7)C=C6)C=C5)cc3)CCC2)C1
REMARK SMILES IDX 15 1 14 2 13 3 11 4 12 5 10 7 9 8 81 9 83 10 82 11 8 12 6 13
REMARK SMILES IDX 7 14 5 16 2 17 3 18 84 19 4 20 1 21 16 25 17 26 18 27 19 28
REMARK SMILES IDX 20 30 21 31 22 32 80 33 23 34 79 35 24 36 25 37 26 38 73 39
REMARK SMILES IDX 27 40 78 41 72 42 74 43 28 44 77 45 71 46 70 47 29 49 59 50
REMARK SMILES IDX 40 51 58 52 41 53 44 54 57 55 75 56 42 57 43 58 56 60 76 61
REMARK SMILES IDX 45 62 30 63 31 64 39 65 32 66 38 67 33 68 34 69 35 70 36 71
REMARK SMILES IDX 37 72 60 73 61 74 69 75 62 76 68 77 63 78 64 79 65 80 66 81
REMARK SMILES IDX 67 82 46 83 47 84 55 85 48 86 54 87 49 88 50 89 51 90 52 91
REMARK SMILES IDX 53 92
REMARK H PARENT 13 6 8 15 1 22 1 23 1 24 18 29 74 48 44 59
REMARK Flexibility Score: inf
ROOT
ATOM      1  C   UNL A   1      31.587  28.766  25.523  1.00  0.00     0.023 C 
ENDROOT
BRANCH   1   2
ATOM      2  C   UNL A   1      32.396  28.653  24.235  1.00  0.00     0.116 C 
BRANCH   2   3
ATOM      3  N   UNL A   1      31.783  27.689  23.342  1.00  0.00    -0.356 N 
ATOM      4  C   UNL A   1      32.330  26.569  22.796  1.00  0.00     0.222 C 
ATOM      5  O   UNL A   1      31.732  26.005  21.877  1.00  0.00    -0.275 OA
ATOM      6  H   UNL A   1      30.846  27.869  23.100  1.00  0.00     0.163 HD
BRANCH   4   7
ATOM      7  C   UNL A   1      33.637  26.001  23.311  1.00  0.00     0.128 C 
BRANCH   7   8
ATOM      8  C   UNL A   1      33.556  24.799  24.289  1.00  0.00     0.049 C 
ATOM      9  C   UNL A   1      34.631  24.904  25.424  1.00  0.00     0.029 C 
ATOM     10  C   UNL A   1      34.345  23.569  23.789  1.00  0.00     0.029 C 
ATOM     11  C   UNL A   1      35.582  24.088  24.539  1.00  0.00     0.005 C 
BRANCH   8  12
ATOM     12  N   UNL A   1      32.192  24.684  24.855  1.00  0.00    -0.350 N 
ATOM     13  C   UNL A   1      31.503  23.919  25.740  1.00  0.00     0.227 C 
ATOM     14  O   UNL A   1      30.368  24.349  26.006  1.00  0.00    -0.274 OA
ATOM     15  H   UNL A   1      31.605  25.375  24.471  1.00  0.00     0.164 HD
BRANCH  13  16
ATOM     16  C   UNL A   1      31.932  22.609  26.408  1.00  0.00     0.107 C 
ATOM     17  C   UNL A   1      33.345  20.625  26.196  1.00  0.00     0.205 C 
ATOM     18  C   UNL A   1      33.805  21.524  27.301  1.00  0.00     0.033 C 
ATOM     19  C   UNL A   1      32.324  21.489  25.443  1.00  0.00     0.087 C 
ATOM     20  C   UNL A   1      33.045  22.624  27.407  1.00  0.00    -0.012 C 
BRANCH  17  21
ATOM     21  N   UNL A   1      34.433  20.215  25.324  1.00  0.00    -0.352 N 
ATOM     22  H   UNL A   1      34.193  19.332  24.873  1.00  0.00     0.345 HD
ATOM     23  H   UNL A   1      35.283  20.097  25.875  1.00  0.00     0.345 HD
ATOM     24  H   UNL A   1      34.585  20.930  24.613  1.00  0.00     0.345 HD
ENDBRANCH  17  21
ENDBRANCH  13  16
ENDBRANCH   8  12
ENDBRANCH   7   8
ENDBRANCH   4   7
ENDBRANCH   2   3
ENDBRANCH   1   2
BRANCH   1  25
ATOM     25  C   UNL A   1      32.145  28.007  26.722  1.00  0.00     0.023 C 
BRANCH  25  26
ATOM     26  C   UNL A   1      33.476  28.537  27.236  1.00  0.00     0.116 C 
BRANCH  26  27
ATOM     27  N   UNL A   1      33.437  29.935  27.639  1.00  0.00    -0.352 N 
ATOM     28  C   UNL A   1      34.454  30.701  28.169  1.00  0.00     0.251 C 
ATOM     29  H   UNL A   1      32.574  30.393  27.518  1.00  0.00     0.163 HD
ATOM     30  O   UNL A   1      34.246  31.856  28.514  1.00  0.00    -0.269 OA
BRANCH  28  31
ATOM     31  C   UNL A   1      35.784  30.084  28.369  1.00  0.00     0.039 A 
ATOM     32  C   UNL A   1      36.695  30.089  27.310  1.00  0.00     0.014 A 
ATOM     33  C   UNL A   1      36.157  29.577  29.616  1.00  0.00     0.014 A 
ATOM     34  C   UNL A   1      38.007  29.665  27.527  1.00  0.00     0.010 A 
ATOM     35  C   UNL A   1      37.484  29.240  29.853  1.00  0.00     0.010 A 
ATOM     36  C   UNL A   1      38.425  29.284  28.813  1.00  0.00    -0.014 A 
BRANCH  36  37
ATOM     37  C   UNL A   1      39.838  28.924  29.098  1.00  0.00     0.031 A 
ATOM     38  C   UNL A   1      40.767  29.951  29.689  1.00  0.00     0.074 A 
ATOM     39  C   UNL A   1      40.306  27.709  28.750  1.00  0.00     0.049 A 
ATOM     40  N   UNL A   1      42.053  29.866  29.917  1.00  0.00    -0.248 NA
ATOM     41  C   UNL A   1      40.181  31.256  30.039  1.00  0.00     0.031 C 
ATOM     42  C   UNL A   1      39.524  26.643  28.119  1.00  0.00     0.029 A 
ATOM     43  N   UNL A   1      41.563  27.167  28.870  1.00  0.00    -0.354 N 
ATOM     44  C   UNL A   1      42.432  31.110  30.405  1.00  0.00     0.074 A 
ATOM     45  C   UNL A   1      41.254  31.948  30.395  1.00  0.00     0.031 C 
ATOM     46  C   UNL A   1      40.309  25.569  27.934  1.00  0.00     0.029 A 
ATOM     47  C   UNL A   1      41.657  25.879  28.396  1.00  0.00     0.049 A 
ATOM     48  H   UNL A   1      42.324  27.655  29.257  1.00  0.00     0.167 HD
ATOM     49  C   UNL A   1      43.647  31.516  30.845  1.00  0.00     0.031 A 
ATOM     50  C   UNL A   1      42.712  25.044  28.338  1.00  0.00     0.031 A 
ATOM     51  C   UNL A   1      44.810  30.672  30.890  1.00  0.00     0.049 A 
ATOM     52  C   UNL A   1      44.046  25.507  28.858  1.00  0.00     0.074 A 
ATOM     53  C   UNL A   1      46.070  30.968  31.379  1.00  0.00     0.029 A 
ATOM     54  N   UNL A   1      44.853  29.363  30.437  1.00  0.00    -0.354 N 
ATOM     55  N   UNL A   1      44.368  26.669  29.373  1.00  0.00    -0.248 NA
ATOM     56  C   UNL A   1      45.152  24.542  28.803  1.00  0.00     0.031 C 
ATOM     57  C   UNL A   1      46.885  29.848  31.191  1.00  0.00     0.029 A 
ATOM     58  C   UNL A   1      46.120  28.840  30.625  1.00  0.00     0.049 A 
ATOM     59  H   UNL A   1      44.094  28.877  30.039  1.00  0.00     0.167 HD
ATOM     60  C   UNL A   1      45.711  26.567  29.723  1.00  0.00     0.074 A 
ATOM     61  C   UNL A   1      46.133  25.225  29.377  1.00  0.00     0.031 C 
ATOM     62  C   UNL A   1      46.520  27.500  30.280  1.00  0.00     0.031 A 
BRANCH  49  63
ATOM     63  C   UNL A   1      43.772  32.937  31.324  1.00  0.00    -0.014 A 
ATOM     64  C   UNL A   1      43.602  33.259  32.683  1.00  0.00     0.010 A 
ATOM     65  C   UNL A   1      44.089  33.959  30.412  1.00  0.00     0.010 A 
ATOM     66  C   UNL A   1      43.704  34.583  33.115  1.00  0.00     0.020 A 
ATOM     67  C   UNL A   1      44.219  35.282  30.845  1.00  0.00     0.020 A 
ATOM     68  C   UNL A   1      44.007  35.588  32.191  1.00  0.00     0.054 A 
BRANCH  68  69
ATOM     69  S   UNL A   1      44.151  37.297  32.782  1.00  0.00     0.124 S 
ATOM     70  O   UNL A   1      42.994  37.406  33.666  1.00  0.00    -0.237 OA
ATOM     71  O   UNL A   1      45.451  37.298  33.449  1.00  0.00    -0.237 OA
ATOM     72  O   UNL A   1      44.080  38.093  31.559  1.00  0.00    -0.744 OA
ENDBRANCH  68  69
ENDBRANCH  49  63
BRANCH  50  73
ATOM     73  C   UNL A   1      42.549  23.671  27.783  1.00  0.00    -0.014 A 
ATOM     74  C   UNL A   1      42.554  23.463  26.393  1.00  0.00     0.010 A 
ATOM     75  C   UNL A   1      42.387  22.568  28.640  1.00  0.00     0.010 A 
ATOM     76  C   UNL A   1      42.377  22.179  25.867  1.00  0.00     0.020 A 
ATOM     77  C   UNL A   1      42.235  21.279  28.119  1.00  0.00     0.020 A 
ATOM     78  C   UNL A   1      42.216  21.096  26.735  1.00  0.00     0.054 A 
BRANCH  78  79
ATOM     79  S   UNL A   1      42.030  19.432  26.033  1.00  0.00     0.124 S 
ATOM     80  O   UNL A   1      40.595  19.374  25.770  1.00  0.00    -0.237 OA
ATOM     81  O   UNL A   1      42.887  19.487  24.852  1.00  0.00    -0.237 OA
ATOM     82  O   UNL A   1      42.508  18.557  27.100  1.00  0.00    -0.744 OA
ENDBRANCH  78  79
ENDBRANCH  50  73
BRANCH  62  83
ATOM     83  C   UNL A   1      47.936  27.096  30.584  1.00  0.00    -0.014 A 
ATOM     84  C   UNL A   1      48.950  27.224  29.619  1.00  0.00     0.010 A 
ATOM     85  C   UNL A   1      48.266  26.641  31.873  1.00  0.00     0.010 A 
ATOM     86  C   UNL A   1      50.267  26.880  29.931  1.00  0.00     0.020 A 
ATOM     87  C   UNL A   1      49.586  26.319  32.196  1.00  0.00     0.020 A 
ATOM     88  C   UNL A   1      50.578  26.429  31.219  1.00  0.00     0.054 A 
BRANCH  88  89
ATOM     89  S   UNL A   1      52.303  26.040  31.617  1.00  0.00     0.124 S 
ATOM     90  O   UNL A   1      52.592  26.997  32.683  1.00  0.00    -0.237 OA
ATOM     91  O   UNL A   1      52.231  24.641  32.031  1.00  0.00    -0.237 OA
ATOM     92  O   UNL A   1      53.010  26.275  30.360  1.00  0.00    -0.744 OA
ENDBRANCH  88  89
ENDBRANCH  62  83
ENDBRANCH  36  37
ENDBRANCH  28  31
ENDBRANCH  26  27
ENDBRANCH  25  26
ENDBRANCH   1  25
TORSDOF 18
ENDMDL
