MODEL 1
REMARK VINA RESULT:     -12.4      0.000      0.000
REMARK SMILES COc1cc(OC)cc(-n2nnc(C(=O)NCCCCNC(=O)c3ccc(-c4c5nc(c(-c6ccc(S(=O)(=O)[O-])cc6)c6ccc([nH]6)c(-c6ccc(S(=O)(=O)[O-])cc6)c6nc(c(-c7ccc(S(=O)(=O)[O-])cc7)c7ccc4[nH]7)C=C6)C=C5)cc3)c2C(C)(C)C)c1
REMARK SMILES IDX 19 1 18 2 17 3 16 4 14 5 15 6 13 8 10 9 11 10 84 11 12 12
REMARK SMILES IDX 9 13 3 14 4 15 89 16 5 17 8 18 2 19 1 20 6 21 7 22 85 23
REMARK SMILES IDX 86 24 87 25 88 26 20 27 21 28 22 29 23 31 24 32 25 33 83 34
REMARK SMILES IDX 26 35 82 36 27 37 28 38 29 39 76 40 30 41 81 42 75 43 77 44
REMARK SMILES IDX 31 45 80 46 74 47 73 48 32 50 62 51 43 52 61 53 44 54 47 55
REMARK SMILES IDX 60 56 78 57 45 58 46 59 59 61 79 62 48 63 33 64 34 65 42 66
REMARK SMILES IDX 35 67 41 68 36 69 37 70 38 71 39 72 40 73 63 74 64 75 72 76
REMARK SMILES IDX 65 77 71 78 66 79 67 80 68 81 69 82 70 83 49 84 50 85 58 86
REMARK SMILES IDX 51 87 57 88 52 89 53 90 54 91 55 92 56 93
REMARK H PARENT 16 7 21 30 77 49 47 60
REMARK Flexibility Score: inf
ROOT
ATOM      1  C   UNL A   1      33.791  28.483  25.940  1.00  0.00     0.023 C 
ENDROOT
BRANCH   1   2
ATOM      2  C   UNL A   1      33.202  29.167  24.700  1.00  0.00     0.023 C 
BRANCH   2   3
ATOM      3  C   UNL A   1      33.724  28.663  23.341  1.00  0.00     0.116 C 
BRANCH   3   4
ATOM      4  N   UNL A   1      32.714  28.015  22.501  1.00  0.00    -0.351 N 
ATOM      5  C   UNL A   1      32.102  26.817  22.212  1.00  0.00     0.273 C 
ATOM      6  O   UNL A   1      31.134  27.007  21.459  1.00  0.00    -0.267 OA
ATOM      7  H   UNL A   1      32.320  28.704  21.918  1.00  0.00     0.163 HD
BRANCH   5   8
ATOM      8  C   UNL A   1      32.422  25.414  22.590  1.00  0.00     0.174 A 
ATOM      9  N   UNL A   1      32.935  23.387  23.301  1.00  0.00    -0.216 N 
ATOM     10  N   UNL A   1      33.509  23.543  22.101  1.00  0.00    -0.061 NA
ATOM     11  C   UNL A   1      32.294  24.560  23.707  1.00  0.00     0.083 A 
ATOM     12  N   UNL A   1      33.140  24.712  21.627  1.00  0.00    -0.124 NA
BRANCH   9  13
ATOM     13  C   UNL A   1      33.290  22.275  24.083  1.00  0.00     0.074 A 
ATOM     14  C   UNL A   1      35.076  20.930  24.958  1.00  0.00     0.124 A 
ATOM     15  C   UNL A   1      34.212  19.825  24.928  1.00  0.00     0.093 A 
ATOM     16  C   UNL A   1      34.596  22.179  24.573  1.00  0.00     0.075 A 
ATOM     17  C   UNL A   1      32.878  19.947  24.517  1.00  0.00     0.124 A 
ATOM     18  C   UNL A   1      32.402  21.191  24.115  1.00  0.00     0.075 A 
BRANCH  14  19
ATOM     19  O   UNL A   1      36.375  20.640  25.272  1.00  0.00    -0.497 OA
ATOM     20  C   UNL A   1      37.391  21.348  24.565  1.00  0.00     0.278 C 
ENDBRANCH  14  19
BRANCH  17  21
ATOM     21  O   UNL A   1      32.172  18.774  24.479  1.00  0.00    -0.497 OA
ATOM     22  C   UNL A   1      32.655  17.711  25.295  1.00  0.00     0.278 C 
ENDBRANCH  17  21
ENDBRANCH   9  13
BRANCH  11  23
ATOM     23  C   UNL A   1      31.732  24.833  25.089  1.00  0.00     0.007 C 
ATOM     24  C   UNL A   1      30.678  23.735  25.313  1.00  0.00     0.017 C 
ATOM     25  C   UNL A   1      32.942  24.944  26.040  1.00  0.00     0.017 C 
ATOM     26  C   UNL A   1      30.914  26.094  25.417  1.00  0.00     0.017 C 
ENDBRANCH  11  23
ENDBRANCH   5   8
ENDBRANCH   3   4
ENDBRANCH   2   3
ENDBRANCH   1   2
BRANCH   1  27
ATOM     27  C   UNL A   1      33.915  29.357  27.184  1.00  0.00     0.116 C 
BRANCH  27  28
ATOM     28  N   UNL A   1      34.103  30.781  26.922  1.00  0.00    -0.352 N 
ATOM     29  C   UNL A   1      35.018  31.613  27.570  1.00  0.00     0.251 C 
ATOM     30  H   UNL A   1      33.536  31.189  26.228  1.00  0.00     0.163 HD
ATOM     31  O   UNL A   1      34.903  32.815  27.573  1.00  0.00    -0.269 OA
BRANCH  29  32
ATOM     32  C   UNL A   1      36.142  30.944  28.261  1.00  0.00     0.039 A 
ATOM     33  C   UNL A   1      36.327  29.564  28.170  1.00  0.00     0.014 A 
ATOM     34  C   UNL A   1      37.103  31.762  28.849  1.00  0.00     0.014 A 
ATOM     35  C   UNL A   1      37.553  29.024  28.564  1.00  0.00     0.010 A 
ATOM     36  C   UNL A   1      38.346  31.239  29.139  1.00  0.00     0.010 A 
ATOM     37  C   UNL A   1      38.587  29.869  29.005  1.00  0.00    -0.014 A 
BRANCH  37  38
ATOM     38  C   UNL A   1      39.947  29.341  29.181  1.00  0.00     0.031 A 
ATOM     39  C   UNL A   1      40.402  29.100  30.588  1.00  0.00     0.074 A 
ATOM     40  C   UNL A   1      40.704  28.841  28.179  1.00  0.00     0.049 A 
ATOM     41  N   UNL A   1      41.380  29.665  31.219  1.00  0.00    -0.248 NA
ATOM     42  C   UNL A   1      39.642  28.144  31.409  1.00  0.00     0.031 C 
ATOM     43  C   UNL A   1      40.348  28.657  26.768  1.00  0.00     0.029 A 
ATOM     44  N   UNL A   1      41.936  28.262  28.255  1.00  0.00    -0.354 N 
ATOM     45  C   UNL A   1      41.484  29.019  32.452  1.00  0.00     0.074 A 
ATOM     46  C   UNL A   1      40.311  28.185  32.564  1.00  0.00     0.031 C 
ATOM     47  C   UNL A   1      41.215  27.795  26.193  1.00  0.00     0.029 A 
ATOM     48  C   UNL A   1      42.288  27.528  27.131  1.00  0.00     0.049 A 
ATOM     49  H   UNL A   1      42.525  28.356  29.039  1.00  0.00     0.167 HD
ATOM     50  C   UNL A   1      42.616  29.069  33.215  1.00  0.00     0.031 A 
ATOM     51  C   UNL A   1      43.378  26.742  26.977  1.00  0.00     0.031 A 
ATOM     52  C   UNL A   1      43.531  30.081  32.759  1.00  0.00     0.049 A 
ATOM     53  C   UNL A   1      44.385  27.183  27.966  1.00  0.00     0.074 A 
ATOM     54  C   UNL A   1      43.479  31.452  32.590  1.00  0.00     0.029 A 
ATOM     55  N   UNL A   1      44.629  29.662  32.047  1.00  0.00    -0.354 N 
ATOM     56  N   UNL A   1      44.965  28.350  27.928  1.00  0.00    -0.248 NA
ATOM     57  C   UNL A   1      44.489  26.478  29.232  1.00  0.00     0.031 C 
ATOM     58  C   UNL A   1      44.231  31.703  31.404  1.00  0.00     0.029 A 
ATOM     59  C   UNL A   1      44.734  30.480  30.953  1.00  0.00     0.049 A 
ATOM     60  H   UNL A   1      45.227  28.915  32.280  1.00  0.00     0.167 HD
ATOM     61  C   UNL A   1      45.127  28.710  29.256  1.00  0.00     0.074 A 
ATOM     62  C   UNL A   1      44.942  27.469  30.004  1.00  0.00     0.031 C 
ATOM     63  C   UNL A   1      45.122  30.024  29.635  1.00  0.00     0.031 A 
BRANCH  50  64
ATOM     64  C   UNL A   1      43.068  27.975  34.159  1.00  0.00    -0.014 A 
ATOM     65  C   UNL A   1      43.307  28.293  35.515  1.00  0.00     0.010 A 
ATOM     66  C   UNL A   1      43.537  26.724  33.710  1.00  0.00     0.010 A 
ATOM     67  C   UNL A   1      44.044  27.441  36.350  1.00  0.00     0.020 A 
ATOM     68  C   UNL A   1      44.234  25.846  34.547  1.00  0.00     0.020 A 
ATOM     69  C   UNL A   1      44.520  26.230  35.850  1.00  0.00     0.054 A 
BRANCH  69  70
ATOM     70  S   UNL A   1      45.586  25.196  36.890  1.00  0.00     0.124 S 
ATOM     71  O   UNL A   1      44.736  24.970  38.055  1.00  0.00    -0.237 OA
ATOM     72  O   UNL A   1      45.820  24.033  36.039  1.00  0.00    -0.237 OA
ATOM     73  O   UNL A   1      46.757  26.039  37.119  1.00  0.00    -0.744 OA
ENDBRANCH  69  70
ENDBRANCH  50  64
BRANCH  51  74
ATOM     74  C   UNL A   1      43.511  25.491  26.197  1.00  0.00    -0.014 A 
ATOM     75  C   UNL A   1      44.651  25.259  25.409  1.00  0.00     0.010 A 
ATOM     76  C   UNL A   1      42.655  24.401  26.463  1.00  0.00     0.010 A 
ATOM     77  C   UNL A   1      44.972  23.964  24.974  1.00  0.00     0.020 A 
ATOM     78  C   UNL A   1      42.965  23.110  26.025  1.00  0.00     0.020 A 
ATOM     79  C   UNL A   1      44.140  22.893  25.311  1.00  0.00     0.054 A 
BRANCH  79  80
ATOM     80  S   UNL A   1      44.684  21.198  24.943  1.00  0.00     0.124 S 
ATOM     81  O   UNL A   1      44.579  21.150  23.488  1.00  0.00    -0.237 OA
ATOM     82  O   UNL A   1      46.040  21.178  25.481  1.00  0.00    -0.237 OA
ATOM     83  O   UNL A   1      43.723  20.366  25.663  1.00  0.00    -0.744 OA
ENDBRANCH  79  80
ENDBRANCH  51  74
BRANCH  63  84
ATOM     84  C   UNL A   1      45.260  31.081  28.562  1.00  0.00    -0.014 A 
ATOM     85  C   UNL A   1      44.193  31.508  27.747  1.00  0.00     0.010 A 
ATOM     86  C   UNL A   1      46.488  31.759  28.459  1.00  0.00     0.010 A 
ATOM     87  C   UNL A   1      44.361  32.553  26.827  1.00  0.00     0.020 A 
ATOM     88  C   UNL A   1      46.658  32.816  27.558  1.00  0.00     0.020 A 
ATOM     89  C   UNL A   1      45.597  33.198  26.736  1.00  0.00     0.054 A 
BRANCH  89  90
ATOM     90  S   UNL A   1      45.800  34.570  25.566  1.00  0.00     0.124 S 
ATOM     91  O   UNL A   1      45.353  35.721  26.346  1.00  0.00    -0.237 OA
ATOM     92  O   UNL A   1      47.229  34.532  25.264  1.00  0.00    -0.237 OA
ATOM     93  O   UNL A   1      44.929  34.205  24.449  1.00  0.00    -0.744 OA
ENDBRANCH  89  90
ENDBRANCH  63  84
ENDBRANCH  37  38
ENDBRANCH  29  32
ENDBRANCH  27  28
ENDBRANCH   1  27
TORSDOF 18
ENDMDL
MODEL 2
REMARK VINA RESULT:     -11.9      1.243      2.190
REMARK SMILES COc1cc(OC)cc(-n2nnc(C(=O)NCCCCNC(=O)c3ccc(-c4c5nc(c(-c6ccc(S(=O)(=O)[O-])cc6)c6ccc([nH]6)c(-c6ccc(S(=O)(=O)[O-])cc6)c6nc(c(-c7ccc(S(=O)(=O)[O-])cc7)c7ccc4[nH]7)C=C6)C=C5)cc3)c2C(C)(C)C)c1
REMARK SMILES IDX 19 1 18 2 17 3 16 4 14 5 15 6 13 8 10 9 11 10 84 11 12 12
REMARK SMILES IDX 9 13 3 14 4 15 89 16 5 17 8 18 2 19 1 20 6 21 7 22 85 23
REMARK SMILES IDX 86 24 87 25 88 26 20 27 21 28 22 29 23 31 24 32 25 33 83 34
REMARK SMILES IDX 26 35 82 36 27 37 28 38 29 39 76 40 30 41 81 42 75 43 77 44
REMARK SMILES IDX 31 45 80 46 74 47 73 48 32 50 62 51 43 52 61 53 44 54 47 55
REMARK SMILES IDX 60 56 78 57 45 58 46 59 59 61 79 62 48 63 33 64 34 65 42 66
REMARK SMILES IDX 35 67 41 68 36 69 37 70 38 71 39 72 40 73 63 74 64 75 72 76
REMARK SMILES IDX 65 77 71 78 66 79 67 80 68 81 69 82 70 83 49 84 50 85 58 86
REMARK SMILES IDX 51 87 57 88 52 89 53 90 54 91 55 92 56 93
REMARK H PARENT 16 7 21 30 77 49 47 60
REMARK Flexibility Score: inf
ROOT
ATOM      1  C   UNL A   1      33.937  28.393  26.437  1.00  0.00     0.023 C 
ENDROOT
BRANCH   1   2
ATOM      2  C   UNL A   1      32.471  28.817  26.595  1.00  0.00     0.023 C 
BRANCH   2   3
ATOM      3  C   UNL A   1      31.586  27.879  27.438  1.00  0.00     0.116 C 
BRANCH   3   4
ATOM      4  N   UNL A   1      30.685  27.026  26.659  1.00  0.00    -0.351 N 
ATOM      5  C   UNL A   1      30.506  25.759  26.153  1.00  0.00     0.273 C 
ATOM      6  O   UNL A   1      29.358  25.645  25.695  1.00  0.00    -0.267 OA
ATOM      7  H   UNL A   1      29.908  27.570  26.395  1.00  0.00     0.163 HD
BRANCH   5   8
ATOM      8  C   UNL A   1      31.421  24.593  26.028  1.00  0.00     0.174 A 
ATOM      9  N   UNL A   1      32.730  22.847  25.686  1.00  0.00    -0.216 N 
ATOM     10  N   UNL A   1      32.108  22.652  26.856  1.00  0.00    -0.061 NA
ATOM     11  C   UNL A   1      32.285  24.020  25.070  1.00  0.00     0.083 A 
ATOM     12  N   UNL A   1      31.392  23.724  27.115  1.00  0.00    -0.124 NA
BRANCH   9  13
ATOM     13  C   UNL A   1      33.447  21.782  25.114  1.00  0.00     0.074 A 
ATOM     14  C   UNL A   1      33.480  19.438  24.598  1.00  0.00     0.124 A 
ATOM     15  C   UNL A   1      34.876  19.463  24.730  1.00  0.00     0.093 A 
ATOM     16  C   UNL A   1      32.760  20.621  24.748  1.00  0.00     0.075 A 
ATOM     17  C   UNL A   1      35.566  20.651  25.013  1.00  0.00     0.124 A 
ATOM     18  C   UNL A   1      34.847  21.830  25.180  1.00  0.00     0.075 A 
BRANCH  14  19
ATOM     19  O   UNL A   1      32.937  18.193  24.434  1.00  0.00    -0.497 OA
ATOM     20  C   UNL A   1      33.829  17.131  24.105  1.00  0.00     0.278 C 
ENDBRANCH  14  19
BRANCH  17  21
ATOM     21  O   UNL A   1      36.918  20.513  25.175  1.00  0.00    -0.497 OA
ATOM     22  C   UNL A   1      37.681  21.714  25.233  1.00  0.00     0.278 C 
ENDBRANCH  17  21
ENDBRANCH   9  13
BRANCH  11  23
ATOM     23  C   UNL A   1      32.592  24.447  23.648  1.00  0.00     0.007 C 
ATOM     24  C   UNL A   1      31.278  25.048  23.120  1.00  0.00     0.017 C 
ATOM     25  C   UNL A   1      33.864  25.317  23.716  1.00  0.00     0.017 C 
ATOM     26  C   UNL A   1      32.920  23.438  22.532  1.00  0.00     0.017 C 
ENDBRANCH  11  23
ENDBRANCH   5   8
ENDBRANCH   3   4
ENDBRANCH   2   3
ENDBRANCH   1   2
BRANCH   1  27
ATOM     27  C   UNL A   1      34.964  29.519  26.502  1.00  0.00     0.116 C 
BRANCH  27  28
ATOM     28  N   UNL A   1      34.444  30.803  26.963  1.00  0.00    -0.352 N 
ATOM     29  C   UNL A   1      34.762  31.422  28.174  1.00  0.00     0.251 C 
ATOM     30  H   UNL A   1      33.816  31.273  26.368  1.00  0.00     0.163 HD
ATOM     31  O   UNL A   1      34.067  32.281  28.658  1.00  0.00    -0.269 OA
BRANCH  29  32
ATOM     32  C   UNL A   1      36.002  30.965  28.840  1.00  0.00     0.039 A 
ATOM     33  C   UNL A   1      36.140  29.652  29.289  1.00  0.00     0.014 A 
ATOM     34  C   UNL A   1      37.083  31.842  28.836  1.00  0.00     0.014 A 
ATOM     35  C   UNL A   1      37.415  29.185  29.617  1.00  0.00     0.010 A 
ATOM     36  C   UNL A   1      38.352  31.349  29.063  1.00  0.00     0.010 A 
ATOM     37  C   UNL A   1      38.534  30.021  29.458  1.00  0.00    -0.014 A 
BRANCH  37  38
ATOM     38  C   UNL A   1      39.891  29.464  29.560  1.00  0.00     0.031 A 
ATOM     39  C   UNL A   1      40.419  29.221  30.941  1.00  0.00     0.074 A 
ATOM     40  C   UNL A   1      40.579  28.943  28.521  1.00  0.00     0.049 A 
ATOM     41  N   UNL A   1      41.442  29.768  31.514  1.00  0.00    -0.248 NA
ATOM     42  C   UNL A   1      39.685  28.286  31.810  1.00  0.00     0.031 C 
ATOM     43  C   UNL A   1      40.141  28.759  27.134  1.00  0.00     0.029 A 
ATOM     44  N   UNL A   1      41.801  28.338  28.533  1.00  0.00    -0.354 N 
ATOM     45  C   UNL A   1      41.600  29.126  32.744  1.00  0.00     0.074 A 
ATOM     46  C   UNL A   1      40.418  28.318  32.925  1.00  0.00     0.031 C 
ATOM     47  C   UNL A   1      40.956  27.876  26.516  1.00  0.00     0.029 A 
ATOM     48  C   UNL A   1      42.074  27.591  27.395  1.00  0.00     0.049 A 
ATOM     49  H   UNL A   1      42.435  28.423  29.282  1.00  0.00     0.167 HD
ATOM     50  C   UNL A   1      42.774  29.156  33.442  1.00  0.00     0.031 A 
ATOM     51  C   UNL A   1      43.137  26.780  27.186  1.00  0.00     0.031 A 
ATOM     52  C   UNL A   1      43.684  30.145  32.929  1.00  0.00     0.049 A 
ATOM     53  C   UNL A   1      44.207  27.205  28.114  1.00  0.00     0.074 A 
ATOM     54  C   UNL A   1      43.652  31.516  32.755  1.00  0.00     0.029 A 
ATOM     55  N   UNL A   1      44.732  29.698  32.159  1.00  0.00    -0.354 N 
ATOM     56  N   UNL A   1      44.808  28.358  28.036  1.00  0.00    -0.248 NA
ATOM     57  C   UNL A   1      44.366  26.504  29.377  1.00  0.00     0.031 C 
ATOM     58  C   UNL A   1      44.342  31.745  31.527  1.00  0.00     0.029 A 
ATOM     59  C   UNL A   1      44.793  30.509  31.056  1.00  0.00     0.049 A 
ATOM     60  H   UNL A   1      45.325  28.940  32.363  1.00  0.00     0.167 HD
ATOM     61  C   UNL A   1      45.052  28.722  29.351  1.00  0.00     0.074 A 
ATOM     62  C   UNL A   1      44.883  27.489  30.116  1.00  0.00     0.031 C 
ATOM     63  C   UNL A   1      45.097  30.037  29.722  1.00  0.00     0.031 A 
BRANCH  50  64
ATOM     64  C   UNL A   1      43.255  28.057  34.366  1.00  0.00    -0.014 A 
ATOM     65  C   UNL A   1      43.650  28.389  35.681  1.00  0.00     0.010 A 
ATOM     66  C   UNL A   1      43.600  26.770  33.907  1.00  0.00     0.010 A 
ATOM     67  C   UNL A   1      44.417  27.512  36.461  1.00  0.00     0.020 A 
ATOM     68  C   UNL A   1      44.326  25.869  34.695  1.00  0.00     0.020 A 
ATOM     69  C   UNL A   1      44.766  26.263  35.951  1.00  0.00     0.054 A 
BRANCH  69  70
ATOM     70  S   UNL A   1      45.870  25.189  36.906  1.00  0.00     0.124 S 
ATOM     71  O   UNL A   1      47.137  25.364  36.204  1.00  0.00    -0.237 OA
ATOM     72  O   UNL A   1      45.798  25.774  38.242  1.00  0.00    -0.237 OA
ATOM     73  O   UNL A   1      45.256  23.869  36.776  1.00  0.00    -0.744 OA
ENDBRANCH  69  70
ENDBRANCH  50  64
BRANCH  51  74
ATOM     74  C   UNL A   1      43.199  25.523  26.407  1.00  0.00    -0.014 A 
ATOM     75  C   UNL A   1      44.066  25.406  25.307  1.00  0.00     0.010 A 
ATOM     76  C   UNL A   1      42.626  24.344  26.928  1.00  0.00     0.010 A 
ATOM     77  C   UNL A   1      44.417  24.147  24.800  1.00  0.00     0.020 A 
ATOM     78  C   UNL A   1      42.965  23.086  26.421  1.00  0.00     0.020 A 
ATOM     79  C   UNL A   1      43.885  22.992  25.381  1.00  0.00     0.054 A 
BRANCH  79  80
ATOM     80  S   UNL A   1      44.522  21.368  24.869  1.00  0.00     0.124 S 
ATOM     81  O   UNL A   1      45.777  21.281  25.609  1.00  0.00    -0.237 OA
ATOM     82  O   UNL A   1      43.464  20.462  25.309  1.00  0.00    -0.237 OA
ATOM     83  O   UNL A   1      44.660  21.495  23.420  1.00  0.00    -0.744 OA
ENDBRANCH  79  80
ENDBRANCH  51  74
BRANCH  63  84
ATOM     84  C   UNL A   1      45.197  31.085  28.635  1.00  0.00    -0.014 A 
ATOM     85  C   UNL A   1      44.077  31.673  28.013  1.00  0.00     0.010 A 
ATOM     86  C   UNL A   1      46.472  31.588  28.321  1.00  0.00     0.010 A 
ATOM     87  C   UNL A   1      44.231  32.702  27.073  1.00  0.00     0.020 A 
ATOM     88  C   UNL A   1      46.633  32.628  27.399  1.00  0.00     0.020 A 
ATOM     89  C   UNL A   1      45.513  33.171  26.769  1.00  0.00     0.054 A 
BRANCH  89  90
ATOM     90  S   UNL A   1      45.703  34.524  25.575  1.00  0.00     0.124 S 
ATOM     91  O   UNL A   1      47.141  34.524  25.323  1.00  0.00    -0.237 OA
ATOM     92  O   UNL A   1      44.869  34.091  24.456  1.00  0.00    -0.237 OA
ATOM     93  O   UNL A   1      45.201  35.695  26.294  1.00  0.00    -0.744 OA
ENDBRANCH  89  90
ENDBRANCH  63  84
ENDBRANCH  37  38
ENDBRANCH  29  32
ENDBRANCH  27  28
ENDBRANCH   1  27
TORSDOF 18
ENDMDL
MODEL 3
REMARK VINA RESULT:     -11.7      1.564      2.480
REMARK SMILES COc1cc(OC)cc(-n2nnc(C(=O)NCCCCNC(=O)c3ccc(-c4c5nc(c(-c6ccc(S(=O)(=O)[O-])cc6)c6ccc([nH]6)c(-c6ccc(S(=O)(=O)[O-])cc6)c6nc(c(-c7ccc(S(=O)(=O)[O-])cc7)c7ccc4[nH]7)C=C6)C=C5)cc3)c2C(C)(C)C)c1
REMARK SMILES IDX 19 1 18 2 17 3 16 4 14 5 15 6 13 8 10 9 11 10 84 11 12 12
REMARK SMILES IDX 9 13 3 14 4 15 89 16 5 17 8 18 2 19 1 20 6 21 7 22 85 23
REMARK SMILES IDX 86 24 87 25 88 26 20 27 21 28 22 29 23 31 24 32 25 33 83 34
REMARK SMILES IDX 26 35 82 36 27 37 28 38 29 39 76 40 30 41 81 42 75 43 77 44
REMARK SMILES IDX 31 45 80 46 74 47 73 48 32 50 62 51 43 52 61 53 44 54 47 55
REMARK SMILES IDX 60 56 78 57 45 58 46 59 59 61 79 62 48 63 33 64 34 65 42 66
REMARK SMILES IDX 35 67 41 68 36 69 37 70 38 71 39 72 40 73 63 74 64 75 72 76
REMARK SMILES IDX 65 77 71 78 66 79 67 80 68 81 69 82 70 83 49 84 50 85 58 86
REMARK SMILES IDX 51 87 57 88 52 89 53 90 54 91 55 92 56 93
REMARK H PARENT 16 7 21 30 77 49 47 60
REMARK Flexibility Score: inf
ROOT
ATOM      1  C   UNL A   1      33.457  30.616  27.488  1.00  0.00     0.023 C 
ENDROOT
BRANCH   1   2
ATOM      2  C   UNL A   1      33.316  30.063  26.064  1.00  0.00     0.023 C 
BRANCH   2   3
ATOM      3  C   UNL A   1      31.912  29.565  25.671  1.00  0.00     0.116 C 
BRANCH   3   4
ATOM      4  N   UNL A   1      31.684  29.461  24.227  1.00  0.00    -0.351 N 
ATOM      5  C   UNL A   1      31.719  28.607  23.148  1.00  0.00     0.273 C 
ATOM      6  O   UNL A   1      31.201  29.151  22.161  1.00  0.00    -0.267 OA
ATOM      7  H   UNL A   1      31.393  30.344  23.903  1.00  0.00     0.163 HD
BRANCH   5   8
ATOM      8  C   UNL A   1      32.284  27.242  22.971  1.00  0.00     0.174 A 
ATOM      9  N   UNL A   1      33.158  25.216  22.869  1.00  0.00    -0.216 N 
ATOM     10  N   UNL A   1      33.655  25.915  21.840  1.00  0.00    -0.061 NA
ATOM     11  C   UNL A   1      32.342  26.018  23.671  1.00  0.00     0.083 A 
ATOM     12  N   UNL A   1      33.077  27.095  21.837  1.00  0.00    -0.124 NA
BRANCH   9  13
ATOM     13  C   UNL A   1      33.724  23.967  23.178  1.00  0.00     0.074 A 
ATOM     14  C   UNL A   1      33.322  21.647  23.640  1.00  0.00     0.124 A 
ATOM     15  C   UNL A   1      34.466  21.645  24.451  1.00  0.00     0.093 A 
ATOM     16  C   UNL A   1      32.971  22.810  22.960  1.00  0.00     0.075 A 
ATOM     17  C   UNL A   1      35.265  22.788  24.597  1.00  0.00     0.124 A 
ATOM     18  C   UNL A   1      34.906  23.956  23.931  1.00  0.00     0.075 A 
BRANCH  14  19
ATOM     19  O   UNL A   1      32.581  20.498  23.683  1.00  0.00    -0.497 OA
ATOM     20  C   UNL A   1      32.434  19.864  24.952  1.00  0.00     0.278 C 
ENDBRANCH  14  19
BRANCH  17  21
ATOM     21  O   UNL A   1      36.312  22.658  25.468  1.00  0.00    -0.497 OA
ATOM     22  C   UNL A   1      36.957  23.860  25.877  1.00  0.00     0.278 C 
ENDBRANCH  17  21
ENDBRANCH   9  13
BRANCH  11  23
ATOM     23  C   UNL A   1      31.791  25.641  25.033  1.00  0.00     0.007 C 
ATOM     24  C   UNL A   1      32.859  26.108  26.037  1.00  0.00     0.017 C 
ATOM     25  C   UNL A   1      30.362  26.220  25.104  1.00  0.00     0.017 C 
ATOM     26  C   UNL A   1      31.596  24.179  25.472  1.00  0.00     0.017 C 
ENDBRANCH  11  23
ENDBRANCH   5   8
ENDBRANCH   3   4
ENDBRANCH   2   3
ENDBRANCH   1   2
BRANCH   1  27
ATOM     27  C   UNL A   1      34.552  31.660  27.689  1.00  0.00     0.116 C 
BRANCH  27  28
ATOM     28  N   UNL A   1      34.111  32.905  28.310  1.00  0.00    -0.352 N 
ATOM     29  C   UNL A   1      34.499  33.367  29.570  1.00  0.00     0.251 C 
ATOM     30  H   UNL A   1      33.487  33.468  27.797  1.00  0.00     0.163 HD
ATOM     31  O   UNL A   1      33.863  34.196  30.174  1.00  0.00    -0.269 OA
BRANCH  29  32
ATOM     32  C   UNL A   1      35.736  32.782  30.132  1.00  0.00     0.039 A 
ATOM     33  C   UNL A   1      35.718  31.557  30.798  1.00  0.00     0.014 A 
ATOM     34  C   UNL A   1      36.937  33.411  29.813  1.00  0.00     0.014 A 
ATOM     35  C   UNL A   1      36.930  30.901  31.029  1.00  0.00     0.010 A 
ATOM     36  C   UNL A   1      38.120  32.715  29.951  1.00  0.00     0.010 A 
ATOM     37  C   UNL A   1      38.134  31.458  30.561  1.00  0.00    -0.014 A 
BRANCH  37  38
ATOM     38  C   UNL A   1      39.370  30.663  30.579  1.00  0.00     0.031 A 
ATOM     39  C   UNL A   1      39.997  30.418  31.917  1.00  0.00     0.074 A 
ATOM     40  C   UNL A   1      39.831  29.952  29.527  1.00  0.00     0.049 A 
ATOM     41  N   UNL A   1      41.160  30.799  32.337  1.00  0.00    -0.248 NA
ATOM     42  C   UNL A   1      39.208  29.700  32.932  1.00  0.00     0.031 C 
ATOM     43  C   UNL A   1      39.214  29.761  28.210  1.00  0.00     0.029 A 
ATOM     44  N   UNL A   1      40.917  29.128  29.471  1.00  0.00    -0.354 N 
ATOM     45  C   UNL A   1      41.337  30.223  33.596  1.00  0.00     0.074 A 
ATOM     46  C   UNL A   1      40.057  29.668  33.963  1.00  0.00     0.031 C 
ATOM     47  C   UNL A   1      39.781  28.699  27.595  1.00  0.00     0.029 A 
ATOM     48  C   UNL A   1      40.921  28.268  28.382  1.00  0.00     0.049 A 
ATOM     49  H   UNL A   1      41.636  29.143  30.144  1.00  0.00     0.167 HD
ATOM     50  C   UNL A   1      42.568  30.078  34.171  1.00  0.00     0.031 A 
ATOM     51  C   UNL A   1      41.788  27.259  28.141  1.00  0.00     0.031 A 
ATOM     52  C   UNL A   1      43.578  30.840  33.486  1.00  0.00     0.049 A 
ATOM     53  C   UNL A   1      43.015  27.535  28.919  1.00  0.00     0.074 A 
ATOM     54  C   UNL A   1      43.775  32.177  33.197  1.00  0.00     0.029 A 
ATOM     55  N   UNL A   1      44.434  30.152  32.660  1.00  0.00    -0.354 N 
ATOM     56  N   UNL A   1      43.803  28.546  28.683  1.00  0.00    -0.248 NA
ATOM     57  C   UNL A   1      43.187  26.904  30.217  1.00  0.00     0.031 C 
ATOM     58  C   UNL A   1      44.352  32.188  31.892  1.00  0.00     0.029 A 
ATOM     59  C   UNL A   1      44.516  30.860  31.490  1.00  0.00     0.049 A 
ATOM     60  H   UNL A   1      44.900  29.311  32.870  1.00  0.00     0.167 HD
ATOM     61  C   UNL A   1      44.255  28.945  29.930  1.00  0.00     0.074 A 
ATOM     62  C   UNL A   1      43.952  27.821  30.813  1.00  0.00     0.031 C 
ATOM     63  C   UNL A   1      44.578  30.250  30.178  1.00  0.00     0.031 A 
BRANCH  50  64
ATOM     64  C   UNL A   1      42.943  28.973  35.136  1.00  0.00    -0.014 A 
ATOM     65  C   UNL A   1      43.602  29.307  36.340  1.00  0.00     0.010 A 
ATOM     66  C   UNL A   1      42.929  27.610  34.779  1.00  0.00     0.010 A 
ATOM     67  C   UNL A   1      44.278  28.341  37.100  1.00  0.00     0.020 A 
ATOM     68  C   UNL A   1      43.560  26.631  35.554  1.00  0.00     0.020 A 
ATOM     69  C   UNL A   1      44.268  27.010  36.687  1.00  0.00     0.054 A 
BRANCH  69  70
ATOM     70  S   UNL A   1      45.253  25.790  37.595  1.00  0.00     0.124 S 
ATOM     71  O   UNL A   1      46.535  25.866  36.900  1.00  0.00    -0.237 OA
ATOM     72  O   UNL A   1      45.236  26.322  38.954  1.00  0.00    -0.237 OA
ATOM     73  O   UNL A   1      44.509  24.546  37.409  1.00  0.00    -0.744 OA
ENDBRANCH  69  70
ENDBRANCH  50  64
BRANCH  51  74
ATOM     74  C   UNL A   1      41.534  25.963  27.473  1.00  0.00    -0.014 A 
ATOM     75  C   UNL A   1      42.376  25.514  26.440  1.00  0.00     0.010 A 
ATOM     76  C   UNL A   1      40.644  25.035  28.053  1.00  0.00     0.010 A 
ATOM     77  C   UNL A   1      42.389  24.165  26.059  1.00  0.00     0.020 A 
ATOM     78  C   UNL A   1      40.646  23.690  27.672  1.00  0.00     0.020 A 
ATOM     79  C   UNL A   1      41.543  23.255  26.700  1.00  0.00     0.054 A 
BRANCH  79  80
ATOM     80  S   UNL A   1      41.731  21.479  26.362  1.00  0.00     0.124 S 
ATOM     81  O   UNL A   1      42.736  21.471  25.303  1.00  0.00    -0.237 OA
ATOM     82  O   UNL A   1      42.169  20.957  27.653  1.00  0.00    -0.237 OA
ATOM     83  O   UNL A   1      40.391  21.064  25.952  1.00  0.00    -0.744 OA
ENDBRANCH  79  80
ENDBRANCH  51  74
BRANCH  63  84
ATOM     84  C   UNL A   1      44.743  31.185  29.000  1.00  0.00    -0.014 A 
ATOM     85  C   UNL A   1      43.668  31.839  28.367  1.00  0.00     0.010 A 
ATOM     86  C   UNL A   1      46.050  31.513  28.598  1.00  0.00     0.010 A 
ATOM     87  C   UNL A   1      43.891  32.761  27.334  1.00  0.00     0.020 A 
ATOM     88  C   UNL A   1      46.282  32.446  27.582  1.00  0.00     0.020 A 
ATOM     89  C   UNL A   1      45.201  33.056  26.945  1.00  0.00     0.054 A 
BRANCH  89  90
ATOM     90  S   UNL A   1      45.484  34.272  25.630  1.00  0.00     0.124 S 
ATOM     91  O   UNL A   1      44.671  33.751  24.535  1.00  0.00    -0.237 OA
ATOM     92  O   UNL A   1      45.008  35.517  26.229  1.00  0.00    -0.237 OA
ATOM     93  O   UNL A   1      46.929  34.215  25.409  1.00  0.00    -0.744 OA
ENDBRANCH  89  90
ENDBRANCH  63  84
ENDBRANCH  37  38
ENDBRANCH  29  32
ENDBRANCH  27  28
ENDBRANCH   1  27
TORSDOF 18
ENDMDL
