MODEL 1
REMARK VINA RESULT:     -11.3      0.000      0.000
REMARK SMILES Cc1cc(SCC(=O)NCCCCNC(=O)c2ccc(-c3c4nc(c(-c5ccc(S(=O)(=O)[O-])cc5)c5ccc([nH]5)c(-c5ccc(S(=O)(=O)[O-])cc5)c5nc(c(-c6ccc(S(=O)(=O)[O-])cc6)c6ccc3[nH]6)C=C5)C=C4)cc2)c2cc(I)ccc2n1
REMARK SMILES IDX 12 1 11 2 10 3 9 4 7 5 8 6 6 8 5 9 4 10 1 11 2 12 3 13 84 14
REMARK SMILES IDX 83 15 77 16 82 17 78 18 81 19 79 20 80 21 13 22 14 23 15 24
REMARK SMILES IDX 16 26 17 27 18 28 76 29 19 30 75 31 20 32 21 33 22 34 69 35
REMARK SMILES IDX 23 36 74 37 68 38 70 39 24 40 73 41 67 42 66 43 25 45 55 46
REMARK SMILES IDX 36 47 54 48 37 49 40 50 53 51 71 52 38 53 39 54 52 56 72 57
REMARK SMILES IDX 41 58 26 59 27 60 35 61 28 62 34 63 29 64 30 65 31 66 32 67
REMARK SMILES IDX 33 68 56 69 57 70 65 71 58 72 64 73 59 74 60 75 61 76 62 77
REMARK SMILES IDX 63 78 42 79 43 80 51 81 44 82 50 83 45 84 46 85 47 86 48 87
REMARK SMILES IDX 49 88
REMARK H PARENT 9 7 14 25 70 44 40 55
REMARK Flexibility Score: inf
ROOT
ATOM      1  C   UNL A   1      32.185  28.396  26.270  1.00  0.00     0.023 C 
ENDROOT
BRANCH   1   2
ATOM      2  C   UNL A   1      31.194  27.371  26.833  1.00  0.00     0.023 C 
BRANCH   2   3
ATOM      3  C   UNL A   1      30.685  26.344  25.822  1.00  0.00     0.116 C 
BRANCH   3   4
ATOM      4  N   UNL A   1      30.240  25.126  26.472  1.00  0.00    -0.355 N 
ATOM      5  C   UNL A   1      30.941  24.006  26.795  1.00  0.00     0.230 C 
ATOM      6  O   UNL A   1      30.331  23.077  27.331  1.00  0.00    -0.274 OA
ATOM      7  H   UNL A   1      29.286  25.106  26.714  1.00  0.00     0.163 HD
BRANCH   5   8
ATOM      8  C   UNL A   1      32.442  23.927  26.596  1.00  0.00     0.174 C 
BRANCH   8   9
ATOM      9  S   UNL A   1      32.977  23.400  24.938  1.00  0.00    -0.115 SA
BRANCH   9  10
ATOM     10  C   UNL A   1      34.646  22.737  25.136  1.00  0.00     0.019 A 
ATOM     11  C   UNL A   1      38.172  23.863  25.919  1.00  0.00     0.067 C 
ATOM     12  C   UNL A   1      36.989  23.013  25.562  1.00  0.00     0.039 A 
ATOM     13  C   UNL A   1      35.731  23.570  25.406  1.00  0.00     0.039 A 
ATOM     14  N   UNL A   1      37.224  21.693  25.405  1.00  0.00    -0.253 NA
ATOM     15  C   UNL A   1      36.200  20.882  25.114  1.00  0.00     0.072 A 
ATOM     16  C   UNL A   1      34.871  21.338  24.971  1.00  0.00     0.015 A 
ATOM     17  C   UNL A   1      36.482  19.532  24.948  1.00  0.00     0.030 A 
ATOM     18  C   UNL A   1      33.867  20.376  24.667  1.00  0.00     0.026 A 
ATOM     19  C   UNL A   1      35.489  18.598  24.643  1.00  0.00     0.017 A 
ATOM     20  C   UNL A   1      34.179  19.026  24.505  1.00  0.00     0.014 A 
ATOM     21  I   UNL A   1      32.681  17.661  24.054  1.00  0.00    -0.044 I 
ENDBRANCH   9  10
ENDBRANCH   8   9
ENDBRANCH   5   8
ENDBRANCH   3   4
ENDBRANCH   2   3
ENDBRANCH   1   2
BRANCH   1  22
ATOM     22  C   UNL A   1      33.318  28.803  27.207  1.00  0.00     0.116 C 
BRANCH  22  23
ATOM     23  N   UNL A   1      33.394  30.239  27.426  1.00  0.00    -0.352 N 
ATOM     24  C   UNL A   1      34.436  30.979  27.938  1.00  0.00     0.251 C 
ATOM     25  H   UNL A   1      32.593  30.752  27.174  1.00  0.00     0.163 HD
ATOM     26  O   UNL A   1      34.291  32.180  28.152  1.00  0.00    -0.269 OA
BRANCH  24  27
ATOM     27  C   UNL A   1      35.712  30.310  28.273  1.00  0.00     0.039 A 
ATOM     28  C   UNL A   1      35.910  29.739  29.532  1.00  0.00     0.014 A 
ATOM     29  C   UNL A   1      36.737  30.296  27.323  1.00  0.00     0.014 A 
ATOM     30  C   UNL A   1      37.179  29.294  29.894  1.00  0.00     0.010 A 
ATOM     31  C   UNL A   1      37.993  29.789  27.668  1.00  0.00     0.010 A 
ATOM     32  C   UNL A   1      38.237  29.328  28.971  1.00  0.00    -0.014 A 
BRANCH  32  33
ATOM     33  C   UNL A   1      39.598  28.902  29.387  1.00  0.00     0.031 A 
ATOM     34  C   UNL A   1      40.418  29.764  30.311  1.00  0.00     0.074 A 
ATOM     35  C   UNL A   1      40.078  27.713  28.973  1.00  0.00     0.049 A 
ATOM     36  N   UNL A   1      41.627  29.559  30.767  1.00  0.00    -0.248 NA
ATOM     37  C   UNL A   1      39.803  31.014  30.788  1.00  0.00     0.031 C 
ATOM     38  C   UNL A   1      39.361  26.772  28.113  1.00  0.00     0.029 A 
ATOM     39  N   UNL A   1      41.269  27.083  29.237  1.00  0.00    -0.354 N 
ATOM     40  C   UNL A   1      41.922  30.653  31.571  1.00  0.00     0.074 A 
ATOM     41  C   UNL A   1      40.777  31.536  31.523  1.00  0.00     0.031 C 
ATOM     42  C   UNL A   1      40.102  25.664  27.962  1.00  0.00     0.029 A 
ATOM     43  C   UNL A   1      41.374  25.842  28.657  1.00  0.00     0.049 A 
ATOM     44  H   UNL A   1      41.979  27.482  29.790  1.00  0.00     0.167 HD
ATOM     45  C   UNL A   1      43.043  30.894  32.292  1.00  0.00     0.031 A 
ATOM     46  C   UNL A   1      42.383  24.947  28.665  1.00  0.00     0.031 A 
ATOM     47  C   UNL A   1      44.174  30.007  32.346  1.00  0.00     0.049 A 
ATOM     48  C   UNL A   1      43.644  25.268  29.413  1.00  0.00     0.074 A 
ATOM     49  C   UNL A   1      45.352  30.168  33.054  1.00  0.00     0.029 A 
ATOM     50  N   UNL A   1      44.270  28.796  31.678  1.00  0.00    -0.354 N 
ATOM     51  N   UNL A   1      43.913  26.319  30.148  1.00  0.00    -0.248 NA
ATOM     52  C   UNL A   1      44.743  24.295  29.324  1.00  0.00     0.031 C 
ATOM     53  C   UNL A   1      46.182  29.081  32.773  1.00  0.00     0.029 A 
ATOM     54  C   UNL A   1      45.498  28.212  31.937  1.00  0.00     0.049 A 
ATOM     55  H   UNL A   1      43.568  28.410  31.105  1.00  0.00     0.167 HD
ATOM     56  C   UNL A   1      45.208  26.133  30.617  1.00  0.00     0.074 A 
ATOM     57  C   UNL A   1      45.666  24.863  30.093  1.00  0.00     0.031 C 
ATOM     58  C   UNL A   1      45.946  26.948  31.409  1.00  0.00     0.031 A 
BRANCH  45  59
ATOM     59  C   UNL A   1      43.121  32.171  33.086  1.00  0.00    -0.014 A 
ATOM     60  C   UNL A   1      42.619  32.206  34.400  1.00  0.00     0.010 A 
ATOM     61  C   UNL A   1      43.582  33.362  32.497  1.00  0.00     0.010 A 
ATOM     62  C   UNL A   1      42.555  33.411  35.104  1.00  0.00     0.020 A 
ATOM     63  C   UNL A   1      43.541  34.565  33.207  1.00  0.00     0.020 A 
ATOM     64  C   UNL A   1      43.008  34.585  34.499  1.00  0.00     0.054 A 
BRANCH  64  65
ATOM     65  S   UNL A   1      42.911  36.145  35.422  1.00  0.00     0.124 S 
ATOM     66  O   UNL A   1      44.227  36.214  36.049  1.00  0.00    -0.237 OA
ATOM     67  O   UNL A   1      42.659  37.127  34.369  1.00  0.00    -0.237 OA
ATOM     68  O   UNL A   1      41.792  35.929  36.337  1.00  0.00    -0.744 OA
ENDBRANCH  64  65
ENDBRANCH  45  59
BRANCH  46  69
ATOM     69  C   UNL A   1      42.209  23.662  27.937  1.00  0.00    -0.014 A 
ATOM     70  C   UNL A   1      41.536  22.585  28.546  1.00  0.00     0.010 A 
ATOM     71  C   UNL A   1      42.811  23.470  26.682  1.00  0.00     0.010 A 
ATOM     72  C   UNL A   1      41.525  21.325  27.945  1.00  0.00     0.020 A 
ATOM     73  C   UNL A   1      42.779  22.216  26.065  1.00  0.00     0.020 A 
ATOM     74  C   UNL A   1      42.166  21.144  26.718  1.00  0.00     0.054 A 
BRANCH  74  75
ATOM     75  S   UNL A   1      42.206  19.483  25.988  1.00  0.00     0.124 S 
ATOM     76  O   UNL A   1      43.130  19.671  24.873  1.00  0.00    -0.237 OA
ATOM     77  O   UNL A   1      42.706  18.660  27.086  1.00  0.00    -0.237 OA
ATOM     78  O   UNL A   1      40.815  19.241  25.615  1.00  0.00    -0.744 OA
ENDBRANCH  74  75
ENDBRANCH  46  69
BRANCH  58  79
ATOM     79  C   UNL A   1      47.340  26.520  31.774  1.00  0.00    -0.014 A 
ATOM     80  C   UNL A   1      48.409  26.824  30.911  1.00  0.00     0.010 A 
ATOM     81  C   UNL A   1      47.562  25.674  32.874  1.00  0.00     0.010 A 
ATOM     82  C   UNL A   1      49.666  26.250  31.113  1.00  0.00     0.020 A 
ATOM     83  C   UNL A   1      48.825  25.115  33.091  1.00  0.00     0.020 A 
ATOM     84  C   UNL A   1      49.860  25.383  32.193  1.00  0.00     0.054 A 
BRANCH  84  85
ATOM     85  S   UNL A   1      51.479  24.590  32.398  1.00  0.00     0.124 S 
ATOM     86  O   UNL A   1      51.170  23.188  32.131  1.00  0.00    -0.237 OA
ATOM     87  O   UNL A   1      52.296  25.258  31.388  1.00  0.00    -0.237 OA
ATOM     88  O   UNL A   1      51.838  24.900  33.780  1.00  0.00    -0.744 OA
ENDBRANCH  84  85
ENDBRANCH  58  79
ENDBRANCH  32  33
ENDBRANCH  24  27
ENDBRANCH  22  23
ENDBRANCH   1  22
TORSDOF 16
ENDMDL
MODEL 2
REMARK VINA RESULT:     -10.8      3.847     10.127
REMARK SMILES Cc1cc(SCC(=O)NCCCCNC(=O)c2ccc(-c3c4nc(c(-c5ccc(S(=O)(=O)[O-])cc5)c5ccc([nH]5)c(-c5ccc(S(=O)(=O)[O-])cc5)c5nc(c(-c6ccc(S(=O)(=O)[O-])cc6)c6ccc3[nH]6)C=C5)C=C4)cc2)c2cc(I)ccc2n1
REMARK SMILES IDX 12 1 11 2 10 3 9 4 7 5 8 6 6 8 5 9 4 10 1 11 2 12 3 13 84 14
REMARK SMILES IDX 83 15 77 16 82 17 78 18 81 19 79 20 80 21 13 22 14 23 15 24
REMARK SMILES IDX 16 26 17 27 18 28 76 29 19 30 75 31 20 32 21 33 22 34 69 35
REMARK SMILES IDX 23 36 74 37 68 38 70 39 24 40 73 41 67 42 66 43 25 45 55 46
REMARK SMILES IDX 36 47 54 48 37 49 40 50 53 51 71 52 38 53 39 54 52 56 72 57
REMARK SMILES IDX 41 58 26 59 27 60 35 61 28 62 34 63 29 64 30 65 31 66 32 67
REMARK SMILES IDX 33 68 56 69 57 70 65 71 58 72 64 73 59 74 60 75 61 76 62 77
REMARK SMILES IDX 63 78 42 79 43 80 51 81 44 82 50 83 45 84 46 85 47 86 48 87
REMARK SMILES IDX 49 88
REMARK H PARENT 9 7 14 25 70 44 40 55
REMARK Flexibility Score: inf
ROOT
ATOM      1  C   UNL A   1      42.313  22.248  27.615  1.00  0.00     0.023 C 
ENDROOT
BRANCH   1   2
ATOM      2  C   UNL A   1      41.712  21.403  26.486  1.00  0.00     0.023 C 
BRANCH   2   3
ATOM      3  C   UNL A   1      40.191  21.263  26.525  1.00  0.00     0.116 C 
BRANCH   3   4
ATOM      4  N   UNL A   1      39.538  22.541  26.734  1.00  0.00    -0.355 N 
ATOM      5  C   UNL A   1      38.387  23.029  26.196  1.00  0.00     0.230 C 
ATOM      6  O   UNL A   1      38.040  24.170  26.514  1.00  0.00    -0.274 OA
ATOM      7  H   UNL A   1      39.998  23.148  27.358  1.00  0.00     0.163 HD
BRANCH   5   8
ATOM      8  C   UNL A   1      37.503  22.173  25.311  1.00  0.00     0.174 C 
BRANCH   8   9
ATOM      9  S   UNL A   1      36.651  23.064  23.972  1.00  0.00    -0.115 SA
BRANCH   9  10
ATOM     10  C   UNL A   1      35.104  23.672  24.678  1.00  0.00     0.019 A 
ATOM     11  C   UNL A   1      33.546  26.844  26.031  1.00  0.00     0.067 C 
ATOM     12  C   UNL A   1      33.757  25.416  25.625  1.00  0.00     0.039 A 
ATOM     13  C   UNL A   1      34.968  24.994  25.103  1.00  0.00     0.039 A 
ATOM     14  N   UNL A   1      32.711  24.581  25.799  1.00  0.00    -0.253 NA
ATOM     15  C   UNL A   1      32.833  23.301  25.429  1.00  0.00     0.072 A 
ATOM     16  C   UNL A   1      34.008  22.774  24.849  1.00  0.00     0.015 A 
ATOM     17  C   UNL A   1      31.740  22.470  25.633  1.00  0.00     0.030 A 
ATOM     18  C   UNL A   1      34.013  21.397  24.490  1.00  0.00     0.026 A 
ATOM     19  C   UNL A   1      31.758  21.118  25.283  1.00  0.00     0.017 A 
ATOM     20  C   UNL A   1      32.900  20.585  24.708  1.00  0.00     0.014 A 
ATOM     21  I   UNL A   1      32.957  18.579  24.175  1.00  0.00    -0.044 I 
ENDBRANCH   9  10
ENDBRANCH   8   9
ENDBRANCH   5   8
ENDBRANCH   3   4
ENDBRANCH   2   3
ENDBRANCH   1   2
BRANCH   1  22
ATOM     22  C   UNL A   1      43.153  23.442  27.171  1.00  0.00     0.116 C 
BRANCH  22  23
ATOM     23  N   UNL A   1      42.563  24.181  26.065  1.00  0.00    -0.352 N 
ATOM     24  C   UNL A   1      41.875  25.372  26.095  1.00  0.00     0.251 C 
ATOM     25  H   UNL A   1      42.673  23.775  25.175  1.00  0.00     0.163 HD
ATOM     26  O   UNL A   1      41.353  25.806  25.071  1.00  0.00    -0.269 OA
BRANCH  24  27
ATOM     27  C   UNL A   1      41.727  26.099  27.374  1.00  0.00     0.039 A 
ATOM     28  C   UNL A   1      40.672  25.809  28.243  1.00  0.00     0.014 A 
ATOM     29  C   UNL A   1      42.635  27.115  27.683  1.00  0.00     0.014 A 
ATOM     30  C   UNL A   1      40.437  26.635  29.340  1.00  0.00     0.010 A 
ATOM     31  C   UNL A   1      42.433  27.902  28.821  1.00  0.00     0.010 A 
ATOM     32  C   UNL A   1      41.305  27.699  29.632  1.00  0.00    -0.014 A 
BRANCH  32  33
ATOM     33  C   UNL A   1      41.012  28.604  30.771  1.00  0.00     0.031 A 
ATOM     34  C   UNL A   1      41.880  28.587  32.002  1.00  0.00     0.074 A 
ATOM     35  C   UNL A   1      39.992  29.479  30.680  1.00  0.00     0.049 A 
ATOM     36  N   UNL A   1      41.766  29.295  33.097  1.00  0.00    -0.248 NA
ATOM     37  C   UNL A   1      43.025  27.660  32.006  1.00  0.00     0.031 C 
ATOM     38  C   UNL A   1      39.108  29.620  29.522  1.00  0.00     0.029 A 
ATOM     39  N   UNL A   1      39.540  30.429  31.562  1.00  0.00    -0.354 N 
ATOM     40  C   UNL A   1      42.811  28.894  33.921  1.00  0.00     0.074 A 
ATOM     41  C   UNL A   1      43.536  27.862  33.215  1.00  0.00     0.031 C 
ATOM     42  C   UNL A   1      38.255  30.631  29.743  1.00  0.00     0.029 A 
ATOM     43  C   UNL A   1      38.485  31.167  31.082  1.00  0.00     0.049 A 
ATOM     44  H   UNL A   1      39.936  30.570  32.452  1.00  0.00     0.167 HD
ATOM     45  C   UNL A   1      43.140  29.354  35.151  1.00  0.00     0.031 A 
ATOM     46  C   UNL A   1      37.767  32.155  31.654  1.00  0.00     0.031 A 
ATOM     47  C   UNL A   1      42.423  30.390  35.845  1.00  0.00     0.049 A 
ATOM     48  C   UNL A   1      38.106  32.599  33.047  1.00  0.00     0.074 A 
ATOM     49  C   UNL A   1      42.687  30.923  37.094  1.00  0.00     0.029 A 
ATOM     50  N   UNL A   1      41.310  31.055  35.353  1.00  0.00    -0.354 N 
ATOM     51  N   UNL A   1      39.083  32.191  33.819  1.00  0.00    -0.248 NA
ATOM     52  C   UNL A   1      37.243  33.622  33.654  1.00  0.00     0.031 C 
ATOM     53  C   UNL A   1      41.704  31.872  37.381  1.00  0.00     0.029 A 
ATOM     54  C   UNL A   1      40.861  31.974  36.286  1.00  0.00     0.049 A 
ATOM     55  H   UNL A   1      40.900  30.895  34.472  1.00  0.00     0.167 HD
ATOM     56  C   UNL A   1      38.959  32.912  35.001  1.00  0.00     0.074 A 
ATOM     57  C   UNL A   1      37.819  33.791  34.839  1.00  0.00     0.031 C 
ATOM     58  C   UNL A   1      39.724  32.844  36.116  1.00  0.00     0.031 A 
BRANCH  45  59
ATOM     59  C   UNL A   1      44.329  28.745  35.847  1.00  0.00    -0.014 A 
ATOM     60  C   UNL A   1      44.143  27.660  36.723  1.00  0.00     0.010 A 
ATOM     61  C   UNL A   1      45.608  29.318  35.725  1.00  0.00     0.010 A 
ATOM     62  C   UNL A   1      45.209  27.170  37.482  1.00  0.00     0.020 A 
ATOM     63  C   UNL A   1      46.682  28.815  36.467  1.00  0.00     0.020 A 
ATOM     64  C   UNL A   1      46.470  27.758  37.356  1.00  0.00     0.054 A 
BRANCH  64  65
ATOM     65  S   UNL A   1      47.843  27.117  38.356  1.00  0.00     0.124 S 
ATOM     66  O   UNL A   1      47.488  27.573  39.695  1.00  0.00    -0.237 OA
ATOM     67  O   UNL A   1      47.757  25.675  38.134  1.00  0.00    -0.237 OA
ATOM     68  O   UNL A   1      49.018  27.757  37.767  1.00  0.00    -0.744 OA
ENDBRANCH  64  65
ENDBRANCH  45  59
BRANCH  46  69
ATOM     69  C   UNL A   1      36.662  32.781  30.878  1.00  0.00    -0.014 A 
ATOM     70  C   UNL A   1      36.948  33.697  29.847  1.00  0.00     0.010 A 
ATOM     71  C   UNL A   1      35.324  32.553  31.239  1.00  0.00     0.010 A 
ATOM     72  C   UNL A   1      35.921  34.422  29.239  1.00  0.00     0.020 A 
ATOM     73  C   UNL A   1      34.291  33.258  30.614  1.00  0.00     0.020 A 
ATOM     74  C   UNL A   1      34.601  34.213  29.641  1.00  0.00     0.054 A 
BRANCH  74  75
ATOM     75  S   UNL A   1      33.289  35.217  28.892  1.00  0.00     0.124 S 
ATOM     76  O   UNL A   1      32.660  34.257  27.988  1.00  0.00    -0.237 OA
ATOM     77  O   UNL A   1      32.485  35.611  30.047  1.00  0.00    -0.237 OA
ATOM     78  O   UNL A   1      34.018  36.303  28.244  1.00  0.00    -0.744 OA
ENDBRANCH  74  75
ENDBRANCH  46  69
BRANCH  58  79
ATOM     79  C   UNL A   1      39.375  33.733  37.278  1.00  0.00    -0.014 A 
ATOM     80  C   UNL A   1      40.002  34.986  37.407  1.00  0.00     0.010 A 
ATOM     81  C   UNL A   1      38.566  33.256  38.323  1.00  0.00     0.010 A 
ATOM     82  C   UNL A   1      39.866  35.727  38.583  1.00  0.00     0.020 A 
ATOM     83  C   UNL A   1      38.409  34.006  39.492  1.00  0.00     0.020 A 
ATOM     84  C   UNL A   1      39.084  35.222  39.627  1.00  0.00     0.054 A 
BRANCH  84  85
ATOM     85  S   UNL A   1      38.977  36.163  41.174  1.00  0.00     0.124 S 
ATOM     86  O   UNL A   1      37.817  35.558  41.822  1.00  0.00    -0.237 OA
ATOM     87  O   UNL A   1      40.265  35.892  41.807  1.00  0.00    -0.237 OA
ATOM     88  O   UNL A   1      38.792  37.541  40.723  1.00  0.00    -0.744 OA
ENDBRANCH  84  85
ENDBRANCH  58  79
ENDBRANCH  32  33
ENDBRANCH  24  27
ENDBRANCH  22  23
ENDBRANCH   1  22
TORSDOF 16
ENDMDL
MODEL 3
REMARK VINA RESULT:     -10.8      3.201      9.987
REMARK SMILES Cc1cc(SCC(=O)NCCCCNC(=O)c2ccc(-c3c4nc(c(-c5ccc(S(=O)(=O)[O-])cc5)c5ccc([nH]5)c(-c5ccc(S(=O)(=O)[O-])cc5)c5nc(c(-c6ccc(S(=O)(=O)[O-])cc6)c6ccc3[nH]6)C=C5)C=C4)cc2)c2cc(I)ccc2n1
REMARK SMILES IDX 12 1 11 2 10 3 9 4 7 5 8 6 6 8 5 9 4 10 1 11 2 12 3 13 84 14
REMARK SMILES IDX 83 15 77 16 82 17 78 18 81 19 79 20 80 21 13 22 14 23 15 24
REMARK SMILES IDX 16 26 17 27 18 28 76 29 19 30 75 31 20 32 21 33 22 34 69 35
REMARK SMILES IDX 23 36 74 37 68 38 70 39 24 40 73 41 67 42 66 43 25 45 55 46
REMARK SMILES IDX 36 47 54 48 37 49 40 50 53 51 71 52 38 53 39 54 52 56 72 57
REMARK SMILES IDX 41 58 26 59 27 60 35 61 28 62 34 63 29 64 30 65 31 66 32 67
REMARK SMILES IDX 33 68 56 69 57 70 65 71 58 72 64 73 59 74 60 75 61 76 62 77
REMARK SMILES IDX 63 78 42 79 43 80 51 81 44 82 50 83 45 84 46 85 47 86 48 87
REMARK SMILES IDX 49 88
REMARK H PARENT 9 7 14 25 70 44 40 55
REMARK Flexibility Score: inf
ROOT
ATOM      1  C   UNL A   1      35.935  23.646  25.621  1.00  0.00     0.023 C 
ENDROOT
BRANCH   1   2
ATOM      2  C   UNL A   1      34.815  22.609  25.489  1.00  0.00     0.023 C 
BRANCH   2   3
ATOM      3  C   UNL A   1      34.285  22.409  24.069  1.00  0.00     0.116 C 
BRANCH   3   4
ATOM      4  N   UNL A   1      34.489  23.587  23.249  1.00  0.00    -0.355 N 
ATOM      5  C   UNL A   1      33.737  24.716  23.144  1.00  0.00     0.230 C 
ATOM      6  O   UNL A   1      34.106  25.585  22.349  1.00  0.00    -0.274 OA
ATOM      7  H   UNL A   1      35.293  23.566  22.680  1.00  0.00     0.163 HD
BRANCH   5   8
ATOM      8  C   UNL A   1      32.536  24.952  24.039  1.00  0.00     0.174 C 
BRANCH   8   9
ATOM      9  S   UNL A   1      31.448  26.320  23.531  1.00  0.00    -0.115 SA
BRANCH   9  10
ATOM     10  C   UNL A   1      31.882  27.723  24.582  1.00  0.00     0.019 A 
ATOM     11  C   UNL A   1      34.323  28.704  27.302  1.00  0.00     0.067 C 
ATOM     12  C   UNL A   1      33.198  28.738  26.310  1.00  0.00     0.039 A 
ATOM     13  C   UNL A   1      32.894  27.630  25.538  1.00  0.00     0.039 A 
ATOM     14  N   UNL A   1      32.513  29.897  26.219  1.00  0.00    -0.253 NA
ATOM     15  C   UNL A   1      31.517  29.995  25.331  1.00  0.00     0.072 A 
ATOM     16  C   UNL A   1      31.148  28.941  24.467  1.00  0.00     0.015 A 
ATOM     17  C   UNL A   1      30.828  31.200  25.274  1.00  0.00     0.030 A 
ATOM     18  C   UNL A   1      30.076  29.170  23.559  1.00  0.00     0.026 A 
ATOM     19  C   UNL A   1      29.772  31.410  24.385  1.00  0.00     0.017 A 
ATOM     20  C   UNL A   1      29.400  30.390  23.525  1.00  0.00     0.014 A 
ATOM     21  I   UNL A   1      27.835  30.674  22.189  1.00  0.00    -0.044 I 
ENDBRANCH   9  10
ENDBRANCH   8   9
ENDBRANCH   5   8
ENDBRANCH   3   4
ENDBRANCH   2   3
ENDBRANCH   1   2
BRANCH   1  22
ATOM     22  C   UNL A   1      37.184  23.381  24.786  1.00  0.00     0.116 C 
BRANCH  22  23
ATOM     23  N   UNL A   1      38.085  22.412  25.390  1.00  0.00    -0.352 N 
ATOM     24  C   UNL A   1      39.112  22.629  26.280  1.00  0.00     0.251 C 
ATOM     25  H   UNL A   1      37.939  21.474  25.129  1.00  0.00     0.163 HD
ATOM     26  O   UNL A   1      39.844  21.700  26.614  1.00  0.00    -0.269 OA
BRANCH  24  27
ATOM     27  C   UNL A   1      39.359  23.993  26.794  1.00  0.00     0.039 A 
ATOM     28  C   UNL A   1      40.052  24.932  26.026  1.00  0.00     0.014 A 
ATOM     29  C   UNL A   1      38.925  24.320  28.082  1.00  0.00     0.014 A 
ATOM     30  C   UNL A   1      40.445  26.137  26.602  1.00  0.00     0.010 A 
ATOM     31  C   UNL A   1      39.265  25.557  28.635  1.00  0.00     0.010 A 
ATOM     32  C   UNL A   1      40.069  26.457  27.916  1.00  0.00    -0.014 A 
BRANCH  32  33
ATOM     33  C   UNL A   1      40.542  27.721  28.536  1.00  0.00     0.031 A 
ATOM     34  C   UNL A   1      41.991  27.892  28.909  1.00  0.00     0.074 A 
ATOM     35  C   UNL A   1      39.675  28.735  28.720  1.00  0.00     0.049 A 
ATOM     36  N   UNL A   1      42.578  28.918  29.471  1.00  0.00    -0.248 NA
ATOM     37  C   UNL A   1      42.900  26.772  28.611  1.00  0.00     0.031 C 
ATOM     38  C   UNL A   1      38.257  28.704  28.360  1.00  0.00     0.029 A 
ATOM     39  N   UNL A   1      39.862  29.996  29.232  1.00  0.00    -0.354 N 
ATOM     40  C   UNL A   1      43.916  28.566  29.603  1.00  0.00     0.074 A 
ATOM     41  C   UNL A   1      44.054  27.222  29.088  1.00  0.00     0.031 C 
ATOM     42  C   UNL A   1      37.715  29.905  28.613  1.00  0.00     0.029 A 
ATOM     43  C   UNL A   1      38.726  30.769  29.216  1.00  0.00     0.049 A 
ATOM     44  H   UNL A   1      40.727  30.315  29.577  1.00  0.00     0.167 HD
ATOM     45  C   UNL A   1      44.938  29.302  30.101  1.00  0.00     0.031 A 
ATOM     46  C   UNL A   1      38.510  32.028  29.649  1.00  0.00     0.031 A 
ATOM     47  C   UNL A   1      44.798  30.644  30.600  1.00  0.00     0.049 A 
ATOM     48  C   UNL A   1      39.642  32.799  30.262  1.00  0.00     0.074 A 
ATOM     49  C   UNL A   1      45.780  31.469  31.120  1.00  0.00     0.029 A 
ATOM     50  N   UNL A   1      43.612  31.360  30.638  1.00  0.00    -0.354 N 
ATOM     51  N   UNL A   1      40.895  32.440  30.400  1.00  0.00    -0.248 NA
ATOM     52  C   UNL A   1      39.334  34.136  30.790  1.00  0.00     0.031 C 
ATOM     53  C   UNL A   1      45.179  32.664  31.521  1.00  0.00     0.029 A 
ATOM     54  C   UNL A   1      43.833  32.607  31.196  1.00  0.00     0.049 A 
ATOM     55  H   UNL A   1      42.742  31.030  30.316  1.00  0.00     0.167 HD
ATOM     56  C   UNL A   1      41.529  33.508  31.024  1.00  0.00     0.074 A 
ATOM     57  C   UNL A   1      40.525  34.532  31.227  1.00  0.00     0.031 C 
ATOM     58  C   UNL A   1      42.826  33.620  31.395  1.00  0.00     0.031 A 
BRANCH  45  59
ATOM     59  C   UNL A   1      46.310  28.684  30.141  1.00  0.00    -0.014 A 
ATOM     60  C   UNL A   1      47.146  28.768  29.013  1.00  0.00     0.010 A 
ATOM     61  C   UNL A   1      46.728  27.924  31.249  1.00  0.00     0.010 A 
ATOM     62  C   UNL A   1      48.365  28.086  28.979  1.00  0.00     0.020 A 
ATOM     63  C   UNL A   1      47.957  27.259  31.227  1.00  0.00     0.020 A 
ATOM     64  C   UNL A   1      48.758  27.327  30.084  1.00  0.00     0.054 A 
BRANCH  64  65
ATOM     65  S   UNL A   1      50.340  26.438  30.023  1.00  0.00     0.124 S 
ATOM     66  O   UNL A   1      50.692  26.339  31.435  1.00  0.00    -0.237 OA
ATOM     67  O   UNL A   1      49.978  25.181  29.371  1.00  0.00    -0.237 OA
ATOM     68  O   UNL A   1      51.192  27.317  29.225  1.00  0.00    -0.744 OA
ENDBRANCH  64  65
ENDBRANCH  45  59
BRANCH  46  69
ATOM     69  C   UNL A   1      37.152  32.617  29.496  1.00  0.00    -0.014 A 
ATOM     70  C   UNL A   1      36.779  33.238  28.288  1.00  0.00     0.010 A 
ATOM     71  C   UNL A   1      36.270  32.659  30.588  1.00  0.00     0.010 A 
ATOM     72  C   UNL A   1      35.580  33.947  28.198  1.00  0.00     0.020 A 
ATOM     73  C   UNL A   1      35.057  33.347  30.493  1.00  0.00     0.020 A 
ATOM     74  C   UNL A   1      34.736  34.015  29.308  1.00  0.00     0.054 A 
BRANCH  74  75
ATOM     75  S   UNL A   1      33.219  35.003  29.195  1.00  0.00     0.124 S 
ATOM     76  O   UNL A   1      33.737  36.296  28.757  1.00  0.00    -0.237 OA
ATOM     77  O   UNL A   1      32.432  34.274  28.204  1.00  0.00    -0.237 OA
ATOM     78  O   UNL A   1      32.688  34.969  30.555  1.00  0.00    -0.744 OA
ENDBRANCH  74  75
ENDBRANCH  46  69
BRANCH  58  79
ATOM     79  C   UNL A   1      43.270  34.889  32.070  1.00  0.00    -0.014 A 
ATOM     80  C   UNL A   1      43.024  35.070  33.443  1.00  0.00     0.010 A 
ATOM     81  C   UNL A   1      43.769  35.963  31.312  1.00  0.00     0.010 A 
ATOM     82  C   UNL A   1      43.222  36.317  34.039  1.00  0.00     0.020 A 
ATOM     83  C   UNL A   1      43.990  37.206  31.910  1.00  0.00     0.020 A 
ATOM     84  C   UNL A   1      43.686  37.383  33.263  1.00  0.00     0.054 A 
BRANCH  84  85
ATOM     85  S   UNL A   1      43.869  39.014  34.036  1.00  0.00     0.124 S 
ATOM     86  O   UNL A   1      43.991  38.671  35.450  1.00  0.00    -0.237 OA
ATOM     87  O   UNL A   1      45.079  39.536  33.408  1.00  0.00    -0.237 OA
ATOM     88  O   UNL A   1      42.637  39.707  33.665  1.00  0.00    -0.744 OA
ENDBRANCH  84  85
ENDBRANCH  58  79
ENDBRANCH  32  33
ENDBRANCH  24  27
ENDBRANCH  22  23
ENDBRANCH   1  22
TORSDOF 16
ENDMDL
