MODEL 1
REMARK VINA RESULT:     -12.3      0.000      0.000
REMARK SMILES O=C(Cn1cc(C(=O)C(F)(F)F)c2ccccc21)NCCCCNC(=O)c1ccc(-c2c3nc(c(-c4ccc(S(=O)(=O)[O-])cc4)c4ccc([nH]4)c(-c4ccc(S(=O)(=O)[O-])cc4)c4nc(c(-c5ccc(S(=O)(=O)[O-])cc5)c5ccc2[nH]5)C=C4)C=C3)cc1
REMARK SMILES IDX 21 1 20 2 19 3 1 4 2 5 3 7 4 8 5 9 18 10 6 11 13 12 17 13
REMARK SMILES IDX 14 14 16 15 15 16 7 17 8 18 9 19 10 20 11 21 12 22 22 23
REMARK SMILES IDX 23 24 24 25 25 26 26 28 27 29 28 30 86 31 29 32 85 33 30 34
REMARK SMILES IDX 31 35 32 36 79 37 33 38 84 39 78 40 80 41 34 42 83 43 77 44
REMARK SMILES IDX 76 45 35 47 65 48 46 49 64 50 47 51 50 52 63 53 81 54 48 55
REMARK SMILES IDX 49 56 62 58 82 59 51 60 36 61 37 62 45 63 38 64 44 65 39 66
REMARK SMILES IDX 40 67 41 68 42 69 43 70 66 71 67 72 75 73 68 74 74 75 69 76
REMARK SMILES IDX 70 77 71 78 72 79 73 80 52 81 53 82 61 83 54 84 60 85 55 86
REMARK SMILES IDX 56 87 57 88 58 89 59 90
REMARK H PARENT 19 6 24 27 80 46 50 57
REMARK Flexibility Score: inf
ROOT
ATOM      1  C   UNL A   1      38.874  22.431  26.335  1.00  0.00     0.023 C 
ENDROOT
BRANCH   1   2
ATOM      2  C   UNL A   1      37.991  23.652  26.092  1.00  0.00     0.116 C 
BRANCH   2   3
ATOM      3  N   UNL A   1      36.616  23.426  26.488  1.00  0.00    -0.355 N 
ATOM      4  O   UNL A   1      35.710  23.802  24.410  1.00  0.00    -0.273 OA
ATOM      5  C   UNL A   1      35.578  23.444  25.577  1.00  0.00     0.239 C 
ATOM      6  H   UNL A   1      36.415  23.253  27.436  1.00  0.00     0.163 HD
BRANCH   5   7
ATOM      7  C   UNL A   1      34.256  22.933  26.126  1.00  0.00     0.222 C 
BRANCH   7   8
ATOM      8  N   UNL A   1      33.829  21.728  25.424  1.00  0.00    -0.337 N 
ATOM      9  C   UNL A   1      33.909  20.458  25.942  1.00  0.00     0.099 A 
ATOM     10  C   UNL A   1      33.264  21.686  24.166  1.00  0.00     0.049 A 
ATOM     11  C   UNL A   1      33.313  19.578  25.056  1.00  0.00     0.053 A 
ATOM     12  C   UNL A   1      32.850  20.367  23.950  1.00  0.00     0.011 A 
ATOM     13  C   UNL A   1      33.055  22.691  23.207  1.00  0.00     0.027 A 
ATOM     14  C   UNL A   1      32.136  20.074  22.767  1.00  0.00     0.011 A 
ATOM     15  C   UNL A   1      32.349  22.371  22.046  1.00  0.00     0.002 A 
ATOM     16  C   UNL A   1      31.877  21.083  21.835  1.00  0.00     0.001 A 
BRANCH  11  17
ATOM     17  C   UNL A   1      33.189  18.123  25.219  1.00  0.00     0.268 C 
ATOM     18  O   UNL A   1      32.249  17.638  25.858  1.00  0.00    -0.284 OA
BRANCH  17  19
ATOM     19  C   UNL A   1      34.242  17.237  24.560  1.00  0.00     0.454 C 
ATOM     20  F   UNL A   1      35.282  17.951  24.036  1.00  0.00    -0.163 F 
ATOM     21  F   UNL A   1      34.799  16.342  25.426  1.00  0.00    -0.163 F 
ATOM     22  F   UNL A   1      33.748  16.494  23.525  1.00  0.00    -0.163 F 
ENDBRANCH  17  19
ENDBRANCH  11  17
ENDBRANCH   7   8
ENDBRANCH   5   7
ENDBRANCH   2   3
ENDBRANCH   1   2
BRANCH   1  23
ATOM     23  C   UNL A   1      40.058  22.640  27.292  1.00  0.00     0.023 C 
BRANCH  23  24
ATOM     24  C   UNL A   1      41.269  21.737  27.052  1.00  0.00     0.116 C 
BRANCH  24  25
ATOM     25  N   UNL A   1      42.100  22.136  25.937  1.00  0.00    -0.352 N 
ATOM     26  C   UNL A   1      42.772  23.277  25.594  1.00  0.00     0.251 C 
ATOM     27  H   UNL A   1      42.207  21.420  25.271  1.00  0.00     0.163 HD
ATOM     28  O   UNL A   1      43.548  23.171  24.639  1.00  0.00    -0.269 OA
BRANCH  26  29
ATOM     29  C   UNL A   1      42.595  24.619  26.224  1.00  0.00     0.039 A 
ATOM     30  C   UNL A   1      43.029  24.993  27.494  1.00  0.00     0.014 A 
ATOM     31  C   UNL A   1      41.863  25.558  25.469  1.00  0.00     0.014 A 
ATOM     32  C   UNL A   1      42.659  26.228  28.031  1.00  0.00     0.010 A 
ATOM     33  C   UNL A   1      41.503  26.798  25.993  1.00  0.00     0.010 A 
ATOM     34  C   UNL A   1      41.862  27.116  27.296  1.00  0.00    -0.014 A 
BRANCH  34  35
ATOM     35  C   UNL A   1      41.509  28.398  27.909  1.00  0.00     0.031 A 
ATOM     36  C   UNL A   1      42.549  29.456  27.800  1.00  0.00     0.074 A 
ATOM     37  C   UNL A   1      40.321  28.681  28.482  1.00  0.00     0.049 A 
ATOM     38  N   UNL A   1      43.252  29.973  28.753  1.00  0.00    -0.248 NA
ATOM     39  C   UNL A   1      42.922  29.921  26.457  1.00  0.00     0.031 C 
ATOM     40  C   UNL A   1      39.091  27.883  28.447  1.00  0.00     0.029 A 
ATOM     41  N   UNL A   1      39.939  29.803  29.165  1.00  0.00    -0.354 N 
ATOM     42  C   UNL A   1      44.036  30.961  28.162  1.00  0.00     0.074 A 
ATOM     43  C   UNL A   1      43.892  30.793  26.738  1.00  0.00     0.031 C 
ATOM     44  C   UNL A   1      38.054  28.635  28.888  1.00  0.00     0.029 A 
ATOM     45  C   UNL A   1      38.573  29.892  29.400  1.00  0.00     0.049 A 
ATOM     46  H   UNL A   1      40.579  30.489  29.466  1.00  0.00     0.167 HD
ATOM     47  C   UNL A   1      44.590  31.969  28.893  1.00  0.00     0.031 A 
ATOM     48  C   UNL A   1      37.910  30.919  29.982  1.00  0.00     0.031 A 
ATOM     49  C   UNL A   1      44.515  31.707  30.304  1.00  0.00     0.049 A 
ATOM     50  C   UNL A   1      38.864  31.652  30.840  1.00  0.00     0.074 A 
ATOM     51  C   UNL A   1      45.203  30.938  31.214  1.00  0.00     0.029 A 
ATOM     52  N   UNL A   1      43.335  32.086  30.889  1.00  0.00    -0.354 N 
ATOM     53  N   UNL A   1      39.411  31.136  31.903  1.00  0.00    -0.248 NA
ATOM     54  C   UNL A   1      39.452  32.902  30.374  1.00  0.00     0.031 C 
ATOM     55  C   UNL A   1      44.289  30.676  32.275  1.00  0.00     0.029 A 
ATOM     56  C   UNL A   1      43.081  31.317  31.995  1.00  0.00     0.049 A 
ATOM     57  H   UNL A   1      42.753  32.809  30.562  1.00  0.00     0.167 HD
ATOM     58  C   UNL A   1      40.643  31.752  31.987  1.00  0.00     0.074 A 
ATOM     59  C   UNL A   1      40.542  32.936  31.146  1.00  0.00     0.031 C 
ATOM     60  C   UNL A   1      41.730  31.089  32.472  1.00  0.00     0.031 A 
BRANCH  47  61
ATOM     61  C   UNL A   1      44.856  33.364  28.376  1.00  0.00    -0.014 A 
ATOM     62  C   UNL A   1      43.838  34.215  27.903  1.00  0.00     0.010 A 
ATOM     63  C   UNL A   1      46.119  33.953  28.611  1.00  0.00     0.010 A 
ATOM     64  C   UNL A   1      44.062  35.573  27.659  1.00  0.00     0.020 A 
ATOM     65  C   UNL A   1      46.344  35.324  28.406  1.00  0.00     0.020 A 
ATOM     66  C   UNL A   1      45.310  36.124  27.924  1.00  0.00     0.054 A 
BRANCH  66  67
ATOM     67  S   UNL A   1      45.524  37.908  27.703  1.00  0.00     0.124 S 
ATOM     68  O   UNL A   1      46.112  37.972  26.364  1.00  0.00    -0.237 OA
ATOM     69  O   UNL A   1      44.149  38.400  27.806  1.00  0.00    -0.237 OA
ATOM     70  O   UNL A   1      46.407  38.291  28.793  1.00  0.00    -0.744 OA
ENDBRANCH  66  67
ENDBRANCH  47  61
BRANCH  48  71
ATOM     71  C   UNL A   1      36.573  31.476  29.674  1.00  0.00    -0.014 A 
ATOM     72  C   UNL A   1      36.283  31.870  28.354  1.00  0.00     0.010 A 
ATOM     73  C   UNL A   1      35.738  31.945  30.706  1.00  0.00     0.010 A 
ATOM     74  C   UNL A   1      35.257  32.784  28.084  1.00  0.00     0.020 A 
ATOM     75  C   UNL A   1      34.705  32.859  30.441  1.00  0.00     0.020 A 
ATOM     76  C   UNL A   1      34.501  33.305  29.135  1.00  0.00     0.054 A 
BRANCH  76  77
ATOM     77  S   UNL A   1      33.329  34.646  28.776  1.00  0.00     0.124 S 
ATOM     78  O   UNL A   1      32.727  34.882  30.086  1.00  0.00    -0.237 OA
ATOM     79  O   UNL A   1      34.205  35.708  28.287  1.00  0.00    -0.237 OA
ATOM     80  O   UNL A   1      32.437  34.069  27.775  1.00  0.00    -0.744 OA
ENDBRANCH  76  77
ENDBRANCH  48  71
BRANCH  60  81
ATOM     81  C   UNL A   1      41.508  29.907  33.379  1.00  0.00    -0.014 A 
ATOM     82  C   UNL A   1      41.525  30.153  34.764  1.00  0.00     0.010 A 
ATOM     83  C   UNL A   1      41.428  28.576  32.930  1.00  0.00     0.010 A 
ATOM     84  C   UNL A   1      41.521  29.102  35.680  1.00  0.00     0.020 A 
ATOM     85  C   UNL A   1      41.397  27.513  33.849  1.00  0.00     0.020 A 
ATOM     86  C   UNL A   1      41.477  27.786  35.217  1.00  0.00     0.054 A 
BRANCH  86  87
ATOM     87  S   UNL A   1      41.561  26.449  36.439  1.00  0.00     0.124 S 
ATOM     88  O   UNL A   1      40.709  26.961  37.511  1.00  0.00    -0.237 OA
ATOM     89  O   UNL A   1      41.020  25.305  35.708  1.00  0.00    -0.237 OA
ATOM     90  O   UNL A   1      42.981  26.357  36.768  1.00  0.00    -0.744 OA
ENDBRANCH  86  87
ENDBRANCH  60  81
ENDBRANCH  34  35
ENDBRANCH  26  29
ENDBRANCH  24  25
ENDBRANCH  23  24
ENDBRANCH   1  23
TORSDOF 17
ENDMDL
MODEL 2
REMARK VINA RESULT:     -12.2      3.277      4.254
REMARK SMILES O=C(Cn1cc(C(=O)C(F)(F)F)c2ccccc21)NCCCCNC(=O)c1ccc(-c2c3nc(c(-c4ccc(S(=O)(=O)[O-])cc4)c4ccc([nH]4)c(-c4ccc(S(=O)(=O)[O-])cc4)c4nc(c(-c5ccc(S(=O)(=O)[O-])cc5)c5ccc2[nH]5)C=C4)C=C3)cc1
REMARK SMILES IDX 21 1 20 2 19 3 1 4 2 5 3 7 4 8 5 9 18 10 6 11 13 12 17 13
REMARK SMILES IDX 14 14 16 15 15 16 7 17 8 18 9 19 10 20 11 21 12 22 22 23
REMARK SMILES IDX 23 24 24 25 25 26 26 28 27 29 28 30 86 31 29 32 85 33 30 34
REMARK SMILES IDX 31 35 32 36 79 37 33 38 84 39 78 40 80 41 34 42 83 43 77 44
REMARK SMILES IDX 76 45 35 47 65 48 46 49 64 50 47 51 50 52 63 53 81 54 48 55
REMARK SMILES IDX 49 56 62 58 82 59 51 60 36 61 37 62 45 63 38 64 44 65 39 66
REMARK SMILES IDX 40 67 41 68 42 69 43 70 66 71 67 72 75 73 68 74 74 75 69 76
REMARK SMILES IDX 70 77 71 78 72 79 73 80 52 81 53 82 61 83 54 84 60 85 55 86
REMARK SMILES IDX 56 87 57 88 58 89 59 90
REMARK H PARENT 19 6 24 27 80 46 50 57
REMARK Flexibility Score: inf
ROOT
ATOM      1  C   UNL A   1      37.855  23.517  26.069  1.00  0.00     0.023 C 
ENDROOT
BRANCH   1   2
ATOM      2  C   UNL A   1      36.328  23.537  26.075  1.00  0.00     0.116 C 
BRANCH   2   3
ATOM      3  N   UNL A   1      35.780  24.163  24.889  1.00  0.00    -0.355 N 
ATOM      4  O   UNL A   1      33.592  24.104  25.584  1.00  0.00    -0.273 OA
ATOM      5  C   UNL A   1      34.439  24.471  24.775  1.00  0.00     0.239 C 
ATOM      6  H   UNL A   1      36.384  24.377  24.141  1.00  0.00     0.163 HD
BRANCH   5   7
ATOM      7  C   UNL A   1      34.099  25.351  23.583  1.00  0.00     0.222 C 
BRANCH   7   8
ATOM      8  N   UNL A   1      33.043  26.300  23.918  1.00  0.00    -0.337 N 
ATOM      9  C   UNL A   1      31.857  26.414  23.234  1.00  0.00     0.099 A 
ATOM     10  C   UNL A   1      33.065  27.192  24.970  1.00  0.00     0.049 A 
ATOM     11  C   UNL A   1      31.051  27.328  23.891  1.00  0.00     0.053 A 
ATOM     12  C   UNL A   1      31.798  27.781  25.029  1.00  0.00     0.011 A 
ATOM     13  C   UNL A   1      34.075  27.519  25.891  1.00  0.00     0.027 A 
ATOM     14  C   UNL A   1      31.518  28.665  26.097  1.00  0.00     0.011 A 
ATOM     15  C   UNL A   1      33.771  28.397  26.934  1.00  0.00     0.002 A 
ATOM     16  C   UNL A   1      32.502  28.949  27.048  1.00  0.00     0.001 A 
BRANCH  11  17
ATOM     17  C   UNL A   1      29.702  27.750  23.490  1.00  0.00     0.268 C 
ATOM     18  O   UNL A   1      28.722  27.033  23.725  1.00  0.00    -0.284 OA
BRANCH  17  19
ATOM     19  C   UNL A   1      29.551  29.102  22.799  1.00  0.00     0.454 C 
ATOM     20  F   UNL A   1      29.295  30.119  23.676  1.00  0.00    -0.163 F 
ATOM     21  F   UNL A   1      30.668  29.472  22.111  1.00  0.00    -0.163 F 
ATOM     22  F   UNL A   1      28.529  29.131  21.894  1.00  0.00    -0.163 F 
ENDBRANCH  17  19
ENDBRANCH  11  17
ENDBRANCH   7   8
ENDBRANCH   5   7
ENDBRANCH   2   3
ENDBRANCH   1   2
BRANCH   1  23
ATOM     23  C   UNL A   1      38.505  22.139  25.875  1.00  0.00     0.023 C 
BRANCH  23  24
ATOM     24  C   UNL A   1      39.770  21.883  26.696  1.00  0.00     0.116 C 
BRANCH  24  25
ATOM     25  N   UNL A   1      41.004  22.041  25.957  1.00  0.00    -0.352 N 
ATOM     26  C   UNL A   1      41.996  22.982  25.924  1.00  0.00     0.251 C 
ATOM     27  H   UNL A   1      41.167  21.298  25.332  1.00  0.00     0.163 HD
ATOM     28  O   UNL A   1      43.008  22.666  25.291  1.00  0.00    -0.269 OA
BRANCH  26  29
ATOM     29  C   UNL A   1      41.926  24.347  26.525  1.00  0.00     0.039 A 
ATOM     30  C   UNL A   1      42.442  24.728  27.761  1.00  0.00     0.014 A 
ATOM     31  C   UNL A   1      41.212  25.307  25.778  1.00  0.00     0.014 A 
ATOM     32  C   UNL A   1      42.168  25.995  28.280  1.00  0.00     0.010 A 
ATOM     33  C   UNL A   1      40.948  26.578  26.284  1.00  0.00     0.010 A 
ATOM     34  C   UNL A   1      41.388  26.908  27.559  1.00  0.00    -0.014 A 
BRANCH  34  35
ATOM     35  C   UNL A   1      41.137  28.223  28.152  1.00  0.00     0.031 A 
ATOM     36  C   UNL A   1      42.205  29.233  27.919  1.00  0.00     0.074 A 
ATOM     37  C   UNL A   1      40.012  28.575  28.809  1.00  0.00     0.049 A 
ATOM     38  N   UNL A   1      43.004  29.751  28.792  1.00  0.00    -0.248 NA
ATOM     39  C   UNL A   1      42.482  29.637  26.534  1.00  0.00     0.031 C 
ATOM     40  C   UNL A   1      38.754  27.829  28.904  1.00  0.00     0.029 A 
ATOM     41  N   UNL A   1      39.733  29.734  29.480  1.00  0.00    -0.354 N 
ATOM     42  C   UNL A   1      43.775  30.685  28.103  1.00  0.00     0.074 A 
ATOM     43  C   UNL A   1      43.505  30.477  26.703  1.00  0.00     0.031 C 
ATOM     44  C   UNL A   1      37.787  28.637  29.401  1.00  0.00     0.029 A 
ATOM     45  C   UNL A   1      38.395  29.888  29.823  1.00  0.00     0.049 A 
ATOM     46  H   UNL A   1      40.422  30.402  29.702  1.00  0.00     0.167 HD
ATOM     47  C   UNL A   1      44.426  31.693  28.749  1.00  0.00     0.031 A 
ATOM     48  C   UNL A   1      37.824  30.960  30.419  1.00  0.00     0.031 A 
ATOM     49  C   UNL A   1      44.459  31.481  30.170  1.00  0.00     0.049 A 
ATOM     50  C   UNL A   1      38.874  31.681  31.169  1.00  0.00     0.074 A 
ATOM     51  C   UNL A   1      45.189  30.715  31.048  1.00  0.00     0.029 A 
ATOM     52  N   UNL A   1      43.347  31.929  30.836  1.00  0.00    -0.354 N 
ATOM     53  N   UNL A   1      39.488  31.178  32.202  1.00  0.00    -0.248 NA
ATOM     54  C   UNL A   1      39.470  32.889  30.611  1.00  0.00     0.031 C 
ATOM     55  C   UNL A   1      44.358  30.526  32.189  1.00  0.00     0.029 A 
ATOM     56  C   UNL A   1      43.157  31.208  31.986  1.00  0.00     0.049 A 
ATOM     57  H   UNL A   1      42.769  32.665  30.532  1.00  0.00     0.167 HD
ATOM     58  C   UNL A   1      40.745  31.744  32.162  1.00  0.00     0.074 A 
ATOM     59  C   UNL A   1      40.620  32.903  31.290  1.00  0.00     0.031 C 
ATOM     60  C   UNL A   1      41.842  31.053  32.580  1.00  0.00     0.031 A 
BRANCH  47  61
ATOM     61  C   UNL A   1      44.702  33.057  28.162  1.00  0.00    -0.014 A 
ATOM     62  C   UNL A   1      43.690  33.894  27.654  1.00  0.00     0.010 A 
ATOM     63  C   UNL A   1      45.973  33.644  28.358  1.00  0.00     0.010 A 
ATOM     64  C   UNL A   1      43.925  35.237  27.341  1.00  0.00     0.020 A 
ATOM     65  C   UNL A   1      46.210  35.001  28.084  1.00  0.00     0.020 A 
ATOM     66  C   UNL A   1      45.180  35.787  27.570  1.00  0.00     0.054 A 
BRANCH  66  67
ATOM     67  S   UNL A   1      45.411  37.556  27.258  1.00  0.00     0.124 S 
ATOM     68  O   UNL A   1      44.060  37.968  26.876  1.00  0.00    -0.237 OA
ATOM     69  O   UNL A   1      45.869  38.042  28.561  1.00  0.00    -0.237 OA
ATOM     70  O   UNL A   1      46.401  37.596  26.194  1.00  0.00    -0.744 OA
ENDBRANCH  66  67
ENDBRANCH  47  61
BRANCH  48  71
ATOM     71  C   UNL A   1      36.489  31.563  30.202  1.00  0.00    -0.014 A 
ATOM     72  C   UNL A   1      35.953  31.587  28.900  1.00  0.00     0.010 A 
ATOM     73  C   UNL A   1      35.919  32.410  31.172  1.00  0.00     0.010 A 
ATOM     74  C   UNL A   1      34.951  32.501  28.551  1.00  0.00     0.020 A 
ATOM     75  C   UNL A   1      34.912  33.326  30.829  1.00  0.00     0.020 A 
ATOM     76  C   UNL A   1      34.466  33.394  29.509  1.00  0.00     0.054 A 
BRANCH  76  77
ATOM     77  S   UNL A   1      33.329  34.704  28.970  1.00  0.00     0.124 S 
ATOM     78  O   UNL A   1      32.590  34.043  27.897  1.00  0.00    -0.237 OA
ATOM     79  O   UNL A   1      32.561  34.974  30.184  1.00  0.00    -0.237 OA
ATOM     80  O   UNL A   1      34.216  35.782  28.545  1.00  0.00    -0.744 OA
ENDBRANCH  76  77
ENDBRANCH  48  71
BRANCH  60  81
ATOM     81  C   UNL A   1      41.651  29.912  33.545  1.00  0.00    -0.014 A 
ATOM     82  C   UNL A   1      41.905  30.174  34.903  1.00  0.00     0.010 A 
ATOM     83  C   UNL A   1      41.374  28.589  33.153  1.00  0.00     0.010 A 
ATOM     84  C   UNL A   1      41.942  29.142  35.839  1.00  0.00     0.020 A 
ATOM     85  C   UNL A   1      41.384  27.548  34.096  1.00  0.00     0.020 A 
ATOM     86  C   UNL A   1      41.701  27.830  35.427  1.00  0.00     0.054 A 
BRANCH  86  87
ATOM     87  S   UNL A   1      41.844  26.509  36.661  1.00  0.00     0.124 S 
ATOM     88  O   UNL A   1      42.258  25.370  35.843  1.00  0.00    -0.237 OA
ATOM     89  O   UNL A   1      42.863  27.024  37.572  1.00  0.00    -0.237 OA
ATOM     90  O   UNL A   1      40.501  26.407  37.228  1.00  0.00    -0.744 OA
ENDBRANCH  86  87
ENDBRANCH  60  81
ENDBRANCH  34  35
ENDBRANCH  26  29
ENDBRANCH  24  25
ENDBRANCH  23  24
ENDBRANCH   1  23
TORSDOF 17
ENDMDL
MODEL 3
REMARK VINA RESULT:     -12.0      4.908     10.586
REMARK SMILES O=C(Cn1cc(C(=O)C(F)(F)F)c2ccccc21)NCCCCNC(=O)c1ccc(-c2c3nc(c(-c4ccc(S(=O)(=O)[O-])cc4)c4ccc([nH]4)c(-c4ccc(S(=O)(=O)[O-])cc4)c4nc(c(-c5ccc(S(=O)(=O)[O-])cc5)c5ccc2[nH]5)C=C4)C=C3)cc1
REMARK SMILES IDX 21 1 20 2 19 3 1 4 2 5 3 7 4 8 5 9 18 10 6 11 13 12 17 13
REMARK SMILES IDX 14 14 16 15 15 16 7 17 8 18 9 19 10 20 11 21 12 22 22 23
REMARK SMILES IDX 23 24 24 25 25 26 26 28 27 29 28 30 86 31 29 32 85 33 30 34
REMARK SMILES IDX 31 35 32 36 79 37 33 38 84 39 78 40 80 41 34 42 83 43 77 44
REMARK SMILES IDX 76 45 35 47 65 48 46 49 64 50 47 51 50 52 63 53 81 54 48 55
REMARK SMILES IDX 49 56 62 58 82 59 51 60 36 61 37 62 45 63 38 64 44 65 39 66
REMARK SMILES IDX 40 67 41 68 42 69 43 70 66 71 67 72 75 73 68 74 74 75 69 76
REMARK SMILES IDX 70 77 71 78 72 79 73 80 52 81 53 82 61 83 54 84 60 85 55 86
REMARK SMILES IDX 56 87 57 88 58 89 59 90
REMARK H PARENT 19 6 24 27 80 46 50 57
REMARK Flexibility Score: inf
ROOT
ATOM      1  C   UNL A   1      35.425  31.343  27.747  1.00  0.00     0.023 C 
ENDROOT
BRANCH   1   2
ATOM      2  C   UNL A   1      34.819  29.943  27.817  1.00  0.00     0.116 C 
BRANCH   2   3
ATOM      3  N   UNL A   1      34.412  29.452  26.517  1.00  0.00    -0.355 N 
ATOM      4  O   UNL A   1      32.215  30.095  26.702  1.00  0.00    -0.273 OA
ATOM      5  C   UNL A   1      33.135  29.644  26.026  1.00  0.00     0.239 C 
ATOM      6  H   UNL A   1      35.067  28.967  25.964  1.00  0.00     0.163 HD
BRANCH   5   7
ATOM      7  C   UNL A   1      32.972  29.294  24.557  1.00  0.00     0.222 C 
BRANCH   7   8
ATOM      8  N   UNL A   1      31.564  29.124  24.213  1.00  0.00    -0.337 N 
ATOM      9  C   UNL A   1      30.762  30.120  23.712  1.00  0.00     0.099 A 
ATOM     10  C   UNL A   1      30.847  27.949  24.312  1.00  0.00     0.049 A 
ATOM     11  C   UNL A   1      29.528  29.579  23.395  1.00  0.00     0.053 A 
ATOM     12  C   UNL A   1      29.601  28.184  23.723  1.00  0.00     0.011 A 
ATOM     13  C   UNL A   1      31.188  26.694  24.843  1.00  0.00     0.027 A 
ATOM     14  C   UNL A   1      28.704  27.099  23.596  1.00  0.00     0.011 A 
ATOM     15  C   UNL A   1      30.281  25.641  24.706  1.00  0.00     0.002 A 
ATOM     16  C   UNL A   1      29.061  25.834  24.073  1.00  0.00     0.001 A 
BRANCH  11  17
ATOM     17  C   UNL A   1      28.374  30.300  22.839  1.00  0.00     0.268 C 
ATOM     18  O   UNL A   1      27.285  30.290  23.421  1.00  0.00    -0.284 OA
BRANCH  17  19
ATOM     19  C   UNL A   1      28.574  31.074  21.539  1.00  0.00     0.454 C 
ATOM     20  F   UNL A   1      29.564  30.550  20.757  1.00  0.00    -0.163 F 
ATOM     21  F   UNL A   1      27.454  31.099  20.760  1.00  0.00    -0.163 F 
ATOM     22  F   UNL A   1      28.917  32.381  21.739  1.00  0.00    -0.163 F 
ENDBRANCH  17  19
ENDBRANCH  11  17
ENDBRANCH   7   8
ENDBRANCH   5   7
ENDBRANCH   2   3
ENDBRANCH   1   2
BRANCH   1  23
ATOM     23  C   UNL A   1      34.488  32.498  28.133  1.00  0.00     0.023 C 
BRANCH  23  24
ATOM     24  C   UNL A   1      35.047  33.489  29.154  1.00  0.00     0.116 C 
BRANCH  24  25
ATOM     25  N   UNL A   1      34.793  33.133  30.533  1.00  0.00    -0.352 N 
ATOM     26  C   UNL A   1      35.404  32.320  31.448  1.00  0.00     0.251 C 
ATOM     27  H   UNL A   1      33.996  33.579  30.898  1.00  0.00     0.163 HD
ATOM     28  O   UNL A   1      34.996  32.425  32.609  1.00  0.00    -0.269 OA
BRANCH  26  29
ATOM     29  C   UNL A   1      36.450  31.299  31.149  1.00  0.00     0.039 A 
ATOM     30  C   UNL A   1      36.280  29.916  31.171  1.00  0.00     0.014 A 
ATOM     31  C   UNL A   1      37.739  31.805  30.880  1.00  0.00     0.014 A 
ATOM     32  C   UNL A   1      37.380  29.067  31.031  1.00  0.00     0.010 A 
ATOM     33  C   UNL A   1      38.839  30.963  30.725  1.00  0.00     0.010 A 
ATOM     34  C   UNL A   1      38.667  29.590  30.846  1.00  0.00    -0.014 A 
BRANCH  34  35
ATOM     35  C   UNL A   1      39.781  28.651  30.701  1.00  0.00     0.031 A 
ATOM     36  C   UNL A   1      40.565  28.407  31.942  1.00  0.00     0.074 A 
ATOM     37  C   UNL A   1      40.080  27.973  29.574  1.00  0.00     0.049 A 
ATOM     38  N   UNL A   1      41.785  28.754  32.184  1.00  0.00    -0.248 NA
ATOM     39  C   UNL A   1      39.875  27.794  33.085  1.00  0.00     0.031 C 
ATOM     40  C   UNL A   1      39.281  27.864  28.349  1.00  0.00     0.029 A 
ATOM     41  N   UNL A   1      41.150  27.162  29.315  1.00  0.00    -0.354 N 
ATOM     42  C   UNL A   1      42.086  28.249  33.447  1.00  0.00     0.074 A 
ATOM     43  C   UNL A   1      40.840  27.788  34.006  1.00  0.00     0.031 C 
ATOM     44  C   UNL A   1      39.782  26.875  27.570  1.00  0.00     0.029 A 
ATOM     45  C   UNL A   1      41.029  26.410  28.153  1.00  0.00     0.049 A 
ATOM     46  H   UNL A   1      41.940  27.116  29.901  1.00  0.00     0.167 HD
ATOM     47  C   UNL A   1      43.373  28.066  33.857  1.00  0.00     0.031 A 
ATOM     48  C   UNL A   1      41.894  25.475  27.692  1.00  0.00     0.031 A 
ATOM     49  C   UNL A   1      44.309  28.719  32.984  1.00  0.00     0.049 A 
ATOM     50  C   UNL A   1      43.228  25.769  28.256  1.00  0.00     0.074 A 
ATOM     51  C   UNL A   1      44.763  30.002  32.789  1.00  0.00     0.029 A 
ATOM     52  N   UNL A   1      44.675  27.978  31.889  1.00  0.00    -0.354 N 
ATOM     53  N   UNL A   1      43.910  26.838  27.960  1.00  0.00    -0.248 NA
ATOM     54  C   UNL A   1      43.725  25.001  29.391  1.00  0.00     0.031 C 
ATOM     55  C   UNL A   1      45.207  30.059  31.436  1.00  0.00     0.029 A 
ATOM     56  C   UNL A   1      45.038  28.802  30.855  1.00  0.00     0.049 A 
ATOM     57  H   UNL A   1      44.677  26.995  31.852  1.00  0.00     0.167 HD
ATOM     58  C   UNL A   1      44.644  27.101  29.098  1.00  0.00     0.074 A 
ATOM     59  C   UNL A   1      44.631  25.862  29.862  1.00  0.00     0.031 C 
ATOM     60  C   UNL A   1      44.930  28.380  29.471  1.00  0.00     0.031 A 
BRANCH  47  61
ATOM     61  C   UNL A   1      43.828  26.991  34.817  1.00  0.00    -0.014 A 
ATOM     62  C   UNL A   1      43.713  25.615  34.539  1.00  0.00     0.010 A 
ATOM     63  C   UNL A   1      44.639  27.352  35.917  1.00  0.00     0.010 A 
ATOM     64  C   UNL A   1      44.352  24.645  35.319  1.00  0.00     0.020 A 
ATOM     65  C   UNL A   1      45.316  26.389  36.683  1.00  0.00     0.020 A 
ATOM     66  C   UNL A   1      45.161  25.038  36.378  1.00  0.00     0.054 A 
BRANCH  66  67
ATOM     67  S   UNL A   1      46.060  23.758  37.290  1.00  0.00     0.124 S 
ATOM     68  O   UNL A   1      45.334  23.734  38.561  1.00  0.00    -0.237 OA
ATOM     69  O   UNL A   1      45.870  22.581  36.440  1.00  0.00    -0.237 OA
ATOM     70  O   UNL A   1      47.420  24.267  37.356  1.00  0.00    -0.744 OA
ENDBRANCH  66  67
ENDBRANCH  47  61
BRANCH  48  71
ATOM     71  C   UNL A   1      41.621  24.198  26.995  1.00  0.00    -0.014 A 
ATOM     72  C   UNL A   1      40.635  23.334  27.509  1.00  0.00     0.010 A 
ATOM     73  C   UNL A   1      42.546  23.675  26.070  1.00  0.00     0.010 A 
ATOM     74  C   UNL A   1      40.636  21.971  27.191  1.00  0.00     0.020 A 
ATOM     75  C   UNL A   1      42.549  22.310  25.745  1.00  0.00     0.020 A 
ATOM     76  C   UNL A   1      41.619  21.459  26.343  1.00  0.00     0.054 A 
BRANCH  76  77
ATOM     77  S   UNL A   1      41.720  19.658  26.125  1.00  0.00     0.124 S 
ATOM     78  O   UNL A   1      42.695  19.538  25.043  1.00  0.00    -0.237 OA
ATOM     79  O   UNL A   1      42.181  19.207  27.436  1.00  0.00    -0.237 OA
ATOM     80  O   UNL A   1      40.356  19.271  25.781  1.00  0.00    -0.744 OA
ENDBRANCH  76  77
ENDBRANCH  48  71
BRANCH  60  81
ATOM     81  C   UNL A   1      44.913  29.459  28.420  1.00  0.00    -0.014 A 
ATOM     82  C   UNL A   1      46.145  30.052  28.093  1.00  0.00     0.010 A 
ATOM     83  C   UNL A   1      43.737  29.993  27.862  1.00  0.00     0.010 A 
ATOM     84  C   UNL A   1      46.205  31.182  27.279  1.00  0.00     0.020 A 
ATOM     85  C   UNL A   1      43.792  31.116  27.019  1.00  0.00     0.020 A 
ATOM     86  C   UNL A   1      45.025  31.721  26.762  1.00  0.00     0.054 A 
BRANCH  86  87
ATOM     87  S   UNL A   1      45.141  33.240  25.780  1.00  0.00     0.124 S 
ATOM     88  O   UNL A   1      46.586  33.456  25.718  1.00  0.00    -0.237 OA
ATOM     89  O   UNL A   1      44.515  32.859  24.515  1.00  0.00    -0.237 OA
ATOM     90  O   UNL A   1      44.402  34.227  26.563  1.00  0.00    -0.744 OA
ENDBRANCH  86  87
ENDBRANCH  60  81
ENDBRANCH  34  35
ENDBRANCH  26  29
ENDBRANCH  24  25
ENDBRANCH  23  24
ENDBRANCH   1  23
TORSDOF 17
ENDMDL
