MODEL 1
REMARK VINA RESULT:     -10.8      0.000      0.000
REMARK SMILES CCC[C@@]1(C(=O)NCCCCNC(=O)c2ccc(-c3c4nc(c(-c5ccc(S(=O)(=O)[O-])cc5)c5ccc([nH]5)c(-c5ccc(S(=O)(=O)[O-])cc5)c5nc(c(-c6ccc(S(=O)(=O)[O-])cc6)c6ccc3[nH]6)C=C5)C=C4)cc2)CCCN(C(=O)CCn2cncn2)C1
REMARK SMILES IDX 9 1 8 2 7 3 5 4 6 5 4 7 75 8 88 9 76 10 78 11 77 12 3 13
REMARK SMILES IDX 2 14 1 15 79 16 80 17 81 18 82 19 83 20 84 21 87 22 85 23
REMARK SMILES IDX 86 24 10 25 11 26 12 27 13 28 14 30 15 31 16 32 74 33 17 34
REMARK SMILES IDX 73 35 18 36 19 37 20 38 67 39 21 40 72 41 66 42 68 43 22 44
REMARK SMILES IDX 71 45 65 46 64 47 23 49 53 50 34 51 52 52 35 53 38 54 51 55
REMARK SMILES IDX 69 56 36 57 37 58 50 60 70 61 39 62 24 63 25 64 33 65 26 66
REMARK SMILES IDX 32 67 27 68 28 69 29 70 30 71 31 72 54 73 55 74 63 75 56 76
REMARK SMILES IDX 62 77 57 78 58 79 59 80 60 81 61 82 40 83 41 84 49 85 42 86
REMARK SMILES IDX 48 87 43 88 44 89 45 90 46 91 47 92
REMARK H PARENT 7 6 12 29 68 48 38 59
REMARK Flexibility Score: inf
ROOT
ATOM      1  C   UNL A   1      37.555  23.339  25.514  1.00  0.00     0.023 C 
ENDROOT
BRANCH   1   2
ATOM      2  C   UNL A   1      36.211  22.637  25.574  1.00  0.00     0.116 C 
BRANCH   2   3
ATOM      3  N   UNL A   1      35.455  22.726  26.799  1.00  0.00    -0.356 N 
ATOM      4  C   UNL A   1      34.117  22.970  26.953  1.00  0.00     0.228 C 
ATOM      5  O   UNL A   1      33.613  22.486  27.975  1.00  0.00    -0.274 OA
ATOM      6  H   UNL A   1      35.966  22.595  27.629  1.00  0.00     0.163 HD
BRANCH   4   7
ATOM      7  C   UNL A   1      33.286  23.927  26.047  1.00  0.00     0.067 C 
ATOM      8  C   UNL A   1      31.909  24.242  26.725  1.00  0.00     0.020 C 
ATOM      9  C   UNL A   1      32.891  23.408  24.644  1.00  0.00     0.136 C 
ATOM     10  C   UNL A   1      30.950  23.043  26.729  1.00  0.00     0.023 C 
ATOM     11  N   UNL A   1      32.115  22.171  24.723  1.00  0.00    -0.342 N 
ATOM     12  C   UNL A   1      30.823  22.334  25.382  1.00  0.00     0.119 C 
BRANCH   7  13
ATOM     13  C   UNL A   1      34.110  25.244  25.887  1.00  0.00     0.018 C 
BRANCH  13  14
ATOM     14  C   UNL A   1      34.084  25.912  24.495  1.00  0.00    -0.002 C 
ATOM     15  C   UNL A   1      33.662  27.374  24.519  1.00  0.00     0.004 C 
ENDBRANCH  13  14
ENDBRANCH   7  13
BRANCH  11  16
ATOM     16  C   UNL A   1      32.533  21.053  24.020  1.00  0.00     0.224 C 
ATOM     17  O   UNL A   1      32.171  20.847  22.858  1.00  0.00    -0.275 OA
BRANCH  16  18
ATOM     18  C   UNL A   1      33.524  20.092  24.639  1.00  0.00     0.124 C 
BRANCH  18  19
ATOM     19  C   UNL A   1      32.818  18.999  25.440  1.00  0.00     0.156 C 
BRANCH  19  20
ATOM     20  N   UNL A   1      33.189  17.658  25.047  1.00  0.00    -0.252 N 
ATOM     21  C   UNL A   1      33.923  17.262  23.974  1.00  0.00     0.219 A 
ATOM     22  N   UNL A   1      32.777  16.597  25.769  1.00  0.00    -0.160 NA
ATOM     23  N   UNL A   1      34.028  15.952  23.979  1.00  0.00    -0.224 NA
ATOM     24  C   UNL A   1      33.304  15.587  25.074  1.00  0.00     0.246 A 
ENDBRANCH  19  20
ENDBRANCH  18  19
ENDBRANCH  16  18
ENDBRANCH  11  16
ENDBRANCH   4   7
ENDBRANCH   2   3
ENDBRANCH   1   2
BRANCH   1  25
ATOM     25  C   UNL A   1      37.893  24.312  26.632  1.00  0.00     0.023 C 
BRANCH  25  26
ATOM     26  C   UNL A   1      39.354  24.423  27.048  1.00  0.00     0.116 C 
BRANCH  26  27
ATOM     27  N   UNL A   1      40.222  25.135  26.117  1.00  0.00    -0.352 N 
ATOM     28  C   UNL A   1      40.776  26.393  26.232  1.00  0.00     0.251 C 
ATOM     29  H   UNL A   1      40.443  24.648  25.291  1.00  0.00     0.163 HD
ATOM     30  O   UNL A   1      41.510  26.830  25.350  1.00  0.00    -0.269 OA
BRANCH  28  31
ATOM     31  C   UNL A   1      40.429  27.241  27.393  1.00  0.00     0.039 A 
ATOM     32  C   UNL A   1      39.902  26.635  28.538  1.00  0.00     0.014 A 
ATOM     33  C   UNL A   1      40.716  28.608  27.392  1.00  0.00     0.014 A 
ATOM     34  C   UNL A   1      39.784  27.373  29.718  1.00  0.00     0.010 A 
ATOM     35  C   UNL A   1      40.684  29.314  28.590  1.00  0.00     0.010 A 
ATOM     36  C   UNL A   1      40.238  28.701  29.772  1.00  0.00    -0.014 A 
BRANCH  36  37
ATOM     37  C   UNL A   1      40.296  29.454  31.054  1.00  0.00     0.031 A 
ATOM     38  C   UNL A   1      41.406  29.198  32.036  1.00  0.00     0.074 A 
ATOM     39  C   UNL A   1      39.299  30.302  31.379  1.00  0.00     0.049 A 
ATOM     40  N   UNL A   1      41.583  29.699  33.231  1.00  0.00    -0.248 NA
ATOM     41  C   UNL A   1      42.435  28.225  31.633  1.00  0.00     0.031 C 
ATOM     42  C   UNL A   1      38.135  30.609  30.541  1.00  0.00     0.029 A 
ATOM     43  N   UNL A   1      39.100  31.061  32.506  1.00  0.00    -0.354 N 
ATOM     44  C   UNL A   1      42.722  29.083  33.735  1.00  0.00     0.074 A 
ATOM     45  C   UNL A   1      43.165  28.135  32.734  1.00  0.00     0.031 C 
ATOM     46  C   UNL A   1      37.373  31.523  31.162  1.00  0.00     0.029 A 
ATOM     47  C   UNL A   1      37.964  31.835  32.460  1.00  0.00     0.049 A 
ATOM     48  H   UNL A   1      39.714  31.053  33.275  1.00  0.00     0.167 HD
ATOM     49  C   UNL A   1      43.357  29.296  34.912  1.00  0.00     0.031 A 
ATOM     50  C   UNL A   1      37.453  32.701  33.357  1.00  0.00     0.031 A 
ATOM     51  C   UNL A   1      42.929  30.250  35.900  1.00  0.00     0.049 A 
ATOM     52  C   UNL A   1      38.172  32.921  34.659  1.00  0.00     0.074 A 
ATOM     53  C   UNL A   1      43.545  30.593  37.091  1.00  0.00     0.029 A 
ATOM     54  N   UNL A   1      41.774  31.012  35.813  1.00  0.00    -0.354 N 
ATOM     55  N   UNL A   1      39.286  32.380  35.087  1.00  0.00    -0.248 NA
ATOM     56  C   UNL A   1      37.563  33.876  35.598  1.00  0.00     0.031 C 
ATOM     57  C   UNL A   1      42.738  31.529  37.746  1.00  0.00     0.029 A 
ATOM     58  C   UNL A   1      41.645  31.807  36.940  1.00  0.00     0.049 A 
ATOM     59  H   UNL A   1      41.139  30.992  35.062  1.00  0.00     0.167 HD
ATOM     60  C   UNL A   1      39.530  32.950  36.331  1.00  0.00     0.074 A 
ATOM     61  C   UNL A   1      38.449  33.881  36.585  1.00  0.00     0.031 C 
ATOM     62  C   UNL A   1      40.561  32.725  37.183  1.00  0.00     0.031 A 
BRANCH  49  63
ATOM     63  C   UNL A   1      44.577  28.458  35.193  1.00  0.00    -0.014 A 
ATOM     64  C   UNL A   1      44.478  27.232  35.876  1.00  0.00     0.010 A 
ATOM     65  C   UNL A   1      45.843  28.913  34.784  1.00  0.00     0.010 A 
ATOM     66  C   UNL A   1      45.628  26.512  36.208  1.00  0.00     0.020 A 
ATOM     67  C   UNL A   1      46.994  28.180  35.088  1.00  0.00     0.020 A 
ATOM     68  C   UNL A   1      46.881  26.998  35.823  1.00  0.00     0.054 A 
BRANCH  68  69
ATOM     69  S   UNL A   1      48.361  26.062  36.293  1.00  0.00     0.124 S 
ATOM     70  O   UNL A   1      49.326  26.504  35.289  1.00  0.00    -0.237 OA
ATOM     71  O   UNL A   1      48.617  26.525  37.654  1.00  0.00    -0.237 OA
ATOM     72  O   UNL A   1      47.939  24.668  36.181  1.00  0.00    -0.744 OA
ENDBRANCH  68  69
ENDBRANCH  49  63
BRANCH  50  73
ATOM     73  C   UNL A   1      36.218  33.464  33.029  1.00  0.00    -0.014 A 
ATOM     74  C   UNL A   1      36.315  34.720  32.405  1.00  0.00     0.010 A 
ATOM     75  C   UNL A   1      34.946  32.932  33.305  1.00  0.00     0.010 A 
ATOM     76  C   UNL A   1      35.163  35.434  32.064  1.00  0.00     0.020 A 
ATOM     77  C   UNL A   1      33.790  33.634  32.944  1.00  0.00     0.020 A 
ATOM     78  C   UNL A   1      33.906  34.882  32.331  1.00  0.00     0.054 A 
BRANCH  78  79
ATOM     79  S   UNL A   1      32.426  35.794  31.808  1.00  0.00     0.124 S 
ATOM     80  O   UNL A   1      32.799  37.174  32.099  1.00  0.00    -0.237 OA
ATOM     81  O   UNL A   1      32.327  35.449  30.392  1.00  0.00    -0.237 OA
ATOM     82  O   UNL A   1      31.369  35.237  32.651  1.00  0.00    -0.744 OA
ENDBRANCH  78  79
ENDBRANCH  50  73
BRANCH  62  83
ATOM     83  C   UNL A   1      40.590  33.522  38.459  1.00  0.00    -0.014 A 
ATOM     84  C   UNL A   1      39.956  33.056  39.625  1.00  0.00     0.010 A 
ATOM     85  C   UNL A   1      41.311  34.730  38.506  1.00  0.00     0.010 A 
ATOM     86  C   UNL A   1      40.020  33.798  40.807  1.00  0.00     0.020 A 
ATOM     87  C   UNL A   1      41.397  35.462  39.692  1.00  0.00     0.020 A 
ATOM     88  C   UNL A   1      40.740  34.997  40.833  1.00  0.00     0.054 A 
BRANCH  88  89
ATOM     89  S   UNL A   1      40.850  35.919  42.392  1.00  0.00     0.124 S 
ATOM     90  O   UNL A   1      42.060  36.712  42.192  1.00  0.00    -0.237 OA
ATOM     91  O   UNL A   1      39.599  36.674  42.409  1.00  0.00    -0.237 OA
ATOM     92  O   UNL A   1      40.950  34.871  43.407  1.00  0.00    -0.744 OA
ENDBRANCH  88  89
ENDBRANCH  62  83
ENDBRANCH  36  37
ENDBRANCH  28  31
ENDBRANCH  26  27
ENDBRANCH  25  26
ENDBRANCH   1  25
TORSDOF 20
ENDMDL
MODEL 2
REMARK VINA RESULT:     -10.7      6.563     11.358
REMARK SMILES CCC[C@@]1(C(=O)NCCCCNC(=O)c2ccc(-c3c4nc(c(-c5ccc(S(=O)(=O)[O-])cc5)c5ccc([nH]5)c(-c5ccc(S(=O)(=O)[O-])cc5)c5nc(c(-c6ccc(S(=O)(=O)[O-])cc6)c6ccc3[nH]6)C=C5)C=C4)cc2)CCCN(C(=O)CCn2cncn2)C1
REMARK SMILES IDX 9 1 8 2 7 3 5 4 6 5 4 7 75 8 88 9 76 10 78 11 77 12 3 13
REMARK SMILES IDX 2 14 1 15 79 16 80 17 81 18 82 19 83 20 84 21 87 22 85 23
REMARK SMILES IDX 86 24 10 25 11 26 12 27 13 28 14 30 15 31 16 32 74 33 17 34
REMARK SMILES IDX 73 35 18 36 19 37 20 38 67 39 21 40 72 41 66 42 68 43 22 44
REMARK SMILES IDX 71 45 65 46 64 47 23 49 53 50 34 51 52 52 35 53 38 54 51 55
REMARK SMILES IDX 69 56 36 57 37 58 50 60 70 61 39 62 24 63 25 64 33 65 26 66
REMARK SMILES IDX 32 67 27 68 28 69 29 70 30 71 31 72 54 73 55 74 63 75 56 76
REMARK SMILES IDX 62 77 57 78 58 79 59 80 60 81 61 82 40 83 41 84 49 85 42 86
REMARK SMILES IDX 48 87 43 88 44 89 45 90 46 91 47 92
REMARK H PARENT 7 6 12 29 68 48 38 59
REMARK Flexibility Score: inf
ROOT
ATOM      1  C   UNL A   1      37.561  22.608  24.988  1.00  0.00     0.023 C 
ENDROOT
BRANCH   1   2
ATOM      2  C   UNL A   1      36.061  22.793  25.111  1.00  0.00     0.116 C 
BRANCH   2   3
ATOM      3  N   UNL A   1      35.496  22.871  26.436  1.00  0.00    -0.356 N 
ATOM      4  C   UNL A   1      34.191  23.087  26.790  1.00  0.00     0.228 C 
ATOM      5  O   UNL A   1      33.857  22.596  27.876  1.00  0.00    -0.274 OA
ATOM      6  H   UNL A   1      36.128  22.752  27.180  1.00  0.00     0.163 HD
BRANCH   4   7
ATOM      7  C   UNL A   1      33.213  24.025  26.019  1.00  0.00     0.067 C 
ATOM      8  C   UNL A   1      31.892  24.210  26.841  1.00  0.00     0.020 C 
ATOM      9  C   UNL A   1      32.718  23.545  24.634  1.00  0.00     0.136 C 
ATOM     10  C   UNL A   1      31.020  22.947  26.872  1.00  0.00     0.023 C 
ATOM     11  N   UNL A   1      32.036  22.253  24.721  1.00  0.00    -0.342 N 
ATOM     12  C   UNL A   1      30.807  22.294  25.508  1.00  0.00     0.119 C 
BRANCH   7  13
ATOM     13  C   UNL A   1      33.929  25.403  25.851  1.00  0.00     0.018 C 
BRANCH  13  14
ATOM     14  C   UNL A   1      33.023  26.651  25.799  1.00  0.00    -0.002 C 
ATOM     15  C   UNL A   1      33.586  27.789  24.959  1.00  0.00     0.004 C 
ENDBRANCH  13  14
ENDBRANCH   7  13
BRANCH  11  16
ATOM     16  C   UNL A   1      32.455  21.202  23.923  1.00  0.00     0.224 C 
ATOM     17  O   UNL A   1      32.072  21.083  22.756  1.00  0.00    -0.275 OA
BRANCH  16  18
ATOM     18  C   UNL A   1      33.473  20.210  24.443  1.00  0.00     0.124 C 
BRANCH  18  19
ATOM     19  C   UNL A   1      32.829  19.184  25.374  1.00  0.00     0.156 C 
BRANCH  19  20
ATOM     20  N   UNL A   1      33.200  17.818  25.078  1.00  0.00    -0.252 N 
ATOM     21  C   UNL A   1      34.225  17.366  24.309  1.00  0.00     0.219 A 
ATOM     22  N   UNL A   1      32.476  16.793  25.571  1.00  0.00    -0.160 NA
ATOM     23  N   UNL A   1      34.212  16.052  24.296  1.00  0.00    -0.224 NA
ATOM     24  C   UNL A   1      33.125  15.744  25.058  1.00  0.00     0.246 A 
ENDBRANCH  19  20
ENDBRANCH  18  19
ENDBRANCH  16  18
ENDBRANCH  11  16
ENDBRANCH   4   7
ENDBRANCH   2   3
ENDBRANCH   1   2
BRANCH   1  25
ATOM     25  C   UNL A   1      38.134  21.242  25.330  1.00  0.00     0.023 C 
BRANCH  25  26
ATOM     26  C   UNL A   1      39.450  21.204  26.097  1.00  0.00     0.116 C 
BRANCH  26  27
ATOM     27  N   UNL A   1      40.208  19.964  25.986  1.00  0.00    -0.352 N 
ATOM     28  C   UNL A   1      41.561  19.752  26.160  1.00  0.00     0.251 C 
ATOM     29  H   UNL A   1      39.681  19.166  25.754  1.00  0.00     0.163 HD
ATOM     30  O   UNL A   1      42.031  18.623  26.049  1.00  0.00    -0.269 OA
BRANCH  28  31
ATOM     31  C   UNL A   1      42.453  20.903  26.421  1.00  0.00     0.039 A 
ATOM     32  C   UNL A   1      42.993  21.597  25.334  1.00  0.00     0.014 A 
ATOM     33  C   UNL A   1      42.672  21.358  27.723  1.00  0.00     0.014 A 
ATOM     34  C   UNL A   1      43.645  22.815  25.546  1.00  0.00     0.010 A 
ATOM     35  C   UNL A   1      43.239  22.612  27.923  1.00  0.00     0.010 A 
ATOM     36  C   UNL A   1      43.713  23.366  26.836  1.00  0.00    -0.014 A 
BRANCH  36  37
ATOM     37  C   UNL A   1      44.235  24.739  27.070  1.00  0.00     0.031 A 
ATOM     38  C   UNL A   1      43.309  25.838  27.516  1.00  0.00     0.074 A 
ATOM     39  C   UNL A   1      45.524  25.023  26.793  1.00  0.00     0.049 A 
ATOM     40  N   UNL A   1      43.563  27.108  27.699  1.00  0.00    -0.248 NA
ATOM     41  C   UNL A   1      41.906  25.464  27.755  1.00  0.00     0.031 C 
ATOM     42  C   UNL A   1      46.521  24.064  26.308  1.00  0.00     0.029 A 
ATOM     43  N   UNL A   1      46.219  26.205  26.875  1.00  0.00    -0.354 N 
ATOM     44  C   UNL A   1      42.350  27.690  28.044  1.00  0.00     0.074 A 
ATOM     45  C   UNL A   1      41.352  26.643  27.997  1.00  0.00     0.031 C 
ATOM     46  C   UNL A   1      47.706  24.685  26.182  1.00  0.00     0.029 A 
ATOM     47  C   UNL A   1      47.545  26.093  26.530  1.00  0.00     0.049 A 
ATOM     48  H   UNL A   1      45.806  27.053  27.156  1.00  0.00     0.167 HD
ATOM     49  C   UNL A   1      42.087  28.974  28.390  1.00  0.00     0.031 A 
ATOM     50  C   UNL A   1      48.526  27.016  26.498  1.00  0.00     0.031 A 
ATOM     51  C   UNL A   1      43.081  30.012  28.455  1.00  0.00     0.049 A 
ATOM     52  C   UNL A   1      48.214  28.436  26.883  1.00  0.00     0.074 A 
ATOM     53  C   UNL A   1      42.929  31.325  28.866  1.00  0.00     0.029 A 
ATOM     54  N   UNL A   1      44.411  29.856  28.098  1.00  0.00    -0.354 N 
ATOM     55  N   UNL A   1      47.074  28.952  27.274  1.00  0.00    -0.248 NA
ATOM     56  C   UNL A   1      49.325  29.397  26.825  1.00  0.00     0.031 C 
ATOM     57  C   UNL A   1      44.158  31.975  28.712  1.00  0.00     0.029 A 
ATOM     58  C   UNL A   1      45.088  31.054  28.254  1.00  0.00     0.049 A 
ATOM     59  H   UNL A   1      44.816  29.017  27.780  1.00  0.00     0.167 HD
ATOM     60  C   UNL A   1      47.336  30.291  27.540  1.00  0.00     0.074 A 
ATOM     61  C   UNL A   1      48.743  30.504  27.268  1.00  0.00     0.031 C 
ATOM     62  C   UNL A   1      46.487  31.254  27.975  1.00  0.00     0.031 A 
BRANCH  49  63
ATOM     63  C   UNL A   1      40.655  29.318  28.705  1.00  0.00    -0.014 A 
ATOM     64  C   UNL A   1      40.240  29.565  30.027  1.00  0.00     0.010 A 
ATOM     65  C   UNL A   1      39.708  29.378  27.667  1.00  0.00     0.010 A 
ATOM     66  C   UNL A   1      38.891  29.794  30.314  1.00  0.00     0.020 A 
ATOM     67  C   UNL A   1      38.363  29.637  27.947  1.00  0.00     0.020 A 
ATOM     68  C   UNL A   1      37.959  29.814  29.272  1.00  0.00     0.054 A 
BRANCH  68  69
ATOM     69  S   UNL A   1      36.211  30.082  29.672  1.00  0.00     0.124 S 
ATOM     70  O   UNL A   1      36.137  31.540  29.732  1.00  0.00    -0.237 OA
ATOM     71  O   UNL A   1      35.523  29.465  28.542  1.00  0.00    -0.237 OA
ATOM     72  O   UNL A   1      36.040  29.397  30.951  1.00  0.00    -0.744 OA
ENDBRANCH  68  69
ENDBRANCH  49  63
BRANCH  50  73
ATOM     73  C   UNL A   1      49.912  26.612  26.135  1.00  0.00    -0.014 A 
ATOM     74  C   UNL A   1      50.411  26.897  24.852  1.00  0.00     0.010 A 
ATOM     75  C   UNL A   1      50.747  25.976  27.070  1.00  0.00     0.010 A 
ATOM     76  C   UNL A   1      51.721  26.552  24.507  1.00  0.00     0.020 A 
ATOM     77  C   UNL A   1      52.066  25.649  26.736  1.00  0.00     0.020 A 
ATOM     78  C   UNL A   1      52.543  25.934  25.455  1.00  0.00     0.054 A 
BRANCH  78  79
ATOM     79  S   UNL A   1      54.263  25.565  25.009  1.00  0.00     0.124 S 
ATOM     80  O   UNL A   1      54.307  24.113  25.140  1.00  0.00    -0.237 OA
ATOM     81  O   UNL A   1      54.353  26.081  23.645  1.00  0.00    -0.237 OA
ATOM     82  O   UNL A   1      55.038  26.310  25.999  1.00  0.00    -0.744 OA
ENDBRANCH  78  79
ENDBRANCH  50  73
BRANCH  62  83
ATOM     83  C   UNL A   1      47.062  32.624  28.217  1.00  0.00    -0.014 A 
ATOM     84  C   UNL A   1      46.997  33.626  27.232  1.00  0.00     0.010 A 
ATOM     85  C   UNL A   1      47.624  32.928  29.470  1.00  0.00     0.010 A 
ATOM     86  C   UNL A   1      47.511  34.901  27.488  1.00  0.00     0.020 A 
ATOM     87  C   UNL A   1      48.116  34.208  29.738  1.00  0.00     0.020 A 
ATOM     88  C   UNL A   1      48.067  35.183  28.740  1.00  0.00     0.054 A 
BRANCH  88  89
ATOM     89  S   UNL A   1      48.683  36.858  29.067  1.00  0.00     0.124 S 
ATOM     90  O   UNL A   1      47.478  37.540  29.530  1.00  0.00    -0.237 OA
ATOM     91  O   UNL A   1      49.708  36.632  30.084  1.00  0.00    -0.237 OA
ATOM     92  O   UNL A   1      49.191  37.299  27.769  1.00  0.00    -0.744 OA
ENDBRANCH  88  89
ENDBRANCH  62  83
ENDBRANCH  36  37
ENDBRANCH  28  31
ENDBRANCH  26  27
ENDBRANCH  25  26
ENDBRANCH   1  25
TORSDOF 20
ENDMDL
MODEL 3
REMARK VINA RESULT:     -10.6      3.883      4.779
REMARK SMILES CCC[C@@]1(C(=O)NCCCCNC(=O)c2ccc(-c3c4nc(c(-c5ccc(S(=O)(=O)[O-])cc5)c5ccc([nH]5)c(-c5ccc(S(=O)(=O)[O-])cc5)c5nc(c(-c6ccc(S(=O)(=O)[O-])cc6)c6ccc3[nH]6)C=C5)C=C4)cc2)CCCN(C(=O)CCn2cncn2)C1
REMARK SMILES IDX 9 1 8 2 7 3 5 4 6 5 4 7 75 8 88 9 76 10 78 11 77 12 3 13
REMARK SMILES IDX 2 14 1 15 79 16 80 17 81 18 82 19 83 20 84 21 87 22 85 23
REMARK SMILES IDX 86 24 10 25 11 26 12 27 13 28 14 30 15 31 16 32 74 33 17 34
REMARK SMILES IDX 73 35 18 36 19 37 20 38 67 39 21 40 72 41 66 42 68 43 22 44
REMARK SMILES IDX 71 45 65 46 64 47 23 49 53 50 34 51 52 52 35 53 38 54 51 55
REMARK SMILES IDX 69 56 36 57 37 58 50 60 70 61 39 62 24 63 25 64 33 65 26 66
REMARK SMILES IDX 32 67 27 68 28 69 29 70 30 71 31 72 54 73 55 74 63 75 56 76
REMARK SMILES IDX 62 77 57 78 58 79 59 80 60 81 61 82 40 83 41 84 49 85 42 86
REMARK SMILES IDX 48 87 43 88 44 89 45 90 46 91 47 92
REMARK H PARENT 7 6 12 29 68 48 38 59
REMARK Flexibility Score: inf
ROOT
ATOM      1  C   UNL A   1      35.859  23.263  23.490  1.00  0.00     0.023 C 
ENDROOT
BRANCH   1   2
ATOM      2  C   UNL A   1      34.596  24.101  23.557  1.00  0.00     0.116 C 
BRANCH   2   3
ATOM      3  N   UNL A   1      34.584  25.235  24.448  1.00  0.00    -0.356 N 
ATOM      4  C   UNL A   1      33.503  25.918  24.935  1.00  0.00     0.228 C 
ATOM      5  O   UNL A   1      33.679  26.457  26.035  1.00  0.00    -0.274 OA
ATOM      6  H   UNL A   1      35.465  25.559  24.743  1.00  0.00     0.163 HD
BRANCH   4   7
ATOM      7  C   UNL A   1      32.195  26.186  24.130  1.00  0.00     0.067 C 
ATOM      8  C   UNL A   1      31.297  27.216  24.898  1.00  0.00     0.020 C 
ATOM      9  C   UNL A   1      31.250  24.984  23.895  1.00  0.00     0.136 C 
ATOM     10  C   UNL A   1      30.667  26.635  26.172  1.00  0.00     0.023 C 
ATOM     11  N   UNL A   1      30.818  24.380  25.155  1.00  0.00    -0.342 N 
ATOM     12  C   UNL A   1      30.009  25.269  25.981  1.00  0.00     0.119 C 
BRANCH   7  13
ATOM     13  C   UNL A   1      32.615  26.779  22.748  1.00  0.00     0.018 C 
BRANCH  13  14
ATOM     14  C   UNL A   1      31.826  26.287  21.515  1.00  0.00    -0.002 C 
ATOM     15  C   UNL A   1      32.679  25.558  20.487  1.00  0.00     0.004 C 
ENDBRANCH  13  14
ENDBRANCH   7  13
BRANCH  11  16
ATOM     16  C   UNL A   1      31.008  23.024  25.366  1.00  0.00     0.224 C 
ATOM     17  O   UNL A   1      30.534  22.449  26.350  1.00  0.00    -0.275 OA
BRANCH  16  18
ATOM     18  C   UNL A   1      31.737  22.188  24.336  1.00  0.00     0.124 C 
BRANCH  18  19
ATOM     19  C   UNL A   1      32.831  21.338  24.978  1.00  0.00     0.156 C 
BRANCH  19  20
ATOM     20  N   UNL A   1      32.646  19.915  24.793  1.00  0.00    -0.252 N 
ATOM     21  C   UNL A   1      32.623  18.935  25.733  1.00  0.00     0.219 A 
ATOM     22  N   UNL A   1      32.489  19.404  23.556  1.00  0.00    -0.160 NA
ATOM     23  N   UNL A   1      32.432  17.774  25.146  1.00  0.00    -0.224 NA
ATOM     24  C   UNL A   1      32.374  18.101  23.824  1.00  0.00     0.246 A 
ENDBRANCH  19  20
ENDBRANCH  18  19
ENDBRANCH  16  18
ENDBRANCH  11  16
ENDBRANCH   4   7
ENDBRANCH   2   3
ENDBRANCH   1   2
BRANCH   1  25
ATOM     25  C   UNL A   1      36.993  23.618  24.439  1.00  0.00     0.023 C 
BRANCH  25  26
ATOM     26  C   UNL A   1      37.106  22.816  25.729  1.00  0.00     0.116 C 
BRANCH  26  27
ATOM     27  N   UNL A   1      38.383  22.146  25.944  1.00  0.00    -0.352 N 
ATOM     28  C   UNL A   1      39.529  22.628  26.542  1.00  0.00     0.251 C 
ATOM     29  H   UNL A   1      38.434  21.219  25.617  1.00  0.00     0.163 HD
ATOM     30  O   UNL A   1      40.517  21.909  26.660  1.00  0.00    -0.269 OA
BRANCH  28  31
ATOM     31  C   UNL A   1      39.585  24.039  26.984  1.00  0.00     0.039 A 
ATOM     32  C   UNL A   1      39.119  24.365  28.262  1.00  0.00     0.014 A 
ATOM     33  C   UNL A   1      40.186  25.015  26.186  1.00  0.00     0.014 A 
ATOM     34  C   UNL A   1      39.370  25.636  28.786  1.00  0.00     0.010 A 
ATOM     35  C   UNL A   1      40.514  26.247  26.743  1.00  0.00     0.010 A 
ATOM     36  C   UNL A   1      40.130  26.565  28.056  1.00  0.00    -0.014 A 
BRANCH  36  37
ATOM     37  C   UNL A   1      40.570  27.854  28.656  1.00  0.00     0.031 A 
ATOM     38  C   UNL A   1      41.970  28.008  29.183  1.00  0.00     0.074 A 
ATOM     39  C   UNL A   1      39.683  28.858  28.811  1.00  0.00     0.049 A 
ATOM     40  N   UNL A   1      42.511  29.024  29.803  1.00  0.00    -0.248 NA
ATOM     41  C   UNL A   1      42.869  26.854  29.020  1.00  0.00     0.031 C 
ATOM     42  C   UNL A   1      38.279  28.827  28.389  1.00  0.00     0.029 A 
ATOM     43  N   UNL A   1      39.828  30.103  29.372  1.00  0.00    -0.354 N 
ATOM     44  C   UNL A   1      43.801  28.624  30.131  1.00  0.00     0.074 A 
ATOM     45  C   UNL A   1      43.942  27.255  29.684  1.00  0.00     0.031 C 
ATOM     46  C   UNL A   1      37.709  30.011  28.664  1.00  0.00     0.029 A 
ATOM     47  C   UNL A   1      38.688  30.870  29.323  1.00  0.00     0.049 A 
ATOM     48  H   UNL A   1      40.671  30.417  29.773  1.00  0.00     0.167 HD
ATOM     49  C   UNL A   1      44.787  29.333  30.731  1.00  0.00     0.031 A 
ATOM     50  C   UNL A   1      38.453  32.125  29.754  1.00  0.00     0.031 A 
ATOM     51  C   UNL A   1      44.654  30.699  31.160  1.00  0.00     0.049 A 
ATOM     52  C   UNL A   1      39.561  32.894  30.420  1.00  0.00     0.074 A 
ATOM     53  C   UNL A   1      45.617  31.527  31.710  1.00  0.00     0.029 A 
ATOM     54  N   UNL A   1      43.483  31.438  31.090  1.00  0.00    -0.354 N 
ATOM     55  N   UNL A   1      40.795  32.522  30.657  1.00  0.00    -0.248 NA
ATOM     56  C   UNL A   1      39.242  34.257  30.871  1.00  0.00     0.031 C 
ATOM     57  C   UNL A   1      45.016  32.753  32.015  1.00  0.00     0.029 A 
ATOM     58  C   UNL A   1      43.691  32.706  31.609  1.00  0.00     0.049 A 
ATOM     59  H   UNL A   1      42.630  31.111  30.725  1.00  0.00     0.167 HD
ATOM     60  C   UNL A   1      41.411  33.614  31.258  1.00  0.00     0.074 A 
ATOM     61  C   UNL A   1      40.414  34.662  31.343  1.00  0.00     0.031 C 
ATOM     62  C   UNL A   1      42.689  33.737  31.694  1.00  0.00     0.031 A 
BRANCH  49  63
ATOM     63  C   UNL A   1      46.093  28.621  30.970  1.00  0.00    -0.014 A 
ATOM     64  C   UNL A   1      46.306  27.860  32.135  1.00  0.00     0.010 A 
ATOM     65  C   UNL A   1      47.129  28.729  30.025  1.00  0.00     0.010 A 
ATOM     66  C   UNL A   1      47.552  27.281  32.384  1.00  0.00     0.020 A 
ATOM     67  C   UNL A   1      48.368  28.125  30.256  1.00  0.00     0.020 A 
ATOM     68  C   UNL A   1      48.581  27.430  31.449  1.00  0.00     0.054 A 
BRANCH  68  69
ATOM     69  S   UNL A   1      50.199  26.696  31.809  1.00  0.00     0.124 S 
ATOM     70  O   UNL A   1      50.506  27.275  33.115  1.00  0.00    -0.237 OA
ATOM     71  O   UNL A   1      49.912  25.264  31.809  1.00  0.00    -0.237 OA
ATOM     72  O   UNL A   1      51.041  27.160  30.709  1.00  0.00    -0.744 OA
ENDBRANCH  68  69
ENDBRANCH  49  63
BRANCH  50  73
ATOM     73  C   UNL A   1      37.123  32.751  29.521  1.00  0.00    -0.014 A 
ATOM     74  C   UNL A   1      36.174  32.786  30.559  1.00  0.00     0.010 A 
ATOM     75  C   UNL A   1      36.810  33.343  28.285  1.00  0.00     0.010 A 
ATOM     76  C   UNL A   1      34.933  33.398  30.364  1.00  0.00     0.020 A 
ATOM     77  C   UNL A   1      35.577  33.976  28.094  1.00  0.00     0.020 A 
ATOM     78  C   UNL A   1      34.644  33.995  29.133  1.00  0.00     0.054 A 
BRANCH  78  79
ATOM     79  S   UNL A   1      33.057  34.851  28.930  1.00  0.00     0.124 S 
ATOM     80  O   UNL A   1      32.395  34.031  27.921  1.00  0.00    -0.237 OA
ATOM     81  O   UNL A   1      32.488  34.783  30.274  1.00  0.00    -0.237 OA
ATOM     82  O   UNL A   1      33.446  36.191  28.496  1.00  0.00    -0.744 OA
ENDBRANCH  78  79
ENDBRANCH  50  73
BRANCH  62  83
ATOM     83  C   UNL A   1      43.095  35.065  32.276  1.00  0.00    -0.014 A 
ATOM     84  C   UNL A   1      43.610  36.090  31.463  1.00  0.00     0.010 A 
ATOM     85  C   UNL A   1      42.905  35.306  33.649  1.00  0.00     0.010 A 
ATOM     86  C   UNL A   1      43.953  37.325  32.019  1.00  0.00     0.020 A 
ATOM     87  C   UNL A   1      43.224  36.548  34.204  1.00  0.00     0.020 A 
ATOM     88  C   UNL A   1      43.758  37.546  33.387  1.00  0.00     0.054 A 
BRANCH  88  89
ATOM     89  S   UNL A   1      44.166  39.174  34.078  1.00  0.00     0.124 S 
ATOM     90  O   UNL A   1      44.179  38.900  35.512  1.00  0.00    -0.237 OA
ATOM     91  O   UNL A   1      45.468  39.461  33.481  1.00  0.00    -0.237 OA
ATOM     92  O   UNL A   1      43.075  40.029  33.615  1.00  0.00    -0.744 OA
ENDBRANCH  88  89
ENDBRANCH  62  83
ENDBRANCH  36  37
ENDBRANCH  28  31
ENDBRANCH  26  27
ENDBRANCH  25  26
ENDBRANCH   1  25
TORSDOF 20
ENDMDL
