MODEL 1
REMARK VINA RESULT:     -11.3      0.000      0.000
REMARK SMILES O=C(/C=C/CC(=O)Nc1cccc(Oc2ncccn2)c1)NCCCCNC(=O)c1ccc(-c2c3nc(c(-c4ccc(S(=O)(=O)[O-])cc4)c4ccc([nH]4)c(-c4ccc(S(=O)(=O)[O-])cc4)c4nc(c(-c5ccc(S(=O)(=O)[O-])cc5)c5ccc2[nH]5)C=C4)C=C3)cc1
REMARK SMILES IDX 23 1 22 2 1 3 2 4 3 6 4 7 5 8 6 9 7 10 8 11 9 13 10 14 21 15
REMARK SMILES IDX 11 16 13 17 12 18 14 19 15 20 16 21 20 22 17 23 19 24 18 25
REMARK SMILES IDX 24 26 25 27 26 28 27 29 28 30 29 32 30 33 31 34 89 35 32 36
REMARK SMILES IDX 88 37 33 38 34 39 35 40 82 41 36 42 87 43 81 44 83 45 37 46
REMARK SMILES IDX 86 47 80 48 79 49 38 51 68 52 49 53 67 54 50 55 53 56 66 57
REMARK SMILES IDX 84 58 51 59 52 60 65 62 85 63 54 64 39 65 40 66 48 67 41 68
REMARK SMILES IDX 47 69 42 70 43 71 44 72 45 73 46 74 69 75 70 76 78 77 71 78
REMARK SMILES IDX 77 79 72 80 73 81 74 82 75 83 76 84 55 85 56 86 64 87 57 88
REMARK SMILES IDX 63 89 58 90 59 91 60 92 61 93 62 94
REMARK H PARENT 22 5 8 12 27 31 83 50 53 61
REMARK Flexibility Score: inf
ROOT
ATOM      1  C   UNL A   1      37.910  23.518  26.162  1.00  0.00     0.116 C 
ENDROOT
BRANCH   1   2
ATOM      2  N   UNL A   1      36.057  22.844  25.498  1.00  0.00    -0.353 N 
ATOM      3  O   UNL A   1      35.295  20.570  25.190  1.00  0.00    -0.270 OA
ATOM      4  C   UNL A   1      35.134  21.787  25.193  1.00  0.00     0.243 C 
ATOM      5  H   UNL A   1      35.561  23.668  25.284  1.00  0.00     0.163 HD
BRANCH   4   6
ATOM      6  C   UNL A   1      33.753  22.283  24.907  1.00  0.00     0.067 C 
ATOM      7  C   UNL A   1      32.822  22.575  25.831  1.00  0.00    -0.011 C 
BRANCH   7   8
ATOM      8  C   UNL A   1      31.437  22.999  25.464  1.00  0.00     0.128 C 
BRANCH   8   9
ATOM      9  C   UNL A   1      30.786  24.037  26.390  1.00  0.00     0.228 C 
ATOM     10  O   UNL A   1      29.965  23.698  27.243  1.00  0.00    -0.274 OA
ATOM     11  N   UNL A   1      31.274  25.321  26.392  1.00  0.00    -0.326 N 
ATOM     12  H   UNL A   1      31.289  25.773  27.267  1.00  0.00     0.169 HD
BRANCH  11  13
ATOM     13  C   UNL A   1      31.753  26.070  25.308  1.00  0.00     0.044 A 
ATOM     14  C   UNL A   1      33.088  26.459  25.284  1.00  0.00     0.026 A 
ATOM     15  C   UNL A   1      30.875  26.559  24.335  1.00  0.00     0.073 A 
ATOM     16  C   UNL A   1      33.559  27.237  24.224  1.00  0.00     0.006 A 
ATOM     17  C   UNL A   1      31.329  27.331  23.262  1.00  0.00     0.133 A 
ATOM     18  C   UNL A   1      32.687  27.661  23.214  1.00  0.00     0.047 A 
BRANCH  17  19
ATOM     19  O   UNL A   1      30.542  27.877  22.270  1.00  0.00    -0.424 OA
BRANCH  19  20
ATOM     20  C   UNL A   1      30.061  29.162  22.468  1.00  0.00     0.321 A 
ATOM     21  N   UNL A   1      29.006  29.825  21.239  1.00  0.00    -0.203 NA
ATOM     22  N   UNL A   1      30.317  29.947  24.043  1.00  0.00    -0.203 NA
ATOM     23  C   UNL A   1      28.180  31.352  21.606  1.00  0.00     0.118 A 
ATOM     24  C   UNL A   1      29.456  31.467  24.382  1.00  0.00     0.118 A 
ATOM     25  C   UNL A   1      28.323  32.173  23.198  1.00  0.00     0.040 A 
ENDBRANCH  19  20
ENDBRANCH  17  19
ENDBRANCH  11  13
ENDBRANCH   8   9
ENDBRANCH   7   8
ENDBRANCH   4   6
ENDBRANCH   1   2
BRANCH   1  26
ATOM     26  C   UNL A   1      39.401  22.722  26.466  1.00  0.00     0.023 C 
BRANCH  26  27
ATOM     27  C   UNL A   1      39.615  21.269  25.997  1.00  0.00     0.023 C 
BRANCH  27  28
ATOM     28  C   UNL A   1      40.451  20.408  26.938  1.00  0.00     0.116 C 
BRANCH  28  29
ATOM     29  N   UNL A   1      41.475  19.674  26.214  1.00  0.00    -0.352 N 
ATOM     30  C   UNL A   1      42.630  20.153  25.644  1.00  0.00     0.251 C 
ATOM     31  H   UNL A   1      41.319  18.707  26.117  1.00  0.00     0.163 HD
ATOM     32  O   UNL A   1      43.256  19.458  24.848  1.00  0.00    -0.269 OA
BRANCH  30  33
ATOM     33  C   UNL A   1      43.108  21.516  25.978  1.00  0.00     0.039 A 
ATOM     34  C   UNL A   1      43.043  22.518  25.007  1.00  0.00     0.014 A 
ATOM     35  C   UNL A   1      43.629  21.800  27.244  1.00  0.00     0.014 A 
ATOM     36  C   UNL A   1      43.459  23.815  25.322  1.00  0.00     0.010 A 
ATOM     37  C   UNL A   1      43.968  23.108  27.579  1.00  0.00     0.010 A 
ATOM     38  C   UNL A   1      43.903  24.128  26.618  1.00  0.00    -0.014 A 
BRANCH  38  39
ATOM     39  C   UNL A   1      44.334  25.507  26.972  1.00  0.00     0.031 A 
ATOM     40  C   UNL A   1      45.749  25.948  26.700  1.00  0.00     0.074 A 
ATOM     41  C   UNL A   1      43.473  26.348  27.578  1.00  0.00     0.049 A 
ATOM     42  N   UNL A   1      46.322  27.095  26.963  1.00  0.00    -0.248 NA
ATOM     43  C   UNL A   1      46.647  24.963  26.073  1.00  0.00     0.031 C 
ATOM     44  C   UNL A   1      42.088  26.034  27.933  1.00  0.00     0.029 A 
ATOM     45  N   UNL A   1      43.636  27.644  28.004  1.00  0.00    -0.354 N 
ATOM     46  C   UNL A   1      47.644  26.963  26.555  1.00  0.00     0.074 A 
ATOM     47  C   UNL A   1      47.804  25.609  26.075  1.00  0.00     0.031 C 
ATOM     48  C   UNL A   1      41.518  27.115  28.490  1.00  0.00     0.029 A 
ATOM     49  C   UNL A   1      42.506  28.188  28.569  1.00  0.00     0.049 A 
ATOM     50  H   UNL A   1      44.484  28.138  27.914  1.00  0.00     0.167 HD
ATOM     51  C   UNL A   1      48.634  27.888  26.558  1.00  0.00     0.031 A 
ATOM     52  C   UNL A   1      42.287  29.411  29.089  1.00  0.00     0.031 A 
ATOM     53  C   UNL A   1      48.469  29.242  27.017  1.00  0.00     0.049 A 
ATOM     54  C   UNL A   1      43.400  30.424  29.083  1.00  0.00     0.074 A 
ATOM     55  C   UNL A   1      49.391  30.274  27.001  1.00  0.00     0.029 A 
ATOM     56  N   UNL A   1      47.307  29.752  27.576  1.00  0.00    -0.354 N 
ATOM     57  N   UNL A   1      44.625  30.298  28.627  1.00  0.00    -0.248 NA
ATOM     58  C   UNL A   1      43.100  31.744  29.651  1.00  0.00     0.031 C 
ATOM     59  C   UNL A   1      48.804  31.394  27.598  1.00  0.00     0.029 A 
ATOM     60  C   UNL A   1      47.497  31.077  27.932  1.00  0.00     0.049 A 
ATOM     61  H   UNL A   1      46.471  29.248  27.702  1.00  0.00     0.167 HD
ATOM     62  C   UNL A   1      45.230  31.535  28.827  1.00  0.00     0.074 A 
ATOM     63  C   UNL A   1      44.235  32.395  29.432  1.00  0.00     0.031 C 
ATOM     64  C   UNL A   1      46.496  31.921  28.535  1.00  0.00     0.031 A 
BRANCH  51  65
ATOM     65  C   UNL A   1      49.989  27.463  26.055  1.00  0.00    -0.014 A 
ATOM     66  C   UNL A   1      50.937  26.881  26.917  1.00  0.00     0.010 A 
ATOM     67  C   UNL A   1      50.309  27.617  24.694  1.00  0.00     0.010 A 
ATOM     68  C   UNL A   1      52.194  26.504  26.438  1.00  0.00     0.020 A 
ATOM     69  C   UNL A   1      51.554  27.215  24.204  1.00  0.00     0.020 A 
ATOM     70  C   UNL A   1      52.497  26.678  25.084  1.00  0.00     0.054 A 
BRANCH  70  71
ATOM     71  S   UNL A   1      54.131  26.166  24.486  1.00  0.00     0.124 S 
ATOM     72  O   UNL A   1      53.996  26.356  23.044  1.00  0.00    -0.237 OA
ATOM     73  O   UNL A   1      55.027  27.102  25.161  1.00  0.00    -0.237 OA
ATOM     74  O   UNL A   1      54.242  24.777  24.924  1.00  0.00    -0.744 OA
ENDBRANCH  70  71
ENDBRANCH  51  65
BRANCH  52  75
ATOM     75  C   UNL A   1      40.946  29.756  29.639  1.00  0.00    -0.014 A 
ATOM     76  C   UNL A   1      40.698  29.664  31.020  1.00  0.00     0.010 A 
ATOM     77  C   UNL A   1      39.916  30.192  28.787  1.00  0.00     0.010 A 
ATOM     78  C   UNL A   1      39.439  29.985  31.536  1.00  0.00     0.020 A 
ATOM     79  C   UNL A   1      38.664  30.540  29.303  1.00  0.00     0.020 A 
ATOM     80  C   UNL A   1      38.431  30.425  30.675  1.00  0.00     0.054 A 
BRANCH  80  81
ATOM     81  S   UNL A   1      36.823  30.893  31.374  1.00  0.00     0.124 S 
ATOM     82  O   UNL A   1      35.961  30.867  30.196  1.00  0.00    -0.237 OA
ATOM     83  O   UNL A   1      36.586  29.836  32.355  1.00  0.00    -0.237 OA
ATOM     84  O   UNL A   1      37.070  32.215  31.942  1.00  0.00    -0.744 OA
ENDBRANCH  80  81
ENDBRANCH  52  75
BRANCH  64  85
ATOM     85  C   UNL A   1      46.873  33.349  28.832  1.00  0.00    -0.014 A 
ATOM     86  C   UNL A   1      47.439  33.713  30.066  1.00  0.00     0.010 A 
ATOM     87  C   UNL A   1      46.710  34.329  27.836  1.00  0.00     0.010 A 
ATOM     88  C   UNL A   1      47.809  35.038  30.309  1.00  0.00     0.020 A 
ATOM     89  C   UNL A   1      47.103  35.650  28.066  1.00  0.00     0.020 A 
ATOM     90  C   UNL A   1      47.638  35.999  29.308  1.00  0.00     0.054 A 
BRANCH  90  91
ATOM     91  S   UNL A   1      48.167  37.703  29.633  1.00  0.00     0.124 S 
ATOM     92  O   UNL A   1      49.286  37.856  28.707  1.00  0.00    -0.237 OA
ATOM     93  O   UNL A   1      46.971  38.477  29.309  1.00  0.00    -0.237 OA
ATOM     94  O   UNL A   1      48.528  37.689  31.050  1.00  0.00    -0.744 OA
ENDBRANCH  90  91
ENDBRANCH  64  85
ENDBRANCH  38  39
ENDBRANCH  30  33
ENDBRANCH  28  29
ENDBRANCH  27  28
ENDBRANCH  26  27
ENDBRANCH   1  26
TORSDOF 19
ENDMDL
MODEL 2
REMARK VINA RESULT:     -11.3      5.849      8.190
REMARK SMILES O=C(/C=C/CC(=O)Nc1cccc(Oc2ncccn2)c1)NCCCCNC(=O)c1ccc(-c2c3nc(c(-c4ccc(S(=O)(=O)[O-])cc4)c4ccc([nH]4)c(-c4ccc(S(=O)(=O)[O-])cc4)c4nc(c(-c5ccc(S(=O)(=O)[O-])cc5)c5ccc2[nH]5)C=C4)C=C3)cc1
REMARK SMILES IDX 23 1 22 2 1 3 2 4 3 6 4 7 5 8 6 9 7 10 8 11 9 13 10 14 21 15
REMARK SMILES IDX 11 16 13 17 12 18 14 19 15 20 16 21 20 22 17 23 19 24 18 25
REMARK SMILES IDX 24 26 25 27 26 28 27 29 28 30 29 32 30 33 31 34 89 35 32 36
REMARK SMILES IDX 88 37 33 38 34 39 35 40 82 41 36 42 87 43 81 44 83 45 37 46
REMARK SMILES IDX 86 47 80 48 79 49 38 51 68 52 49 53 67 54 50 55 53 56 66 57
REMARK SMILES IDX 84 58 51 59 52 60 65 62 85 63 54 64 39 65 40 66 48 67 41 68
REMARK SMILES IDX 47 69 42 70 43 71 44 72 45 73 46 74 69 75 70 76 78 77 71 78
REMARK SMILES IDX 77 79 72 80 73 81 74 82 75 83 76 84 55 85 56 86 64 87 57 88
REMARK SMILES IDX 63 89 58 90 59 91 60 92 61 93 62 94
REMARK H PARENT 22 5 8 12 27 31 83 50 53 61
REMARK Flexibility Score: inf
ROOT
ATOM      1  C   UNL A   1      40.221  22.442  26.913  1.00  0.00     0.116 C 
ENDROOT
BRANCH   1   2
ATOM      2  N   UNL A   1      38.518  21.760  25.931  1.00  0.00    -0.353 N 
ATOM      3  O   UNL A   1      38.148  19.631  24.846  1.00  0.00    -0.270 OA
ATOM      4  C   UNL A   1      37.789  20.740  25.231  1.00  0.00     0.243 C 
ATOM      5  H   UNL A   1      37.898  22.525  25.960  1.00  0.00     0.163 HD
BRANCH   4   6
ATOM      6  C   UNL A   1      36.352  21.091  25.020  1.00  0.00     0.067 C 
ATOM      7  C   UNL A   1      35.364  20.217  24.760  1.00  0.00    -0.011 C 
BRANCH   7   8
ATOM      8  C   UNL A   1      33.960  20.653  24.490  1.00  0.00     0.128 C 
BRANCH   8   9
ATOM      9  C   UNL A   1      32.920  20.253  25.545  1.00  0.00     0.228 C 
ATOM     10  O   UNL A   1      32.912  19.121  26.030  1.00  0.00    -0.274 OA
ATOM     11  N   UNL A   1      32.119  21.227  26.089  1.00  0.00    -0.326 N 
ATOM     12  H   UNL A   1      31.909  21.126  27.046  1.00  0.00     0.169 HD
BRANCH  11  13
ATOM     13  C   UNL A   1      31.563  22.349  25.457  1.00  0.00     0.044 A 
ATOM     14  C   UNL A   1      31.624  22.451  24.071  1.00  0.00     0.026 A 
ATOM     15  C   UNL A   1      31.092  23.430  26.208  1.00  0.00     0.073 A 
ATOM     16  C   UNL A   1      31.105  23.584  23.441  1.00  0.00     0.006 A 
ATOM     17  C   UNL A   1      30.560  24.569  25.596  1.00  0.00     0.133 A 
ATOM     18  C   UNL A   1      30.566  24.631  24.199  1.00  0.00     0.047 A 
BRANCH  17  19
ATOM     19  O   UNL A   1      30.093  25.692  26.247  1.00  0.00    -0.424 OA
BRANCH  19  20
ATOM     20  C   UNL A   1      30.798  26.872  26.073  1.00  0.00     0.321 A 
ATOM     21  N   UNL A   1      30.477  27.796  24.623  1.00  0.00    -0.203 NA
ATOM     22  N   UNL A   1      31.769  27.505  27.423  1.00  0.00    -0.203 NA
ATOM     23  C   UNL A   1      31.172  29.425  24.518  1.00  0.00     0.118 A 
ATOM     24  C   UNL A   1      32.433  29.150  27.290  1.00  0.00     0.118 A 
ATOM     25  C   UNL A   1      32.102  30.170  25.864  1.00  0.00     0.040 A 
ENDBRANCH  19  20
ENDBRANCH  17  19
ENDBRANCH  11  13
ENDBRANCH   8   9
ENDBRANCH   7   8
ENDBRANCH   4   6
ENDBRANCH   1   2
BRANCH   1  26
ATOM     26  C   UNL A   1      41.862  21.938  26.890  1.00  0.00     0.023 C 
BRANCH  26  27
ATOM     27  C   UNL A   1      42.838  22.420  27.981  1.00  0.00     0.023 C 
BRANCH  27  28
ATOM     28  C   UNL A   1      43.871  23.439  27.512  1.00  0.00     0.116 C 
BRANCH  28  29
ATOM     29  N   UNL A   1      43.477  24.053  26.256  1.00  0.00    -0.352 N 
ATOM     30  C   UNL A   1      42.690  25.162  26.056  1.00  0.00     0.251 C 
ATOM     31  H   UNL A   1      43.817  23.617  25.442  1.00  0.00     0.163 HD
ATOM     32  O   UNL A   1      42.238  25.400  24.940  1.00  0.00    -0.269 OA
BRANCH  30  33
ATOM     33  C   UNL A   1      42.374  26.058  27.194  1.00  0.00     0.039 A 
ATOM     34  C   UNL A   1      41.292  25.753  28.022  1.00  0.00     0.014 A 
ATOM     35  C   UNL A   1      43.139  27.204  27.435  1.00  0.00     0.014 A 
ATOM     36  C   UNL A   1      41.006  26.572  29.118  1.00  0.00     0.010 A 
ATOM     37  C   UNL A   1      42.902  27.973  28.571  1.00  0.00     0.010 A 
ATOM     38  C   UNL A   1      41.822  27.676  29.417  1.00  0.00    -0.014 A 
BRANCH  38  39
ATOM     39  C   UNL A   1      41.540  28.549  30.589  1.00  0.00     0.031 A 
ATOM     40  C   UNL A   1      42.382  28.435  31.834  1.00  0.00     0.074 A 
ATOM     41  C   UNL A   1      40.503  29.409  30.555  1.00  0.00     0.049 A 
ATOM     42  N   UNL A   1      42.274  29.084  32.965  1.00  0.00    -0.248 NA
ATOM     43  C   UNL A   1      43.472  27.445  31.815  1.00  0.00     0.031 C 
ATOM     44  C   UNL A   1      39.586  29.589  29.427  1.00  0.00     0.029 A 
ATOM     45  N   UNL A   1      40.044  30.296  31.497  1.00  0.00    -0.354 N 
ATOM     46  C   UNL A   1      43.264  28.569  33.795  1.00  0.00     0.074 A 
ATOM     47  C   UNL A   1      43.928  27.519  33.057  1.00  0.00     0.031 C 
ATOM     48  C   UNL A   1      38.698  30.550  29.729  1.00  0.00     0.029 A 
ATOM     49  C   UNL A   1      38.955  31.029  31.085  1.00  0.00     0.049 A 
ATOM     50  H   UNL A   1      40.455  30.398  32.386  1.00  0.00     0.167 HD
ATOM     51  C   UNL A   1      43.605  28.947  35.050  1.00  0.00     0.031 A 
ATOM     52  C   UNL A   1      38.244  31.979  31.722  1.00  0.00     0.031 A 
ATOM     53  C   UNL A   1      42.957  30.007  35.777  1.00  0.00     0.049 A 
ATOM     54  C   UNL A   1      38.641  32.384  33.116  1.00  0.00     0.074 A 
ATOM     55  C   UNL A   1      43.272  30.510  37.027  1.00  0.00     0.029 A 
ATOM     56  N   UNL A   1      41.863  30.726  35.319  1.00  0.00    -0.354 N 
ATOM     57  N   UNL A   1      39.626  31.931  33.856  1.00  0.00    -0.248 NA
ATOM     58  C   UNL A   1      37.838  33.434  33.757  1.00  0.00     0.031 C 
ATOM     59  C   UNL A   1      42.335  31.497  37.348  1.00  0.00     0.029 A 
ATOM     60  C   UNL A   1      41.474  31.650  36.274  1.00  0.00     0.049 A 
ATOM     61  H   UNL A   1      41.427  30.597  34.447  1.00  0.00     0.167 HD
ATOM     62  C   UNL A   1      39.578  32.663  35.038  1.00  0.00     0.074 A 
ATOM     63  C   UNL A   1      38.477  33.595  34.909  1.00  0.00     0.031 C 
ATOM     64  C   UNL A   1      40.375  32.572  36.131  1.00  0.00     0.031 A 
BRANCH  51  65
ATOM     65  C   UNL A   1      44.730  28.202  35.721  1.00  0.00    -0.014 A 
ATOM     66  C   UNL A   1      46.051  28.685  35.678  1.00  0.00     0.010 A 
ATOM     67  C   UNL A   1      44.459  27.020  36.433  1.00  0.00     0.010 A 
ATOM     68  C   UNL A   1      47.086  27.976  36.294  1.00  0.00     0.020 A 
ATOM     69  C   UNL A   1      45.486  26.323  37.075  1.00  0.00     0.020 A 
ATOM     70  C   UNL A   1      46.797  26.795  36.985  1.00  0.00     0.054 A 
BRANCH  70  71
ATOM     71  S   UNL A   1      48.156  25.903  37.788  1.00  0.00     0.124 S 
ATOM     72  O   UNL A   1      47.747  24.512  37.615  1.00  0.00    -0.237 OA
ATOM     73  O   UNL A   1      49.318  26.317  37.005  1.00  0.00    -0.237 OA
ATOM     74  O   UNL A   1      48.130  26.394  39.164  1.00  0.00    -0.744 OA
ENDBRANCH  70  71
ENDBRANCH  51  65
BRANCH  52  75
ATOM     75  C   UNL A   1      37.095  32.634  31.037  1.00  0.00    -0.014 A 
ATOM     76  C   UNL A   1      37.314  33.688  30.132  1.00  0.00     0.010 A 
ATOM     77  C   UNL A   1      35.780  32.198  31.274  1.00  0.00     0.010 A 
ATOM     78  C   UNL A   1      36.235  34.304  29.490  1.00  0.00     0.020 A 
ATOM     79  C   UNL A   1      34.701  32.794  30.613  1.00  0.00     0.020 A 
ATOM     80  C   UNL A   1      34.936  33.851  29.732  1.00  0.00     0.054 A 
BRANCH  80  81
ATOM     81  S   UNL A   1      33.557  34.627  28.843  1.00  0.00     0.124 S 
ATOM     82  O   UNL A   1      34.198  35.796  28.248  1.00  0.00    -0.237 OA
ATOM     83  O   UNL A   1      33.157  33.580  27.906  1.00  0.00    -0.237 OA
ATOM     84  O   UNL A   1      32.588  34.912  29.898  1.00  0.00    -0.744 OA
ENDBRANCH  80  81
ENDBRANCH  52  75
BRANCH  64  85
ATOM     85  C   UNL A   1      40.111  33.527  37.265  1.00  0.00    -0.014 A 
ATOM     86  C   UNL A   1      39.251  33.185  38.322  1.00  0.00     0.010 A 
ATOM     87  C   UNL A   1      40.783  34.763  37.299  1.00  0.00     0.010 A 
ATOM     88  C   UNL A   1      39.044  34.074  39.380  1.00  0.00     0.020 A 
ATOM     89  C   UNL A   1      40.599  35.643  38.368  1.00  0.00     0.020 A 
ATOM     90  C   UNL A   1      39.719  35.299  39.396  1.00  0.00     0.054 A 
BRANCH  90  91
ATOM     91  S   UNL A   1      39.467  36.417  40.801  1.00  0.00     0.124 S 
ATOM     92  O   UNL A   1      40.218  35.748  41.860  1.00  0.00    -0.237 OA
ATOM     93  O   UNL A   1      40.039  37.672  40.319  1.00  0.00    -0.237 OA
ATOM     94  O   UNL A   1      38.016  36.429  40.979  1.00  0.00    -0.744 OA
ENDBRANCH  90  91
ENDBRANCH  64  85
ENDBRANCH  38  39
ENDBRANCH  30  33
ENDBRANCH  28  29
ENDBRANCH  27  28
ENDBRANCH  26  27
ENDBRANCH   1  26
TORSDOF 19
ENDMDL
MODEL 3
REMARK VINA RESULT:     -11.2      6.701     12.431
REMARK SMILES O=C(/C=C/CC(=O)Nc1cccc(Oc2ncccn2)c1)NCCCCNC(=O)c1ccc(-c2c3nc(c(-c4ccc(S(=O)(=O)[O-])cc4)c4ccc([nH]4)c(-c4ccc(S(=O)(=O)[O-])cc4)c4nc(c(-c5ccc(S(=O)(=O)[O-])cc5)c5ccc2[nH]5)C=C4)C=C3)cc1
REMARK SMILES IDX 23 1 22 2 1 3 2 4 3 6 4 7 5 8 6 9 7 10 8 11 9 13 10 14 21 15
REMARK SMILES IDX 11 16 13 17 12 18 14 19 15 20 16 21 20 22 17 23 19 24 18 25
REMARK SMILES IDX 24 26 25 27 26 28 27 29 28 30 29 32 30 33 31 34 89 35 32 36
REMARK SMILES IDX 88 37 33 38 34 39 35 40 82 41 36 42 87 43 81 44 83 45 37 46
REMARK SMILES IDX 86 47 80 48 79 49 38 51 68 52 49 53 67 54 50 55 53 56 66 57
REMARK SMILES IDX 84 58 51 59 52 60 65 62 85 63 54 64 39 65 40 66 48 67 41 68
REMARK SMILES IDX 47 69 42 70 43 71 44 72 45 73 46 74 69 75 70 76 78 77 71 78
REMARK SMILES IDX 77 79 72 80 73 81 74 82 75 83 76 84 55 85 56 86 64 87 57 88
REMARK SMILES IDX 63 89 58 90 59 91 60 92 61 93 62 94
REMARK H PARENT 22 5 8 12 27 31 83 50 53 61
REMARK Flexibility Score: inf
ROOT
ATOM      1  C   UNL A   1      35.362  31.936  28.397  1.00  0.00     0.116 C 
ENDROOT
BRANCH   1   2
ATOM      2  N   UNL A   1      33.802  30.844  27.561  1.00  0.00    -0.353 N 
ATOM      3  O   UNL A   1      31.655  31.631  26.773  1.00  0.00    -0.270 OA
ATOM      4  C   UNL A   1      32.502  30.761  26.955  1.00  0.00     0.243 C 
ATOM      5  H   UNL A   1      34.111  29.909  27.599  1.00  0.00     0.163 HD
BRANCH   4   6
ATOM      6  C   UNL A   1      32.197  29.402  26.412  1.00  0.00     0.067 C 
ATOM      7  C   UNL A   1      31.692  28.376  27.118  1.00  0.00    -0.011 C 
BRANCH   7   8
ATOM      8  C   UNL A   1      31.480  27.022  26.521  1.00  0.00     0.128 C 
BRANCH   8   9
ATOM      9  C   UNL A   1      31.148  26.996  25.022  1.00  0.00     0.228 C 
ATOM     10  O   UNL A   1      30.297  27.749  24.549  1.00  0.00    -0.274 OA
ATOM     11  N   UNL A   1      31.947  26.263  24.179  1.00  0.00    -0.326 N 
ATOM     12  H   UNL A   1      32.107  26.655  23.290  1.00  0.00     0.169 HD
BRANCH  11  13
ATOM     13  C   UNL A   1      32.566  25.028  24.422  1.00  0.00     0.044 A 
ATOM     14  C   UNL A   1      33.930  24.890  24.192  1.00  0.00     0.026 A 
ATOM     15  C   UNL A   1      31.803  23.900  24.743  1.00  0.00     0.073 A 
ATOM     16  C   UNL A   1      34.541  23.652  24.398  1.00  0.00     0.006 A 
ATOM     17  C   UNL A   1      32.397  22.654  24.962  1.00  0.00     0.133 A 
ATOM     18  C   UNL A   1      33.781  22.544  24.792  1.00  0.00     0.047 A 
BRANCH  17  19
ATOM     19  O   UNL A   1      31.732  21.483  25.259  1.00  0.00    -0.424 OA
BRANCH  19  20
ATOM     20  C   UNL A   1      32.249  20.305  24.742  1.00  0.00     0.321 A 
ATOM     21  N   UNL A   1      32.695  19.054  25.881  1.00  0.00    -0.203 NA
ATOM     22  N   UNL A   1      32.182  20.030  22.986  1.00  0.00    -0.203 NA
ATOM     23  C   UNL A   1      33.105  17.457  25.225  1.00  0.00     0.118 A 
ATOM     24  C   UNL A   1      32.580  18.410  22.368  1.00  0.00     0.118 A 
ATOM     25  C   UNL A   1      32.992  17.071  23.473  1.00  0.00     0.040 A 
ENDBRANCH  19  20
ENDBRANCH  17  19
ENDBRANCH  11  13
ENDBRANCH   8   9
ENDBRANCH   7   8
ENDBRANCH   4   6
ENDBRANCH   1   2
BRANCH   1  26
ATOM     26  C   UNL A   1      35.654  33.621  28.553  1.00  0.00     0.023 C 
BRANCH  26  27
ATOM     27  C   UNL A   1      34.488  34.624  28.456  1.00  0.00     0.023 C 
BRANCH  27  28
ATOM     28  C   UNL A   1      33.212  34.195  29.173  1.00  0.00     0.116 C 
BRANCH  28  29
ATOM     29  N   UNL A   1      32.788  35.193  30.140  1.00  0.00    -0.352 N 
ATOM     30  C   UNL A   1      33.204  35.357  31.440  1.00  0.00     0.251 C 
ATOM     31  H   UNL A   1      32.113  35.836  29.822  1.00  0.00     0.163 HD
ATOM     32  O   UNL A   1      32.566  36.077  32.202  1.00  0.00    -0.269 OA
BRANCH  30  33
ATOM     33  C   UNL A   1      34.411  34.646  31.923  1.00  0.00     0.039 A 
ATOM     34  C   UNL A   1      34.285  33.348  32.421  1.00  0.00     0.014 A 
ATOM     35  C   UNL A   1      35.665  35.266  31.893  1.00  0.00     0.014 A 
ATOM     36  C   UNL A   1      35.423  32.657  32.848  1.00  0.00     0.010 A 
ATOM     37  C   UNL A   1      36.805  34.548  32.244  1.00  0.00     0.010 A 
ATOM     38  C   UNL A   1      36.696  33.241  32.742  1.00  0.00    -0.014 A 
BRANCH  38  39
ATOM     39  C   UNL A   1      37.918  32.511  33.177  1.00  0.00     0.031 A 
ATOM     40  C   UNL A   1      38.583  32.867  34.482  1.00  0.00     0.074 A 
ATOM     41  C   UNL A   1      38.456  31.564  32.384  1.00  0.00     0.049 A 
ATOM     42  N   UNL A   1      39.668  32.368  35.018  1.00  0.00    -0.248 NA
ATOM     43  C   UNL A   1      37.963  33.940  35.278  1.00  0.00     0.031 C 
ATOM     44  C   UNL A   1      37.934  31.152  31.080  1.00  0.00     0.029 A 
ATOM     45  N   UNL A   1      39.565  30.773  32.560  1.00  0.00    -0.354 N 
ATOM     46  C   UNL A   1      39.870  33.078  36.196  1.00  0.00     0.074 A 
ATOM     47  C   UNL A   1      38.827  34.075  36.273  1.00  0.00     0.031 C 
ATOM     48  C   UNL A   1      38.700  30.164  30.590  1.00  0.00     0.029 A 
ATOM     49  C   UNL A   1      39.790  29.896  31.524  1.00  0.00     0.049 A 
ATOM     50  H   UNL A   1      40.146  30.829  33.353  1.00  0.00     0.167 HD
ATOM     51  C   UNL A   1      40.825  32.904  37.142  1.00  0.00     0.031 A 
ATOM     52  C   UNL A   1      40.762  28.980  31.345  1.00  0.00     0.031 A 
ATOM     53  C   UNL A   1      41.850  31.897  37.076  1.00  0.00     0.049 A 
ATOM     54  C   UNL A   1      41.811  28.803  32.409  1.00  0.00     0.074 A 
ATOM     55  C   UNL A   1      42.822  31.597  38.014  1.00  0.00     0.029 A 
ATOM     56  N   UNL A   1      42.038  31.027  36.013  1.00  0.00    -0.354 N 
ATOM     57  N   UNL A   1      41.943  29.439  33.550  1.00  0.00    -0.248 NA
ATOM     58  C   UNL A   1      42.837  27.780  32.166  1.00  0.00     0.031 C 
ATOM     59  C   UNL A   1      43.631  30.581  37.496  1.00  0.00     0.029 A 
ATOM     60  C   UNL A   1      43.126  30.207  36.260  1.00  0.00     0.049 A 
ATOM     61  H   UNL A   1      41.481  30.997  35.202  1.00  0.00     0.167 HD
ATOM     62  C   UNL A   1      43.049  28.870  34.174  1.00  0.00     0.074 A 
ATOM     63  C   UNL A   1      43.541  27.834  33.290  1.00  0.00     0.031 C 
ATOM     64  C   UNL A   1      43.605  29.180  35.371  1.00  0.00     0.031 A 
BRANCH  51  65
ATOM     65  C   UNL A   1      40.806  33.831  38.331  1.00  0.00    -0.014 A 
ATOM     66  C   UNL A   1      41.528  35.039  38.323  1.00  0.00     0.010 A 
ATOM     67  C   UNL A   1      40.032  33.506  39.458  1.00  0.00     0.010 A 
ATOM     68  C   UNL A   1      41.512  35.881  39.437  1.00  0.00     0.020 A 
ATOM     69  C   UNL A   1      39.989  34.360  40.564  1.00  0.00     0.020 A 
ATOM     70  C   UNL A   1      40.746  35.533  40.554  1.00  0.00     0.054 A 
BRANCH  70  71
ATOM     71  S   UNL A   1      40.731  36.653  41.981  1.00  0.00     0.124 S 
ATOM     72  O   UNL A   1      41.034  35.741  43.081  1.00  0.00    -0.237 OA
ATOM     73  O   UNL A   1      41.785  37.609  41.650  1.00  0.00    -0.237 OA
ATOM     74  O   UNL A   1      39.376  37.199  41.980  1.00  0.00    -0.744 OA
ENDBRANCH  70  71
ENDBRANCH  51  65
BRANCH  52  75
ATOM     75  C   UNL A   1      40.772  28.137  30.117  1.00  0.00    -0.014 A 
ATOM     76  C   UNL A   1      41.656  28.427  29.062  1.00  0.00     0.010 A 
ATOM     77  C   UNL A   1      39.909  27.033  30.002  1.00  0.00     0.010 A 
ATOM     78  C   UNL A   1      41.665  27.638  27.909  1.00  0.00     0.020 A 
ATOM     79  C   UNL A   1      39.934  26.225  28.861  1.00  0.00     0.020 A 
ATOM     80  C   UNL A   1      40.806  26.540  27.816  1.00  0.00     0.054 A 
BRANCH  80  81
ATOM     81  S   UNL A   1      40.875  25.495  26.334  1.00  0.00     0.124 S 
ATOM     82  O   UNL A   1      39.505  25.000  26.247  1.00  0.00    -0.237 OA
ATOM     83  O   UNL A   1      41.272  26.445  25.297  1.00  0.00    -0.237 OA
ATOM     84  O   UNL A   1      41.885  24.494  26.669  1.00  0.00    -0.744 OA
ENDBRANCH  80  81
ENDBRANCH  52  75
BRANCH  64  85
ATOM     85  C   UNL A   1      44.791  28.365  35.817  1.00  0.00    -0.014 A 
ATOM     86  C   UNL A   1      46.105  28.773  35.531  1.00  0.00     0.010 A 
ATOM     87  C   UNL A   1      44.583  27.204  36.584  1.00  0.00     0.010 A 
ATOM     88  C   UNL A   1      47.191  28.018  35.980  1.00  0.00     0.020 A 
ATOM     89  C   UNL A   1      45.668  26.461  37.057  1.00  0.00     0.020 A 
ATOM     90  C   UNL A   1      46.966  26.866  36.741  1.00  0.00     0.054 A 
BRANCH  90  91
ATOM     91  S   UNL A   1      48.394  25.928  37.349  1.00  0.00     0.124 S 
ATOM     92  O   UNL A   1      48.153  25.908  38.789  1.00  0.00    -0.237 OA
ATOM     93  O   UNL A   1      48.248  24.644  36.668  1.00  0.00    -0.237 OA
ATOM     94  O   UNL A   1      49.541  26.726  36.921  1.00  0.00    -0.744 OA
ENDBRANCH  90  91
ENDBRANCH  64  85
ENDBRANCH  38  39
ENDBRANCH  30  33
ENDBRANCH  28  29
ENDBRANCH  27  28
ENDBRANCH  26  27
ENDBRANCH   1  26
TORSDOF 19
ENDMDL
