MODEL 1
REMARK VINA RESULT:     -12.4      0.000      0.000
REMARK SMILES O=C(NCCCCNC(=O)c1nccnc1C(=O)Nc1ccc2c(c1)OCO2)c1ccc(-c2c3nc(c(-c4ccc(S(=O)(=O)[O-])cc4)c4ccc([nH]4)c(-c4ccc(S(=O)(=O)[O-])cc4)c4nc(c(-c5ccc(S(=O)(=O)[O-])cc5)c5ccc2[nH]5)C=C4)C=C3)cc1
REMARK SMILES IDX 5 1 4 2 3 3 1 4 2 5 29 7 30 8 88 9 31 10 87 11 32 12 33 13
REMARK SMILES IDX 34 14 81 15 35 16 86 17 80 18 82 19 36 20 85 21 79 22 78 23
REMARK SMILES IDX 37 25 67 26 48 27 66 28 49 29 52 30 65 31 83 32 50 33 51 34
REMARK SMILES IDX 64 36 84 37 53 38 38 39 39 40 47 41 40 42 46 43 41 44 42 45
REMARK SMILES IDX 43 46 44 47 45 48 68 49 69 50 77 51 70 52 76 53 71 54 72 55
REMARK SMILES IDX 73 56 74 57 75 58 54 59 55 60 63 61 56 62 62 63 57 64 58 65
REMARK SMILES IDX 59 66 60 67 61 68 6 69 7 70 8 71 9 72 10 74 11 75 12 76
REMARK SMILES IDX 16 77 13 78 15 79 14 80 17 81 18 82 19 83 20 85 21 86 25 87
REMARK SMILES IDX 22 88 24 89 23 90 26 91 28 92 27 93
REMARK H PARENT 3 6 82 24 52 35 8 73 19 84
REMARK Flexibility Score: inf
ROOT
ATOM      1  C   UNL A   1      34.252  30.813  27.572  1.00  0.00     0.023 C 
ENDROOT
BRANCH   1   2
ATOM      2  C   UNL A   1      35.635  30.752  28.216  1.00  0.00     0.116 C 
BRANCH   2   3
ATOM      3  N   UNL A   1      35.578  30.466  29.638  1.00  0.00    -0.352 N 
ATOM      4  O   UNL A   1      36.245  29.553  31.583  1.00  0.00    -0.269 OA
ATOM      5  C   UNL A   1      36.539  29.888  30.440  1.00  0.00     0.251 C 
ATOM      6  H   UNL A   1      34.741  30.718  30.091  1.00  0.00     0.163 HD
BRANCH   5   7
ATOM      7  C   UNL A   1      37.916  29.653  29.931  1.00  0.00     0.039 A 
ATOM      8  C   UNL A   1      38.977  29.391  30.801  1.00  0.00     0.014 A 
ATOM      9  C   UNL A   1      38.136  29.628  28.547  1.00  0.00     0.014 A 
ATOM     10  C   UNL A   1      40.262  29.190  30.297  1.00  0.00     0.010 A 
ATOM     11  C   UNL A   1      39.419  29.372  28.040  1.00  0.00     0.010 A 
ATOM     12  C   UNL A   1      40.496  29.162  28.911  1.00  0.00    -0.014 A 
BRANCH  12  13
ATOM     13  C   UNL A   1      41.856  28.821  28.411  1.00  0.00     0.031 A 
ATOM     14  C   UNL A   1      42.959  29.843  28.364  1.00  0.00     0.074 A 
ATOM     15  C   UNL A   1      42.103  27.553  28.029  1.00  0.00     0.049 A 
ATOM     16  N   UNL A   1      44.219  29.674  28.044  1.00  0.00    -0.248 NA
ATOM     17  C   UNL A   1      42.609  31.226  28.713  1.00  0.00     0.031 C 
ATOM     18  C   UNL A   1      41.110  26.475  27.992  1.00  0.00     0.029 A 
ATOM     19  N   UNL A   1      43.266  26.946  27.623  1.00  0.00    -0.354 N 
ATOM     20  C   UNL A   1      44.814  30.925  28.156  1.00  0.00     0.074 A 
ATOM     21  C   UNL A   1      43.768  31.850  28.542  1.00  0.00     0.031 C 
ATOM     22  C   UNL A   1      41.714  25.333  27.627  1.00  0.00     0.029 A 
ATOM     23  C   UNL A   1      43.127  25.602  27.374  1.00  0.00     0.049 A 
ATOM     24  H   UNL A   1      44.118  27.429  27.518  1.00  0.00     0.167 HD
ATOM     25  C   UNL A   1      46.111  31.269  27.964  1.00  0.00     0.031 A 
ATOM     26  C   UNL A   1      44.030  24.681  26.989  1.00  0.00     0.031 A 
ATOM     27  C   UNL A   1      47.151  30.356  27.566  1.00  0.00     0.049 A 
ATOM     28  C   UNL A   1      45.462  25.087  26.797  1.00  0.00     0.074 A 
ATOM     29  C   UNL A   1      48.496  30.617  27.355  1.00  0.00     0.029 A 
ATOM     30  N   UNL A   1      46.967  29.004  27.318  1.00  0.00    -0.354 N 
ATOM     31  N   UNL A   1      46.007  26.269  26.945  1.00  0.00    -0.248 NA
ATOM     32  C   UNL A   1      46.401  24.030  26.396  1.00  0.00     0.031 C 
ATOM     33  C   UNL A   1      49.117  29.430  26.950  1.00  0.00     0.029 A 
ATOM     34  C   UNL A   1      48.169  28.421  26.948  1.00  0.00     0.049 A 
ATOM     35  H   UNL A   1      46.109  28.528  27.393  1.00  0.00     0.167 HD
ATOM     36  C   UNL A   1      47.356  26.099  26.658  1.00  0.00     0.074 A 
ATOM     37  C   UNL A   1      47.548  24.695  26.357  1.00  0.00     0.031 C 
ATOM     38  C   UNL A   1      48.345  27.026  26.636  1.00  0.00     0.031 A 
BRANCH  25  39
ATOM     39  C   UNL A   1      46.486  32.712  28.182  1.00  0.00    -0.014 A 
ATOM     40  C   UNL A   1      46.925  33.157  29.442  1.00  0.00     0.010 A 
ATOM     41  C   UNL A   1      46.453  33.619  27.107  1.00  0.00     0.010 A 
ATOM     42  C   UNL A   1      47.297  34.491  29.630  1.00  0.00     0.020 A 
ATOM     43  C   UNL A   1      46.844  34.950  27.288  1.00  0.00     0.020 A 
ATOM     44  C   UNL A   1      47.249  35.381  28.553  1.00  0.00     0.054 A 
BRANCH  44  45
ATOM     45  S   UNL A   1      47.761  37.102  28.818  1.00  0.00     0.124 S 
ATOM     46  O   UNL A   1      49.180  37.048  28.473  1.00  0.00    -0.237 OA
ATOM     47  O   UNL A   1      46.917  37.838  27.881  1.00  0.00    -0.237 OA
ATOM     48  O   UNL A   1      47.471  37.336  30.230  1.00  0.00    -0.744 OA
ENDBRANCH  44  45
ENDBRANCH  25  39
BRANCH  26  49
ATOM     49  C   UNL A   1      43.597  23.276  26.765  1.00  0.00    -0.014 A 
ATOM     50  C   UNL A   1      43.817  22.646  25.528  1.00  0.00     0.010 A 
ATOM     51  C   UNL A   1      42.982  22.555  27.804  1.00  0.00     0.010 A 
ATOM     52  C   UNL A   1      43.414  21.323  25.330  1.00  0.00     0.020 A 
ATOM     53  C   UNL A   1      42.601  21.225  27.617  1.00  0.00     0.020 A 
ATOM     54  C   UNL A   1      42.809  20.620  26.375  1.00  0.00     0.054 A 
BRANCH  54  55
ATOM     55  S   UNL A   1      42.349  18.883  26.125  1.00  0.00     0.124 S 
ATOM     56  O   UNL A   1      42.598  18.312  27.444  1.00  0.00    -0.237 OA
ATOM     57  O   UNL A   1      40.946  18.976  25.728  1.00  0.00    -0.237 OA
ATOM     58  O   UNL A   1      43.257  18.444  25.067  1.00  0.00    -0.744 OA
ENDBRANCH  54  55
ENDBRANCH  26  49
BRANCH  38  59
ATOM     59  C   UNL A   1      49.723  26.542  26.280  1.00  0.00    -0.014 A 
ATOM     60  C   UNL A   1      50.561  25.968  27.253  1.00  0.00     0.010 A 
ATOM     61  C   UNL A   1      50.183  26.652  24.955  1.00  0.00     0.010 A 
ATOM     62  C   UNL A   1      51.852  25.553  26.916  1.00  0.00     0.020 A 
ATOM     63  C   UNL A   1      51.466  26.218  24.611  1.00  0.00     0.020 A 
ATOM     64  C   UNL A   1      52.300  25.689  25.599  1.00  0.00     0.054 A 
BRANCH  64  65
ATOM     65  S   UNL A   1      53.974  25.133  25.178  1.00  0.00     0.124 S 
ATOM     66  O   UNL A   1      54.736  25.554  26.350  1.00  0.00    -0.237 OA
ATOM     67  O   UNL A   1      53.808  23.689  25.021  1.00  0.00    -0.237 OA
ATOM     68  O   UNL A   1      54.277  25.855  23.943  1.00  0.00    -0.744 OA
ENDBRANCH  64  65
ENDBRANCH  38  59
ENDBRANCH  12  13
ENDBRANCH   5   7
ENDBRANCH   2   3
ENDBRANCH   1   2
BRANCH   1  69
ATOM     69  C   UNL A   1      33.587  29.501  27.134  1.00  0.00     0.023 C 
BRANCH  69  70
ATOM     70  C   UNL A   1      32.093  29.504  26.811  1.00  0.00     0.116 C 
BRANCH  70  71
ATOM     71  N   UNL A   1      31.397  28.236  26.989  1.00  0.00    -0.351 N 
ATOM     72  C   UNL A   1      31.343  27.137  26.144  1.00  0.00     0.272 C 
ATOM     73  H   UNL A   1      30.894  28.146  27.831  1.00  0.00     0.163 HD
ATOM     74  O   UNL A   1      31.042  26.031  26.580  1.00  0.00    -0.267 OA
BRANCH  72  75
ATOM     75  C   UNL A   1      31.743  27.267  24.731  1.00  0.00     0.159 A 
ATOM     76  N   UNL A   1      33.105  27.098  24.581  1.00  0.00    -0.247 NA
ATOM     77  C   UNL A   1      30.884  27.415  23.644  1.00  0.00     0.159 A 
ATOM     78  C   UNL A   1      33.589  27.073  23.328  1.00  0.00     0.132 A 
ATOM     79  N   UNL A   1      31.443  27.448  22.380  1.00  0.00    -0.247 NA
ATOM     80  C   UNL A   1      32.771  27.256  22.244  1.00  0.00     0.132 A 
BRANCH  77  81
ATOM     81  C   UNL A   1      29.370  27.401  23.531  1.00  0.00     0.276 C 
ATOM     82  O   UNL A   1      28.805  26.297  23.545  1.00  0.00    -0.267 OA
ATOM     83  N   UNL A   1      28.515  28.469  23.619  1.00  0.00    -0.320 N 
ATOM     84  H   UNL A   1      27.716  28.278  24.160  1.00  0.00     0.170 HD
BRANCH  83  85
ATOM     85  C   UNL A   1      28.531  29.766  23.112  1.00  0.00     0.045 A 
ATOM     86  C   UNL A   1      28.838  30.888  23.895  1.00  0.00     0.030 A 
ATOM     87  C   UNL A   1      28.240  29.903  21.747  1.00  0.00     0.076 A 
ATOM     88  C   UNL A   1      28.763  32.167  23.329  1.00  0.00     0.053 A 
ATOM     89  C   UNL A   1      28.077  31.176  21.255  1.00  0.00     0.167 A 
ATOM     90  C   UNL A   1      28.314  32.280  22.032  1.00  0.00     0.165 A 
ATOM     91  O   UNL A   1      27.624  31.500  20.015  1.00  0.00    -0.454 OA
ATOM     92  O   UNL A   1      28.026  33.440  21.385  1.00  0.00    -0.454 OA
ATOM     93  C   UNL A   1      27.446  32.924  20.166  1.00  0.00     0.468 C 
ENDBRANCH  83  85
ENDBRANCH  77  81
ENDBRANCH  72  75
ENDBRANCH  70  71
ENDBRANCH  69  70
ENDBRANCH   1  69
TORSDOF 16
ENDMDL
MODEL 2
REMARK VINA RESULT:     -12.2      4.568     10.372
REMARK SMILES O=C(NCCCCNC(=O)c1nccnc1C(=O)Nc1ccc2c(c1)OCO2)c1ccc(-c2c3nc(c(-c4ccc(S(=O)(=O)[O-])cc4)c4ccc([nH]4)c(-c4ccc(S(=O)(=O)[O-])cc4)c4nc(c(-c5ccc(S(=O)(=O)[O-])cc5)c5ccc2[nH]5)C=C4)C=C3)cc1
REMARK SMILES IDX 5 1 4 2 3 3 1 4 2 5 29 7 30 8 88 9 31 10 87 11 32 12 33 13
REMARK SMILES IDX 34 14 81 15 35 16 86 17 80 18 82 19 36 20 85 21 79 22 78 23
REMARK SMILES IDX 37 25 67 26 48 27 66 28 49 29 52 30 65 31 83 32 50 33 51 34
REMARK SMILES IDX 64 36 84 37 53 38 38 39 39 40 47 41 40 42 46 43 41 44 42 45
REMARK SMILES IDX 43 46 44 47 45 48 68 49 69 50 77 51 70 52 76 53 71 54 72 55
REMARK SMILES IDX 73 56 74 57 75 58 54 59 55 60 63 61 56 62 62 63 57 64 58 65
REMARK SMILES IDX 59 66 60 67 61 68 6 69 7 70 8 71 9 72 10 74 11 75 12 76
REMARK SMILES IDX 16 77 13 78 15 79 14 80 17 81 18 82 19 83 20 85 21 86 25 87
REMARK SMILES IDX 22 88 24 89 23 90 26 91 28 92 27 93
REMARK H PARENT 3 6 82 24 52 35 8 73 19 84
REMARK Flexibility Score: inf
ROOT
ATOM      1  C   UNL A   1      35.822  22.914  24.800  1.00  0.00     0.023 C 
ENDROOT
BRANCH   1   2
ATOM      2  C   UNL A   1      37.103  23.574  25.303  1.00  0.00     0.116 C 
BRANCH   2   3
ATOM      3  N   UNL A   1      38.179  22.622  25.512  1.00  0.00    -0.352 N 
ATOM      4  O   UNL A   1      40.263  21.949  26.029  1.00  0.00    -0.269 OA
ATOM      5  C   UNL A   1      39.406  22.824  26.106  1.00  0.00     0.251 C 
ATOM      6  H   UNL A   1      38.008  21.708  25.188  1.00  0.00     0.163 HD
BRANCH   5   7
ATOM      7  C   UNL A   1      39.707  24.093  26.821  1.00  0.00     0.039 A 
ATOM      8  C   UNL A   1      39.317  24.290  28.147  1.00  0.00     0.014 A 
ATOM      9  C   UNL A   1      40.458  25.081  26.168  1.00  0.00     0.014 A 
ATOM     10  C   UNL A   1      39.600  25.497  28.788  1.00  0.00     0.010 A 
ATOM     11  C   UNL A   1      40.788  26.272  26.832  1.00  0.00     0.010 A 
ATOM     12  C   UNL A   1      40.352  26.495  28.144  1.00  0.00    -0.014 A 
BRANCH  12  13
ATOM     13  C   UNL A   1      40.739  27.715  28.904  1.00  0.00     0.031 A 
ATOM     14  C   UNL A   1      42.105  27.862  29.518  1.00  0.00     0.074 A 
ATOM     15  C   UNL A   1      39.850  28.722  29.005  1.00  0.00     0.049 A 
ATOM     16  N   UNL A   1      42.622  28.902  30.126  1.00  0.00    -0.248 NA
ATOM     17  C   UNL A   1      43.002  26.701  29.447  1.00  0.00     0.031 C 
ATOM     18  C   UNL A   1      38.479  28.691  28.486  1.00  0.00     0.029 A 
ATOM     19  N   UNL A   1      39.967  29.974  29.555  1.00  0.00    -0.354 N 
ATOM     20  C   UNL A   1      43.904  28.524  30.507  1.00  0.00     0.074 A 
ATOM     21  C   UNL A   1      44.074  27.147  30.090  1.00  0.00     0.031 C 
ATOM     22  C   UNL A   1      37.899  29.881  28.704  1.00  0.00     0.029 A 
ATOM     23  C   UNL A   1      38.841  30.749  29.405  1.00  0.00     0.049 A 
ATOM     24  H   UNL A   1      40.780  30.288  30.014  1.00  0.00     0.167 HD
ATOM     25  C   UNL A   1      44.854  29.258  31.138  1.00  0.00     0.031 A 
ATOM     26  C   UNL A   1      38.590  32.017  29.781  1.00  0.00     0.031 A 
ATOM     27  C   UNL A   1      44.684  30.622  31.568  1.00  0.00     0.049 A 
ATOM     28  C   UNL A   1      39.664  32.810  30.466  1.00  0.00     0.074 A 
ATOM     29  C   UNL A   1      45.597  31.445  32.208  1.00  0.00     0.029 A 
ATOM     30  N   UNL A   1      43.527  31.367  31.402  1.00  0.00    -0.354 N 
ATOM     31  N   UNL A   1      40.881  32.442  30.783  1.00  0.00    -0.248 NA
ATOM     32  C   UNL A   1      39.331  34.193  30.834  1.00  0.00     0.031 C 
ATOM     33  C   UNL A   1      44.980  32.677  32.457  1.00  0.00     0.029 A 
ATOM     34  C   UNL A   1      43.699  32.636  31.936  1.00  0.00     0.049 A 
ATOM     35  H   UNL A   1      42.704  31.044  30.970  1.00  0.00     0.167 HD
ATOM     36  C   UNL A   1      41.463  33.550  31.386  1.00  0.00     0.074 A 
ATOM     37  C   UNL A   1      40.475  34.610  31.362  1.00  0.00     0.031 C 
ATOM     38  C   UNL A   1      42.703  33.676  31.920  1.00  0.00     0.031 A 
BRANCH  25  39
ATOM     39  C   UNL A   1      46.179  28.593  31.408  1.00  0.00    -0.014 A 
ATOM     40  C   UNL A   1      46.382  27.849  32.583  1.00  0.00     0.010 A 
ATOM     41  C   UNL A   1      47.210  28.663  30.453  1.00  0.00     0.010 A 
ATOM     42  C   UNL A   1      47.604  27.212  32.815  1.00  0.00     0.020 A 
ATOM     43  C   UNL A   1      48.427  28.009  30.673  1.00  0.00     0.020 A 
ATOM     44  C   UNL A   1      48.622  27.301  31.860  1.00  0.00     0.054 A 
BRANCH  44  45
ATOM     45  S   UNL A   1      50.190  26.444  32.174  1.00  0.00     0.124 S 
ATOM     46  O   UNL A   1      49.752  25.056  32.304  1.00  0.00    -0.237 OA
ATOM     47  O   UNL A   1      50.968  26.744  30.974  1.00  0.00    -0.237 OA
ATOM     48  O   UNL A   1      50.683  27.060  33.402  1.00  0.00    -0.744 OA
ENDBRANCH  44  45
ENDBRANCH  25  39
BRANCH  26  49
ATOM     49  C   UNL A   1      37.254  32.612  29.510  1.00  0.00    -0.014 A 
ATOM     50  C   UNL A   1      36.244  32.582  30.487  1.00  0.00     0.010 A 
ATOM     51  C   UNL A   1      36.999  33.234  28.276  1.00  0.00     0.010 A 
ATOM     52  C   UNL A   1      34.996  33.153  30.227  1.00  0.00     0.020 A 
ATOM     53  C   UNL A   1      35.761  33.826  28.021  1.00  0.00     0.020 A 
ATOM     54  C   UNL A   1      34.761  33.771  28.995  1.00  0.00     0.054 A 
BRANCH  54  55
ATOM     55  S   UNL A   1      33.157  34.563  28.694  1.00  0.00     0.124 S 
ATOM     56  O   UNL A   1      33.557  35.852  28.141  1.00  0.00    -0.237 OA
ATOM     57  O   UNL A   1      32.515  33.644  27.757  1.00  0.00    -0.237 OA
ATOM     58  O   UNL A   1      32.549  34.609  30.022  1.00  0.00    -0.744 OA
ENDBRANCH  54  55
ENDBRANCH  26  49
BRANCH  38  59
ATOM     59  C   UNL A   1      43.055  35.011  32.515  1.00  0.00    -0.014 A 
ATOM     60  C   UNL A   1      42.683  35.334  33.832  1.00  0.00     0.010 A 
ATOM     61  C   UNL A   1      43.774  35.950  31.754  1.00  0.00     0.010 A 
ATOM     62  C   UNL A   1      42.986  36.591  34.364  1.00  0.00     0.020 A 
ATOM     63  C   UNL A   1      44.097  37.199  32.290  1.00  0.00     0.020 A 
ATOM     64  C   UNL A   1      43.683  37.519  33.585  1.00  0.00     0.054 A 
BRANCH  64  65
ATOM     65  S   UNL A   1      44.079  39.141  34.295  1.00  0.00     0.124 S 
ATOM     66  O   UNL A   1      44.078  38.853  35.726  1.00  0.00    -0.237 OA
ATOM     67  O   UNL A   1      45.386  39.441  33.715  1.00  0.00    -0.237 OA
ATOM     68  O   UNL A   1      42.988  39.996  33.829  1.00  0.00    -0.744 OA
ENDBRANCH  64  65
ENDBRANCH  38  59
ENDBRANCH  12  13
ENDBRANCH   5   7
ENDBRANCH   2   3
ENDBRANCH   1   2
BRANCH   1  69
ATOM     69  C   UNL A   1      35.178  23.444  23.511  1.00  0.00     0.023 C 
BRANCH  69  70
ATOM     70  C   UNL A   1      34.107  24.529  23.614  1.00  0.00     0.116 C 
BRANCH  70  71
ATOM     71  N   UNL A   1      33.232  24.677  22.458  1.00  0.00    -0.351 N 
ATOM     72  C   UNL A   1      32.530  25.793  22.026  1.00  0.00     0.272 C 
ATOM     73  H   UNL A   1      33.126  23.870  21.904  1.00  0.00     0.163 HD
ATOM     74  O   UNL A   1      32.149  25.876  20.863  1.00  0.00    -0.267 OA
BRANCH  72  75
ATOM     75  C   UNL A   1      32.318  26.935  22.934  1.00  0.00     0.159 A 
ATOM     76  N   UNL A   1      33.211  27.954  22.668  1.00  0.00    -0.247 NA
ATOM     77  C   UNL A   1      31.291  27.065  23.865  1.00  0.00     0.159 A 
ATOM     78  C   UNL A   1      33.052  29.104  23.345  1.00  0.00     0.132 A 
ATOM     79  N   UNL A   1      31.213  28.246  24.580  1.00  0.00    -0.247 NA
ATOM     80  C   UNL A   1      32.074  29.244  24.294  1.00  0.00     0.132 A 
BRANCH  77  81
ATOM     81  C   UNL A   1      30.082  26.200  24.178  1.00  0.00     0.276 C 
ATOM     82  O   UNL A   1      28.960  26.702  24.012  1.00  0.00    -0.267 OA
ATOM     83  N   UNL A   1      30.062  24.853  24.433  1.00  0.00    -0.320 N 
ATOM     84  H   UNL A   1      29.324  24.387  23.978  1.00  0.00     0.170 HD
BRANCH  83  85
ATOM     85  C   UNL A   1      30.857  23.999  25.193  1.00  0.00     0.045 A 
ATOM     86  C   UNL A   1      31.506  24.404  26.368  1.00  0.00     0.030 A 
ATOM     87  C   UNL A   1      30.966  22.678  24.733  1.00  0.00     0.076 A 
ATOM     88  C   UNL A   1      32.347  23.505  27.038  1.00  0.00     0.053 A 
ATOM     89  C   UNL A   1      31.875  21.859  25.357  1.00  0.00     0.167 A 
ATOM     90  C   UNL A   1      32.562  22.268  26.470  1.00  0.00     0.165 A 
ATOM     91  O   UNL A   1      32.245  20.617  24.946  1.00  0.00    -0.454 OA
ATOM     92  O   UNL A   1      33.464  21.343  26.893  1.00  0.00    -0.454 OA
ATOM     93  C   UNL A   1      33.359  20.371  25.828  1.00  0.00     0.468 C 
ENDBRANCH  83  85
ENDBRANCH  77  81
ENDBRANCH  72  75
ENDBRANCH  70  71
ENDBRANCH  69  70
ENDBRANCH   1  69
TORSDOF 16
ENDMDL
MODEL 3
REMARK VINA RESULT:     -12.2      4.347     10.281
REMARK SMILES O=C(NCCCCNC(=O)c1nccnc1C(=O)Nc1ccc2c(c1)OCO2)c1ccc(-c2c3nc(c(-c4ccc(S(=O)(=O)[O-])cc4)c4ccc([nH]4)c(-c4ccc(S(=O)(=O)[O-])cc4)c4nc(c(-c5ccc(S(=O)(=O)[O-])cc5)c5ccc2[nH]5)C=C4)C=C3)cc1
REMARK SMILES IDX 5 1 4 2 3 3 1 4 2 5 29 7 30 8 88 9 31 10 87 11 32 12 33 13
REMARK SMILES IDX 34 14 81 15 35 16 86 17 80 18 82 19 36 20 85 21 79 22 78 23
REMARK SMILES IDX 37 25 67 26 48 27 66 28 49 29 52 30 65 31 83 32 50 33 51 34
REMARK SMILES IDX 64 36 84 37 53 38 38 39 39 40 47 41 40 42 46 43 41 44 42 45
REMARK SMILES IDX 43 46 44 47 45 48 68 49 69 50 77 51 70 52 76 53 71 54 72 55
REMARK SMILES IDX 73 56 74 57 75 58 54 59 55 60 63 61 56 62 62 63 57 64 58 65
REMARK SMILES IDX 59 66 60 67 61 68 6 69 7 70 8 71 9 72 10 74 11 75 12 76
REMARK SMILES IDX 16 77 13 78 15 79 14 80 17 81 18 82 19 83 20 85 21 86 25 87
REMARK SMILES IDX 22 88 24 89 23 90 26 91 28 92 27 93
REMARK H PARENT 3 6 82 24 52 35 8 73 19 84
REMARK Flexibility Score: inf
ROOT
ATOM      1  C   UNL A   1      32.946  27.847  25.524  1.00  0.00     0.023 C 
ENDROOT
BRANCH   1   2
ATOM      2  C   UNL A   1      34.083  28.339  26.416  1.00  0.00     0.116 C 
BRANCH   2   3
ATOM      3  N   UNL A   1      33.817  29.645  26.992  1.00  0.00    -0.352 N 
ATOM      4  O   UNL A   1      34.129  31.383  28.387  1.00  0.00    -0.269 OA
ATOM      5  C   UNL A   1      34.599  30.380  27.857  1.00  0.00     0.251 C 
ATOM      6  H   UNL A   1      32.965  30.061  26.730  1.00  0.00     0.163 HD
BRANCH   5   7
ATOM      7  C   UNL A   1      35.993  29.966  28.165  1.00  0.00     0.039 A 
ATOM      8  C   UNL A   1      37.018  30.106  27.226  1.00  0.00     0.014 A 
ATOM      9  C   UNL A   1      36.294  29.489  29.449  1.00  0.00     0.014 A 
ATOM     10  C   UNL A   1      38.314  29.694  27.538  1.00  0.00     0.010 A 
ATOM     11  C   UNL A   1      37.608  29.125  29.778  1.00  0.00     0.010 A 
ATOM     12  C   UNL A   1      38.628  29.213  28.822  1.00  0.00    -0.014 A 
BRANCH  12  13
ATOM     13  C   UNL A   1      40.045  28.901  29.154  1.00  0.00     0.031 A 
ATOM     14  C   UNL A   1      40.662  27.572  28.813  1.00  0.00     0.074 A 
ATOM     15  C   UNL A   1      40.796  29.855  29.739  1.00  0.00     0.049 A 
ATOM     16  N   UNL A   1      41.907  27.187  28.952  1.00  0.00    -0.248 NA
ATOM     17  C   UNL A   1      39.775  26.544  28.251  1.00  0.00     0.031 C 
ATOM     18  C   UNL A   1      40.308  31.174  30.154  1.00  0.00     0.029 A 
ATOM     19  N   UNL A   1      42.128  29.876  30.066  1.00  0.00    -0.354 N 
ATOM     20  C   UNL A   1      41.956  25.876  28.493  1.00  0.00     0.074 A 
ATOM     21  C   UNL A   1      40.607  25.521  28.102  1.00  0.00     0.031 C 
ATOM     22  C   UNL A   1      41.334  31.888  30.641  1.00  0.00     0.029 A 
ATOM     23  C   UNL A   1      42.544  31.072  30.602  1.00  0.00     0.049 A 
ATOM     24  H   UNL A   1      42.729  29.108  29.931  1.00  0.00     0.167 HD
ATOM     25  C   UNL A   1      43.025  25.048  28.398  1.00  0.00     0.031 A 
ATOM     26  C   UNL A   1      43.761  31.475  31.014  1.00  0.00     0.031 A 
ATOM     27  C   UNL A   1      44.365  25.391  28.799  1.00  0.00     0.049 A 
ATOM     28  C   UNL A   1      44.930  30.543  30.885  1.00  0.00     0.074 A 
ATOM     29  C   UNL A   1      45.512  24.616  28.732  1.00  0.00     0.029 A 
ATOM     30  N   UNL A   1      44.743  26.610  29.343  1.00  0.00    -0.354 N 
ATOM     31  N   UNL A   1      44.957  29.320  30.414  1.00  0.00    -0.248 NA
ATOM     32  C   UNL A   1      46.233  31.051  31.335  1.00  0.00     0.031 C 
ATOM     33  C   UNL A   1      46.576  25.355  29.264  1.00  0.00     0.029 A 
ATOM     34  C   UNL A   1      46.100  26.605  29.624  1.00  0.00     0.049 A 
ATOM     35  H   UNL A   1      44.136  27.367  29.506  1.00  0.00     0.167 HD
ATOM     36  C   UNL A   1      46.282  28.912  30.507  1.00  0.00     0.074 A 
ATOM     37  C   UNL A   1      47.029  30.028  31.051  1.00  0.00     0.031 C 
ATOM     38  C   UNL A   1      46.829  27.716  30.179  1.00  0.00     0.031 A 
BRANCH  25  39
ATOM     39  C   UNL A   1      42.789  23.671  27.834  1.00  0.00    -0.014 A 
ATOM     40  C   UNL A   1      42.229  22.656  28.629  1.00  0.00     0.010 A 
ATOM     41  C   UNL A   1      43.075  23.404  26.483  1.00  0.00     0.010 A 
ATOM     42  C   UNL A   1      41.987  21.389  28.092  1.00  0.00     0.020 A 
ATOM     43  C   UNL A   1      42.816  22.142  25.937  1.00  0.00     0.020 A 
ATOM     44  C   UNL A   1      42.287  21.138  26.750  1.00  0.00     0.054 A 
BRANCH  44  45
ATOM     45  S   UNL A   1      41.940  19.492  26.070  1.00  0.00     0.124 S 
ATOM     46  O   UNL A   1      42.332  18.623  27.178  1.00  0.00    -0.237 OA
ATOM     47  O   UNL A   1      40.507  19.550  25.798  1.00  0.00    -0.237 OA
ATOM     48  O   UNL A   1      42.794  19.418  24.887  1.00  0.00    -0.744 OA
ENDBRANCH  44  45
ENDBRANCH  25  39
BRANCH  26  49
ATOM     49  C   UNL A   1      43.929  32.837  31.585  1.00  0.00    -0.014 A 
ATOM     50  C   UNL A   1      43.809  33.054  32.969  1.00  0.00     0.010 A 
ATOM     51  C   UNL A   1      44.234  33.921  30.743  1.00  0.00     0.010 A 
ATOM     52  C   UNL A   1      43.977  34.337  33.498  1.00  0.00     0.020 A 
ATOM     53  C   UNL A   1      44.427  35.199  31.271  1.00  0.00     0.020 A 
ATOM     54  C   UNL A   1      44.285  35.401  32.646  1.00  0.00     0.054 A 
BRANCH  54  55
ATOM     55  S   UNL A   1      44.564  37.048  33.353  1.00  0.00     0.124 S 
ATOM     56  O   UNL A   1      43.786  37.897  32.457  1.00  0.00    -0.237 OA
ATOM     57  O   UNL A   1      44.038  36.909  34.709  1.00  0.00    -0.237 OA
ATOM     58  O   UNL A   1      46.014  37.209  33.271  1.00  0.00    -0.744 OA
ENDBRANCH  54  55
ENDBRANCH  26  49
BRANCH  38  59
ATOM     59  C   UNL A   1      48.309  27.562  30.399  1.00  0.00    -0.014 A 
ATOM     60  C   UNL A   1      48.809  27.046  31.607  1.00  0.00     0.010 A 
ATOM     61  C   UNL A   1      49.209  27.927  29.382  1.00  0.00     0.010 A 
ATOM     62  C   UNL A   1      50.188  26.939  31.812  1.00  0.00     0.020 A 
ATOM     63  C   UNL A   1      50.587  27.802  29.576  1.00  0.00     0.020 A 
ATOM     64  C   UNL A   1      51.068  27.327  30.798  1.00  0.00     0.054 A 
BRANCH  64  65
ATOM     65  S   UNL A   1      52.854  27.169  31.078  1.00  0.00     0.124 S 
ATOM     66  O   UNL A   1      53.287  26.461  29.877  1.00  0.00    -0.237 OA
ATOM     67  O   UNL A   1      53.291  28.559  31.180  1.00  0.00    -0.237 OA
ATOM     68  O   UNL A   1      52.941  26.403  32.320  1.00  0.00    -0.744 OA
ENDBRANCH  64  65
ENDBRANCH  38  59
ENDBRANCH  12  13
ENDBRANCH   5   7
ENDBRANCH   2   3
ENDBRANCH   1   2
BRANCH   1  69
ATOM     69  C   UNL A   1      33.273  26.865  24.391  1.00  0.00     0.023 C 
BRANCH  69  70
ATOM     70  C   UNL A   1      32.504  25.546  24.313  1.00  0.00     0.116 C 
BRANCH  70  71
ATOM     71  N   UNL A   1      32.739  24.737  23.124  1.00  0.00    -0.351 N 
ATOM     72  C   UNL A   1      33.464  23.563  22.990  1.00  0.00     0.272 C 
ATOM     73  H   UNL A   1      32.321  25.073  22.297  1.00  0.00     0.163 HD
ATOM     74  O   UNL A   1      33.265  22.813  22.039  1.00  0.00    -0.267 OA
BRANCH  72  75
ATOM     75  C   UNL A   1      34.413  23.151  24.040  1.00  0.00     0.159 A 
ATOM     76  N   UNL A   1      35.611  23.827  23.922  1.00  0.00    -0.247 NA
ATOM     77  C   UNL A   1      34.140  22.294  25.104  1.00  0.00     0.159 A 
ATOM     78  C   UNL A   1      36.525  23.634  24.887  1.00  0.00     0.132 A 
ATOM     79  N   UNL A   1      35.140  22.081  26.034  1.00  0.00    -0.247 NA
ATOM     80  C   UNL A   1      36.297  22.767  25.923  1.00  0.00     0.132 A 
BRANCH  77  81
ATOM     81  C   UNL A   1      32.862  21.619  25.568  1.00  0.00     0.276 C 
ATOM     82  O   UNL A   1      32.015  22.325  26.137  1.00  0.00    -0.267 OA
ATOM     83  N   UNL A   1      32.425  20.356  25.261  1.00  0.00    -0.320 N 
ATOM     84  H   UNL A   1      31.463  20.323  25.049  1.00  0.00     0.170 HD
BRANCH  83  85
ATOM     85  C   UNL A   1      33.041  19.111  25.180  1.00  0.00     0.045 A 
ATOM     86  C   UNL A   1      34.233  18.893  24.474  1.00  0.00     0.030 A 
ATOM     87  C   UNL A   1      32.415  18.062  25.870  1.00  0.00     0.076 A 
ATOM     88  C   UNL A   1      34.754  17.595  24.380  1.00  0.00     0.053 A 
ATOM     89  C   UNL A   1      32.898  16.790  25.671  1.00  0.00     0.167 A 
ATOM     90  C   UNL A   1      34.028  16.561  24.930  1.00  0.00     0.165 A 
ATOM     91  O   UNL A   1      32.321  15.640  26.108  1.00  0.00    -0.454 OA
ATOM     92  O   UNL A   1      34.297  15.236  24.791  1.00  0.00    -0.454 OA
ATOM     93  C   UNL A   1      33.124  14.664  25.412  1.00  0.00     0.468 C 
ENDBRANCH  83  85
ENDBRANCH  77  81
ENDBRANCH  72  75
ENDBRANCH  70  71
ENDBRANCH  69  70
ENDBRANCH   1  69
TORSDOF 16
ENDMDL
