MODEL 1
REMARK VINA RESULT:      -9.4      0.000      0.000
REMARK SMILES Cc1cc(Oc2ccnc(C(=O)NCCCCNC(=O)c3ccc(-c4c5nc(c(-c6ccc(S(=O)(=O)[O-])cc6)c6ccc([nH]6)c(-c6ccc(S(=O)(=O)[O-])cc6)c6nc(c(-c7ccc(S(=O)(=O)[O-])cc7)c7ccc4[nH]7)C=C6)C=C5)cc3)c2)cc(C)c1Cl
REMARK SMILES IDX 16 1 15 2 14 3 13 4 11 5 12 6 10 8 6 9 7 10 81 11 8 12 9 13
REMARK SMILES IDX 5 14 4 15 1 16 2 17 3 18 85 19 83 20 86 21 82 22 84 23 17 24
REMARK SMILES IDX 18 25 19 26 20 28 21 29 22 30 80 31 23 32 79 33 24 34 25 35
REMARK SMILES IDX 26 36 73 37 27 38 78 39 72 40 74 41 28 42 77 43 71 44 70 45
REMARK SMILES IDX 29 47 59 48 40 49 58 50 41 51 44 52 57 53 75 54 42 55 43 56
REMARK SMILES IDX 56 58 76 59 45 60 30 61 31 62 39 63 32 64 38 65 33 66 34 67
REMARK SMILES IDX 35 68 36 69 37 70 60 71 61 72 69 73 62 74 68 75 63 76 64 77
REMARK SMILES IDX 65 78 66 79 67 80 46 81 47 82 55 83 48 84 54 85 49 86 50 87
REMARK SMILES IDX 51 88 52 89 53 90
REMARK H PARENT 13 7 18 27 74 46 44 57
REMARK Flexibility Score: inf
ROOT
ATOM      1  C   UNL A   1      34.972  33.431  30.090  1.00  0.00     0.023 C 
ENDROOT
BRANCH   1   2
ATOM      2  C   UNL A   1      35.104  32.413  31.232  1.00  0.00     0.023 C 
BRANCH   2   3
ATOM      3  C   UNL A   1      36.550  32.068  31.598  1.00  0.00     0.116 C 
BRANCH   3   4
ATOM      4  N   UNL A   1      36.742  32.134  33.032  1.00  0.00    -0.351 N 
ATOM      5  C   UNL A   1      37.484  31.393  33.925  1.00  0.00     0.270 C 
ATOM      6  O   UNL A   1      37.405  31.742  35.106  1.00  0.00    -0.268 OA
ATOM      7  H   UNL A   1      36.236  32.862  33.459  1.00  0.00     0.163 HD
BRANCH   5   8
ATOM      8  C   UNL A   1      38.385  30.243  33.552  1.00  0.00     0.131 A 
ATOM      9  C   UNL A   1      40.442  29.047  33.410  1.00  0.00     0.131 A 
ATOM     10  C   UNL A   1      39.780  27.955  32.867  1.00  0.00     0.067 A 
ATOM     11  C   UNL A   1      39.756  30.213  33.743  1.00  0.00     0.081 A 
ATOM     12  C   UNL A   1      38.428  28.089  32.647  1.00  0.00     0.116 A 
ATOM     13  N   UNL A   1      37.727  29.192  32.982  1.00  0.00    -0.251 NA
BRANCH   9  14
ATOM     14  O   UNL A   1      41.767  28.944  33.748  1.00  0.00    -0.457 OA
BRANCH  14  15
ATOM     15  C   UNL A   1      42.272  27.708  34.081  1.00  0.00     0.128 A 
ATOM     16  C   UNL A   1      44.702  25.005  32.985  1.00  0.00     0.046 C 
ATOM     17  C   UNL A   1      43.665  25.734  33.796  1.00  0.00    -0.028 A 
ATOM     18  C   UNL A   1      43.248  27.008  33.373  1.00  0.00     0.052 A 
ATOM     19  C   UNL A   1      43.089  25.171  34.953  1.00  0.00     0.047 A 
ATOM     20  C   UNL A   1      42.118  25.878  35.686  1.00  0.00    -0.028 A 
ATOM     21  Cl  UNL A   1      43.576  23.589  35.473  1.00  0.00    -0.084 Cl
ATOM     22  C   UNL A   1      41.713  27.140  35.229  1.00  0.00     0.052 A 
ATOM     23  C   UNL A   1      41.487  25.316  36.931  1.00  0.00     0.046 C 
ENDBRANCH  14  15
ENDBRANCH   9  14
ENDBRANCH   5   8
ENDBRANCH   3   4
ENDBRANCH   2   3
ENDBRANCH   1   2
BRANCH   1  24
ATOM     24  C   UNL A   1      35.379  32.918  28.711  1.00  0.00     0.116 C 
BRANCH  24  25
ATOM     25  N   UNL A   1      34.439  31.959  28.150  1.00  0.00    -0.352 N 
ATOM     26  C   UNL A   1      34.661  30.640  27.822  1.00  0.00     0.251 C 
ATOM     27  H   UNL A   1      33.529  32.296  27.983  1.00  0.00     0.163 HD
ATOM     28  O   UNL A   1      33.789  29.986  27.269  1.00  0.00    -0.269 OA
BRANCH  26  29
ATOM     29  C   UNL A   1      35.984  30.047  28.105  1.00  0.00     0.039 A 
ATOM     30  C   UNL A   1      37.000  30.185  27.156  1.00  0.00     0.014 A 
ATOM     31  C   UNL A   1      36.229  29.403  29.319  1.00  0.00     0.014 A 
ATOM     32  C   UNL A   1      38.289  29.743  27.459  1.00  0.00     0.010 A 
ATOM     33  C   UNL A   1      37.526  29.016  29.643  1.00  0.00     0.010 A 
ATOM     34  C   UNL A   1      38.569  29.191  28.719  1.00  0.00    -0.014 A 
BRANCH  34  35
ATOM     35  C   UNL A   1      39.948  28.801  29.105  1.00  0.00     0.031 A 
ATOM     36  C   UNL A   1      40.843  29.791  29.797  1.00  0.00     0.074 A 
ATOM     37  C   UNL A   1      40.418  27.587  28.760  1.00  0.00     0.049 A 
ATOM     38  N   UNL A   1      42.104  29.674  30.123  1.00  0.00    -0.248 NA
ATOM     39  C   UNL A   1      40.248  31.092  30.143  1.00  0.00     0.031 C 
ATOM     40  C   UNL A   1      39.658  26.549  28.058  1.00  0.00     0.029 A 
ATOM     41  N   UNL A   1      41.656  27.022  28.945  1.00  0.00    -0.354 N 
ATOM     42  C   UNL A   1      42.460  30.890  30.693  1.00  0.00     0.074 A 
ATOM     43  C   UNL A   1      41.294  31.745  30.629  1.00  0.00     0.031 C 
ATOM     44  C   UNL A   1      40.439  25.469  27.892  1.00  0.00     0.029 A 
ATOM     45  C   UNL A   1      41.763  25.748  28.438  1.00  0.00     0.049 A 
ATOM     46  H   UNL A   1      42.397  27.485  29.397  1.00  0.00     0.167 HD
ATOM     47  C   UNL A   1      43.646  31.258  31.236  1.00  0.00     0.031 A 
ATOM     48  C   UNL A   1      42.811  24.903  28.409  1.00  0.00     0.031 A 
ATOM     49  C   UNL A   1      44.799  30.402  31.309  1.00  0.00     0.049 A 
ATOM     50  C   UNL A   1      44.120  25.336  29.010  1.00  0.00     0.074 A 
ATOM     51  C   UNL A   1      46.032  30.666  31.879  1.00  0.00     0.029 A 
ATOM     52  N   UNL A   1      44.861  29.114  30.797  1.00  0.00    -0.354 N 
ATOM     53  N   UNL A   1      44.423  26.474  29.586  1.00  0.00    -0.248 NA
ATOM     54  C   UNL A   1      45.224  24.367  28.964  1.00  0.00     0.031 C 
ATOM     55  C   UNL A   1      46.852  29.550  31.680  1.00  0.00     0.029 A 
ATOM     56  C   UNL A   1      46.114  28.574  31.027  1.00  0.00     0.049 A 
ATOM     57  H   UNL A   1      44.122  28.652  30.339  1.00  0.00     0.167 HD
ATOM     58  C   UNL A   1      45.746  26.349  29.997  1.00  0.00     0.074 A 
ATOM     59  C   UNL A   1      46.181  25.022  29.609  1.00  0.00     0.031 C 
ATOM     60  C   UNL A   1      46.528  27.250  30.639  1.00  0.00     0.031 A 
BRANCH  47  61
ATOM     61  C   UNL A   1      43.746  32.654  31.788  1.00  0.00    -0.014 A 
ATOM     62  C   UNL A   1      44.174  33.722  30.979  1.00  0.00     0.010 A 
ATOM     63  C   UNL A   1      43.398  32.906  33.127  1.00  0.00     0.010 A 
ATOM     64  C   UNL A   1      44.303  35.006  31.512  1.00  0.00     0.020 A 
ATOM     65  C   UNL A   1      43.500  34.195  33.658  1.00  0.00     0.020 A 
ATOM     66  C   UNL A   1      43.974  35.233  32.852  1.00  0.00     0.054 A 
BRANCH  66  67
ATOM     67  S   UNL A   1      44.153  36.909  33.521  1.00  0.00     0.124 S 
ATOM     68  O   UNL A   1      43.537  37.718  32.471  1.00  0.00    -0.237 OA
ATOM     69  O   UNL A   1      43.409  36.838  34.775  1.00  0.00    -0.237 OA
ATOM     70  O   UNL A   1      45.598  37.071  33.665  1.00  0.00    -0.744 OA
ENDBRANCH  66  67
ENDBRANCH  47  61
BRANCH  48  71
ATOM     71  C   UNL A   1      42.657  23.551  27.808  1.00  0.00    -0.014 A 
ATOM     72  C   UNL A   1      42.132  22.494  28.572  1.00  0.00     0.010 A 
ATOM     73  C   UNL A   1      43.014  23.316  26.468  1.00  0.00     0.010 A 
ATOM     74  C   UNL A   1      41.979  21.224  28.012  1.00  0.00     0.020 A 
ATOM     75  C   UNL A   1      42.840  22.052  25.897  1.00  0.00     0.020 A 
ATOM     76  C   UNL A   1      42.332  21.010  26.676  1.00  0.00     0.054 A 
BRANCH  76  77
ATOM     77  S   UNL A   1      42.070  19.367  25.953  1.00  0.00     0.124 S 
ATOM     78  O   UNL A   1      42.892  19.431  24.749  1.00  0.00    -0.237 OA
ATOM     79  O   UNL A   1      42.553  18.476  27.006  1.00  0.00    -0.237 OA
ATOM     80  O   UNL A   1      40.626  19.323  25.726  1.00  0.00    -0.744 OA
ENDBRANCH  76  77
ENDBRANCH  48  71
BRANCH  60  81
ATOM     81  C   UNL A   1      47.923  26.823  31.001  1.00  0.00    -0.014 A 
ATOM     82  C   UNL A   1      49.013  27.109  30.160  1.00  0.00     0.010 A 
ATOM     83  C   UNL A   1      48.156  26.189  32.235  1.00  0.00     0.010 A 
ATOM     84  C   UNL A   1      50.309  26.753  30.539  1.00  0.00     0.020 A 
ATOM     85  C   UNL A   1      49.452  25.851  32.628  1.00  0.00     0.020 A 
ATOM     86  C   UNL A   1      50.521  26.126  31.772  1.00  0.00     0.054 A 
BRANCH  86  87
ATOM     87  S   UNL A   1      52.219  25.729  32.271  1.00  0.00     0.124 S 
ATOM     88  O   UNL A   1      52.080  24.359  32.755  1.00  0.00    -0.237 OA
ATOM     89  O   UNL A   1      52.965  25.883  31.025  1.00  0.00    -0.237 OA
ATOM     90  O   UNL A   1      52.520  26.726  33.297  1.00  0.00    -0.744 OA
ENDBRANCH  86  87
ENDBRANCH  60  81
ENDBRANCH  34  35
ENDBRANCH  26  29
ENDBRANCH  24  25
ENDBRANCH   1  24
TORSDOF 16
ENDMDL
MODEL 2
REMARK VINA RESULT:      -9.3      5.330     11.534
REMARK SMILES Cc1cc(Oc2ccnc(C(=O)NCCCCNC(=O)c3ccc(-c4c5nc(c(-c6ccc(S(=O)(=O)[O-])cc6)c6ccc([nH]6)c(-c6ccc(S(=O)(=O)[O-])cc6)c6nc(c(-c7ccc(S(=O)(=O)[O-])cc7)c7ccc4[nH]7)C=C6)C=C5)cc3)c2)cc(C)c1Cl
REMARK SMILES IDX 16 1 15 2 14 3 13 4 11 5 12 6 10 8 6 9 7 10 81 11 8 12 9 13
REMARK SMILES IDX 5 14 4 15 1 16 2 17 3 18 85 19 83 20 86 21 82 22 84 23 17 24
REMARK SMILES IDX 18 25 19 26 20 28 21 29 22 30 80 31 23 32 79 33 24 34 25 35
REMARK SMILES IDX 26 36 73 37 27 38 78 39 72 40 74 41 28 42 77 43 71 44 70 45
REMARK SMILES IDX 29 47 59 48 40 49 58 50 41 51 44 52 57 53 75 54 42 55 43 56
REMARK SMILES IDX 56 58 76 59 45 60 30 61 31 62 39 63 32 64 38 65 33 66 34 67
REMARK SMILES IDX 35 68 36 69 37 70 60 71 61 72 69 73 62 74 68 75 63 76 64 77
REMARK SMILES IDX 65 78 66 79 67 80 46 81 47 82 55 83 48 84 54 85 49 86 50 87
REMARK SMILES IDX 51 88 52 89 53 90
REMARK H PARENT 13 7 18 27 74 46 44 57
REMARK Flexibility Score: inf
ROOT
ATOM      1  C   UNL A   1      38.445  19.330  25.217  1.00  0.00     0.023 C 
ENDROOT
BRANCH   1   2
ATOM      2  C   UNL A   1      37.355  20.235  24.627  1.00  0.00     0.023 C 
BRANCH   2   3
ATOM      3  C   UNL A   1      37.287  21.627  25.260  1.00  0.00     0.116 C 
BRANCH   3   4
ATOM      4  N   UNL A   1      36.286  21.662  26.307  1.00  0.00    -0.351 N 
ATOM      5  C   UNL A   1      34.913  21.763  26.304  1.00  0.00     0.270 C 
ATOM      6  O   UNL A   1      34.373  21.765  27.414  1.00  0.00    -0.268 OA
ATOM      7  H   UNL A   1      36.668  21.602  27.212  1.00  0.00     0.163 HD
BRANCH   5   8
ATOM      8  C   UNL A   1      34.055  21.831  25.064  1.00  0.00     0.131 A 
ATOM      9  C   UNL A   1      33.200  22.796  23.060  1.00  0.00     0.131 A 
ATOM     10  C   UNL A   1      32.474  21.643  22.804  1.00  0.00     0.067 A 
ATOM     11  C   UNL A   1      33.987  22.913  24.204  1.00  0.00     0.081 A 
ATOM     12  C   UNL A   1      32.543  20.638  23.742  1.00  0.00     0.116 A 
ATOM     13  N   UNL A   1      33.316  20.705  24.846  1.00  0.00    -0.251 NA
BRANCH   9  14
ATOM     14  O   UNL A   1      33.254  23.793  22.120  1.00  0.00    -0.457 OA
BRANCH  14  15
ATOM     15  C   UNL A   1      32.849  25.060  22.473  1.00  0.00     0.128 A 
ATOM     16  C   UNL A   1      33.992  28.670  22.740  1.00  0.00     0.046 C 
ATOM     17  C   UNL A   1      33.109  27.454  22.816  1.00  0.00    -0.028 A 
ATOM     18  C   UNL A   1      33.625  26.216  22.397  1.00  0.00     0.052 A 
ATOM     19  C   UNL A   1      31.790  27.518  23.310  1.00  0.00     0.047 A 
ATOM     20  C   UNL A   1      30.991  26.361  23.373  1.00  0.00    -0.028 A 
ATOM     21  Cl  UNL A   1      31.148  29.036  23.855  1.00  0.00    -0.084 Cl
ATOM     22  C   UNL A   1      31.541  25.138  22.960  1.00  0.00     0.052 A 
ATOM     23  C   UNL A   1      29.577  26.389  23.884  1.00  0.00     0.046 C 
ENDBRANCH  14  15
ENDBRANCH   9  14
ENDBRANCH   5   8
ENDBRANCH   3   4
ENDBRANCH   2   3
ENDBRANCH   1   2
BRANCH   1  24
ATOM     24  C   UNL A   1      39.571  20.060  25.947  1.00  0.00     0.116 C 
BRANCH  24  25
ATOM     25  N   UNL A   1      40.760  19.244  26.138  1.00  0.00    -0.352 N 
ATOM     26  C   UNL A   1      42.042  19.659  26.424  1.00  0.00     0.251 C 
ATOM     27  H   UNL A   1      40.633  18.271  26.052  1.00  0.00     0.163 HD
ATOM     28  O   UNL A   1      42.959  18.852  26.465  1.00  0.00    -0.269 OA
BRANCH  26  29
ATOM     29  C   UNL A   1      42.296  21.099  26.633  1.00  0.00     0.039 A 
ATOM     30  C   UNL A   1      42.455  21.572  27.938  1.00  0.00     0.014 A 
ATOM     31  C   UNL A   1      42.425  21.963  25.544  1.00  0.00     0.014 A 
ATOM     32  C   UNL A   1      42.820  22.903  28.148  1.00  0.00     0.010 A 
ATOM     33  C   UNL A   1      42.846  23.274  25.752  1.00  0.00     0.010 A 
ATOM     34  C   UNL A   1      43.056  23.752  27.055  1.00  0.00    -0.014 A 
BRANCH  34  35
ATOM     35  C   UNL A   1      43.539  25.142  27.244  1.00  0.00     0.031 A 
ATOM     36  C   UNL A   1      44.982  25.478  26.991  1.00  0.00     0.074 A 
ATOM     37  C   UNL A   1      42.698  26.080  27.721  1.00  0.00     0.049 A 
ATOM     38  N   UNL A   1      45.614  26.605  27.195  1.00  0.00    -0.248 NA
ATOM     39  C   UNL A   1      45.830  24.396  26.465  1.00  0.00     0.031 C 
ATOM     40  C   UNL A   1      41.281  25.871  28.037  1.00  0.00     0.029 A 
ATOM     41  N   UNL A   1      42.914  27.400  28.034  1.00  0.00    -0.354 N 
ATOM     42  C   UNL A   1      46.936  26.364  26.842  1.00  0.00     0.074 A 
ATOM     43  C   UNL A   1      47.024  24.973  26.454  1.00  0.00     0.031 C 
ATOM     44  C   UNL A   1      40.754  27.025  28.476  1.00  0.00     0.029 A 
ATOM     45  C   UNL A   1      41.798  28.044  28.512  1.00  0.00     0.049 A 
ATOM     46  H   UNL A   1      43.787  27.842  27.927  1.00  0.00     0.167 HD
ATOM     47  C   UNL A   1      47.980  27.227  26.828  1.00  0.00     0.031 A 
ATOM     48  C   UNL A   1      41.635  29.311  28.939  1.00  0.00     0.031 A 
ATOM     49  C   UNL A   1      47.887  28.611  27.203  1.00  0.00     0.049 A 
ATOM     50  C   UNL A   1      42.810  30.249  28.922  1.00  0.00     0.074 A 
ATOM     51  C   UNL A   1      48.877  29.579  27.181  1.00  0.00     0.029 A 
ATOM     52  N   UNL A   1      46.735  29.229  27.667  1.00  0.00    -0.354 N 
ATOM     53  N   UNL A   1      44.043  30.014  28.541  1.00  0.00    -0.248 NA
ATOM     54  C   UNL A   1      42.570  31.623  29.384  1.00  0.00     0.031 C 
ATOM     55  C   UNL A   1      48.333  30.772  27.665  1.00  0.00     0.029 A 
ATOM     56  C   UNL A   1      46.992  30.560  27.946  1.00  0.00     0.049 A 
ATOM     57  H   UNL A   1      45.863  28.785  27.781  1.00  0.00     0.167 HD
ATOM     58  C   UNL A   1      44.720  31.220  28.692  1.00  0.00     0.074 A 
ATOM     59  C   UNL A   1      43.758  32.182  29.191  1.00  0.00     0.031 C 
ATOM     60  C   UNL A   1      46.020  31.504  28.437  1.00  0.00     0.031 A 
BRANCH  47  61
ATOM     61  C   UNL A   1      49.315  26.684  26.394  1.00  0.00    -0.014 A 
ATOM     62  C   UNL A   1      50.158  26.023  27.307  1.00  0.00     0.010 A 
ATOM     63  C   UNL A   1      49.729  26.825  25.058  1.00  0.00     0.010 A 
ATOM     64  C   UNL A   1      51.412  25.560  26.904  1.00  0.00     0.020 A 
ATOM     65  C   UNL A   1      50.972  26.339  24.644  1.00  0.00     0.020 A 
ATOM     66  C   UNL A   1      51.815  25.729  25.576  1.00  0.00     0.054 A 
BRANCH  66  67
ATOM     67  S   UNL A   1      53.450  25.120  25.078  1.00  0.00     0.124 S 
ATOM     68  O   UNL A   1      53.523  25.560  23.687  1.00  0.00    -0.237 OA
ATOM     69  O   UNL A   1      54.346  25.809  26.002  1.00  0.00    -0.237 OA
ATOM     70  O   UNL A   1      53.353  23.674  25.269  1.00  0.00    -0.744 OA
ENDBRANCH  66  67
ENDBRANCH  47  61
BRANCH  48  71
ATOM     71  C   UNL A   1      40.297  29.773  29.397  1.00  0.00    -0.014 A 
ATOM     72  C   UNL A   1      39.982  29.778  30.767  1.00  0.00     0.010 A 
ATOM     73  C   UNL A   1      39.340  30.228  28.472  1.00  0.00     0.010 A 
ATOM     74  C   UNL A   1      38.729  30.216  31.204  1.00  0.00     0.020 A 
ATOM     75  C   UNL A   1      38.094  30.690  28.907  1.00  0.00     0.020 A 
ATOM     76  C   UNL A   1      37.793  30.672  30.271  1.00  0.00     0.054 A 
BRANCH  76  77
ATOM     77  S   UNL A   1      36.195  31.292  30.866  1.00  0.00     0.124 S 
ATOM     78  O   UNL A   1      35.348  31.126  29.689  1.00  0.00    -0.237 OA
ATOM     79  O   UNL A   1      35.905  30.400  31.986  1.00  0.00    -0.237 OA
ATOM     80  O   UNL A   1      36.485  32.675  31.240  1.00  0.00    -0.744 OA
ENDBRANCH  76  77
ENDBRANCH  48  71
BRANCH  60  81
ATOM     81  C   UNL A   1      46.476  32.921  28.654  1.00  0.00    -0.014 A 
ATOM     82  C   UNL A   1      46.377  33.881  27.632  1.00  0.00     0.010 A 
ATOM     83  C   UNL A   1      46.943  33.311  29.922  1.00  0.00     0.010 A 
ATOM     84  C   UNL A   1      46.755  35.205  27.870  1.00  0.00     0.020 A 
ATOM     85  C   UNL A   1      47.301  34.637  30.170  1.00  0.00     0.020 A 
ATOM     86  C   UNL A   1      47.214  35.575  29.138  1.00  0.00     0.054 A 
BRANCH  86  87
ATOM     87  S   UNL A   1      47.640  37.312  29.442  1.00  0.00     0.124 S 
ATOM     88  O   UNL A   1      49.079  37.320  29.196  1.00  0.00    -0.237 OA
ATOM     89  O   UNL A   1      46.830  38.020  28.454  1.00  0.00    -0.237 OA
ATOM     90  O   UNL A   1      47.243  37.527  30.832  1.00  0.00    -0.744 OA
ENDBRANCH  86  87
ENDBRANCH  60  81
ENDBRANCH  34  35
ENDBRANCH  26  29
ENDBRANCH  24  25
ENDBRANCH   1  24
TORSDOF 16
ENDMDL
MODEL 3
REMARK VINA RESULT:      -9.0      5.163     11.925
REMARK SMILES Cc1cc(Oc2ccnc(C(=O)NCCCCNC(=O)c3ccc(-c4c5nc(c(-c6ccc(S(=O)(=O)[O-])cc6)c6ccc([nH]6)c(-c6ccc(S(=O)(=O)[O-])cc6)c6nc(c(-c7ccc(S(=O)(=O)[O-])cc7)c7ccc4[nH]7)C=C6)C=C5)cc3)c2)cc(C)c1Cl
REMARK SMILES IDX 16 1 15 2 14 3 13 4 11 5 12 6 10 8 6 9 7 10 81 11 8 12 9 13
REMARK SMILES IDX 5 14 4 15 1 16 2 17 3 18 85 19 83 20 86 21 82 22 84 23 17 24
REMARK SMILES IDX 18 25 19 26 20 28 21 29 22 30 80 31 23 32 79 33 24 34 25 35
REMARK SMILES IDX 26 36 73 37 27 38 78 39 72 40 74 41 28 42 77 43 71 44 70 45
REMARK SMILES IDX 29 47 59 48 40 49 58 50 41 51 44 52 57 53 75 54 42 55 43 56
REMARK SMILES IDX 56 58 76 59 45 60 30 61 31 62 39 63 32 64 38 65 33 66 34 67
REMARK SMILES IDX 35 68 36 69 37 70 60 71 61 72 69 73 62 74 68 75 63 76 64 77
REMARK SMILES IDX 65 78 66 79 67 80 46 81 47 82 55 83 48 84 54 85 49 86 50 87
REMARK SMILES IDX 51 88 52 89 53 90
REMARK H PARENT 13 7 18 27 74 46 44 57
REMARK Flexibility Score: inf
ROOT
ATOM      1  C   UNL A   1      39.933  22.604  27.030  1.00  0.00     0.023 C 
ENDROOT
BRANCH   1   2
ATOM      2  C   UNL A   1      38.871  23.511  26.394  1.00  0.00     0.023 C 
BRANCH   2   3
ATOM      3  C   UNL A   1      37.606  22.775  25.946  1.00  0.00     0.116 C 
BRANCH   3   4
ATOM      4  N   UNL A   1      37.470  22.825  24.505  1.00  0.00    -0.351 N 
ATOM      5  C   UNL A   1      36.389  22.808  23.652  1.00  0.00     0.270 C 
ATOM      6  O   UNL A   1      36.655  22.865  22.449  1.00  0.00    -0.268 OA
ATOM      7  H   UNL A   1      38.333  22.883  24.035  1.00  0.00     0.163 HD
BRANCH   5   8
ATOM      8  C   UNL A   1      34.946  22.763  24.090  1.00  0.00     0.131 A 
ATOM      9  C   UNL A   1      32.732  23.596  24.376  1.00  0.00     0.131 A 
ATOM     10  C   UNL A   1      32.325  22.368  24.877  1.00  0.00     0.067 A 
ATOM     11  C   UNL A   1      34.053  23.816  23.994  1.00  0.00     0.081 A 
ATOM     12  C   UNL A   1      33.288  21.394  25.004  1.00  0.00     0.116 A 
ATOM     13  N   UNL A   1      34.570  21.562  24.618  1.00  0.00    -0.251 NA
BRANCH   9  14
ATOM     14  O   UNL A   1      31.804  24.575  24.131  1.00  0.00    -0.457 OA
BRANCH  14  15
ATOM     15  C   UNL A   1      32.034  25.842  24.617  1.00  0.00     0.128 A 
ATOM     16  C   UNL A   1      31.595  28.076  27.655  1.00  0.00     0.046 C 
ATOM     17  C   UNL A   1      31.976  27.625  26.271  1.00  0.00    -0.028 A 
ATOM     18  C   UNL A   1      31.719  26.295  25.897  1.00  0.00     0.052 A 
ATOM     19  C   UNL A   1      32.566  28.501  25.336  1.00  0.00     0.047 A 
ATOM     20  C   UNL A   1      32.905  28.049  24.047  1.00  0.00    -0.028 A 
ATOM     21  Cl  UNL A   1      32.865  30.153  25.775  1.00  0.00    -0.084 Cl
ATOM     22  C   UNL A   1      32.622  26.720  23.701  1.00  0.00     0.052 A 
ATOM     23  C   UNL A   1      33.544  28.949  23.024  1.00  0.00     0.046 C 
ENDBRANCH  14  15
ENDBRANCH   9  14
ENDBRANCH   5   8
ENDBRANCH   3   4
ENDBRANCH   2   3
ENDBRANCH   1   2
BRANCH   1  24
ATOM     24  C   UNL A   1      41.336  23.203  27.112  1.00  0.00     0.116 C 
BRANCH  24  25
ATOM     25  N   UNL A   1      41.674  24.042  25.972  1.00  0.00    -0.352 N 
ATOM     26  C   UNL A   1      41.836  25.409  25.939  1.00  0.00     0.251 C 
ATOM     27  H   UNL A   1      41.803  23.574  25.116  1.00  0.00     0.163 HD
ATOM     28  O   UNL A   1      42.030  25.983  24.878  1.00  0.00    -0.269 OA
BRANCH  26  29
ATOM     29  C   UNL A   1      41.722  26.173  27.199  1.00  0.00     0.039 A 
ATOM     30  C   UNL A   1      42.731  27.080  27.529  1.00  0.00     0.014 A 
ATOM     31  C   UNL A   1      40.603  26.026  28.020  1.00  0.00     0.014 A 
ATOM     32  C   UNL A   1      42.580  27.901  28.648  1.00  0.00     0.010 A 
ATOM     33  C   UNL A   1      40.426  26.885  29.102  1.00  0.00     0.010 A 
ATOM     34  C   UNL A   1      41.409  27.835  29.419  1.00  0.00    -0.014 A 
BRANCH  34  35
ATOM     35  C   UNL A   1      41.177  28.760  30.556  1.00  0.00     0.031 A 
ATOM     36  C   UNL A   1      42.014  28.647  31.800  1.00  0.00     0.074 A 
ATOM     37  C   UNL A   1      40.164  29.646  30.499  1.00  0.00     0.049 A 
ATOM     38  N   UNL A   1      41.901  29.293  32.931  1.00  0.00    -0.248 NA
ATOM     39  C   UNL A   1      43.105  27.659  31.775  1.00  0.00     0.031 C 
ATOM     40  C   UNL A   1      39.259  29.830  29.361  1.00  0.00     0.029 A 
ATOM     41  N   UNL A   1      39.715  30.552  31.428  1.00  0.00    -0.354 N 
ATOM     42  C   UNL A   1      42.889  28.777  33.760  1.00  0.00     0.074 A 
ATOM     43  C   UNL A   1      43.564  27.735  33.016  1.00  0.00     0.031 C 
ATOM     44  C   UNL A   1      38.380  30.804  29.651  1.00  0.00     0.029 A 
ATOM     45  C   UNL A   1      38.631  31.284  31.006  1.00  0.00     0.049 A 
ATOM     46  H   UNL A   1      40.130  30.666  32.313  1.00  0.00     0.167 HD
ATOM     47  C   UNL A   1      43.216  29.147  35.022  1.00  0.00     0.031 A 
ATOM     48  C   UNL A   1      37.913  32.232  31.641  1.00  0.00     0.031 A 
ATOM     49  C   UNL A   1      42.552  30.190  35.754  1.00  0.00     0.049 A 
ATOM     50  C   UNL A   1      38.290  32.621  33.044  1.00  0.00     0.074 A 
ATOM     51  C   UNL A   1      42.837  30.671  37.020  1.00  0.00     0.029 A 
ATOM     52  N   UNL A   1      41.468  30.918  35.284  1.00  0.00    -0.354 N 
ATOM     53  N   UNL A   1      39.258  32.153  33.794  1.00  0.00    -0.248 NA
ATOM     54  C   UNL A   1      37.484  33.671  33.681  1.00  0.00     0.031 C 
ATOM     55  C   UNL A   1      41.904  31.665  37.331  1.00  0.00     0.029 A 
ATOM     56  C   UNL A   1      41.065  31.835  36.240  1.00  0.00     0.049 A 
ATOM     57  H   UNL A   1      41.048  30.800  34.401  1.00  0.00     0.167 HD
ATOM     58  C   UNL A   1      39.194  32.871  34.984  1.00  0.00     0.074 A 
ATOM     59  C   UNL A   1      38.097  33.809  34.849  1.00  0.00     0.031 C 
ATOM     60  C   UNL A   1      39.975  32.765  36.086  1.00  0.00     0.031 A 
BRANCH  47  61
ATOM     61  C   UNL A   1      44.346  28.406  35.685  1.00  0.00    -0.014 A 
ATOM     62  C   UNL A   1      44.094  27.307  36.527  1.00  0.00     0.010 A 
ATOM     63  C   UNL A   1      45.675  28.803  35.456  1.00  0.00     0.010 A 
ATOM     64  C   UNL A   1      45.146  26.653  37.170  1.00  0.00     0.020 A 
ATOM     65  C   UNL A   1      46.734  28.133  36.077  1.00  0.00     0.020 A 
ATOM     66  C   UNL A   1      46.460  27.076  36.948  1.00  0.00     0.054 A 
BRANCH  66  67
ATOM     67  S   UNL A   1      47.809  26.210  37.796  1.00  0.00     0.124 S 
ATOM     68  O   UNL A   1      47.256  26.037  39.138  1.00  0.00    -0.237 OA
ATOM     69  O   UNL A   1      47.951  24.986  37.014  1.00  0.00    -0.237 OA
ATOM     70  O   UNL A   1      48.931  27.141  37.701  1.00  0.00    -0.744 OA
ENDBRANCH  66  67
ENDBRANCH  47  61
BRANCH  48  71
ATOM     71  C   UNL A   1      36.780  32.896  30.943  1.00  0.00    -0.014 A 
ATOM     72  C   UNL A   1      35.456  32.532  31.242  1.00  0.00     0.010 A 
ATOM     73  C   UNL A   1      37.015  33.906  29.993  1.00  0.00     0.010 A 
ATOM     74  C   UNL A   1      34.386  33.157  30.595  1.00  0.00     0.020 A 
ATOM     75  C   UNL A   1      35.947  34.550  29.361  1.00  0.00     0.020 A 
ATOM     76  C   UNL A   1      34.639  34.164  29.659  1.00  0.00     0.054 A 
BRANCH  76  77
ATOM     77  S   UNL A   1      33.233  35.001  28.874  1.00  0.00     0.124 S 
ATOM     78  O   UNL A   1      33.875  36.157  28.257  1.00  0.00    -0.237 OA
ATOM     79  O   UNL A   1      32.733  33.985  27.951  1.00  0.00    -0.237 OA
ATOM     80  O   UNL A   1      32.347  35.301  29.997  1.00  0.00    -0.744 OA
ENDBRANCH  76  77
ENDBRANCH  48  71
BRANCH  60  81
ATOM     81  C   UNL A   1      39.702  33.710  37.223  1.00  0.00    -0.014 A 
ATOM     82  C   UNL A   1      38.971  33.298  38.351  1.00  0.00     0.010 A 
ATOM     83  C   UNL A   1      40.245  35.007  37.191  1.00  0.00     0.010 A 
ATOM     84  C   UNL A   1      38.774  34.175  39.421  1.00  0.00     0.020 A 
ATOM     85  C   UNL A   1      40.069  35.878  38.267  1.00  0.00     0.020 A 
ATOM     86  C   UNL A   1      39.325  35.460  39.373  1.00  0.00     0.054 A 
BRANCH  86  87
ATOM     87  S   UNL A   1      39.109  36.559  40.800  1.00  0.00     0.124 S 
ATOM     88  O   UNL A   1      38.840  37.841  40.158  1.00  0.00    -0.237 OA
ATOM     89  O   UNL A   1      37.978  35.957  41.501  1.00  0.00    -0.237 OA
ATOM     90  O   UNL A   1      40.388  36.468  41.502  1.00  0.00    -0.744 OA
ENDBRANCH  86  87
ENDBRANCH  60  81
ENDBRANCH  34  35
ENDBRANCH  26  29
ENDBRANCH  24  25
ENDBRANCH   1  24
TORSDOF 16
ENDMDL
