MODEL 1
REMARK VINA RESULT:     -10.7      0.000      0.000
REMARK SMILES CC[C@@](C)([NH2+]CC(=O)Nc1ccc(Br)cc1F)C(=O)NCCCCNC(=O)c1ccc(-c2c3nc(c(-c4ccc(S(=O)(=O)[O-])cc4)c4ccc([nH]4)c(-c4ccc(S(=O)(=O)[O-])cc4)c4nc(c(-c5ccc(S(=O)(=O)[O-])cc5)c5ccc2[nH]5)C=C4)C=C3)cc1
REMARK SMILES IDX 22 1 21 2 20 3 18 4 19 5 3 7 4 8 2 9 1 10 5 11 6 14 7 15
REMARK SMILES IDX 8 16 9 17 10 19 11 20 16 21 12 22 15 23 17 24 13 25 14 26
REMARK SMILES IDX 23 27 24 28 25 29 26 30 27 32 28 33 29 34 87 35 30 36 86 37
REMARK SMILES IDX 31 38 32 39 33 40 80 41 34 42 85 43 79 44 81 45 35 46 84 47
REMARK SMILES IDX 78 48 77 49 36 51 66 52 47 53 65 54 48 55 51 56 64 57 82 58
REMARK SMILES IDX 49 59 50 60 63 62 83 63 52 64 37 65 38 66 46 67 39 68 45 69
REMARK SMILES IDX 40 70 41 71 42 72 43 73 44 74 67 75 68 76 76 77 69 78 75 79
REMARK SMILES IDX 70 80 71 81 72 82 73 83 74 84 53 85 54 86 62 87 55 88 61 89
REMARK SMILES IDX 56 90 57 91 58 92 59 93 60 94
REMARK H PARENT 20 6 5 12 5 13 9 18 25 31 81 50 51 61
REMARK Flexibility Score: inf
ROOT
ATOM      1  C   UNL A   1      31.693  29.207  25.438  1.00  0.00     0.023 C 
ENDROOT
BRANCH   1   2
ATOM      2  C   UNL A   1      32.545  29.158  24.161  1.00  0.00     0.116 C 
BRANCH   2   3
ATOM      3  N   UNL A   1      33.194  27.862  23.912  1.00  0.00    -0.351 N 
ATOM      4  C   UNL A   1      32.799  26.740  23.205  1.00  0.00     0.281 C 
ATOM      5  O   UNL A   1      33.574  26.485  22.271  1.00  0.00    -0.268 OA
ATOM      6  H   UNL A   1      34.082  27.776  24.330  1.00  0.00     0.163 HD
BRANCH   4   7
ATOM      7  C   UNL A   1      31.694  25.639  23.709  1.00  0.00     0.172 C 
ATOM      8  C   UNL A   1      30.140  25.696  23.843  1.00  0.00     0.090 C 
BRANCH   7   9
ATOM      9  C   UNL A   1      31.873  24.483  22.633  1.00  0.00     0.075 C 
ATOM     10  C   UNL A   1      31.442  23.063  23.109  1.00  0.00     0.011 C 
ENDBRANCH   7   9
BRANCH   7  11
ATOM     11  N   UNL A   1      32.111  25.244  25.061  1.00  0.00    -0.326 N 
ATOM     12  H   UNL A   1      32.588  26.042  25.481  1.00  0.00     0.347 HD
ATOM     13  H   UNL A   1      32.692  24.417  24.929  1.00  0.00     0.347 HD
BRANCH  11  14
ATOM     14  C   UNL A   1      31.043  24.819  25.998  1.00  0.00     0.363 C 
BRANCH  14  15
ATOM     15  C   UNL A   1      30.966  23.448  26.746  1.00  0.00     0.279 C 
ATOM     16  O   UNL A   1      29.938  23.265  27.430  1.00  0.00    -0.268 OA
ATOM     17  N   UNL A   1      31.729  22.310  26.623  1.00  0.00    -0.319 N 
ATOM     18  H   UNL A   1      31.192  21.526  26.880  1.00  0.00     0.170 HD
BRANCH  17  19
ATOM     19  C   UNL A   1      33.036  21.886  26.250  1.00  0.00     0.077 A 
ATOM     20  C   UNL A   1      33.107  20.780  25.391  1.00  0.00     0.030 A 
ATOM     21  C   UNL A   1      34.263  22.301  26.797  1.00  0.00     0.147 A 
ATOM     22  C   UNL A   1      34.342  20.271  24.945  1.00  0.00     0.018 A 
ATOM     23  C   UNL A   1      35.498  21.834  26.336  1.00  0.00     0.057 A 
ATOM     24  F   UNL A   1      34.344  23.116  27.849  1.00  0.00    -0.205 F 
ATOM     25  C   UNL A   1      35.533  20.836  25.384  1.00  0.00     0.021 A 
ATOM     26  Br  UNL A   1      37.195  20.223  24.733  1.00  0.00    -0.051 Br
ENDBRANCH  17  19
ENDBRANCH  14  15
ENDBRANCH  11  14
ENDBRANCH   7  11
ENDBRANCH   4   7
ENDBRANCH   2   3
ENDBRANCH   1   2
BRANCH   1  27
ATOM     27  C   UNL A   1      32.213  28.342  26.589  1.00  0.00     0.023 C 
BRANCH  27  28
ATOM     28  C   UNL A   1      33.529  28.774  27.235  1.00  0.00     0.116 C 
BRANCH  28  29
ATOM     29  N   UNL A   1      33.529  30.125  27.779  1.00  0.00    -0.352 N 
ATOM     30  C   UNL A   1      34.575  30.808  28.370  1.00  0.00     0.251 C 
ATOM     31  H   UNL A   1      32.677  30.614  27.718  1.00  0.00     0.163 HD
ATOM     32  O   UNL A   1      34.405  31.937  28.824  1.00  0.00    -0.269 OA
BRANCH  30  33
ATOM     33  C   UNL A   1      35.892  30.145  28.498  1.00  0.00     0.039 A 
ATOM     34  C   UNL A   1      36.786  30.195  27.425  1.00  0.00     0.014 A 
ATOM     35  C   UNL A   1      36.277  29.562  29.708  1.00  0.00     0.014 A 
ATOM     36  C   UNL A   1      38.102  29.754  27.602  1.00  0.00     0.010 A 
ATOM     37  C   UNL A   1      37.607  29.202  29.904  1.00  0.00     0.010 A 
ATOM     38  C   UNL A   1      38.540  29.306  28.860  1.00  0.00    -0.014 A 
BRANCH  38  39
ATOM     39  C   UNL A   1      39.966  28.962  29.111  1.00  0.00     0.031 A 
ATOM     40  C   UNL A   1      40.905  29.996  29.670  1.00  0.00     0.074 A 
ATOM     41  C   UNL A   1      40.437  27.745  28.762  1.00  0.00     0.049 A 
ATOM     42  N   UNL A   1      42.193  29.911  29.885  1.00  0.00    -0.248 NA
ATOM     43  C   UNL A   1      40.328  31.308  30.001  1.00  0.00     0.031 C 
ATOM     44  C   UNL A   1      39.648  26.668  28.158  1.00  0.00     0.029 A 
ATOM     45  N   UNL A   1      41.700  27.212  28.857  1.00  0.00    -0.354 N 
ATOM     46  C   UNL A   1      42.581  31.160  30.357  1.00  0.00     0.074 A 
ATOM     47  C   UNL A   1      41.404  32.001  30.340  1.00  0.00     0.031 C 
ATOM     48  C   UNL A   1      40.436  25.598  27.965  1.00  0.00     0.029 A 
ATOM     49  C   UNL A   1      41.793  25.921  28.391  1.00  0.00     0.049 A 
ATOM     50  H   UNL A   1      42.467  27.709  29.225  1.00  0.00     0.167 HD
ATOM     51  C   UNL A   1      43.798  31.567  30.790  1.00  0.00     0.031 A 
ATOM     52  C   UNL A   1      42.852  25.089  28.312  1.00  0.00     0.031 A 
ATOM     53  C   UNL A   1      44.965  30.726  30.823  1.00  0.00     0.049 A 
ATOM     54  C   UNL A   1      44.193  25.558  28.807  1.00  0.00     0.074 A 
ATOM     55  C   UNL A   1      46.230  31.028  31.296  1.00  0.00     0.029 A 
ATOM     56  N   UNL A   1      45.009  29.417  30.369  1.00  0.00    -0.354 N 
ATOM     57  N   UNL A   1      44.523  26.724  29.310  1.00  0.00    -0.248 NA
ATOM     58  C   UNL A   1      45.302  24.596  28.735  1.00  0.00     0.031 C 
ATOM     59  C   UNL A   1      47.052  29.915  31.085  1.00  0.00     0.029 A 
ATOM     60  C   UNL A   1      46.284  28.902  30.533  1.00  0.00     0.049 A 
ATOM     61  H   UNL A   1      44.247  28.926  29.985  1.00  0.00     0.167 HD
ATOM     62  C   UNL A   1      45.870  26.626  29.640  1.00  0.00     0.074 A 
ATOM     63  C   UNL A   1      46.290  25.283  29.292  1.00  0.00     0.031 C 
ATOM     64  C   UNL A   1      46.686  27.563  30.182  1.00  0.00     0.031 A 
BRANCH  51  65
ATOM     65  C   UNL A   1      43.922  32.991  31.266  1.00  0.00    -0.014 A 
ATOM     66  C   UNL A   1      44.292  34.020  30.382  1.00  0.00     0.010 A 
ATOM     67  C   UNL A   1      43.647  33.309  32.609  1.00  0.00     0.010 A 
ATOM     68  C   UNL A   1      44.437  35.331  30.841  1.00  0.00     0.020 A 
ATOM     69  C   UNL A   1      43.760  34.626  33.066  1.00  0.00     0.020 A 
ATOM     70  C   UNL A   1      44.176  35.624  32.183  1.00  0.00     0.054 A 
BRANCH  70  71
ATOM     71  S   UNL A   1      44.368  37.336  32.749  1.00  0.00     0.124 S 
ATOM     72  O   UNL A   1      45.681  37.296  33.387  1.00  0.00    -0.237 OA
ATOM     73  O   UNL A   1      44.297  38.096  31.504  1.00  0.00    -0.237 OA
ATOM     74  O   UNL A   1      43.240  37.529  33.658  1.00  0.00    -0.744 OA
ENDBRANCH  70  71
ENDBRANCH  51  65
BRANCH  52  75
ATOM     75  C   UNL A   1      42.679  23.716  27.761  1.00  0.00    -0.014 A 
ATOM     76  C   UNL A   1      42.347  22.643  28.606  1.00  0.00     0.010 A 
ATOM     77  C   UNL A   1      42.830  23.476  26.382  1.00  0.00     0.010 A 
ATOM     78  C   UNL A   1      42.185  21.355  28.088  1.00  0.00     0.020 A 
ATOM     79  C   UNL A   1      42.642  22.195  25.856  1.00  0.00     0.020 A 
ATOM     80  C   UNL A   1      42.331  21.140  26.715  1.00  0.00     0.054 A 
BRANCH  80  81
ATOM     81  S   UNL A   1      42.057  19.470  26.056  1.00  0.00     0.124 S 
ATOM     82  O   UNL A   1      40.625  19.486  25.774  1.00  0.00    -0.237 OA
ATOM     83  O   UNL A   1      42.932  19.445  24.887  1.00  0.00    -0.237 OA
ATOM     84  O   UNL A   1      42.470  18.599  27.154  1.00  0.00    -0.744 OA
ENDBRANCH  80  81
ENDBRANCH  52  75
BRANCH  64  85
ATOM     85  C   UNL A   1      48.109  27.165  30.467  1.00  0.00    -0.014 A 
ATOM     86  C   UNL A   1      49.142  27.445  29.555  1.00  0.00     0.010 A 
ATOM     87  C   UNL A   1      48.426  26.555  31.695  1.00  0.00     0.010 A 
ATOM     88  C   UNL A   1      50.463  27.097  29.855  1.00  0.00     0.020 A 
ATOM     89  C   UNL A   1      49.748  26.230  32.009  1.00  0.00     0.020 A 
ATOM     90  C   UNL A   1      50.756  26.492  31.080  1.00  0.00     0.054 A 
BRANCH  90  91
ATOM     91  S   UNL A   1      52.484  26.093  31.466  1.00  0.00     0.124 S 
ATOM     92  O   UNL A   1      52.847  27.169  32.382  1.00  0.00    -0.237 OA
ATOM     93  O   UNL A   1      52.379  24.765  32.066  1.00  0.00    -0.237 OA
ATOM     94  O   UNL A   1      53.147  26.131  30.165  1.00  0.00    -0.744 OA
ENDBRANCH  90  91
ENDBRANCH  64  85
ENDBRANCH  38  39
ENDBRANCH  30  33
ENDBRANCH  28  29
ENDBRANCH  27  28
ENDBRANCH   1  27
TORSDOF 19
ENDMDL
MODEL 2
REMARK VINA RESULT:     -10.5      4.948     10.441
REMARK SMILES CC[C@@](C)([NH2+]CC(=O)Nc1ccc(Br)cc1F)C(=O)NCCCCNC(=O)c1ccc(-c2c3nc(c(-c4ccc(S(=O)(=O)[O-])cc4)c4ccc([nH]4)c(-c4ccc(S(=O)(=O)[O-])cc4)c4nc(c(-c5ccc(S(=O)(=O)[O-])cc5)c5ccc2[nH]5)C=C4)C=C3)cc1
REMARK SMILES IDX 22 1 21 2 20 3 18 4 19 5 3 7 4 8 2 9 1 10 5 11 6 14 7 15
REMARK SMILES IDX 8 16 9 17 10 19 11 20 16 21 12 22 15 23 17 24 13 25 14 26
REMARK SMILES IDX 23 27 24 28 25 29 26 30 27 32 28 33 29 34 87 35 30 36 86 37
REMARK SMILES IDX 31 38 32 39 33 40 80 41 34 42 85 43 79 44 81 45 35 46 84 47
REMARK SMILES IDX 78 48 77 49 36 51 66 52 47 53 65 54 48 55 51 56 64 57 82 58
REMARK SMILES IDX 49 59 50 60 63 62 83 63 52 64 37 65 38 66 46 67 39 68 45 69
REMARK SMILES IDX 40 70 41 71 42 72 43 73 44 74 67 75 68 76 76 77 69 78 75 79
REMARK SMILES IDX 70 80 71 81 72 82 73 83 74 84 53 85 54 86 62 87 55 88 61 89
REMARK SMILES IDX 56 90 57 91 58 92 59 93 60 94
REMARK H PARENT 20 6 5 12 5 13 9 18 25 31 81 50 51 61
REMARK Flexibility Score: inf
ROOT
ATOM      1  C   UNL A   1      40.537  21.661  27.320  1.00  0.00     0.023 C 
ENDROOT
BRANCH   1   2
ATOM      2  C   UNL A   1      39.561  21.612  26.134  1.00  0.00     0.116 C 
BRANCH   2   3
ATOM      3  N   UNL A   1      38.996  22.917  25.758  1.00  0.00    -0.351 N 
ATOM      4  C   UNL A   1      37.799  23.541  26.063  1.00  0.00     0.281 C 
ATOM      5  O   UNL A   1      37.976  24.609  26.668  1.00  0.00    -0.268 OA
ATOM      6  H   UNL A   1      39.584  23.449  25.173  1.00  0.00     0.163 HD
BRANCH   4   7
ATOM      7  C   UNL A   1      36.340  23.170  25.414  1.00  0.00     0.172 C 
ATOM      8  C   UNL A   1      35.020  23.987  25.261  1.00  0.00     0.090 C 
BRANCH   7   9
ATOM      9  C   UNL A   1      36.720  22.900  23.895  1.00  0.00     0.075 C 
ATOM     10  C   UNL A   1      35.642  23.333  22.857  1.00  0.00     0.011 C 
ENDBRANCH   7   9
BRANCH   7  11
ATOM     11  N   UNL A   1      35.884  21.966  26.121  1.00  0.00    -0.326 N 
ATOM     12  H   UNL A   1      34.943  22.151  26.468  1.00  0.00     0.347 HD
ATOM     13  H   UNL A   1      36.583  21.801  26.844  1.00  0.00     0.347 HD
BRANCH  11  14
ATOM     14  C   UNL A   1      35.833  20.706  25.341  1.00  0.00     0.363 C 
BRANCH  14  15
ATOM     15  C   UNL A   1      34.542  20.005  24.805  1.00  0.00     0.279 C 
ATOM     16  O   UNL A   1      34.636  18.774  24.618  1.00  0.00    -0.268 OA
ATOM     17  N   UNL A   1      33.248  20.459  24.699  1.00  0.00    -0.319 N 
ATOM     18  H   UNL A   1      32.628  19.697  24.749  1.00  0.00     0.170 HD
BRANCH  17  19
ATOM     19  C   UNL A   1      32.504  21.663  24.540  1.00  0.00     0.077 A 
ATOM     20  C   UNL A   1      31.833  22.132  25.678  1.00  0.00     0.030 A 
ATOM     21  C   UNL A   1      32.189  22.326  23.341  1.00  0.00     0.147 A 
ATOM     22  C   UNL A   1      31.071  23.316  25.649  1.00  0.00     0.018 A 
ATOM     23  C   UNL A   1      31.467  23.523  23.300  1.00  0.00     0.057 A 
ATOM     24  F   UNL A   1      32.486  21.826  22.141  1.00  0.00    -0.205 F 
ATOM     25  C   UNL A   1      30.934  24.033  24.466  1.00  0.00     0.021 A 
ATOM     26  Br  UNL A   1      29.987  25.665  24.426  1.00  0.00    -0.051 Br
ENDBRANCH  17  19
ENDBRANCH  14  15
ENDBRANCH  11  14
ENDBRANCH   7  11
ENDBRANCH   4   7
ENDBRANCH   2   3
ENDBRANCH   1   2
BRANCH   1  27
ATOM     27  C   UNL A   1      41.997  21.911  26.936  1.00  0.00     0.023 C 
BRANCH  27  28
ATOM     28  C   UNL A   1      42.503  23.349  27.054  1.00  0.00     0.116 C 
BRANCH  28  29
ATOM     29  N   UNL A   1      42.132  24.221  25.948  1.00  0.00    -0.352 N 
ATOM     30  C   UNL A   1      41.761  25.551  25.996  1.00  0.00     0.251 C 
ATOM     31  H   UNL A   1      42.147  23.811  25.053  1.00  0.00     0.163 HD
ATOM     32  O   UNL A   1      41.431  26.144  24.972  1.00  0.00    -0.269 OA
BRANCH  30  33
ATOM     33  C   UNL A   1      41.717  26.244  27.304  1.00  0.00     0.039 A 
ATOM     34  C   UNL A   1      42.706  27.182  27.611  1.00  0.00     0.014 A 
ATOM     35  C   UNL A   1      40.648  26.036  28.179  1.00  0.00     0.014 A 
ATOM     36  C   UNL A   1      42.565  27.986  28.746  1.00  0.00     0.010 A 
ATOM     37  C   UNL A   1      40.469  26.894  29.260  1.00  0.00     0.010 A 
ATOM     38  C   UNL A   1      41.416  27.889  29.551  1.00  0.00    -0.014 A 
BRANCH  38  39
ATOM     39  C   UNL A   1      41.176  28.825  30.683  1.00  0.00     0.031 A 
ATOM     40  C   UNL A   1      41.992  28.712  31.942  1.00  0.00     0.074 A 
ATOM     41  C   UNL A   1      40.173  29.725  30.611  1.00  0.00     0.049 A 
ATOM     42  N   UNL A   1      41.881  29.381  33.061  1.00  0.00    -0.248 NA
ATOM     43  C   UNL A   1      43.051  27.689  31.959  1.00  0.00     0.031 C 
ATOM     44  C   UNL A   1      39.269  29.904  29.472  1.00  0.00     0.029 A 
ATOM     45  N   UNL A   1      39.737  30.656  31.524  1.00  0.00    -0.354 N 
ATOM     46  C   UNL A   1      42.839  28.850  33.916  1.00  0.00     0.074 A 
ATOM     47  C   UNL A   1      43.480  27.764  33.208  1.00  0.00     0.031 C 
ATOM     48  C   UNL A   1      38.409  30.899  29.741  1.00  0.00     0.029 A 
ATOM     49  C   UNL A   1      38.670  31.405  31.085  1.00  0.00     0.049 A 
ATOM     50  H   UNL A   1      40.151  30.776  32.409  1.00  0.00     0.167 HD
ATOM     51  C   UNL A   1      43.175  29.243  35.168  1.00  0.00     0.031 A 
ATOM     52  C   UNL A   1      37.975  32.388  31.694  1.00  0.00     0.031 A 
ATOM     53  C   UNL A   1      42.549  30.334  35.866  1.00  0.00     0.049 A 
ATOM     54  C   UNL A   1      38.370  32.815  33.081  1.00  0.00     0.074 A 
ATOM     55  C   UNL A   1      42.856  30.847  37.115  1.00  0.00     0.029 A 
ATOM     56  N   UNL A   1      41.492  31.084  35.374  1.00  0.00    -0.354 N 
ATOM     57  N   UNL A   1      39.324  32.341  33.848  1.00  0.00    -0.248 NA
ATOM     58  C   UNL A   1      37.606  33.917  33.681  1.00  0.00     0.031 C 
ATOM     59  C   UNL A   1      41.953  31.877  37.398  1.00  0.00     0.029 A 
ATOM     60  C   UNL A   1      41.121  32.044  36.302  1.00  0.00     0.049 A 
ATOM     61  H   UNL A   1      41.066  30.954  34.496  1.00  0.00     0.167 HD
ATOM     62  C   UNL A   1      39.291  33.106  35.009  1.00  0.00     0.074 A 
ATOM     63  C   UNL A   1      38.233  34.081  34.838  1.00  0.00     0.031 C 
ATOM     64  C   UNL A   1      40.067  33.009  36.117  1.00  0.00     0.031 A 
BRANCH  51  65
ATOM     65  C   UNL A   1      44.277  28.483  35.859  1.00  0.00    -0.014 A 
ATOM     66  C   UNL A   1      43.993  27.356  36.652  1.00  0.00     0.010 A 
ATOM     67  C   UNL A   1      45.616  28.886  35.701  1.00  0.00     0.010 A 
ATOM     68  C   UNL A   1      45.018  26.679  37.315  1.00  0.00     0.020 A 
ATOM     69  C   UNL A   1      46.649  28.192  36.338  1.00  0.00     0.020 A 
ATOM     70  C   UNL A   1      46.340  27.106  37.158  1.00  0.00     0.054 A 
BRANCH  70  71
ATOM     71  S   UNL A   1      47.651  26.204  38.028  1.00  0.00     0.124 S 
ATOM     72  O   UNL A   1      47.847  27.030  39.217  1.00  0.00    -0.237 OA
ATOM     73  O   UNL A   1      47.040  24.899  38.265  1.00  0.00    -0.237 OA
ATOM     74  O   UNL A   1      48.762  26.206  37.079  1.00  0.00    -0.744 OA
ENDBRANCH  70  71
ENDBRANCH  51  65
BRANCH  52  75
ATOM     75  C   UNL A   1      36.845  33.050  30.984  1.00  0.00    -0.014 A 
ATOM     76  C   UNL A   1      37.081  33.831  29.840  1.00  0.00     0.010 A 
ATOM     77  C   UNL A   1      35.523  32.890  31.441  1.00  0.00     0.010 A 
ATOM     78  C   UNL A   1      36.021  34.453  29.173  1.00  0.00     0.020 A 
ATOM     79  C   UNL A   1      34.458  33.487  30.762  1.00  0.00     0.020 A 
ATOM     80  C   UNL A   1      34.714  34.274  29.637  1.00  0.00     0.054 A 
BRANCH  80  81
ATOM     81  S   UNL A   1      33.347  35.041  28.722  1.00  0.00     0.124 S 
ATOM     82  O   UNL A   1      32.545  35.614  29.798  1.00  0.00    -0.237 OA
ATOM     83  O   UNL A   1      34.040  36.003  27.868  1.00  0.00    -0.237 OA
ATOM     84  O   UNL A   1      32.738  33.917  28.015  1.00  0.00    -0.744 OA
ENDBRANCH  80  81
ENDBRANCH  52  75
BRANCH  64  85
ATOM     85  C   UNL A   1      39.828  34.003  37.222  1.00  0.00    -0.014 A 
ATOM     86  C   UNL A   1      38.940  33.723  38.276  1.00  0.00     0.010 A 
ATOM     87  C   UNL A   1      40.551  35.210  37.236  1.00  0.00     0.010 A 
ATOM     88  C   UNL A   1      38.759  34.646  39.310  1.00  0.00     0.020 A 
ATOM     89  C   UNL A   1      40.393  36.123  38.281  1.00  0.00     0.020 A 
ATOM     90  C   UNL A   1      39.488  35.840  39.306  1.00  0.00     0.054 A 
BRANCH  90  91
ATOM     91  S   UNL A   1      39.270  37.000  40.684  1.00  0.00     0.124 S 
ATOM     92  O   UNL A   1      38.755  36.130  41.736  1.00  0.00    -0.237 OA
ATOM     93  O   UNL A   1      40.625  37.505  40.893  1.00  0.00    -0.237 OA
ATOM     94  O   UNL A   1      38.320  37.981  40.164  1.00  0.00    -0.744 OA
ENDBRANCH  90  91
ENDBRANCH  64  85
ENDBRANCH  38  39
ENDBRANCH  30  33
ENDBRANCH  28  29
ENDBRANCH  27  28
ENDBRANCH   1  27
TORSDOF 19
ENDMDL
MODEL 3
REMARK VINA RESULT:     -10.5      1.853      3.283
REMARK SMILES CC[C@@](C)([NH2+]CC(=O)Nc1ccc(Br)cc1F)C(=O)NCCCCNC(=O)c1ccc(-c2c3nc(c(-c4ccc(S(=O)(=O)[O-])cc4)c4ccc([nH]4)c(-c4ccc(S(=O)(=O)[O-])cc4)c4nc(c(-c5ccc(S(=O)(=O)[O-])cc5)c5ccc2[nH]5)C=C4)C=C3)cc1
REMARK SMILES IDX 22 1 21 2 20 3 18 4 19 5 3 7 4 8 2 9 1 10 5 11 6 14 7 15
REMARK SMILES IDX 8 16 9 17 10 19 11 20 16 21 12 22 15 23 17 24 13 25 14 26
REMARK SMILES IDX 23 27 24 28 25 29 26 30 27 32 28 33 29 34 87 35 30 36 86 37
REMARK SMILES IDX 31 38 32 39 33 40 80 41 34 42 85 43 79 44 81 45 35 46 84 47
REMARK SMILES IDX 78 48 77 49 36 51 66 52 47 53 65 54 48 55 51 56 64 57 82 58
REMARK SMILES IDX 49 59 50 60 63 62 83 63 52 64 37 65 38 66 46 67 39 68 45 69
REMARK SMILES IDX 40 70 41 71 42 72 43 73 44 74 67 75 68 76 76 77 69 78 75 79
REMARK SMILES IDX 70 80 71 81 72 82 73 83 74 84 53 85 54 86 62 87 55 88 61 89
REMARK SMILES IDX 56 90 57 91 58 92 59 93 60 94
REMARK H PARENT 20 6 5 12 5 13 9 18 25 31 81 50 51 61
REMARK Flexibility Score: inf
ROOT
ATOM      1  C   UNL A   1      31.441  27.851  25.968  1.00  0.00     0.023 C 
ENDROOT
BRANCH   1   2
ATOM      2  C   UNL A   1      31.136  26.806  27.053  1.00  0.00     0.116 C 
BRANCH   2   3
ATOM      3  N   UNL A   1      30.723  25.494  26.535  1.00  0.00    -0.351 N 
ATOM      4  C   UNL A   1      31.142  24.205  26.813  1.00  0.00     0.281 C 
ATOM      5  O   UNL A   1      30.221  23.506  27.262  1.00  0.00    -0.268 OA
ATOM      6  H   UNL A   1      30.010  25.542  25.856  1.00  0.00     0.163 HD
BRANCH   4   7
ATOM      7  C   UNL A   1      32.540  23.526  26.292  1.00  0.00     0.172 C 
ATOM      8  C   UNL A   1      33.555  22.555  26.974  1.00  0.00     0.090 C 
BRANCH   7   9
ATOM      9  C   UNL A   1      32.036  22.643  25.070  1.00  0.00     0.075 C 
ATOM     10  C   UNL A   1      32.433  21.138  25.133  1.00  0.00     0.011 C 
ENDBRANCH   7   9
BRANCH   7  11
ATOM     11  N   UNL A   1      33.400  24.645  25.885  1.00  0.00    -0.326 N 
ATOM     12  H   UNL A   1      33.814  25.037  26.731  1.00  0.00     0.347 HD
ATOM     13  H   UNL A   1      32.787  25.278  25.373  1.00  0.00     0.347 HD
BRANCH  11  14
ATOM     14  C   UNL A   1      34.507  24.337  24.948  1.00  0.00     0.363 C 
BRANCH  14  15
ATOM     15  C   UNL A   1      34.461  24.471  23.391  1.00  0.00     0.279 C 
ATOM     16  O   UNL A   1      35.185  23.675  22.760  1.00  0.00    -0.268 OA
ATOM     17  N   UNL A   1      33.605  25.171  22.572  1.00  0.00    -0.319 N 
ATOM     18  H   UNL A   1      33.555  24.727  21.695  1.00  0.00     0.170 HD
BRANCH  17  19
ATOM     19  C   UNL A   1      32.767  26.322  22.567  1.00  0.00     0.077 A 
ATOM     20  C   UNL A   1      31.385  26.082  22.553  1.00  0.00     0.030 A 
ATOM     21  C   UNL A   1      33.147  27.660  22.366  1.00  0.00     0.147 A 
ATOM     22  C   UNL A   1      30.454  27.139  22.555  1.00  0.00     0.018 A 
ATOM     23  C   UNL A   1      32.239  28.723  22.404  1.00  0.00     0.057 A 
ATOM     24  F   UNL A   1      34.391  28.016  22.045  1.00  0.00    -0.205 F 
ATOM     25  C   UNL A   1      30.890  28.459  22.530  1.00  0.00     0.021 A 
ATOM     26  Br  UNL A   1      29.661  29.888  22.617  1.00  0.00    -0.051 Br
ENDBRANCH  17  19
ENDBRANCH  14  15
ENDBRANCH  11  14
ENDBRANCH   7  11
ENDBRANCH   4   7
ENDBRANCH   2   3
ENDBRANCH   1   2
BRANCH   1  27
ATOM     27  C   UNL A   1      32.871  28.395  25.987  1.00  0.00     0.023 C 
BRANCH  27  28
ATOM     28  C   UNL A   1      33.479  28.687  27.359  1.00  0.00     0.116 C 
BRANCH  28  29
ATOM     29  N   UNL A   1      33.532  30.098  27.718  1.00  0.00    -0.352 N 
ATOM     30  C   UNL A   1      34.610  30.817  28.197  1.00  0.00     0.251 C 
ATOM     31  H   UNL A   1      32.694  30.602  27.604  1.00  0.00     0.163 HD
ATOM     32  O   UNL A   1      34.484  32.002  28.498  1.00  0.00    -0.269 OA
BRANCH  30  33
ATOM     33  C   UNL A   1      35.908  30.133  28.393  1.00  0.00     0.039 A 
ATOM     34  C   UNL A   1      36.856  30.166  27.367  1.00  0.00     0.014 A 
ATOM     35  C   UNL A   1      36.220  29.546  29.621  1.00  0.00     0.014 A 
ATOM     36  C   UNL A   1      38.154  29.704  27.612  1.00  0.00     0.010 A 
ATOM     37  C   UNL A   1      37.532  29.165  29.887  1.00  0.00     0.010 A 
ATOM     38  C   UNL A   1      38.519  29.251  28.891  1.00  0.00    -0.014 A 
BRANCH  38  39
ATOM     39  C   UNL A   1      39.925  28.884  29.215  1.00  0.00     0.031 A 
ATOM     40  C   UNL A   1      40.840  29.893  29.856  1.00  0.00     0.074 A 
ATOM     41  C   UNL A   1      40.403  27.672  28.863  1.00  0.00     0.049 A 
ATOM     42  N   UNL A   1      42.112  29.788  30.143  1.00  0.00    -0.248 NA
ATOM     43  C   UNL A   1      40.257  31.203  30.187  1.00  0.00     0.031 C 
ATOM     44  C   UNL A   1      39.640  26.620  28.185  1.00  0.00     0.029 A 
ATOM     45  N   UNL A   1      41.653  27.123  29.016  1.00  0.00    -0.354 N 
ATOM     46  C   UNL A   1      42.484  31.019  30.670  1.00  0.00     0.074 A 
ATOM     47  C   UNL A   1      41.319  31.874  30.606  1.00  0.00     0.031 C 
ATOM     48  C   UNL A   1      40.427  25.547  28.010  1.00  0.00     0.029 A 
ATOM     49  C   UNL A   1      41.761  25.843  28.523  1.00  0.00     0.049 A 
ATOM     50  H   UNL A   1      42.402  27.600  29.441  1.00  0.00     0.167 HD
ATOM     51  C   UNL A   1      43.678  31.401  31.183  1.00  0.00     0.031 A 
ATOM     52  C   UNL A   1      42.813  25.001  28.483  1.00  0.00     0.031 A 
ATOM     53  C   UNL A   1      44.832  30.546  31.261  1.00  0.00     0.049 A 
ATOM     54  C   UNL A   1      44.128  25.441  29.067  1.00  0.00     0.074 A 
ATOM     55  C   UNL A   1      46.070  30.821  31.816  1.00  0.00     0.029 A 
ATOM     56  N   UNL A   1      44.889  29.249  30.776  1.00  0.00    -0.354 N 
ATOM     57  N   UNL A   1      44.439  26.590  29.620  1.00  0.00    -0.248 NA
ATOM     58  C   UNL A   1      45.229  24.469  29.034  1.00  0.00     0.031 C 
ATOM     59  C   UNL A   1      46.892  29.704  31.623  1.00  0.00     0.029 A 
ATOM     60  C   UNL A   1      46.148  28.715  31.001  1.00  0.00     0.049 A 
ATOM     61  H   UNL A   1      44.146  28.776  30.336  1.00  0.00     0.167 HD
ATOM     62  C   UNL A   1      45.764  26.468  30.025  1.00  0.00     0.074 A 
ATOM     63  C   UNL A   1      46.190  25.130  29.666  1.00  0.00     0.031 C 
ATOM     64  C   UNL A   1      46.556  27.381  30.639  1.00  0.00     0.031 A 
BRANCH  51  65
ATOM     65  C   UNL A   1      43.788  32.810  31.704  1.00  0.00    -0.014 A 
ATOM     66  C   UNL A   1      44.262  33.850  30.883  1.00  0.00     0.010 A 
ATOM     67  C   UNL A   1      43.396  33.106  33.022  1.00  0.00     0.010 A 
ATOM     68  C   UNL A   1      44.392  35.147  31.386  1.00  0.00     0.020 A 
ATOM     69  C   UNL A   1      43.495  34.409  33.520  1.00  0.00     0.020 A 
ATOM     70  C   UNL A   1      44.013  35.416  32.704  1.00  0.00     0.054 A 
BRANCH  70  71
ATOM     71  S   UNL A   1      44.188  37.110  33.327  1.00  0.00     0.124 S 
ATOM     72  O   UNL A   1      43.691  37.897  32.202  1.00  0.00    -0.237 OA
ATOM     73  O   UNL A   1      43.338  37.104  34.515  1.00  0.00    -0.237 OA
ATOM     74  O   UNL A   1      45.620  37.236  33.591  1.00  0.00    -0.744 OA
ENDBRANCH  70  71
ENDBRANCH  51  65
BRANCH  52  75
ATOM     75  C   UNL A   1      42.659  23.645  27.886  1.00  0.00    -0.014 A 
ATOM     76  C   UNL A   1      42.234  22.561  28.675  1.00  0.00     0.010 A 
ATOM     77  C   UNL A   1      42.923  23.432  26.520  1.00  0.00     0.010 A 
ATOM     78  C   UNL A   1      42.089  21.289  28.114  1.00  0.00     0.020 A 
ATOM     79  C   UNL A   1      42.753  22.167  25.950  1.00  0.00     0.020 A 
ATOM     80  C   UNL A   1      42.347  21.101  26.753  1.00  0.00     0.054 A 
BRANCH  80  81
ATOM     81  S   UNL A   1      42.096  19.453  26.034  1.00  0.00     0.124 S 
ATOM     82  O   UNL A   1      42.918  19.518  24.830  1.00  0.00    -0.237 OA
ATOM     83  O   UNL A   1      42.586  18.570  27.089  1.00  0.00    -0.237 OA
ATOM     84  O   UNL A   1      40.653  19.398  25.806  1.00  0.00    -0.744 OA
ENDBRANCH  80  81
ENDBRANCH  52  75
BRANCH  64  85
ATOM     85  C   UNL A   1      47.957  26.959  30.995  1.00  0.00    -0.014 A 
ATOM     86  C   UNL A   1      48.241  26.338  32.223  1.00  0.00     0.010 A 
ATOM     87  C   UNL A   1      48.992  27.133  30.058  1.00  0.00     0.010 A 
ATOM     88  C   UNL A   1      49.543  25.922  32.520  1.00  0.00     0.020 A 
ATOM     89  C   UNL A   1      50.288  26.695  30.340  1.00  0.00     0.020 A 
ATOM     90  C   UNL A   1      50.558  26.104  31.575  1.00  0.00     0.054 A 
BRANCH  90  91
ATOM     91  S   UNL A   1      52.229  25.513  31.964  1.00  0.00     0.124 S 
ATOM     92  O   UNL A   1      52.958  25.840  30.744  1.00  0.00    -0.237 OA
ATOM     93  O   UNL A   1      52.583  26.306  33.139  1.00  0.00    -0.237 OA
ATOM     94  O   UNL A   1      52.042  24.086  32.216  1.00  0.00    -0.744 OA
ENDBRANCH  90  91
ENDBRANCH  64  85
ENDBRANCH  38  39
ENDBRANCH  30  33
ENDBRANCH  28  29
ENDBRANCH  27  28
ENDBRANCH   1  27
TORSDOF 19
ENDMDL
