MODEL 1
REMARK VINA RESULT:     -11.4      0.000      0.000
REMARK SMILES NC(=O)c1ccc(Oc2cccc(C(=O)NCCCCNC(=O)c3ccc(-c4c5nc(c(-c6ccc(S(=O)(=O)[O-])cc6)c6ccc([nH]6)c(-c6ccc(S(=O)(=O)[O-])cc6)c6nc(c(-c7ccc(S(=O)(=O)[O-])cc7)c7ccc4[nH]7)C=C6)C=C5)cc3)c2)nc1
REMARK SMILES IDX 18 1 17 2 16 3 14 4 15 5 13 7 9 8 10 9 84 10 11 11 12 12
REMARK SMILES IDX 8 13 7 14 4 15 5 16 86 17 6 18 85 19 2 20 1 21 3 24 19 25
REMARK SMILES IDX 20 26 21 27 22 28 23 30 24 31 25 32 83 33 26 34 82 35 27 36
REMARK SMILES IDX 28 37 29 38 76 39 30 40 81 41 75 42 77 43 31 44 80 45 74 46
REMARK SMILES IDX 73 47 32 49 62 50 43 51 61 52 44 53 47 54 60 55 78 56 45 57
REMARK SMILES IDX 46 58 59 60 79 61 48 62 33 63 34 64 42 65 35 66 41 67 36 68
REMARK SMILES IDX 37 69 38 70 39 71 40 72 63 73 64 74 72 75 65 76 71 77 66 78
REMARK SMILES IDX 67 79 68 80 69 81 70 82 49 83 50 84 58 85 51 86 57 87 52 88
REMARK SMILES IDX 53 89 54 90 55 91 56 92
REMARK H PARENT 16 6 1 22 1 23 21 29 77 48 47 59
REMARK Flexibility Score: inf
ROOT
ATOM      1  C   UNL A   1      31.843  29.497  25.644  1.00  0.00     0.023 C 
ENDROOT
BRANCH   1   2
ATOM      2  C   UNL A   1      32.405  29.473  24.221  1.00  0.00     0.116 C 
BRANCH   2   3
ATOM      3  N   UNL A   1      31.328  29.513  23.251  1.00  0.00    -0.352 N 
ATOM      4  C   UNL A   1      30.669  28.545  22.537  1.00  0.00     0.251 C 
ATOM      5  O   UNL A   1      29.792  28.922  21.760  1.00  0.00    -0.269 OA
ATOM      6  H   UNL A   1      31.003  30.423  23.064  1.00  0.00     0.163 HD
BRANCH   4   7
ATOM      7  C   UNL A   1      30.893  27.078  22.705  1.00  0.00     0.043 A 
ATOM      8  C   UNL A   1      32.168  25.031  22.501  1.00  0.00     0.130 A 
ATOM      9  C   UNL A   1      31.291  24.364  23.351  1.00  0.00     0.047 A 
ATOM     10  C   UNL A   1      31.912  26.347  22.100  1.00  0.00     0.061 A 
ATOM     11  C   UNL A   1      30.197  25.046  23.872  1.00  0.00     0.005 A 
ATOM     12  C   UNL A   1      30.018  26.400  23.574  1.00  0.00     0.014 A 
BRANCH   8  13
ATOM     13  O   UNL A   1      33.286  24.361  22.068  1.00  0.00    -0.439 OA
BRANCH  13  14
ATOM     14  C   UNL A   1      34.290  24.117  22.989  1.00  0.00     0.219 A 
ATOM     15  C   UNL A   1      36.339  23.430  24.712  1.00  0.00     0.058 A 
ATOM     16  C   UNL A   1      35.400  24.378  25.113  1.00  0.00     0.021 A 
ATOM     17  C   UNL A   1      36.201  22.888  23.441  1.00  0.00     0.129 A 
ATOM     18  C   UNL A   1      34.353  24.712  24.251  1.00  0.00     0.070 A 
ATOM     19  N   UNL A   1      35.198  23.204  22.580  1.00  0.00    -0.221 NA
BRANCH  15  20
ATOM     20  C   UNL A   1      37.461  22.974  25.562  1.00  0.00     0.250 C 
ATOM     21  N   UNL A   1      37.650  23.608  26.759  1.00  0.00    -0.366 N 
ATOM     22  H   UNL A   1      38.386  23.331  27.352  1.00  0.00     0.159 HD
ATOM     23  H   UNL A   1      37.050  24.340  27.028  1.00  0.00     0.159 HD
ATOM     24  O   UNL A   1      38.170  22.039  25.228  1.00  0.00    -0.269 OA
ENDBRANCH  15  20
ENDBRANCH  13  14
ENDBRANCH   8  13
ENDBRANCH   4   7
ENDBRANCH   2   3
ENDBRANCH   1   2
BRANCH   1  25
ATOM     25  C   UNL A   1      32.365  28.360  26.527  1.00  0.00     0.023 C 
BRANCH  25  26
ATOM     26  C   UNL A   1      33.584  28.713  27.374  1.00  0.00     0.116 C 
BRANCH  26  27
ATOM     27  N   UNL A   1      33.578  30.092  27.846  1.00  0.00    -0.352 N 
ATOM     28  C   UNL A   1      34.605  30.784  28.444  1.00  0.00     0.251 C 
ATOM     29  H   UNL A   1      32.738  30.589  27.720  1.00  0.00     0.163 HD
ATOM     30  O   UNL A   1      34.428  31.913  28.888  1.00  0.00    -0.269 OA
BRANCH  28  31
ATOM     31  C   UNL A   1      35.915  30.120  28.579  1.00  0.00     0.039 A 
ATOM     32  C   UNL A   1      36.762  30.066  27.472  1.00  0.00     0.014 A 
ATOM     33  C   UNL A   1      36.335  29.651  29.827  1.00  0.00     0.014 A 
ATOM     34  C   UNL A   1      38.074  29.620  27.637  1.00  0.00     0.010 A 
ATOM     35  C   UNL A   1      37.661  29.273  30.001  1.00  0.00     0.010 A 
ATOM     36  C   UNL A   1      38.547  29.270  28.912  1.00  0.00    -0.014 A 
BRANCH  36  37
ATOM     37  C   UNL A   1      39.974  28.938  29.147  1.00  0.00     0.031 A 
ATOM     38  C   UNL A   1      40.915  29.989  29.665  1.00  0.00     0.074 A 
ATOM     39  C   UNL A   1      40.438  27.719  28.803  1.00  0.00     0.049 A 
ATOM     40  N   UNL A   1      42.210  29.923  29.835  1.00  0.00    -0.248 NA
ATOM     41  C   UNL A   1      40.329  31.294  30.014  1.00  0.00     0.031 C 
ATOM     42  C   UNL A   1      39.629  26.625  28.258  1.00  0.00     0.029 A 
ATOM     43  N   UNL A   1      41.707  27.198  28.847  1.00  0.00    -0.354 N 
ATOM     44  C   UNL A   1      42.597  31.179  30.286  1.00  0.00     0.074 A 
ATOM     45  C   UNL A   1      41.406  32.000  30.326  1.00  0.00     0.031 C 
ATOM     46  C   UNL A   1      40.417  25.559  28.045  1.00  0.00     0.029 A 
ATOM     47  C   UNL A   1      41.792  25.906  28.384  1.00  0.00     0.049 A 
ATOM     48  H   UNL A   1      42.484  27.703  29.179  1.00  0.00     0.167 HD
ATOM     49  C   UNL A   1      43.830  31.606  30.644  1.00  0.00     0.031 A 
ATOM     50  C   UNL A   1      42.858  25.096  28.235  1.00  0.00     0.031 A 
ATOM     51  C   UNL A   1      45.007  30.779  30.614  1.00  0.00     0.049 A 
ATOM     52  C   UNL A   1      44.222  25.607  28.614  1.00  0.00     0.074 A 
ATOM     53  C   UNL A   1      46.289  31.097  31.029  1.00  0.00     0.029 A 
ATOM     54  N   UNL A   1      45.051  29.477  30.139  1.00  0.00    -0.354 N 
ATOM     55  N   UNL A   1      44.556  26.773  29.113  1.00  0.00    -0.248 NA
ATOM     56  C   UNL A   1      45.355  24.691  28.409  1.00  0.00     0.031 C 
ATOM     57  C   UNL A   1      47.121  30.011  30.742  1.00  0.00     0.029 A 
ATOM     58  C   UNL A   1      46.346  28.993  30.210  1.00  0.00     0.049 A 
ATOM     59  H   UNL A   1      44.277  28.973  29.799  1.00  0.00     0.167 HD
ATOM     60  C   UNL A   1      45.932  26.721  29.306  1.00  0.00     0.074 A 
ATOM     61  C   UNL A   1      46.365  25.404  28.887  1.00  0.00     0.031 C 
ATOM     62  C   UNL A   1      46.762  27.679  29.789  1.00  0.00     0.031 A 
BRANCH  49  63
ATOM     63  C   UNL A   1      43.977  33.037  31.087  1.00  0.00    -0.014 A 
ATOM     64  C   UNL A   1      44.274  34.060  30.168  1.00  0.00     0.010 A 
ATOM     65  C   UNL A   1      43.757  33.372  32.436  1.00  0.00     0.010 A 
ATOM     66  C   UNL A   1      44.384  35.385  30.596  1.00  0.00     0.020 A 
ATOM     67  C   UNL A   1      43.837  34.701  32.862  1.00  0.00     0.020 A 
ATOM     68  C   UNL A   1      44.164  35.698  31.942  1.00  0.00     0.054 A 
BRANCH  68  69
ATOM     69  S   UNL A   1      44.277  37.432  32.461  1.00  0.00     0.124 S 
ATOM     70  O   UNL A   1      43.290  37.489  33.537  1.00  0.00    -0.237 OA
ATOM     71  O   UNL A   1      45.671  37.548  32.881  1.00  0.00    -0.237 OA
ATOM     72  O   UNL A   1      43.928  38.179  31.255  1.00  0.00    -0.744 OA
ENDBRANCH  68  69
ENDBRANCH  49  63
BRANCH  50  73
ATOM     73  C   UNL A   1      42.684  23.714  27.704  1.00  0.00    -0.014 A 
ATOM     74  C   UNL A   1      42.644  23.485  26.318  1.00  0.00     0.010 A 
ATOM     75  C   UNL A   1      42.553  22.621  28.580  1.00  0.00     0.010 A 
ATOM     76  C   UNL A   1      42.451  22.195  25.817  1.00  0.00     0.020 A 
ATOM     77  C   UNL A   1      42.391  21.324  28.083  1.00  0.00     0.020 A 
ATOM     78  C   UNL A   1      42.327  21.122  26.704  1.00  0.00     0.054 A 
BRANCH  78  79
ATOM     79  S   UNL A   1      42.115  19.451  26.029  1.00  0.00     0.124 S 
ATOM     80  O   UNL A   1      42.962  19.493  24.843  1.00  0.00    -0.237 OA
ATOM     81  O   UNL A   1      42.595  18.607  27.121  1.00  0.00    -0.237 OA
ATOM     82  O   UNL A   1      40.679  19.366  25.772  1.00  0.00    -0.744 OA
ENDBRANCH  78  79
ENDBRANCH  50  73
BRANCH  62  83
ATOM     83  C   UNL A   1      48.222  27.335  29.915  1.00  0.00    -0.014 A 
ATOM     84  C   UNL A   1      49.155  27.753  28.950  1.00  0.00     0.010 A 
ATOM     85  C   UNL A   1      48.676  26.645  31.055  1.00  0.00     0.010 A 
ATOM     86  C   UNL A   1      50.514  27.468  29.112  1.00  0.00     0.020 A 
ATOM     87  C   UNL A   1      50.037  26.386  31.235  1.00  0.00     0.020 A 
ATOM     88  C   UNL A   1      50.946  26.790  30.257  1.00  0.00     0.054 A 
BRANCH  88  89
ATOM     89  S   UNL A   1      52.722  26.490  30.472  1.00  0.00     0.124 S 
ATOM     90  O   UNL A   1      53.114  26.018  29.147  1.00  0.00    -0.237 OA
ATOM     91  O   UNL A   1      53.227  27.810  30.842  1.00  0.00    -0.237 OA
ATOM     92  O   UNL A   1      52.778  25.488  31.533  1.00  0.00    -0.744 OA
ENDBRANCH  88  89
ENDBRANCH  62  83
ENDBRANCH  36  37
ENDBRANCH  28  31
ENDBRANCH  26  27
ENDBRANCH  25  26
ENDBRANCH   1  25
TORSDOF 17
ENDMDL
MODEL 2
REMARK VINA RESULT:     -11.2      1.766      2.440
REMARK SMILES NC(=O)c1ccc(Oc2cccc(C(=O)NCCCCNC(=O)c3ccc(-c4c5nc(c(-c6ccc(S(=O)(=O)[O-])cc6)c6ccc([nH]6)c(-c6ccc(S(=O)(=O)[O-])cc6)c6nc(c(-c7ccc(S(=O)(=O)[O-])cc7)c7ccc4[nH]7)C=C6)C=C5)cc3)c2)nc1
REMARK SMILES IDX 18 1 17 2 16 3 14 4 15 5 13 7 9 8 10 9 84 10 11 11 12 12
REMARK SMILES IDX 8 13 7 14 4 15 5 16 86 17 6 18 85 19 2 20 1 21 3 24 19 25
REMARK SMILES IDX 20 26 21 27 22 28 23 30 24 31 25 32 83 33 26 34 82 35 27 36
REMARK SMILES IDX 28 37 29 38 76 39 30 40 81 41 75 42 77 43 31 44 80 45 74 46
REMARK SMILES IDX 73 47 32 49 62 50 43 51 61 52 44 53 47 54 60 55 78 56 45 57
REMARK SMILES IDX 46 58 59 60 79 61 48 62 33 63 34 64 42 65 35 66 41 67 36 68
REMARK SMILES IDX 37 69 38 70 39 71 40 72 63 73 64 74 72 75 65 76 71 77 66 78
REMARK SMILES IDX 67 79 68 80 69 81 70 82 49 83 50 84 58 85 51 86 57 87 52 88
REMARK SMILES IDX 53 89 54 90 55 91 56 92
REMARK H PARENT 16 6 1 22 1 23 21 29 77 48 47 59
REMARK Flexibility Score: inf
ROOT
ATOM      1  C   UNL A   1      32.912  29.433  25.025  1.00  0.00     0.023 C 
ENDROOT
BRANCH   1   2
ATOM      2  C   UNL A   1      33.255  29.189  23.553  1.00  0.00     0.116 C 
BRANCH   2   3
ATOM      3  N   UNL A   1      32.046  29.009  22.774  1.00  0.00    -0.352 N 
ATOM      4  C   UNL A   1      31.157  27.974  22.643  1.00  0.00     0.251 C 
ATOM      5  O   UNL A   1      30.219  28.137  21.863  1.00  0.00    -0.269 OA
ATOM      6  H   UNL A   1      31.816  29.792  22.224  1.00  0.00     0.163 HD
BRANCH   4   7
ATOM      7  C   UNL A   1      31.213  26.713  23.441  1.00  0.00     0.043 A 
ATOM      8  C   UNL A   1      32.247  24.662  24.206  1.00  0.00     0.130 A 
ATOM      9  C   UNL A   1      31.301  24.526  25.217  1.00  0.00     0.047 A 
ATOM     10  C   UNL A   1      32.142  25.690  23.262  1.00  0.00     0.061 A 
ATOM     11  C   UNL A   1      30.292  25.475  25.337  1.00  0.00     0.005 A 
ATOM     12  C   UNL A   1      30.268  26.574  24.474  1.00  0.00     0.014 A 
BRANCH   8  13
ATOM     13  O   UNL A   1      33.282  23.759  24.160  1.00  0.00    -0.439 OA
BRANCH  13  14
ATOM     14  C   UNL A   1      32.977  22.445  23.850  1.00  0.00     0.219 A 
ATOM     15  C   UNL A   1      32.547  19.757  23.373  1.00  0.00     0.058 A 
ATOM     16  C   UNL A   1      32.021  20.698  22.490  1.00  0.00     0.021 A 
ATOM     17  C   UNL A   1      33.253  20.230  24.471  1.00  0.00     0.129 A 
ATOM     18  C   UNL A   1      32.255  22.057  22.720  1.00  0.00     0.070 A 
ATOM     19  N   UNL A   1      33.484  21.545  24.721  1.00  0.00    -0.221 NA
BRANCH  15  20
ATOM     20  C   UNL A   1      32.396  18.295  23.201  1.00  0.00     0.250 C 
ATOM     21  N   UNL A   1      32.075  17.555  24.306  1.00  0.00    -0.366 N 
ATOM     22  H   UNL A   1      31.965  16.579  24.231  1.00  0.00     0.159 HD
ATOM     23  H   UNL A   1      31.954  17.998  25.177  1.00  0.00     0.159 HD
ATOM     24  O   UNL A   1      32.512  17.770  22.106  1.00  0.00    -0.269 OA
ENDBRANCH  15  20
ENDBRANCH  13  14
ENDBRANCH   8  13
ENDBRANCH   4   7
ENDBRANCH   2   3
ENDBRANCH   1   2
BRANCH   1  25
ATOM     25  C   UNL A   1      33.423  28.336  25.962  1.00  0.00     0.023 C 
BRANCH  25  26
ATOM     26  C   UNL A   1      33.492  28.732  27.435  1.00  0.00     0.116 C 
BRANCH  26  27
ATOM     27  N   UNL A   1      33.571  30.171  27.642  1.00  0.00    -0.352 N 
ATOM     28  C   UNL A   1      34.642  30.901  28.103  1.00  0.00     0.251 C 
ATOM     29  H   UNL A   1      32.760  30.685  27.425  1.00  0.00     0.163 HD
ATOM     30  O   UNL A   1      34.534  32.101  28.330  1.00  0.00    -0.269 OA
BRANCH  28  31
ATOM     31  C   UNL A   1      35.912  30.198  28.362  1.00  0.00     0.039 A 
ATOM     32  C   UNL A   1      36.905  30.214  27.382  1.00  0.00     0.014 A 
ATOM     33  C   UNL A   1      36.148  29.620  29.613  1.00  0.00     0.014 A 
ATOM     34  C   UNL A   1      38.175  29.725  27.688  1.00  0.00     0.010 A 
ATOM     35  C   UNL A   1      37.432  29.198  29.936  1.00  0.00     0.010 A 
ATOM     36  C   UNL A   1      38.462  29.263  28.983  1.00  0.00    -0.014 A 
BRANCH  36  37
ATOM     37  C   UNL A   1      39.838  28.879  29.384  1.00  0.00     0.031 A 
ATOM     38  C   UNL A   1      40.711  29.864  30.112  1.00  0.00     0.074 A 
ATOM     39  C   UNL A   1      40.330  27.681  29.008  1.00  0.00     0.049 A 
ATOM     40  N   UNL A   1      41.969  29.754  30.451  1.00  0.00    -0.248 NA
ATOM     41  C   UNL A   1      40.097  31.149  30.483  1.00  0.00     0.031 C 
ATOM     42  C   UNL A   1      39.592  26.653  28.269  1.00  0.00     0.029 A 
ATOM     43  N   UNL A   1      41.575  27.129  29.183  1.00  0.00    -0.354 N 
ATOM     44  C   UNL A   1      42.304  30.960  31.054  1.00  0.00     0.074 A 
ATOM     45  C   UNL A   1      41.129  31.803  30.997  1.00  0.00     0.031 C 
ATOM     46  C   UNL A   1      40.388  25.589  28.079  1.00  0.00     0.029 A 
ATOM     47  C   UNL A   1      41.707  25.876  28.632  1.00  0.00     0.049 A 
ATOM     48  H   UNL A   1      42.304  27.587  29.659  1.00  0.00     0.167 HD
ATOM     49  C   UNL A   1      43.481  31.328  31.612  1.00  0.00     0.031 A 
ATOM     50  C   UNL A   1      42.773  25.055  28.565  1.00  0.00     0.031 A 
ATOM     51  C   UNL A   1      44.640  30.478  31.677  1.00  0.00     0.049 A 
ATOM     52  C   UNL A   1      44.078  25.502  29.168  1.00  0.00     0.074 A 
ATOM     53  C   UNL A   1      45.855  30.732  32.288  1.00  0.00     0.029 A 
ATOM     54  N   UNL A   1      44.734  29.218  31.106  1.00  0.00    -0.354 N 
ATOM     55  N   UNL A   1      44.353  26.617  29.803  1.00  0.00    -0.248 NA
ATOM     56  C   UNL A   1      45.217  24.580  29.046  1.00  0.00     0.031 C 
ATOM     57  C   UNL A   1      46.707  29.654  32.030  1.00  0.00     0.029 A 
ATOM     58  C   UNL A   1      46.000  28.699  31.315  1.00  0.00     0.049 A 
ATOM     59  H   UNL A   1      44.008  28.761  30.623  1.00  0.00     0.167 HD
ATOM     60  C   UNL A   1      45.689  26.517  30.179  1.00  0.00     0.074 A 
ATOM     61  C   UNL A   1      46.160  25.228  29.716  1.00  0.00     0.031 C 
ATOM     62  C   UNL A   1      46.455  27.414  30.848  1.00  0.00     0.031 A 
BRANCH  49  63
ATOM     63  C   UNL A   1      43.582  32.715  32.187  1.00  0.00    -0.014 A 
ATOM     64  C   UNL A   1      43.205  32.986  33.514  1.00  0.00     0.010 A 
ATOM     65  C   UNL A   1      44.117  33.754  31.402  1.00  0.00     0.010 A 
ATOM     66  C   UNL A   1      43.328  34.277  34.035  1.00  0.00     0.020 A 
ATOM     67  C   UNL A   1      44.269  35.039  31.929  1.00  0.00     0.020 A 
ATOM     68  C   UNL A   1      43.860  35.296  33.238  1.00  0.00     0.054 A 
BRANCH  68  69
ATOM     69  S   UNL A   1      44.041  36.953  33.954  1.00  0.00     0.124 S 
ATOM     70  O   UNL A   1      45.488  37.150  33.894  1.00  0.00    -0.237 OA
ATOM     71  O   UNL A   1      43.256  37.781  33.041  1.00  0.00    -0.237 OA
ATOM     72  O   UNL A   1      43.487  36.813  35.298  1.00  0.00    -0.744 OA
ENDBRANCH  68  69
ENDBRANCH  49  63
BRANCH  50  73
ATOM     73  C   UNL A   1      42.658  23.725  27.903  1.00  0.00    -0.014 A 
ATOM     74  C   UNL A   1      42.221  22.604  28.631  1.00  0.00     0.010 A 
ATOM     75  C   UNL A   1      42.989  23.570  26.545  1.00  0.00     0.010 A 
ATOM     76  C   UNL A   1      42.141  21.350  28.021  1.00  0.00     0.020 A 
ATOM     77  C   UNL A   1      42.880  22.322  25.922  1.00  0.00     0.020 A 
ATOM     78  C   UNL A   1      42.470  21.217  26.669  1.00  0.00     0.054 A 
BRANCH  78  79
ATOM     79  S   UNL A   1      42.322  19.585  25.890  1.00  0.00     0.124 S 
ATOM     80  O   UNL A   1      40.930  19.583  25.452  1.00  0.00    -0.237 OA
ATOM     81  O   UNL A   1      43.321  19.653  24.825  1.00  0.00    -0.237 OA
ATOM     82  O   UNL A   1      42.639  18.658  26.974  1.00  0.00    -0.744 OA
ENDBRANCH  78  79
ENDBRANCH  50  73
BRANCH  62  83
ATOM     83  C   UNL A   1      47.879  27.027  31.146  1.00  0.00    -0.014 A 
ATOM     84  C   UNL A   1      48.208  26.291  32.297  1.00  0.00     0.010 A 
ATOM     85  C   UNL A   1      48.892  27.344  30.221  1.00  0.00     0.010 A 
ATOM     86  C   UNL A   1      49.528  25.897  32.530  1.00  0.00     0.020 A 
ATOM     87  C   UNL A   1      50.207  26.925  30.435  1.00  0.00     0.020 A 
ATOM     88  C   UNL A   1      50.519  26.212  31.594  1.00  0.00     0.054 A 
BRANCH  88  89
ATOM     89  S   UNL A   1      52.212  25.634  31.889  1.00  0.00     0.124 S 
ATOM     90  O   UNL A   1      52.622  26.457  33.024  1.00  0.00    -0.237 OA
ATOM     91  O   UNL A   1      52.018  24.215  32.181  1.00  0.00    -0.237 OA
ATOM     92  O   UNL A   1      52.900  25.917  30.632  1.00  0.00    -0.744 OA
ENDBRANCH  88  89
ENDBRANCH  62  83
ENDBRANCH  36  37
ENDBRANCH  28  31
ENDBRANCH  26  27
ENDBRANCH  25  26
ENDBRANCH   1  25
TORSDOF 17
ENDMDL
MODEL 3
REMARK VINA RESULT:     -10.4      2.642      3.451
REMARK SMILES NC(=O)c1ccc(Oc2cccc(C(=O)NCCCCNC(=O)c3ccc(-c4c5nc(c(-c6ccc(S(=O)(=O)[O-])cc6)c6ccc([nH]6)c(-c6ccc(S(=O)(=O)[O-])cc6)c6nc(c(-c7ccc(S(=O)(=O)[O-])cc7)c7ccc4[nH]7)C=C6)C=C5)cc3)c2)nc1
REMARK SMILES IDX 18 1 17 2 16 3 14 4 15 5 13 7 9 8 10 9 84 10 11 11 12 12
REMARK SMILES IDX 8 13 7 14 4 15 5 16 86 17 6 18 85 19 2 20 1 21 3 24 19 25
REMARK SMILES IDX 20 26 21 27 22 28 23 30 24 31 25 32 83 33 26 34 82 35 27 36
REMARK SMILES IDX 28 37 29 38 76 39 30 40 81 41 75 42 77 43 31 44 80 45 74 46
REMARK SMILES IDX 73 47 32 49 62 50 43 51 61 52 44 53 47 54 60 55 78 56 45 57
REMARK SMILES IDX 46 58 59 60 79 61 48 62 33 63 34 64 42 65 35 66 41 67 36 68
REMARK SMILES IDX 37 69 38 70 39 71 40 72 63 73 64 74 72 75 65 76 71 77 66 78
REMARK SMILES IDX 67 79 68 80 69 81 70 82 49 83 50 84 58 85 51 86 57 87 52 88
REMARK SMILES IDX 53 89 54 90 55 91 56 92
REMARK H PARENT 16 6 1 22 1 23 21 29 77 48 47 59
REMARK Flexibility Score: inf
ROOT
ATOM      1  C   UNL A   1      35.234  29.508  27.156  1.00  0.00     0.023 C 
ENDROOT
BRANCH   1   2
ATOM      2  C   UNL A   1      34.111  28.774  26.420  1.00  0.00     0.116 C 
BRANCH   2   3
ATOM      3  N   UNL A   1      32.975  28.575  27.298  1.00  0.00    -0.352 N 
ATOM      4  C   UNL A   1      31.854  27.789  27.222  1.00  0.00     0.251 C 
ATOM      5  O   UNL A   1      31.051  27.869  28.152  1.00  0.00    -0.269 OA
ATOM      6  H   UNL A   1      33.016  29.117  28.119  1.00  0.00     0.163 HD
BRANCH   4   7
ATOM      7  C   UNL A   1      31.596  26.797  26.137  1.00  0.00     0.043 A 
ATOM      8  C   UNL A   1      31.533  24.572  25.188  1.00  0.00     0.130 A 
ATOM      9  C   UNL A   1      30.789  25.021  24.102  1.00  0.00     0.047 A 
ATOM     10  C   UNL A   1      32.021  25.471  26.143  1.00  0.00     0.061 A 
ATOM     11  C   UNL A   1      30.456  26.369  24.016  1.00  0.00     0.005 A 
ATOM     12  C   UNL A   1      30.832  27.242  25.041  1.00  0.00     0.014 A 
BRANCH   8  13
ATOM     13  O   UNL A   1      31.777  23.223  25.293  1.00  0.00    -0.439 OA
BRANCH  13  14
ATOM     14  C   UNL A   1      33.076  22.785  25.099  1.00  0.00     0.219 A 
ATOM     15  C   UNL A   1      35.662  21.826  24.932  1.00  0.00     0.058 A 
ATOM     16  C   UNL A   1      35.235  22.795  24.026  1.00  0.00     0.021 A 
ATOM     17  C   UNL A   1      34.744  21.375  25.870  1.00  0.00     0.129 A 
ATOM     18  C   UNL A   1      33.934  23.296  24.123  1.00  0.00     0.070 A 
ATOM     19  N   UNL A   1      33.470  21.838  25.977  1.00  0.00    -0.221 NA
BRANCH  15  20
ATOM     20  C   UNL A   1      37.029  21.260  24.945  1.00  0.00     0.250 C 
ATOM     21  N   UNL A   1      38.078  22.135  25.033  1.00  0.00    -0.366 N 
ATOM     22  H   UNL A   1      39.002  21.795  25.046  1.00  0.00     0.159 HD
ATOM     23  H   UNL A   1      37.908  23.103  25.084  1.00  0.00     0.159 HD
ATOM     24  O   UNL A   1      37.218  20.055  24.921  1.00  0.00    -0.269 OA
ENDBRANCH  15  20
ENDBRANCH  13  14
ENDBRANCH   8  13
ENDBRANCH   4   7
ENDBRANCH   2   3
ENDBRANCH   1   2
BRANCH   1  25
ATOM     25  C   UNL A   1      34.839  30.908  27.635  1.00  0.00     0.023 C 
BRANCH  25  26
ATOM     26  C   UNL A   1      35.789  31.527  28.657  1.00  0.00     0.116 C 
BRANCH  26  27
ATOM     27  N   UNL A   1      35.603  31.009  30.005  1.00  0.00    -0.352 N 
ATOM     28  C   UNL A   1      36.539  30.416  30.820  1.00  0.00     0.251 C 
ATOM     29  H   UNL A   1      34.697  31.096  30.381  1.00  0.00     0.163 HD
ATOM     30  O   UNL A   1      36.217  29.929  31.898  1.00  0.00    -0.269 OA
BRANCH  28  31
ATOM     31  C   UNL A   1      37.933  30.338  30.346  1.00  0.00     0.039 A 
ATOM     32  C   UNL A   1      38.969  30.466  31.271  1.00  0.00     0.014 A 
ATOM     33  C   UNL A   1      38.201  30.032  29.008  1.00  0.00     0.014 A 
ATOM     34  C   UNL A   1      40.279  30.200  30.872  1.00  0.00     0.010 A 
ATOM     35  C   UNL A   1      39.497  29.700  28.631  1.00  0.00     0.010 A 
ATOM     36  C   UNL A   1      40.545  29.764  29.563  1.00  0.00    -0.014 A 
BRANCH  36  37
ATOM     37  C   UNL A   1      41.902  29.328  29.151  1.00  0.00     0.031 A 
ATOM     38  C   UNL A   1      43.024  30.326  29.080  1.00  0.00     0.074 A 
ATOM     39  C   UNL A   1      42.097  28.055  28.751  1.00  0.00     0.049 A 
ATOM     40  N   UNL A   1      44.246  30.161  28.645  1.00  0.00    -0.248 NA
ATOM     41  C   UNL A   1      42.726  31.695  29.533  1.00  0.00     0.031 C 
ATOM     42  C   UNL A   1      41.078  27.001  28.742  1.00  0.00     0.029 A 
ATOM     43  N   UNL A   1      43.218  27.431  28.260  1.00  0.00    -0.354 N 
ATOM     44  C   UNL A   1      44.855  31.405  28.749  1.00  0.00     0.074 A 
ATOM     45  C   UNL A   1      43.857  32.325  29.251  1.00  0.00     0.031 C 
ATOM     46  C   UNL A   1      41.628  25.860  28.295  1.00  0.00     0.029 A 
ATOM     47  C   UNL A   1      43.019  26.110  27.935  1.00  0.00     0.049 A 
ATOM     48  H   UNL A   1      44.083  27.889  28.151  1.00  0.00     0.167 HD
ATOM     49  C   UNL A   1      46.133  31.748  28.463  1.00  0.00     0.031 A 
ATOM     50  C   UNL A   1      43.856  25.204  27.393  1.00  0.00     0.031 A 
ATOM     51  C   UNL A   1      47.123  30.823  27.977  1.00  0.00     0.049 A 
ATOM     52  C   UNL A   1      45.263  25.621  27.057  1.00  0.00     0.074 A 
ATOM     53  C   UNL A   1      48.464  31.057  27.729  1.00  0.00     0.029 A 
ATOM     54  N   UNL A   1      46.881  29.495  27.660  1.00  0.00    -0.354 N 
ATOM     55  N   UNL A   1      45.844  26.784  27.235  1.00  0.00    -0.248 NA
ATOM     56  C   UNL A   1      46.129  24.601  26.445  1.00  0.00     0.031 C 
ATOM     57  C   UNL A   1      49.019  29.888  27.198  1.00  0.00     0.029 A 
ATOM     58  C   UNL A   1      48.039  28.908  27.178  1.00  0.00     0.049 A 
ATOM     59  H   UNL A   1      46.016  29.038  27.761  1.00  0.00     0.167 HD
ATOM     60  C   UNL A   1      47.150  26.627  26.783  1.00  0.00     0.074 A 
ATOM     61  C   UNL A   1      47.278  25.254  26.339  1.00  0.00     0.031 C 
ATOM     62  C   UNL A   1      48.152  27.540  26.740  1.00  0.00     0.031 A 
BRANCH  49  63
ATOM     63  C   UNL A   1      46.533  33.186  28.651  1.00  0.00    -0.014 A 
ATOM     64  C   UNL A   1      46.283  34.151  27.659  1.00  0.00     0.010 A 
ATOM     65  C   UNL A   1      47.120  33.589  29.865  1.00  0.00     0.010 A 
ATOM     66  C   UNL A   1      46.642  35.485  27.863  1.00  0.00     0.020 A 
ATOM     67  C   UNL A   1      47.454  34.928  30.085  1.00  0.00     0.020 A 
ATOM     68  C   UNL A   1      47.226  35.866  29.077  1.00  0.00     0.054 A 
BRANCH  68  69
ATOM     69  S   UNL A   1      47.649  37.612  29.327  1.00  0.00     0.124 S 
ATOM     70  O   UNL A   1      46.450  38.120  29.988  1.00  0.00    -0.237 OA
ATOM     71  O   UNL A   1      48.843  37.533  30.165  1.00  0.00    -0.237 OA
ATOM     72  O   UNL A   1      47.873  38.113  27.973  1.00  0.00    -0.744 OA
ENDBRANCH  68  69
ENDBRANCH  49  63
BRANCH  50  73
ATOM     73  C   UNL A   1      43.393  23.812  27.134  1.00  0.00    -0.014 A 
ATOM     74  C   UNL A   1      43.165  23.372  25.818  1.00  0.00     0.010 A 
ATOM     75  C   UNL A   1      43.172  22.921  28.199  1.00  0.00     0.010 A 
ATOM     76  C   UNL A   1      42.702  22.077  25.574  1.00  0.00     0.020 A 
ATOM     77  C   UNL A   1      42.739  21.613  27.957  1.00  0.00     0.020 A 
ATOM     78  C   UNL A   1      42.493  21.204  26.646  1.00  0.00     0.054 A 
BRANCH  78  79
ATOM     79  S   UNL A   1      41.927  19.515  26.301  1.00  0.00     0.124 S 
ATOM     80  O   UNL A   1      42.389  18.794  27.481  1.00  0.00    -0.237 OA
ATOM     81  O   UNL A   1      40.481  19.685  26.188  1.00  0.00    -0.237 OA
ATOM     82  O   UNL A   1      42.607  19.176  25.052  1.00  0.00    -0.744 OA
ENDBRANCH  78  79
ENDBRANCH  50  73
BRANCH  62  83
ATOM     83  C   UNL A   1      49.488  27.082  26.218  1.00  0.00    -0.014 A 
ATOM     84  C   UNL A   1      50.397  26.399  27.045  1.00  0.00     0.010 A 
ATOM     85  C   UNL A   1      49.806  27.276  24.861  1.00  0.00     0.010 A 
ATOM     86  C   UNL A   1      51.610  25.936  26.528  1.00  0.00     0.020 A 
ATOM     87  C   UNL A   1      51.004  26.788  24.334  1.00  0.00     0.020 A 
ATOM     88  C   UNL A   1      51.904  26.130  25.174  1.00  0.00     0.054 A 
BRANCH  88  89
ATOM     89  S   UNL A   1      53.457  25.464  24.516  1.00  0.00     0.124 S 
ATOM     90  O   UNL A   1      53.390  24.066  24.932  1.00  0.00    -0.237 OA
ATOM     91  O   UNL A   1      53.323  25.699  23.080  1.00  0.00    -0.237 OA
ATOM     92  O   UNL A   1      54.485  26.263  25.178  1.00  0.00    -0.744 OA
ENDBRANCH  88  89
ENDBRANCH  62  83
ENDBRANCH  36  37
ENDBRANCH  28  31
ENDBRANCH  26  27
ENDBRANCH  25  26
ENDBRANCH   1  25
TORSDOF 17
ENDMDL
