MODEL 1
REMARK VINA RESULT:      -9.5      0.000      0.000
REMARK SMILES CC(=O)Oc1ccc(Br)cc1C(=O)NCC(=O)NCCCCNC(=O)c1ccc(-c2c3nc(c(-c4ccc(S(=O)(=O)[O-])cc4)c4ccc([nH]4)c(-c4ccc(S(=O)(=O)[O-])cc4)c4nc(c(-c5ccc(S(=O)(=O)[O-])cc5)c5ccc2[nH]5)C=C4)C=C3)cc1
REMARK SMILES IDX 20 1 19 2 18 3 16 4 17 5 15 7 14 8 12 9 13 10 11 12 5 13
REMARK SMILES IDX 6 14 7 15 10 16 8 17 9 18 4 19 2 20 1 21 3 22 21 23 22 24
REMARK SMILES IDX 23 25 24 26 25 28 26 29 27 30 85 31 28 32 84 33 29 34 30 35
REMARK SMILES IDX 31 36 78 37 32 38 83 39 77 40 79 41 33 42 82 43 76 44 75 45
REMARK SMILES IDX 34 47 64 48 45 49 63 50 46 51 49 52 62 53 80 54 47 55 48 56
REMARK SMILES IDX 61 58 81 59 50 60 35 61 36 62 44 63 37 64 43 65 38 66 39 67
REMARK SMILES IDX 40 68 41 69 42 70 65 71 66 72 74 73 67 74 73 75 68 76 69 77
REMARK SMILES IDX 70 78 71 79 72 80 51 81 52 82 60 83 53 84 59 85 54 86 55 87
REMARK SMILES IDX 56 88 57 89 58 90
REMARK H PARENT 18 6 14 11 23 27 79 46 49 57
REMARK Flexibility Score: inf
ROOT
ATOM      1  C   UNL A   1      42.308  20.320  26.589  1.00  0.00     0.023 C 
ENDROOT
BRANCH   1   2
ATOM      2  C   UNL A   1      43.191  19.610  25.573  1.00  0.00     0.116 C 
BRANCH   2   3
ATOM      3  N   UNL A   1      44.586  19.989  25.668  1.00  0.00    -0.355 N 
ATOM      4  C   UNL A   1      45.307  20.942  25.020  1.00  0.00     0.239 C 
ATOM      5  O   UNL A   1      46.442  21.167  25.460  1.00  0.00    -0.273 OA
ATOM      6  H   UNL A   1      45.105  19.462  26.318  1.00  0.00     0.163 HD
BRANCH   4   7
ATOM      7  C   UNL A   1      44.743  21.850  23.916  1.00  0.00     0.216 C 
BRANCH   7   8
ATOM      8  N   UNL A   1      43.860  22.937  24.274  1.00  0.00    -0.343 N 
ATOM      9  C   UNL A   1      43.909  24.057  25.047  1.00  0.00     0.255 C 
ATOM     10  O   UNL A   1      42.933  24.799  24.879  1.00  0.00    -0.269 OA
ATOM     11  H   UNL A   1      42.982  22.841  23.839  1.00  0.00     0.164 HD
BRANCH   9  12
ATOM     12  C   UNL A   1      44.930  24.461  26.080  1.00  0.00     0.083 A 
ATOM     13  C   UNL A   1      45.196  23.957  27.366  1.00  0.00     0.143 A 
ATOM     14  C   UNL A   1      46.217  24.517  28.165  1.00  0.00     0.049 A 
ATOM     15  C   UNL A   1      46.926  25.640  27.748  1.00  0.00     0.019 A 
ATOM     16  C   UNL A   1      45.678  25.602  25.688  1.00  0.00     0.033 A 
ATOM     17  C   UNL A   1      46.644  26.186  26.510  1.00  0.00     0.019 A 
ATOM     18  Br  UNL A   1      47.559  27.736  25.934  1.00  0.00    -0.051 Br
BRANCH  13  19
ATOM     19  O   UNL A   1      44.521  22.852  27.915  1.00  0.00    -0.426 OA
BRANCH  19  20
ATOM     20  C   UNL A   1      43.705  23.074  29.031  1.00  0.00     0.308 C 
ATOM     21  C   UNL A   1      42.333  23.499  28.594  1.00  0.00     0.139 C 
ATOM     22  O   UNL A   1      44.051  22.985  30.201  1.00  0.00    -0.252 OA
ENDBRANCH  19  20
ENDBRANCH  13  19
ENDBRANCH   9  12
ENDBRANCH   7   8
ENDBRANCH   4   7
ENDBRANCH   2   3
ENDBRANCH   1   2
BRANCH   1  23
ATOM     23  C   UNL A   1      41.269  21.246  25.958  1.00  0.00     0.023 C 
BRANCH  23  24
ATOM     24  C   UNL A   1      40.068  21.577  26.844  1.00  0.00     0.116 C 
BRANCH  24  25
ATOM     25  N   UNL A   1      38.917  22.058  26.094  1.00  0.00    -0.352 N 
ATOM     26  C   UNL A   1      38.372  23.324  26.071  1.00  0.00     0.251 C 
ATOM     27  H   UNL A   1      38.467  21.390  25.529  1.00  0.00     0.163 HD
ATOM     28  O   UNL A   1      37.322  23.535  25.483  1.00  0.00    -0.269 OA
BRANCH  26  29
ATOM     29  C   UNL A   1      39.055  24.416  26.799  1.00  0.00     0.039 A 
ATOM     30  C   UNL A   1      39.904  25.270  26.092  1.00  0.00     0.014 A 
ATOM     31  C   UNL A   1      38.824  24.621  28.163  1.00  0.00     0.014 A 
ATOM     32  C   UNL A   1      40.460  26.377  26.735  1.00  0.00     0.010 A 
ATOM     33  C   UNL A   1      39.322  25.763  28.783  1.00  0.00     0.010 A 
ATOM     34  C   UNL A   1      40.140  26.658  28.075  1.00  0.00    -0.014 A 
BRANCH  34  35
ATOM     35  C   UNL A   1      40.631  27.893  28.740  1.00  0.00     0.031 A 
ATOM     36  C   UNL A   1      42.033  27.960  29.280  1.00  0.00     0.074 A 
ATOM     37  C   UNL A   1      39.790  28.931  28.917  1.00  0.00     0.049 A 
ATOM     38  N   UNL A   1      42.620  28.933  29.930  1.00  0.00    -0.248 NA
ATOM     39  C   UNL A   1      42.880  26.772  29.086  1.00  0.00     0.031 C 
ATOM     40  C   UNL A   1      38.390  28.974  28.484  1.00  0.00     0.029 A 
ATOM     41  N   UNL A   1      39.987  30.152  29.515  1.00  0.00    -0.354 N 
ATOM     42  C   UNL A   1      43.894  28.471  30.235  1.00  0.00     0.074 A 
ATOM     43  C   UNL A   1      43.980  27.114  29.742  1.00  0.00     0.031 C 
ATOM     44  C   UNL A   1      37.866  30.169  28.804  1.00  0.00     0.029 A 
ATOM     45  C   UNL A   1      38.875  30.961  29.499  1.00  0.00     0.049 A 
ATOM     46  H   UNL A   1      40.843  30.422  29.917  1.00  0.00     0.167 HD
ATOM     47  C   UNL A   1      44.909  29.123  30.852  1.00  0.00     0.031 A 
ATOM     48  C   UNL A   1      38.684  32.201  29.991  1.00  0.00     0.031 A 
ATOM     49  C   UNL A   1      44.826  30.477  31.331  1.00  0.00     0.049 A 
ATOM     50  C   UNL A   1      39.825  32.904  30.675  1.00  0.00     0.074 A 
ATOM     51  C   UNL A   1      45.818  31.244  31.917  1.00  0.00     0.029 A 
ATOM     52  N   UNL A   1      43.687  31.267  31.284  1.00  0.00    -0.354 N 
ATOM     53  N   UNL A   1      41.045  32.474  30.891  1.00  0.00    -0.248 NA
ATOM     54  C   UNL A   1      39.567  34.263  31.168  1.00  0.00     0.031 C 
ATOM     55  C   UNL A   1      45.266  32.480  32.269  1.00  0.00     0.029 A 
ATOM     56  C   UNL A   1      43.944  32.504  31.850  1.00  0.00     0.049 A 
ATOM     57  H   UNL A   1      42.823  30.988  30.904  1.00  0.00     0.167 HD
ATOM     58  C   UNL A   1      41.708  33.521  31.522  1.00  0.00     0.074 A 
ATOM     59  C   UNL A   1      40.758  34.608  31.640  1.00  0.00     0.031 C 
ATOM     60  C   UNL A   1      42.989  33.577  31.962  1.00  0.00     0.031 A 
BRANCH  47  61
ATOM     61  C   UNL A   1      46.201  28.373  31.046  1.00  0.00    -0.014 A 
ATOM     62  C   UNL A   1      46.395  27.538  32.162  1.00  0.00     0.010 A 
ATOM     63  C   UNL A   1      47.220  28.473  30.081  1.00  0.00     0.010 A 
ATOM     64  C   UNL A   1      47.601  26.852  32.332  1.00  0.00     0.020 A 
ATOM     65  C   UNL A   1      48.416  27.765  30.233  1.00  0.00     0.020 A 
ATOM     66  C   UNL A   1      48.605  26.973  31.368  1.00  0.00     0.054 A 
BRANCH  66  67
ATOM     67  S   UNL A   1      50.152  26.056  31.604  1.00  0.00     0.124 S 
ATOM     68  O   UNL A   1      49.742  25.013  32.542  1.00  0.00    -0.237 OA
ATOM     69  O   UNL A   1      50.462  25.596  30.252  1.00  0.00    -0.237 OA
ATOM     70  O   UNL A   1      51.070  27.055  32.145  1.00  0.00    -0.744 OA
ENDBRANCH  66  67
ENDBRANCH  47  61
BRANCH  48  71
ATOM     71  C   UNL A   1      37.361  32.866  29.838  1.00  0.00    -0.014 A 
ATOM     72  C   UNL A   1      36.479  32.959  30.928  1.00  0.00     0.010 A 
ATOM     73  C   UNL A   1      36.982  33.422  28.602  1.00  0.00     0.010 A 
ATOM     74  C   UNL A   1      35.235  33.581  30.783  1.00  0.00     0.020 A 
ATOM     75  C   UNL A   1      35.751  34.069  28.460  1.00  0.00     0.020 A 
ATOM     76  C   UNL A   1      34.880  34.134  29.548  1.00  0.00     0.054 A 
BRANCH  76  77
ATOM     77  S   UNL A   1      33.283  34.983  29.397  1.00  0.00     0.124 S 
ATOM     78  O   UNL A   1      32.737  34.843  30.743  1.00  0.00    -0.237 OA
ATOM     79  O   UNL A   1      33.680  36.335  29.012  1.00  0.00    -0.237 OA
ATOM     80  O   UNL A   1      32.592  34.225  28.356  1.00  0.00    -0.744 OA
ENDBRANCH  76  77
ENDBRANCH  48  71
BRANCH  60  81
ATOM     81  C   UNL A   1      43.453  34.866  32.586  1.00  0.00    -0.014 A 
ATOM     82  C   UNL A   1      43.387  35.070  33.975  1.00  0.00     0.010 A 
ATOM     83  C   UNL A   1      44.014  35.867  31.771  1.00  0.00     0.010 A 
ATOM     84  C   UNL A   1      43.847  36.265  34.535  1.00  0.00     0.020 A 
ATOM     85  C   UNL A   1      44.500  37.050  32.330  1.00  0.00     0.020 A 
ATOM     86  C   UNL A   1      44.401  37.248  33.709  1.00  0.00     0.054 A 
BRANCH  86  87
ATOM     87  S   UNL A   1      45.033  38.771  34.465  1.00  0.00     0.124 S 
ATOM     88  O   UNL A   1      44.290  38.818  35.721  1.00  0.00    -0.237 OA
ATOM     89  O   UNL A   1      46.463  38.498  34.591  1.00  0.00    -0.237 OA
ATOM     90  O   UNL A   1      44.686  39.809  33.496  1.00  0.00    -0.744 OA
ENDBRANCH  86  87
ENDBRANCH  60  81
ENDBRANCH  34  35
ENDBRANCH  26  29
ENDBRANCH  24  25
ENDBRANCH  23  24
ENDBRANCH   1  23
TORSDOF 18
ENDMDL
MODEL 2
REMARK VINA RESULT:      -9.1      1.799      2.521
REMARK SMILES CC(=O)Oc1ccc(Br)cc1C(=O)NCC(=O)NCCCCNC(=O)c1ccc(-c2c3nc(c(-c4ccc(S(=O)(=O)[O-])cc4)c4ccc([nH]4)c(-c4ccc(S(=O)(=O)[O-])cc4)c4nc(c(-c5ccc(S(=O)(=O)[O-])cc5)c5ccc2[nH]5)C=C4)C=C3)cc1
REMARK SMILES IDX 20 1 19 2 18 3 16 4 17 5 15 7 14 8 12 9 13 10 11 12 5 13
REMARK SMILES IDX 6 14 7 15 10 16 8 17 9 18 4 19 2 20 1 21 3 22 21 23 22 24
REMARK SMILES IDX 23 25 24 26 25 28 26 29 27 30 85 31 28 32 84 33 29 34 30 35
REMARK SMILES IDX 31 36 78 37 32 38 83 39 77 40 79 41 33 42 82 43 76 44 75 45
REMARK SMILES IDX 34 47 64 48 45 49 63 50 46 51 49 52 62 53 80 54 47 55 48 56
REMARK SMILES IDX 61 58 81 59 50 60 35 61 36 62 44 63 37 64 43 65 38 66 39 67
REMARK SMILES IDX 40 68 41 69 42 70 65 71 66 72 74 73 67 74 73 75 68 76 69 77
REMARK SMILES IDX 70 78 71 79 72 80 51 81 52 82 60 83 53 84 59 85 54 86 55 87
REMARK SMILES IDX 56 88 57 89 58 90
REMARK H PARENT 18 6 14 11 23 27 79 46 49 57
REMARK Flexibility Score: inf
ROOT
ATOM      1  C   UNL A   1      42.334  19.812  26.674  1.00  0.00     0.023 C 
ENDROOT
BRANCH   1   2
ATOM      2  C   UNL A   1      43.119  19.235  25.505  1.00  0.00     0.116 C 
BRANCH   2   3
ATOM      3  N   UNL A   1      44.544  19.478  25.601  1.00  0.00    -0.355 N 
ATOM      4  C   UNL A   1      45.366  20.304  24.903  1.00  0.00     0.239 C 
ATOM      5  O   UNL A   1      46.512  20.445  25.348  1.00  0.00    -0.273 OA
ATOM      6  H   UNL A   1      44.998  18.949  26.296  1.00  0.00     0.163 HD
BRANCH   4   7
ATOM      7  C   UNL A   1      44.912  21.183  23.727  1.00  0.00     0.216 C 
BRANCH   7   8
ATOM      8  N   UNL A   1      44.058  22.321  23.981  1.00  0.00    -0.343 N 
ATOM      9  C   UNL A   1      44.097  23.458  24.730  1.00  0.00     0.255 C 
ATOM     10  O   UNL A   1      43.178  24.242  24.460  1.00  0.00    -0.269 OA
ATOM     11  H   UNL A   1      43.218  22.257  23.472  1.00  0.00     0.164 HD
BRANCH   9  12
ATOM     12  C   UNL A   1      45.042  23.838  25.841  1.00  0.00     0.083 A 
ATOM     13  C   UNL A   1      46.354  24.344  25.808  1.00  0.00     0.143 A 
ATOM     14  C   UNL A   1      47.053  24.620  27.004  1.00  0.00     0.049 A 
ATOM     15  C   UNL A   1      46.505  24.316  28.247  1.00  0.00     0.019 A 
ATOM     16  C   UNL A   1      44.515  23.548  27.127  1.00  0.00     0.033 A 
ATOM     17  C   UNL A   1      45.236  23.768  28.301  1.00  0.00     0.019 A 
ATOM     18  Br  UNL A   1      44.483  23.304  29.972  1.00  0.00    -0.051 Br
BRANCH  13  19
ATOM     19  O   UNL A   1      47.030  24.654  24.615  1.00  0.00    -0.426 OA
BRANCH  19  20
ATOM     20  C   UNL A   1      47.743  25.858  24.561  1.00  0.00     0.308 C 
ATOM     21  C   UNL A   1      46.794  27.017  24.460  1.00  0.00     0.139 C 
ATOM     22  O   UNL A   1      48.961  25.971  24.549  1.00  0.00    -0.252 OA
ENDBRANCH  19  20
ENDBRANCH  13  19
ENDBRANCH   9  12
ENDBRANCH   7   8
ENDBRANCH   4   7
ENDBRANCH   2   3
ENDBRANCH   1   2
BRANCH   1  23
ATOM     23  C   UNL A   1      41.960  21.283  26.496  1.00  0.00     0.023 C 
BRANCH  23  24
ATOM     24  C   UNL A   1      40.792  21.767  27.353  1.00  0.00     0.116 C 
BRANCH  24  25
ATOM     25  N   UNL A   1      39.538  21.854  26.619  1.00  0.00    -0.352 N 
ATOM     26  C   UNL A   1      38.733  22.955  26.419  1.00  0.00     0.251 C 
ATOM     27  H   UNL A   1      39.224  21.016  26.212  1.00  0.00     0.163 HD
ATOM     28  O   UNL A   1      37.641  22.833  25.882  1.00  0.00    -0.269 OA
BRANCH  26  29
ATOM     29  C   UNL A   1      39.188  24.279  26.896  1.00  0.00     0.039 A 
ATOM     30  C   UNL A   1      38.911  24.655  28.212  1.00  0.00     0.014 A 
ATOM     31  C   UNL A   1      39.923  25.126  26.059  1.00  0.00     0.014 A 
ATOM     32  C   UNL A   1      39.437  25.846  28.714  1.00  0.00     0.010 A 
ATOM     33  C   UNL A   1      40.504  26.277  26.583  1.00  0.00     0.010 A 
ATOM     34  C   UNL A   1      40.275  26.647  27.917  1.00  0.00    -0.014 A 
BRANCH  34  35
ATOM     35  C   UNL A   1      40.935  27.857  28.472  1.00  0.00     0.031 A 
ATOM     36  C   UNL A   1      42.435  27.940  28.544  1.00  0.00     0.074 A 
ATOM     37  C   UNL A   1      40.181  28.856  28.972  1.00  0.00     0.049 A 
ATOM     38  N   UNL A   1      43.185  28.893  29.036  1.00  0.00    -0.248 NA
ATOM     39  C   UNL A   1      43.192  26.793  28.017  1.00  0.00     0.031 C 
ATOM     40  C   UNL A   1      38.715  28.877  29.006  1.00  0.00     0.029 A 
ATOM     41  N   UNL A   1      40.541  30.046  29.554  1.00  0.00    -0.354 N 
ATOM     42  C   UNL A   1      44.496  28.456  28.893  1.00  0.00     0.074 A 
ATOM     43  C   UNL A   1      44.439  27.132  28.312  1.00  0.00     0.031 C 
ATOM     44  C   UNL A   1      38.304  30.034  29.552  1.00  0.00     0.029 A 
ATOM     45  C   UNL A   1      39.471  30.818  29.942  1.00  0.00     0.049 A 
ATOM     46  H   UNL A   1      41.477  30.321  29.682  1.00  0.00     0.167 HD
ATOM     47  C   UNL A   1      45.646  29.105  29.198  1.00  0.00     0.031 A 
ATOM     48  C   UNL A   1      39.430  32.021  30.548  1.00  0.00     0.031 A 
ATOM     49  C   UNL A   1      45.701  30.426  29.766  1.00  0.00     0.049 A 
ATOM     50  C   UNL A   1      40.720  32.721  30.880  1.00  0.00     0.074 A 
ATOM     51  C   UNL A   1      46.818  31.190  30.056  1.00  0.00     0.029 A 
ATOM     52  N   UNL A   1      44.596  31.179  30.132  1.00  0.00    -0.354 N 
ATOM     53  N   UNL A   1      41.951  32.320  30.671  1.00  0.00    -0.248 NA
ATOM     54  C   UNL A   1      40.613  34.041  31.516  1.00  0.00     0.031 C 
ATOM     55  C   UNL A   1      46.390  32.385  30.643  1.00  0.00     0.029 A 
ATOM     56  C   UNL A   1      45.004  32.390  30.666  1.00  0.00     0.049 A 
ATOM     57  H   UNL A   1      43.660  30.895  30.027  1.00  0.00     0.167 HD
ATOM     58  C   UNL A   1      42.766  33.350  31.127  1.00  0.00     0.074 A 
ATOM     59  C   UNL A   1      41.888  34.397  31.609  1.00  0.00     0.031 C 
ATOM     60  C   UNL A   1      44.119  33.423  31.143  1.00  0.00     0.031 A 
BRANCH  47  61
ATOM     61  C   UNL A   1      46.942  28.388  28.926  1.00  0.00    -0.014 A 
ATOM     62  C   UNL A   1      47.622  28.555  27.705  1.00  0.00     0.010 A 
ATOM     63  C   UNL A   1      47.510  27.567  29.918  1.00  0.00     0.010 A 
ATOM     64  C   UNL A   1      48.821  27.879  27.464  1.00  0.00     0.020 A 
ATOM     65  C   UNL A   1      48.724  26.913  29.692  1.00  0.00     0.020 A 
ATOM     66  C   UNL A   1      49.363  27.059  28.458  1.00  0.00     0.054 A 
BRANCH  66  67
ATOM     67  S   UNL A   1      50.931  26.211  28.126  1.00  0.00     0.124 S 
ATOM     68  O   UNL A   1      50.480  24.854  27.824  1.00  0.00    -0.237 OA
ATOM     69  O   UNL A   1      51.468  26.960  26.992  1.00  0.00    -0.237 OA
ATOM     70  O   UNL A   1      51.676  26.356  29.374  1.00  0.00    -0.744 OA
ENDBRANCH  66  67
ENDBRANCH  47  61
BRANCH  48  71
ATOM     71  C   UNL A   1      38.118  32.650  30.863  1.00  0.00    -0.014 A 
ATOM     72  C   UNL A   1      37.553  32.518  32.144  1.00  0.00     0.010 A 
ATOM     73  C   UNL A   1      37.432  33.397  29.887  1.00  0.00     0.010 A 
ATOM     74  C   UNL A   1      36.319  33.106  32.439  1.00  0.00     0.020 A 
ATOM     75  C   UNL A   1      36.212  34.009  30.187  1.00  0.00     0.020 A 
ATOM     76  C   UNL A   1      35.658  33.850  31.457  1.00  0.00     0.054 A 
BRANCH  76  77
ATOM     77  S   UNL A   1      34.083  34.649  31.879  1.00  0.00     0.124 S 
ATOM     78  O   UNL A   1      34.528  35.932  32.414  1.00  0.00    -0.237 OA
ATOM     79  O   UNL A   1      33.401  34.704  30.588  1.00  0.00    -0.237 OA
ATOM     80  O   UNL A   1      33.487  33.735  32.851  1.00  0.00    -0.744 OA
ENDBRANCH  76  77
ENDBRANCH  48  71
BRANCH  60  81
ATOM     81  C   UNL A   1      44.740  34.689  31.670  1.00  0.00    -0.014 A 
ATOM     82  C   UNL A   1      45.102  34.817  33.022  1.00  0.00     0.010 A 
ATOM     83  C   UNL A   1      45.014  35.746  30.783  1.00  0.00     0.010 A 
ATOM     84  C   UNL A   1      45.701  35.992  33.484  1.00  0.00     0.020 A 
ATOM     85  C   UNL A   1      45.638  36.911  31.235  1.00  0.00     0.020 A 
ATOM     86  C   UNL A   1      45.965  37.032  32.587  1.00  0.00     0.054 A 
BRANCH  86  87
ATOM     87  S   UNL A   1      46.784  38.529  33.203  1.00  0.00     0.124 S 
ATOM     88  O   UNL A   1      46.424  38.514  34.617  1.00  0.00    -0.237 OA
ATOM     89  O   UNL A   1      48.192  38.269  32.910  1.00  0.00    -0.237 OA
ATOM     90  O   UNL A   1      46.179  39.603  32.417  1.00  0.00    -0.744 OA
ENDBRANCH  86  87
ENDBRANCH  60  81
ENDBRANCH  34  35
ENDBRANCH  26  29
ENDBRANCH  24  25
ENDBRANCH  23  24
ENDBRANCH   1  23
TORSDOF 18
ENDMDL
MODEL 3
REMARK VINA RESULT:      -9.1      1.352      8.449
REMARK SMILES CC(=O)Oc1ccc(Br)cc1C(=O)NCC(=O)NCCCCNC(=O)c1ccc(-c2c3nc(c(-c4ccc(S(=O)(=O)[O-])cc4)c4ccc([nH]4)c(-c4ccc(S(=O)(=O)[O-])cc4)c4nc(c(-c5ccc(S(=O)(=O)[O-])cc5)c5ccc2[nH]5)C=C4)C=C3)cc1
REMARK SMILES IDX 20 1 19 2 18 3 16 4 17 5 15 7 14 8 12 9 13 10 11 12 5 13
REMARK SMILES IDX 6 14 7 15 10 16 8 17 9 18 4 19 2 20 1 21 3 22 21 23 22 24
REMARK SMILES IDX 23 25 24 26 25 28 26 29 27 30 85 31 28 32 84 33 29 34 30 35
REMARK SMILES IDX 31 36 78 37 32 38 83 39 77 40 79 41 33 42 82 43 76 44 75 45
REMARK SMILES IDX 34 47 64 48 45 49 63 50 46 51 49 52 62 53 80 54 47 55 48 56
REMARK SMILES IDX 61 58 81 59 50 60 35 61 36 62 44 63 37 64 43 65 38 66 39 67
REMARK SMILES IDX 40 68 41 69 42 70 65 71 66 72 74 73 67 74 73 75 68 76 69 77
REMARK SMILES IDX 70 78 71 79 72 80 51 81 52 82 60 83 53 84 59 85 54 86 55 87
REMARK SMILES IDX 56 88 57 89 58 90
REMARK H PARENT 18 6 14 11 23 27 79 46 49 57
REMARK Flexibility Score: inf
ROOT
ATOM      1  C   UNL A   1      42.176  20.395  26.537  1.00  0.00     0.023 C 
ENDROOT
BRANCH   1   2
ATOM      2  C   UNL A   1      43.128  19.894  25.461  1.00  0.00     0.116 C 
BRANCH   2   3
ATOM      3  N   UNL A   1      44.499  20.313  25.675  1.00  0.00    -0.355 N 
ATOM      4  C   UNL A   1      45.249  21.279  25.081  1.00  0.00     0.239 C 
ATOM      5  O   UNL A   1      46.333  21.540  25.616  1.00  0.00    -0.273 OA
ATOM      6  H   UNL A   1      44.972  19.808  26.375  1.00  0.00     0.163 HD
BRANCH   4   7
ATOM      7  C   UNL A   1      44.761  22.158  23.918  1.00  0.00     0.216 C 
BRANCH   7   8
ATOM      8  N   UNL A   1      43.891  23.279  24.195  1.00  0.00    -0.343 N 
ATOM      9  C   UNL A   1      43.859  24.338  25.051  1.00  0.00     0.255 C 
ATOM     10  O   UNL A   1      42.976  25.158  24.767  1.00  0.00    -0.269 OA
ATOM     11  H   UNL A   1      43.106  23.276  23.600  1.00  0.00     0.164 HD
BRANCH   9  12
ATOM     12  C   UNL A   1      44.689  24.597  26.282  1.00  0.00     0.083 A 
ATOM     13  C   UNL A   1      45.891  25.306  26.456  1.00  0.00     0.143 A 
ATOM     14  C   UNL A   1      46.494  25.405  27.730  1.00  0.00     0.049 A 
ATOM     15  C   UNL A   1      45.973  24.729  28.829  1.00  0.00     0.019 A 
ATOM     16  C   UNL A   1      44.185  23.928  27.428  1.00  0.00     0.033 A 
ATOM     17  C   UNL A   1      44.821  23.982  28.669  1.00  0.00     0.019 A 
ATOM     18  Br  UNL A   1      44.114  23.019  30.134  1.00  0.00    -0.051 Br
BRANCH  13  19
ATOM     19  O   UNL A   1      46.536  25.997  25.414  1.00  0.00    -0.426 OA
BRANCH  19  20
ATOM     20  C   UNL A   1      47.522  25.315  24.691  1.00  0.00     0.308 C 
ATOM     21  C   UNL A   1      48.873  25.903  24.976  1.00  0.00     0.139 C 
ATOM     22  O   UNL A   1      47.329  24.402  23.900  1.00  0.00    -0.252 OA
ENDBRANCH  19  20
ENDBRANCH  13  19
ENDBRANCH   9  12
ENDBRANCH   7   8
ENDBRANCH   4   7
ENDBRANCH   2   3
ENDBRANCH   1   2
BRANCH   1  23
ATOM     23  C   UNL A   1      41.367  21.622  26.116  1.00  0.00     0.023 C 
BRANCH  23  24
ATOM     24  C   UNL A   1      40.045  21.816  26.857  1.00  0.00     0.116 C 
BRANCH  24  25
ATOM     25  N   UNL A   1      39.004  22.407  26.029  1.00  0.00    -0.352 N 
ATOM     26  C   UNL A   1      38.518  23.697  26.047  1.00  0.00     0.251 C 
ATOM     27  H   UNL A   1      38.591  21.804  25.370  1.00  0.00     0.163 HD
ATOM     28  O   UNL A   1      37.548  24.002  25.368  1.00  0.00    -0.269 OA
BRANCH  26  29
ATOM     29  C   UNL A   1      39.162  24.698  26.924  1.00  0.00     0.039 A 
ATOM     30  C   UNL A   1      40.082  25.590  26.369  1.00  0.00     0.014 A 
ATOM     31  C   UNL A   1      38.826  24.783  28.279  1.00  0.00     0.014 A 
ATOM     32  C   UNL A   1      40.607  26.617  27.155  1.00  0.00     0.010 A 
ATOM     33  C   UNL A   1      39.296  25.849  29.041  1.00  0.00     0.010 A 
ATOM     34  C   UNL A   1      40.186  26.782  28.486  1.00  0.00    -0.014 A 
BRANCH  34  35
ATOM     35  C   UNL A   1      40.647  27.937  29.301  1.00  0.00     0.031 A 
ATOM     36  C   UNL A   1      39.764  29.140  29.483  1.00  0.00     0.074 A 
ATOM     37  C   UNL A   1      41.890  27.928  29.822  1.00  0.00     0.049 A 
ATOM     38  N   UNL A   1      40.014  30.257  30.118  1.00  0.00    -0.248 NA
ATOM     39  C   UNL A   1      38.436  29.095  28.849  1.00  0.00     0.031 C 
ATOM     40  C   UNL A   1      42.864  26.842  29.678  1.00  0.00     0.029 A 
ATOM     41  N   UNL A   1      42.552  28.865  30.576  1.00  0.00    -0.354 N 
ATOM     42  C   UNL A   1      38.886  31.050  29.949  1.00  0.00     0.074 A 
ATOM     43  C   UNL A   1      37.970  30.308  29.111  1.00  0.00     0.031 C 
ATOM     44  C   UNL A   1      43.985  27.163  30.345  1.00  0.00     0.029 A 
ATOM     45  C   UNL A   1      43.827  28.490  30.930  1.00  0.00     0.049 A 
ATOM     46  H   UNL A   1      42.152  29.726  30.837  1.00  0.00     0.167 HD
ATOM     47  C   UNL A   1      38.626  32.278  30.460  1.00  0.00     0.031 A 
ATOM     48  C   UNL A   1      44.768  29.141  31.642  1.00  0.00     0.031 A 
ATOM     49  C   UNL A   1      39.534  33.011  31.302  1.00  0.00     0.049 A 
ATOM     50  C   UNL A   1      44.458  30.504  32.197  1.00  0.00     0.074 A 
ATOM     51  C   UNL A   1      39.338  34.235  31.916  1.00  0.00     0.029 A 
ATOM     52  N   UNL A   1      40.809  32.590  31.648  1.00  0.00    -0.354 N 
ATOM     53  N   UNL A   1      43.357  31.208  32.084  1.00  0.00    -0.248 NA
ATOM     54  C   UNL A   1      45.512  31.155  32.987  1.00  0.00     0.031 C 
ATOM     55  C   UNL A   1      40.513  34.579  32.593  1.00  0.00     0.029 A 
ATOM     56  C   UNL A   1      41.421  33.541  32.448  1.00  0.00     0.049 A 
ATOM     57  H   UNL A   1      41.219  31.741  31.366  1.00  0.00     0.167 HD
ATOM     58  C   UNL A   1      43.576  32.373  32.810  1.00  0.00     0.074 A 
ATOM     59  C   UNL A   1      44.909  32.272  33.369  1.00  0.00     0.031 C 
ATOM     60  C   UNL A   1      42.748  33.429  32.998  1.00  0.00     0.031 A 
BRANCH  47  61
ATOM     61  C   UNL A   1      37.302  32.909  30.116  1.00  0.00    -0.014 A 
ATOM     62  C   UNL A   1      36.188  32.768  30.964  1.00  0.00     0.010 A 
ATOM     63  C   UNL A   1      37.179  33.685  28.949  1.00  0.00     0.010 A 
ATOM     64  C   UNL A   1      34.964  33.354  30.630  1.00  0.00     0.020 A 
ATOM     65  C   UNL A   1      35.965  34.298  28.627  1.00  0.00     0.020 A 
ATOM     66  C   UNL A   1      34.860  34.112  29.461  1.00  0.00     0.054 A 
BRANCH  66  67
ATOM     67  S   UNL A   1      33.265  34.879  29.062  1.00  0.00     0.124 S 
ATOM     68  O   UNL A   1      33.680  36.171  28.521  1.00  0.00    -0.237 OA
ATOM     69  O   UNL A   1      32.694  33.947  28.092  1.00  0.00    -0.237 OA
ATOM     70  O   UNL A   1      32.575  34.936  30.348  1.00  0.00    -0.744 OA
ENDBRANCH  66  67
ENDBRANCH  47  61
BRANCH  48  71
ATOM     71  C   UNL A   1      46.089  28.500  31.887  1.00  0.00    -0.014 A 
ATOM     72  C   UNL A   1      47.141  28.659  30.968  1.00  0.00     0.010 A 
ATOM     73  C   UNL A   1      46.308  27.739  33.050  1.00  0.00     0.010 A 
ATOM     74  C   UNL A   1      48.381  28.055  31.196  1.00  0.00     0.020 A 
ATOM     75  C   UNL A   1      47.555  27.156  33.296  1.00  0.00     0.020 A 
ATOM     76  C   UNL A   1      48.579  27.308  32.361  1.00  0.00     0.054 A 
BRANCH  76  77
ATOM     77  S   UNL A   1      50.213  26.578  32.665  1.00  0.00     0.124 S 
ATOM     78  O   UNL A   1      51.101  27.708  32.416  1.00  0.00    -0.237 OA
ATOM     79  O   UNL A   1      50.113  26.145  34.056  1.00  0.00    -0.237 OA
ATOM     80  O   UNL A   1      50.288  25.494  31.687  1.00  0.00    -0.744 OA
ENDBRANCH  76  77
ENDBRANCH  48  71
BRANCH  60  81
ATOM     81  C   UNL A   1      43.242  34.552  33.871  1.00  0.00    -0.014 A 
ATOM     82  C   UNL A   1      42.982  34.572  35.252  1.00  0.00     0.010 A 
ATOM     83  C   UNL A   1      44.027  35.574  33.306  1.00  0.00     0.010 A 
ATOM     84  C   UNL A   1      43.473  35.610  36.048  1.00  0.00     0.020 A 
ATOM     85  C   UNL A   1      44.542  36.599  34.102  1.00  0.00     0.020 A 
ATOM     86  C   UNL A   1      44.250  36.618  35.468  1.00  0.00     0.054 A 
BRANCH  86  87
ATOM     87  S   UNL A   1      44.913  37.930  36.530  1.00  0.00     0.124 S 
ATOM     88  O   UNL A   1      46.334  37.901  36.198  1.00  0.00    -0.237 OA
ATOM     89  O   UNL A   1      44.185  39.112  36.074  1.00  0.00    -0.237 OA
ATOM     90  O   UNL A   1      44.579  37.484  37.881  1.00  0.00    -0.744 OA
ENDBRANCH  86  87
ENDBRANCH  60  81
ENDBRANCH  34  35
ENDBRANCH  26  29
ENDBRANCH  24  25
ENDBRANCH  23  24
ENDBRANCH   1  23
TORSDOF 18
ENDMDL
