MODEL 1
REMARK VINA RESULT:     -11.6      0.000      0.000
REMARK SMILES CC(C)CCc1cc2c(cc1Cl)C=C(C(=O)NCCCCNC(=O)c1ccc(-c3c4nc(c(-c5ccc(S(=O)(=O)[O-])cc5)c5ccc([nH]5)c(-c5ccc(S(=O)(=O)[O-])cc5)c5nc(c(-c6ccc(S(=O)(=O)[O-])cc6)c6ccc3[nH]6)C=C5)C=C4)cc1)[C@@H](C(F)(F)F)O2
REMARK SMILES IDX 19 1 18 2 17 3 15 4 16 5 14 7 6 8 7 9 11 10 8 11 10 12 12 13
REMARK SMILES IDX 9 14 90 15 13 16 85 17 5 18 4 19 2 20 1 21 3 22 86 23 87 24
REMARK SMILES IDX 88 25 89 26 20 27 21 28 22 29 23 30 24 32 25 33 26 34 84 35
REMARK SMILES IDX 27 36 83 37 28 38 29 39 30 40 77 41 31 42 82 43 76 44 78 45
REMARK SMILES IDX 32 46 81 47 75 48 74 49 33 51 63 52 44 53 62 54 45 55 48 56
REMARK SMILES IDX 61 57 79 58 46 59 47 60 60 62 80 63 49 64 34 65 35 66 43 67
REMARK SMILES IDX 36 68 42 69 37 70 38 71 39 72 40 73 41 74 64 75 65 76 73 77
REMARK SMILES IDX 66 78 72 79 67 80 68 81 69 82 70 83 71 84 50 85 51 86 59 87
REMARK SMILES IDX 52 88 58 89 53 90 54 91 55 92 56 93 57 94
REMARK H PARENT 17 6 22 31 78 50 48 61
REMARK Flexibility Score: inf
ROOT
ATOM      1  C   UNL A   1      35.669  21.861  26.218  1.00  0.00     0.023 C 
ENDROOT
BRANCH   1   2
ATOM      2  C   UNL A   1      34.177  21.802  26.523  1.00  0.00     0.116 C 
BRANCH   2   3
ATOM      3  N   UNL A   1      33.406  21.206  25.448  1.00  0.00    -0.352 N 
ATOM      4  C   UNL A   1      32.519  21.650  24.528  1.00  0.00     0.251 C 
ATOM      5  O   UNL A   1      32.085  20.804  23.741  1.00  0.00    -0.270 OA
ATOM      6  H   UNL A   1      33.569  20.237  25.370  1.00  0.00     0.163 HD
BRANCH   4   7
ATOM      7  C   UNL A   1      32.038  23.060  24.425  1.00  0.00     0.067 C 
ATOM      8  C   UNL A   1      31.872  28.031  23.441  1.00  0.00    -0.026 A 
ATOM      9  C   UNL A   1      30.989  27.104  24.026  1.00  0.00     0.052 A 
ATOM     10  C   UNL A   1      33.119  27.560  23.003  1.00  0.00     0.045 A 
ATOM     11  C   UNL A   1      31.338  25.760  24.163  1.00  0.00     0.128 A 
ATOM     12  C   UNL A   1      33.484  26.220  23.189  1.00  0.00     0.032 A 
ATOM     13  Cl  UNL A   1      34.246  28.556  22.156  1.00  0.00    -0.084 Cl
ATOM     14  C   UNL A   1      32.590  25.315  23.763  1.00  0.00     0.019 A 
ATOM     15  O   UNL A   1      30.377  24.943  24.673  1.00  0.00    -0.475 OA
ATOM     16  C   UNL A   1      32.942  23.913  23.913  1.00  0.00     0.025 C 
ATOM     17  C   UNL A   1      30.685  23.536  24.885  1.00  0.00     0.314 C 
BRANCH   8  18
ATOM     18  C   UNL A   1      31.407  29.465  23.305  1.00  0.00     0.037 C 
BRANCH  18  19
ATOM     19  C   UNL A   1      29.954  29.711  23.747  1.00  0.00     0.008 C 
BRANCH  19  20
ATOM     20  C   UNL A   1      29.086  30.526  22.769  1.00  0.00    -0.017 C 
ATOM     21  C   UNL A   1      27.904  29.717  22.227  1.00  0.00     0.007 C 
ATOM     22  C   UNL A   1      28.549  31.785  23.456  1.00  0.00     0.007 C 
ENDBRANCH  19  20
ENDBRANCH  18  19
ENDBRANCH   8  18
BRANCH  17  23
ATOM     23  C   UNL A   1      30.390  23.243  26.367  1.00  0.00     0.429 C 
ATOM     24  F   UNL A   1      29.939  21.969  26.507  1.00  0.00    -0.167 F 
ATOM     25  F   UNL A   1      31.475  23.349  27.165  1.00  0.00    -0.167 F 
ATOM     26  F   UNL A   1      29.441  24.063  26.871  1.00  0.00    -0.167 F 
ENDBRANCH  17  23
ENDBRANCH   4   7
ENDBRANCH   2   3
ENDBRANCH   1   2
BRANCH   1  27
ATOM     27  C   UNL A   1      36.038  22.712  25.001  1.00  0.00     0.023 C 
BRANCH  27  28
ATOM     28  C   UNL A   1      37.434  23.326  25.024  1.00  0.00     0.116 C 
BRANCH  28  29
ATOM     29  N   UNL A   1      38.469  22.457  25.571  1.00  0.00    -0.352 N 
ATOM     30  C   UNL A   1      39.458  22.791  26.475  1.00  0.00     0.251 C 
ATOM     31  H   UNL A   1      38.462  21.522  25.260  1.00  0.00     0.163 HD
ATOM     32  O   UNL A   1      40.295  21.974  26.824  1.00  0.00    -0.269 OA
BRANCH  30  33
ATOM     33  C   UNL A   1      39.506  24.187  26.956  1.00  0.00     0.039 A 
ATOM     34  C   UNL A   1      40.095  25.172  26.164  1.00  0.00     0.014 A 
ATOM     35  C   UNL A   1      39.099  24.464  28.262  1.00  0.00     0.014 A 
ATOM     36  C   UNL A   1      40.446  26.385  26.743  1.00  0.00     0.010 A 
ATOM     37  C   UNL A   1      39.383  25.712  28.816  1.00  0.00     0.010 A 
ATOM     38  C   UNL A   1      40.115  26.658  28.081  1.00  0.00    -0.014 A 
BRANCH  38  39
ATOM     39  C   UNL A   1      40.578  27.925  28.699  1.00  0.00     0.031 A 
ATOM     40  C   UNL A   1      42.039  28.148  28.996  1.00  0.00     0.074 A 
ATOM     41  C   UNL A   1      39.688  28.910  28.919  1.00  0.00     0.049 A 
ATOM     42  N   UNL A   1      42.621  29.204  29.503  1.00  0.00    -0.248 NA
ATOM     43  C   UNL A   1      42.967  27.047  28.681  1.00  0.00     0.031 C 
ATOM     44  C   UNL A   1      38.254  28.822  28.632  1.00  0.00     0.029 A 
ATOM     45  N   UNL A   1      39.856  30.186  29.394  1.00  0.00    -0.354 N 
ATOM     46  C   UNL A   1      43.974  28.892  29.586  1.00  0.00     0.074 A 
ATOM     47  C   UNL A   1      44.127  27.540  29.099  1.00  0.00     0.031 C 
ATOM     48  C   UNL A   1      37.689  30.015  28.866  1.00  0.00     0.029 A 
ATOM     49  C   UNL A   1      38.700  30.929  29.389  1.00  0.00     0.049 A 
ATOM     50  H   UNL A   1      40.722  30.536  29.706  1.00  0.00     0.167 HD
ATOM     51  C   UNL A   1      44.996  29.669  30.019  1.00  0.00     0.031 A 
ATOM     52  C   UNL A   1      38.470  32.201  29.766  1.00  0.00     0.031 A 
ATOM     53  C   UNL A   1      44.836  31.020  30.491  1.00  0.00     0.049 A 
ATOM     54  C   UNL A   1      39.606  33.025  30.292  1.00  0.00     0.074 A 
ATOM     55  C   UNL A   1      45.813  31.885  30.955  1.00  0.00     0.029 A 
ATOM     56  N   UNL A   1      43.632  31.704  30.555  1.00  0.00    -0.354 N 
ATOM     57  N   UNL A   1      40.873  32.701  30.394  1.00  0.00    -0.248 NA
ATOM     58  C   UNL A   1      39.287  34.377  30.765  1.00  0.00     0.031 C 
ATOM     59  C   UNL A   1      45.191  33.074  31.346  1.00  0.00     0.029 A 
ATOM     60  C   UNL A   1      43.836  32.972  31.070  1.00  0.00     0.049 A 
ATOM     61  H   UNL A   1      42.761  31.341  30.274  1.00  0.00     0.167 HD
ATOM     62  C   UNL A   1      41.503  33.807  30.947  1.00  0.00     0.074 A 
ATOM     63  C   UNL A   1      40.483  34.819  31.137  1.00  0.00     0.031 C 
ATOM     64  C   UNL A   1      42.809  33.964  31.272  1.00  0.00     0.031 A 
BRANCH  51  65
ATOM     65  C   UNL A   1      46.382  29.083  30.020  1.00  0.00    -0.014 A 
ATOM     66  C   UNL A   1      47.136  29.068  28.831  1.00  0.00     0.010 A 
ATOM     67  C   UNL A   1      46.908  28.466  31.169  1.00  0.00     0.010 A 
ATOM     68  C   UNL A   1      48.382  28.437  28.786  1.00  0.00     0.020 A 
ATOM     69  C   UNL A   1      48.165  27.855  31.135  1.00  0.00     0.020 A 
ATOM     70  C   UNL A   1      48.887  27.829  29.938  1.00  0.00     0.054 A 
BRANCH  70  71
ATOM     71  S   UNL A   1      50.513  27.026  29.870  1.00  0.00     0.124 S 
ATOM     72  O   UNL A   1      51.421  28.167  29.892  1.00  0.00    -0.237 OA
ATOM     73  O   UNL A   1      50.512  26.195  31.072  1.00  0.00    -0.237 OA
ATOM     74  O   UNL A   1      50.470  26.281  28.613  1.00  0.00    -0.744 OA
ENDBRANCH  70  71
ENDBRANCH  51  65
BRANCH  52  75
ATOM     75  C   UNL A   1      37.093  32.746  29.631  1.00  0.00    -0.014 A 
ATOM     76  C   UNL A   1      36.659  33.278  28.403  1.00  0.00     0.010 A 
ATOM     77  C   UNL A   1      36.264  32.859  30.759  1.00  0.00     0.010 A 
ATOM     78  C   UNL A   1      35.454  33.980  28.321  1.00  0.00     0.020 A 
ATOM     79  C   UNL A   1      35.044  33.538  30.675  1.00  0.00     0.020 A 
ATOM     80  C   UNL A   1      34.666  34.125  29.465  1.00  0.00     0.054 A 
BRANCH  80  81
ATOM     81  S   UNL A   1      33.151  35.117  29.362  1.00  0.00     0.124 S 
ATOM     82  O   UNL A   1      32.440  34.460  28.269  1.00  0.00    -0.237 OA
ATOM     83  O   UNL A   1      32.563  34.944  30.689  1.00  0.00    -0.237 OA
ATOM     84  O   UNL A   1      33.643  36.461  29.073  1.00  0.00    -0.744 OA
ENDBRANCH  80  81
ENDBRANCH  52  75
BRANCH  64  85
ATOM     85  C   UNL A   1      43.229  35.269  31.890  1.00  0.00    -0.014 A 
ATOM     86  C   UNL A   1      42.934  35.531  33.241  1.00  0.00     0.010 A 
ATOM     87  C   UNL A   1      43.799  36.283  31.101  1.00  0.00     0.010 A 
ATOM     88  C   UNL A   1      43.171  36.796  33.784  1.00  0.00     0.020 A 
ATOM     89  C   UNL A   1      44.058  37.543  31.646  1.00  0.00     0.020 A 
ATOM     90  C   UNL A   1      43.719  37.798  32.979  1.00  0.00     0.054 A 
BRANCH  90  91
ATOM     91  S   UNL A   1      43.988  39.445  33.688  1.00  0.00     0.124 S 
ATOM     92  O   UNL A   1      42.700  40.092  33.458  1.00  0.00    -0.237 OA
ATOM     93  O   UNL A   1      44.304  39.149  35.084  1.00  0.00    -0.237 OA
ATOM     94  O   UNL A   1      45.102  39.976  32.906  1.00  0.00    -0.744 OA
ENDBRANCH  90  91
ENDBRANCH  64  85
ENDBRANCH  38  39
ENDBRANCH  30  33
ENDBRANCH  28  29
ENDBRANCH  27  28
ENDBRANCH   1  27
TORSDOF 18
ENDMDL
MODEL 2
REMARK VINA RESULT:     -11.5      3.259      9.629
REMARK SMILES CC(C)CCc1cc2c(cc1Cl)C=C(C(=O)NCCCCNC(=O)c1ccc(-c3c4nc(c(-c5ccc(S(=O)(=O)[O-])cc5)c5ccc([nH]5)c(-c5ccc(S(=O)(=O)[O-])cc5)c5nc(c(-c6ccc(S(=O)(=O)[O-])cc6)c6ccc3[nH]6)C=C5)C=C4)cc1)[C@@H](C(F)(F)F)O2
REMARK SMILES IDX 19 1 18 2 17 3 15 4 16 5 14 7 6 8 7 9 11 10 8 11 10 12 12 13
REMARK SMILES IDX 9 14 90 15 13 16 85 17 5 18 4 19 2 20 1 21 3 22 86 23 87 24
REMARK SMILES IDX 88 25 89 26 20 27 21 28 22 29 23 30 24 32 25 33 26 34 84 35
REMARK SMILES IDX 27 36 83 37 28 38 29 39 30 40 77 41 31 42 82 43 76 44 78 45
REMARK SMILES IDX 32 46 81 47 75 48 74 49 33 51 63 52 44 53 62 54 45 55 48 56
REMARK SMILES IDX 61 57 79 58 46 59 47 60 60 62 80 63 49 64 34 65 35 66 43 67
REMARK SMILES IDX 36 68 42 69 37 70 38 71 39 72 40 73 41 74 64 75 65 76 73 77
REMARK SMILES IDX 66 78 72 79 67 80 68 81 69 82 70 83 71 84 50 85 51 86 59 87
REMARK SMILES IDX 52 88 58 89 53 90 54 91 55 92 56 93 57 94
REMARK H PARENT 17 6 22 31 78 50 48 61
REMARK Flexibility Score: inf
ROOT
ATOM      1  C   UNL A   1      32.418  28.528  24.712  1.00  0.00     0.023 C 
ENDROOT
BRANCH   1   2
ATOM      2  C   UNL A   1      31.201  28.176  25.561  1.00  0.00     0.116 C 
BRANCH   2   3
ATOM      3  N   UNL A   1      30.122  27.598  24.783  1.00  0.00    -0.352 N 
ATOM      4  C   UNL A   1      29.925  26.444  24.104  1.00  0.00     0.251 C 
ATOM      5  O   UNL A   1      28.819  26.310  23.573  1.00  0.00    -0.270 OA
ATOM      6  H   UNL A   1      29.339  28.194  24.738  1.00  0.00     0.163 HD
BRANCH   4   7
ATOM      7  C   UNL A   1      30.945  25.364  23.953  1.00  0.00     0.067 C 
ATOM      8  C   UNL A   1      34.331  21.752  25.045  1.00  0.00    -0.026 A 
ATOM      9  C   UNL A   1      33.843  22.330  23.858  1.00  0.00     0.052 A 
ATOM     10  C   UNL A   1      33.822  22.230  26.262  1.00  0.00     0.045 A 
ATOM     11  C   UNL A   1      32.882  23.342  23.888  1.00  0.00     0.128 A 
ATOM     12  C   UNL A   1      32.895  23.280  26.289  1.00  0.00     0.032 A 
ATOM     13  Cl  UNL A   1      34.236  21.528  27.785  1.00  0.00    -0.084 Cl
ATOM     14  C   UNL A   1      32.417  23.834  25.100  1.00  0.00     0.019 A 
ATOM     15  O   UNL A   1      32.430  23.771  22.679  1.00  0.00    -0.475 OA
ATOM     16  C   UNL A   1      31.419  24.888  25.118  1.00  0.00     0.025 C 
ATOM     17  C   UNL A   1      31.459  24.855  22.632  1.00  0.00     0.314 C 
BRANCH   8  18
ATOM     18  C   UNL A   1      35.352  20.641  24.926  1.00  0.00     0.037 C 
BRANCH  18  19
ATOM     19  C   UNL A   1      36.789  21.119  24.651  1.00  0.00     0.008 C 
BRANCH  19  20
ATOM     20  C   UNL A   1      37.342  22.171  25.630  1.00  0.00    -0.017 C 
ATOM     21  C   UNL A   1      38.820  21.937  25.961  1.00  0.00     0.007 C 
ATOM     22  C   UNL A   1      37.182  23.578  25.047  1.00  0.00     0.007 C 
ENDBRANCH  19  20
ENDBRANCH  18  19
ENDBRANCH   8  18
BRANCH  17  23
ATOM     23  C   UNL A   1      32.068  25.948  21.735  1.00  0.00     0.429 C 
ATOM     24  F   UNL A   1      32.997  26.654  22.431  1.00  0.00    -0.167 F 
ATOM     25  F   UNL A   1      32.700  25.463  20.645  1.00  0.00    -0.167 F 
ATOM     26  F   UNL A   1      31.138  26.828  21.300  1.00  0.00    -0.167 F 
ENDBRANCH  17  23
ENDBRANCH   4   7
ENDBRANCH   2   3
ENDBRANCH   1   2
BRANCH   1  27
ATOM     27  C   UNL A   1      33.651  28.953  25.512  1.00  0.00     0.023 C 
BRANCH  27  28
ATOM     28  C   UNL A   1      33.461  29.036  27.023  1.00  0.00     0.116 C 
BRANCH  28  29
ATOM     29  N   UNL A   1      33.526  30.387  27.569  1.00  0.00    -0.352 N 
ATOM     30  C   UNL A   1      34.594  30.989  28.202  1.00  0.00     0.251 C 
ATOM     31  H   UNL A   1      32.712  30.933  27.474  1.00  0.00     0.163 HD
ATOM     32  O   UNL A   1      34.505  32.119  28.653  1.00  0.00    -0.269 OA
BRANCH  30  33
ATOM     33  C   UNL A   1      35.829  30.195  28.372  1.00  0.00     0.039 A 
ATOM     34  C   UNL A   1      36.090  29.574  29.593  1.00  0.00     0.014 A 
ATOM     35  C   UNL A   1      36.785  30.211  27.355  1.00  0.00     0.014 A 
ATOM     36  C   UNL A   1      37.378  29.130  29.863  1.00  0.00     0.010 A 
ATOM     37  C   UNL A   1      38.056  29.691  27.604  1.00  0.00     0.010 A 
ATOM     38  C   UNL A   1      38.380  29.205  28.880  1.00  0.00    -0.014 A 
BRANCH  38  39
ATOM     39  C   UNL A   1      39.766  28.804  29.224  1.00  0.00     0.031 A 
ATOM     40  C   UNL A   1      40.618  29.669  30.117  1.00  0.00     0.074 A 
ATOM     41  C   UNL A   1      40.230  27.615  28.795  1.00  0.00     0.049 A 
ATOM     42  N   UNL A   1      41.836  29.456  30.544  1.00  0.00    -0.248 NA
ATOM     43  C   UNL A   1      40.029  30.932  30.595  1.00  0.00     0.031 C 
ATOM     44  C   UNL A   1      39.478  26.676  27.959  1.00  0.00     0.029 A 
ATOM     45  N   UNL A   1      41.419  26.975  29.030  1.00  0.00    -0.354 N 
ATOM     46  C   UNL A   1      42.167  30.561  31.322  1.00  0.00     0.074 A 
ATOM     47  C   UNL A   1      41.031  31.455  31.291  1.00  0.00     0.031 C 
ATOM     48  C   UNL A   1      40.193  25.552  27.815  1.00  0.00     0.029 A 
ATOM     49  C   UNL A   1      41.481  25.717  28.481  1.00  0.00     0.049 A 
ATOM     50  H   UNL A   1      42.156  27.378  29.544  1.00  0.00     0.167 HD
ATOM     51  C   UNL A   1      43.310  30.800  32.008  1.00  0.00     0.031 A 
ATOM     52  C   UNL A   1      42.463  24.795  28.502  1.00  0.00     0.031 A 
ATOM     53  C   UNL A   1      44.432  29.898  32.043  1.00  0.00     0.049 A 
ATOM     54  C   UNL A   1      43.741  25.103  29.223  1.00  0.00     0.074 A 
ATOM     55  C   UNL A   1      45.637  30.057  32.707  1.00  0.00     0.029 A 
ATOM     56  N   UNL A   1      44.489  28.672  31.397  1.00  0.00    -0.354 N 
ATOM     57  N   UNL A   1      44.047  26.168  29.925  1.00  0.00    -0.248 NA
ATOM     58  C   UNL A   1      44.809  24.100  29.147  1.00  0.00     0.031 C 
ATOM     59  C   UNL A   1      46.440  28.949  32.422  1.00  0.00     0.029 A 
ATOM     60  C   UNL A   1      45.715  28.073  31.629  1.00  0.00     0.049 A 
ATOM     61  H   UNL A   1      43.764  28.286  30.855  1.00  0.00     0.167 HD
ATOM     62  C   UNL A   1      45.345  25.965  30.373  1.00  0.00     0.074 A 
ATOM     63  C   UNL A   1      45.759  24.666  29.883  1.00  0.00     0.031 C 
ATOM     64  C   UNL A   1      46.123  26.788  31.118  1.00  0.00     0.031 A 
BRANCH  51  65
ATOM     65  C   UNL A   1      43.424  32.093  32.770  1.00  0.00    -0.014 A 
ATOM     66  C   UNL A   1      43.088  32.130  34.137  1.00  0.00     0.010 A 
ATOM     67  C   UNL A   1      43.775  33.290  32.121  1.00  0.00     0.010 A 
ATOM     68  C   UNL A   1      43.087  33.340  34.837  1.00  0.00     0.020 A 
ATOM     69  C   UNL A   1      43.799  34.499  32.824  1.00  0.00     0.020 A 
ATOM     70  C   UNL A   1      43.437  34.518  34.174  1.00  0.00     0.054 A 
BRANCH  70  71
ATOM     71  S   UNL A   1      43.446  36.080  35.098  1.00  0.00     0.124 S 
ATOM     72  O   UNL A   1      42.243  35.962  35.915  1.00  0.00    -0.237 OA
ATOM     73  O   UNL A   1      44.713  36.018  35.824  1.00  0.00    -0.237 OA
ATOM     74  O   UNL A   1      43.395  37.095  34.047  1.00  0.00    -0.744 OA
ENDBRANCH  70  71
ENDBRANCH  51  65
BRANCH  52  75
ATOM     75  C   UNL A   1      42.234  23.495  27.819  1.00  0.00    -0.014 A 
ATOM     76  C   UNL A   1      41.747  22.390  28.542  1.00  0.00     0.010 A 
ATOM     77  C   UNL A   1      42.630  23.320  26.482  1.00  0.00     0.010 A 
ATOM     78  C   UNL A   1      41.731  21.118  27.965  1.00  0.00     0.020 A 
ATOM     79  C   UNL A   1      42.589  22.052  25.892  1.00  0.00     0.020 A 
ATOM     80  C   UNL A   1      42.174  20.955  26.652  1.00  0.00     0.054 A 
BRANCH  80  81
ATOM     81  S   UNL A   1      42.231  19.283  25.950  1.00  0.00     0.124 S 
ATOM     82  O   UNL A   1      42.749  18.507  27.073  1.00  0.00    -0.237 OA
ATOM     83  O   UNL A   1      40.834  19.032  25.603  1.00  0.00    -0.237 OA
ATOM     84  O   UNL A   1      43.136  19.422  24.812  1.00  0.00    -0.744 OA
ENDBRANCH  80  81
ENDBRANCH  52  75
BRANCH  64  85
ATOM     85  C   UNL A   1      47.518  26.332  31.445  1.00  0.00    -0.014 A 
ATOM     86  C   UNL A   1      47.766  25.648  32.649  1.00  0.00     0.010 A 
ATOM     87  C   UNL A   1      48.600  26.696  30.624  1.00  0.00     0.010 A 
ATOM     88  C   UNL A   1      49.076  25.363  33.043  1.00  0.00     0.020 A 
ATOM     89  C   UNL A   1      49.910  26.393  31.004  1.00  0.00     0.020 A 
ATOM     90  C   UNL A   1      50.140  25.750  32.224  1.00  0.00     0.054 A 
BRANCH  90  91
ATOM     91  S   UNL A   1      51.836  25.405  32.767  1.00  0.00     0.124 S 
ATOM     92  O   UNL A   1      52.100  24.111  32.145  1.00  0.00    -0.237 OA
ATOM     93  O   UNL A   1      52.587  26.532  32.218  1.00  0.00    -0.237 OA
ATOM     94  O   UNL A   1      51.732  25.389  34.225  1.00  0.00    -0.744 OA
ENDBRANCH  90  91
ENDBRANCH  64  85
ENDBRANCH  38  39
ENDBRANCH  30  33
ENDBRANCH  28  29
ENDBRANCH  27  28
ENDBRANCH   1  27
TORSDOF 18
ENDMDL
MODEL 3
REMARK VINA RESULT:     -11.2      4.587      9.887
REMARK SMILES CC(C)CCc1cc2c(cc1Cl)C=C(C(=O)NCCCCNC(=O)c1ccc(-c3c4nc(c(-c5ccc(S(=O)(=O)[O-])cc5)c5ccc([nH]5)c(-c5ccc(S(=O)(=O)[O-])cc5)c5nc(c(-c6ccc(S(=O)(=O)[O-])cc6)c6ccc3[nH]6)C=C5)C=C4)cc1)[C@@H](C(F)(F)F)O2
REMARK SMILES IDX 19 1 18 2 17 3 15 4 16 5 14 7 6 8 7 9 11 10 8 11 10 12 12 13
REMARK SMILES IDX 9 14 90 15 13 16 85 17 5 18 4 19 2 20 1 21 3 22 86 23 87 24
REMARK SMILES IDX 88 25 89 26 20 27 21 28 22 29 23 30 24 32 25 33 26 34 84 35
REMARK SMILES IDX 27 36 83 37 28 38 29 39 30 40 77 41 31 42 82 43 76 44 78 45
REMARK SMILES IDX 32 46 81 47 75 48 74 49 33 51 63 52 44 53 62 54 45 55 48 56
REMARK SMILES IDX 61 57 79 58 46 59 47 60 60 62 80 63 49 64 34 65 35 66 43 67
REMARK SMILES IDX 36 68 42 69 37 70 38 71 39 72 40 73 41 74 64 75 65 76 73 77
REMARK SMILES IDX 66 78 72 79 67 80 68 81 69 82 70 83 71 84 50 85 51 86 59 87
REMARK SMILES IDX 52 88 58 89 53 90 54 91 55 92 56 93 57 94
REMARK H PARENT 17 6 22 31 78 50 48 61
REMARK Flexibility Score: inf
ROOT
ATOM      1  C   UNL A   1      34.132  29.606  27.603  1.00  0.00     0.023 C 
ENDROOT
BRANCH   1   2
ATOM      2  C   UNL A   1      33.568  28.380  26.895  1.00  0.00     0.116 C 
BRANCH   2   3
ATOM      3  N   UNL A   1      33.572  28.514  25.450  1.00  0.00    -0.352 N 
ATOM      4  C   UNL A   1      33.430  27.675  24.398  1.00  0.00     0.251 C 
ATOM      5  O   UNL A   1      33.473  28.197  23.280  1.00  0.00    -0.270 OA
ATOM      6  H   UNL A   1      33.715  29.446  25.166  1.00  0.00     0.163 HD
BRANCH   4   7
ATOM      7  C   UNL A   1      33.244  26.198  24.509  1.00  0.00     0.067 C 
ATOM      8  C   UNL A   1      34.210  21.223  24.679  1.00  0.00    -0.026 A 
ATOM      9  C   UNL A   1      33.047  22.013  24.754  1.00  0.00     0.052 A 
ATOM     10  C   UNL A   1      35.437  21.882  24.510  1.00  0.00     0.045 A 
ATOM     11  C   UNL A   1      33.110  23.405  24.669  1.00  0.00     0.128 A 
ATOM     12  C   UNL A   1      35.490  23.275  24.375  1.00  0.00     0.032 A 
ATOM     13  Cl  UNL A   1      36.950  21.051  24.528  1.00  0.00    -0.084 Cl
ATOM     14  C   UNL A   1      34.326  24.041  24.461  1.00  0.00     0.019 A 
ATOM     15  O   UNL A   1      31.933  24.066  24.831  1.00  0.00    -0.475 OA
ATOM     16  C   UNL A   1      34.379  25.490  24.372  1.00  0.00     0.025 C 
ATOM     17  C   UNL A   1      31.915  25.518  24.711  1.00  0.00     0.314 C 
BRANCH   8  18
ATOM     18  C   UNL A   1      34.058  19.723  24.808  1.00  0.00     0.037 C 
BRANCH  18  19
ATOM     19  C   UNL A   1      32.802  19.146  24.131  1.00  0.00     0.008 C 
BRANCH  19  20
ATOM     20  C   UNL A   1      32.767  17.614  23.978  1.00  0.00    -0.017 C 
ATOM     21  C   UNL A   1      34.026  17.069  23.296  1.00  0.00     0.007 C 
ATOM     22  C   UNL A   1      32.617  16.945  25.347  1.00  0.00     0.007 C 
ENDBRANCH  19  20
ENDBRANCH  18  19
ENDBRANCH   8  18
BRANCH  17  23
ATOM     23  C   UNL A   1      30.871  25.854  23.632  1.00  0.00     0.429 C 
ATOM     24  F   UNL A   1      31.483  26.022  22.430  1.00  0.00    -0.167 F 
ATOM     25  F   UNL A   1      29.947  24.886  23.453  1.00  0.00    -0.167 F 
ATOM     26  F   UNL A   1      30.204  26.998  23.905  1.00  0.00    -0.167 F 
ENDBRANCH  17  23
ENDBRANCH   4   7
ENDBRANCH   2   3
ENDBRANCH   1   2
BRANCH   1  27
ATOM     27  C   UNL A   1      33.274  30.867  27.477  1.00  0.00     0.023 C 
BRANCH  27  28
ATOM     28  C   UNL A   1      34.040  32.186  27.451  1.00  0.00     0.116 C 
BRANCH  28  29
ATOM     29  N   UNL A   1      33.224  33.365  27.720  1.00  0.00    -0.352 N 
ATOM     30  C   UNL A   1      33.397  34.296  28.724  1.00  0.00     0.251 C 
ATOM     31  H   UNL A   1      32.462  33.513  27.115  1.00  0.00     0.163 HD
ATOM     32  O   UNL A   1      32.615  35.221  28.867  1.00  0.00    -0.269 OA
BRANCH  30  33
ATOM     33  C   UNL A   1      34.525  34.099  29.658  1.00  0.00     0.039 A 
ATOM     34  C   UNL A   1      35.814  34.472  29.276  1.00  0.00     0.014 A 
ATOM     35  C   UNL A   1      34.301  33.401  30.846  1.00  0.00     0.014 A 
ATOM     36  C   UNL A   1      36.899  33.982  29.992  1.00  0.00     0.010 A 
ATOM     37  C   UNL A   1      35.393  32.979  31.606  1.00  0.00     0.010 A 
ATOM     38  C   UNL A   1      36.699  33.211  31.151  1.00  0.00    -0.014 A 
BRANCH  38  39
ATOM     39  C   UNL A   1      37.874  32.629  31.846  1.00  0.00     0.031 A 
ATOM     40  C   UNL A   1      38.297  33.138  33.200  1.00  0.00     0.074 A 
ATOM     41  C   UNL A   1      38.513  31.583  31.290  1.00  0.00     0.049 A 
ATOM     42  N   UNL A   1      39.276  32.725  33.962  1.00  0.00    -0.248 NA
ATOM     43  C   UNL A   1      37.520  34.251  33.776  1.00  0.00     0.031 C 
ATOM     44  C   UNL A   1      38.165  30.980  30.001  1.00  0.00     0.029 A 
ATOM     45  N   UNL A   1      39.555  30.818  31.747  1.00  0.00    -0.354 N 
ATOM     46  C   UNL A   1      39.248  33.533  35.094  1.00  0.00     0.074 A 
ATOM     47  C   UNL A   1      38.169  34.478  34.911  1.00  0.00     0.031 C 
ATOM     48  C   UNL A   1      38.929  29.896  29.807  1.00  0.00     0.029 A 
ATOM     49  C   UNL A   1      39.869  29.769  30.917  1.00  0.00     0.049 A 
ATOM     50  H   UNL A   1      40.031  31.003  32.589  1.00  0.00     0.167 HD
ATOM     51  C   UNL A   1      40.043  33.483  36.189  1.00  0.00     0.031 A 
ATOM     52  C   UNL A   1      40.810  28.811  31.026  1.00  0.00     0.031 A 
ATOM     53  C   UNL A   1      41.108  32.531  36.368  1.00  0.00     0.049 A 
ATOM     54  C   UNL A   1      41.714  28.807  32.222  1.00  0.00     0.074 A 
ATOM     55  C   UNL A   1      41.972  32.405  37.443  1.00  0.00     0.029 A 
ATOM     56  N   UNL A   1      41.452  31.540  35.460  1.00  0.00    -0.354 N 
ATOM     57  N   UNL A   1      41.693  29.602  33.266  1.00  0.00    -0.248 NA
ATOM     58  C   UNL A   1      42.775  27.794  32.254  1.00  0.00     0.031 C 
ATOM     59  C   UNL A   1      42.869  31.371  37.162  1.00  0.00     0.029 A 
ATOM     60  C   UNL A   1      42.528  30.813  35.939  1.00  0.00     0.049 A 
ATOM     61  H   UNL A   1      40.997  31.378  34.602  1.00  0.00     0.167 HD
ATOM     62  C   UNL A   1      42.739  29.186  34.078  1.00  0.00     0.074 A 
ATOM     63  C   UNL A   1      43.359  28.056  33.417  1.00  0.00     0.031 C 
ATOM     64  C   UNL A   1      43.149  29.702  35.262  1.00  0.00     0.031 A 
BRANCH  51  65
ATOM     65  C   UNL A   1      39.811  34.492  37.282  1.00  0.00    -0.014 A 
ATOM     66  C   UNL A   1      40.422  35.759  37.204  1.00  0.00     0.010 A 
ATOM     67  C   UNL A   1      39.066  34.163  38.428  1.00  0.00     0.010 A 
ATOM     68  C   UNL A   1      40.304  36.671  38.256  1.00  0.00     0.020 A 
ATOM     69  C   UNL A   1      38.925  35.083  39.471  1.00  0.00     0.020 A 
ATOM     70  C   UNL A   1      39.560  36.325  39.387  1.00  0.00     0.054 A 
BRANCH  70  71
ATOM     71  S   UNL A   1      39.402  37.524  40.739  1.00  0.00     0.124 S 
ATOM     72  O   UNL A   1      38.443  38.479  40.194  1.00  0.00    -0.237 OA
ATOM     73  O   UNL A   1      38.916  36.702  41.845  1.00  0.00    -0.237 OA
ATOM     74  O   UNL A   1      40.764  38.028  40.905  1.00  0.00    -0.744 OA
ENDBRANCH  70  71
ENDBRANCH  51  65
BRANCH  52  75
ATOM     75  C   UNL A   1      40.905  27.782  29.959  1.00  0.00    -0.014 A 
ATOM     76  C   UNL A   1      41.925  27.856  28.992  1.00  0.00     0.010 A 
ATOM     77  C   UNL A   1      39.901  26.809  29.823  1.00  0.00     0.010 A 
ATOM     78  C   UNL A   1      41.898  27.026  27.869  1.00  0.00     0.020 A 
ATOM     79  C   UNL A   1      39.886  25.957  28.714  1.00  0.00     0.020 A 
ATOM     80  C   UNL A   1      40.865  26.097  27.727  1.00  0.00     0.054 A 
BRANCH  80  81
ATOM     81  S   UNL A   1      40.796  25.091  26.219  1.00  0.00     0.124 S 
ATOM     82  O   UNL A   1      39.388  24.706  26.185  1.00  0.00    -0.237 OA
ATOM     83  O   UNL A   1      41.216  26.032  25.184  1.00  0.00    -0.237 OA
ATOM     84  O   UNL A   1      41.736  24.007  26.491  1.00  0.00    -0.744 OA
ENDBRANCH  80  81
ENDBRANCH  52  75
BRANCH  64  85
ATOM     85  C   UNL A   1      44.340  29.073  35.930  1.00  0.00    -0.014 A 
ATOM     86  C   UNL A   1      44.153  28.034  36.860  1.00  0.00     0.010 A 
ATOM     87  C   UNL A   1      45.629  29.597  35.734  1.00  0.00     0.010 A 
ATOM     88  C   UNL A   1      45.230  27.552  37.608  1.00  0.00     0.020 A 
ATOM     89  C   UNL A   1      46.713  29.102  36.463  1.00  0.00     0.020 A 
ATOM     90  C   UNL A   1      46.501  28.099  37.414  1.00  0.00     0.054 A 
BRANCH  90  91
ATOM     91  S   UNL A   1      47.883  27.487  38.417  1.00  0.00     0.124 S 
ATOM     92  O   UNL A   1      48.480  26.485  37.539  1.00  0.00    -0.237 OA
ATOM     93  O   UNL A   1      48.683  28.690  38.635  1.00  0.00    -0.237 OA
ATOM     94  O   UNL A   1      47.229  26.959  39.613  1.00  0.00    -0.744 OA
ENDBRANCH  90  91
ENDBRANCH  64  85
ENDBRANCH  38  39
ENDBRANCH  30  33
ENDBRANCH  28  29
ENDBRANCH  27  28
ENDBRANCH   1  27
TORSDOF 18
ENDMDL
