MODEL 1
REMARK VINA RESULT:     -11.1      0.000      0.000
REMARK SMILES C[C@@H]1CN(C(=O)C[N@H+]2CCO[C@H](CC(=O)NCCCCNC(=O)c3ccc(-c4c5nc(c(-c6ccc(S(=O)(=O)[O-])cc6)c6ccc([nH]6)c(-c6ccc(S(=O)(=O)[O-])cc6)c6nc(c(-c7ccc(S(=O)(=O)[O-])cc7)c7ccc4[nH]7)C=C6)C=C5)cc3)C2)C[C@H](C)O1
REMARK SMILES IDX 18 1 17 2 16 3 14 4 15 5 13 7 12 8 8 9 9 10 84 11 10 13
REMARK SMILES IDX 11 14 7 15 5 16 6 17 4 18 1 19 2 20 3 21 88 22 86 23 85 24
REMARK SMILES IDX 87 25 19 26 20 27 21 28 22 29 23 31 24 32 25 33 83 34 26 35
REMARK SMILES IDX 82 36 27 37 28 38 29 39 76 40 30 41 81 42 75 43 77 44 31 45
REMARK SMILES IDX 80 46 74 47 73 48 32 50 62 51 43 52 61 53 44 54 47 55 60 56
REMARK SMILES IDX 78 57 45 58 46 59 59 61 79 62 48 63 33 64 34 65 42 66 35 67
REMARK SMILES IDX 41 68 36 69 37 70 38 71 39 72 40 73 63 74 64 75 72 76 65 77
REMARK SMILES IDX 71 78 66 79 67 80 68 81 69 82 70 83 49 84 50 85 58 86 51 87
REMARK SMILES IDX 57 88 52 89 53 90 54 91 55 92 56 93
REMARK H PARENT 16 6 8 12 21 30 77 49 47 60
REMARK Flexibility Score: inf
ROOT
ATOM      1  C   UNL A   1      34.082  30.941  27.702  1.00  0.00     0.023 C 
ENDROOT
BRANCH   1   2
ATOM      2  C   UNL A   1      32.756  30.750  26.950  1.00  0.00     0.116 C 
BRANCH   2   3
ATOM      3  N   UNL A   1      31.972  29.657  27.513  1.00  0.00    -0.356 N 
ATOM      4  C   UNL A   1      31.895  28.321  27.264  1.00  0.00     0.222 C 
ATOM      5  O   UNL A   1      31.158  27.660  28.002  1.00  0.00    -0.275 OA
ATOM      6  H   UNL A   1      31.365  29.949  28.231  1.00  0.00     0.163 HD
BRANCH   4   7
ATOM      7  C   UNL A   1      32.731  27.623  26.211  1.00  0.00     0.138 C 
BRANCH   7   8
ATOM      8  C   UNL A   1      32.007  27.033  24.998  1.00  0.00     0.182 C 
ATOM      9  N   UNL A   1      32.416  26.071  22.696  1.00  0.00    -0.323 N 
ATOM     10  C   UNL A   1      31.177  26.772  22.287  1.00  0.00     0.291 C 
ATOM     11  C   UNL A   1      32.971  26.821  23.834  1.00  0.00     0.295 C 
ATOM     12  H   UNL A   1      33.106  26.067  21.945  1.00  0.00     0.348 HD
ATOM     13  C   UNL A   1      30.228  27.150  23.453  1.00  0.00     0.222 C 
ATOM     14  O   UNL A   1      30.899  27.819  24.541  1.00  0.00    -0.366 OA
BRANCH   9  15
ATOM     15  C   UNL A   1      32.215  24.617  22.921  1.00  0.00     0.363 C 
BRANCH  15  16
ATOM     16  C   UNL A   1      33.507  23.843  23.280  1.00  0.00     0.277 C 
ATOM     17  O   UNL A   1      34.297  23.555  22.372  1.00  0.00    -0.268 OA
BRANCH  16  18
ATOM     18  N   UNL A   1      33.726  23.392  24.567  1.00  0.00    -0.333 N 
ATOM     19  C   UNL A   1      34.936  20.626  24.718  1.00  0.00     0.040 C 
ATOM     20  C   UNL A   1      34.180  21.343  25.817  1.00  0.00     0.135 C 
ATOM     21  C   UNL A   1      33.110  22.233  25.196  1.00  0.00     0.151 C 
ATOM     22  O   UNL A   1      35.040  22.044  26.729  1.00  0.00    -0.372 OA
ATOM     23  C   UNL A   1      35.477  23.368  26.378  1.00  0.00     0.135 C 
ATOM     24  C   UNL A   1      34.514  24.197  25.494  1.00  0.00     0.151 C 
ATOM     25  C   UNL A   1      36.930  23.354  25.893  1.00  0.00     0.040 C 
ENDBRANCH  16  18
ENDBRANCH  15  16
ENDBRANCH   9  15
ENDBRANCH   7   8
ENDBRANCH   4   7
ENDBRANCH   2   3
ENDBRANCH   1   2
BRANCH   1  26
ATOM     26  C   UNL A   1      35.298  30.153  27.202  1.00  0.00     0.023 C 
BRANCH  26  27
ATOM     27  C   UNL A   1      36.079  29.295  28.200  1.00  0.00     0.116 C 
BRANCH  27  28
ATOM     28  N   UNL A   1      35.837  29.623  29.598  1.00  0.00    -0.352 N 
ATOM     29  C   UNL A   1      36.688  29.647  30.680  1.00  0.00     0.251 C 
ATOM     30  H   UNL A   1      34.906  29.869  29.804  1.00  0.00     0.163 HD
ATOM     31  O   UNL A   1      36.261  29.721  31.829  1.00  0.00    -0.269 OA
BRANCH  29  32
ATOM     32  C   UNL A   1      38.134  29.632  30.424  1.00  0.00     0.039 A 
ATOM     33  C   UNL A   1      39.016  29.017  31.314  1.00  0.00     0.014 A 
ATOM     34  C   UNL A   1      38.588  30.200  29.233  1.00  0.00     0.014 A 
ATOM     35  C   UNL A   1      40.345  28.857  30.932  1.00  0.00     0.010 A 
ATOM     36  C   UNL A   1      39.873  29.940  28.808  1.00  0.00     0.010 A 
ATOM     37  C   UNL A   1      40.756  29.251  29.646  1.00  0.00    -0.014 A 
BRANCH  37  38
ATOM     38  C   UNL A   1      42.078  28.878  29.106  1.00  0.00     0.031 A 
ATOM     39  C   UNL A   1      43.168  29.905  29.013  1.00  0.00     0.074 A 
ATOM     40  C   UNL A   1      42.224  27.646  28.581  1.00  0.00     0.049 A 
ATOM     41  N   UNL A   1      44.375  29.777  28.530  1.00  0.00    -0.248 NA
ATOM     42  C   UNL A   1      42.850  31.266  29.480  1.00  0.00     0.031 C 
ATOM     43  C   UNL A   1      41.173  26.621  28.517  1.00  0.00     0.029 A 
ATOM     44  N   UNL A   1      43.305  27.042  27.999  1.00  0.00    -0.354 N 
ATOM     45  C   UNL A   1      44.950  31.039  28.618  1.00  0.00     0.074 A 
ATOM     46  C   UNL A   1      43.940  31.933  29.136  1.00  0.00     0.031 C 
ATOM     47  C   UNL A   1      41.679  25.501  27.981  1.00  0.00     0.029 A 
ATOM     48  C   UNL A   1      43.075  25.735  27.636  1.00  0.00     0.049 A 
ATOM     49  H   UNL A   1      44.165  27.498  27.853  1.00  0.00     0.167 HD
ATOM     50  C   UNL A   1      46.216  31.407  28.318  1.00  0.00     0.031 A 
ATOM     51  C   UNL A   1      43.910  24.824  27.106  1.00  0.00     0.031 A 
ATOM     52  C   UNL A   1      47.203  30.490  27.818  1.00  0.00     0.049 A 
ATOM     53  C   UNL A   1      45.335  25.230  26.867  1.00  0.00     0.074 A 
ATOM     54  C   UNL A   1      48.536  30.721  27.536  1.00  0.00     0.029 A 
ATOM     55  N   UNL A   1      46.956  29.152  27.535  1.00  0.00    -0.354 N 
ATOM     56  N   UNL A   1      45.893  26.406  27.042  1.00  0.00    -0.248 NA
ATOM     57  C   UNL A   1      46.250  24.188  26.389  1.00  0.00     0.031 C 
ATOM     58  C   UNL A   1      49.089  29.528  27.052  1.00  0.00     0.029 A 
ATOM     59  C   UNL A   1      48.112  28.545  27.079  1.00  0.00     0.049 A 
ATOM     60  H   UNL A   1      46.087  28.704  27.642  1.00  0.00     0.167 HD
ATOM     61  C   UNL A   1      47.233  26.239  26.722  1.00  0.00     0.074 A 
ATOM     62  C   UNL A   1      47.402  24.845  26.359  1.00  0.00     0.031 C 
ATOM     63  C   UNL A   1      48.236  27.152  26.727  1.00  0.00     0.031 A 
BRANCH  50  64
ATOM     64  C   UNL A   1      46.590  32.849  28.541  1.00  0.00    -0.014 A 
ATOM     65  C   UNL A   1      46.435  33.803  27.517  1.00  0.00     0.010 A 
ATOM     66  C   UNL A   1      47.099  33.264  29.784  1.00  0.00     0.010 A 
ATOM     67  C   UNL A   1      46.830  35.129  27.712  1.00  0.00     0.020 A 
ATOM     68  C   UNL A   1      47.469  34.597  29.995  1.00  0.00     0.020 A 
ATOM     69  C   UNL A   1      47.351  35.516  28.950  1.00  0.00     0.054 A 
BRANCH  69  70
ATOM     70  S   UNL A   1      47.848  37.245  29.181  1.00  0.00     0.124 S 
ATOM     71  O   UNL A   1      46.557  37.928  29.200  1.00  0.00    -0.237 OA
ATOM     72  O   UNL A   1      48.557  37.208  30.459  1.00  0.00    -0.237 OA
ATOM     73  O   UNL A   1      48.684  37.524  28.016  1.00  0.00    -0.744 OA
ENDBRANCH  69  70
ENDBRANCH  50  64
BRANCH  51  74
ATOM     74  C   UNL A   1      43.434  23.437  26.852  1.00  0.00    -0.014 A 
ATOM     75  C   UNL A   1      43.580  22.859  25.579  1.00  0.00     0.010 A 
ATOM     76  C   UNL A   1      42.881  22.666  27.892  1.00  0.00     0.010 A 
ATOM     77  C   UNL A   1      43.163  21.546  25.341  1.00  0.00     0.020 A 
ATOM     78  C   UNL A   1      42.486  21.343  27.664  1.00  0.00     0.020 A 
ATOM     79  C   UNL A   1      42.619  20.796  26.386  1.00  0.00     0.054 A 
BRANCH  79  80
ATOM     80  S   UNL A   1      42.135  19.075  26.070  1.00  0.00     0.124 S 
ATOM     81  O   UNL A   1      40.705  19.207  25.808  1.00  0.00    -0.237 OA
ATOM     82  O   UNL A   1      42.961  18.720  24.919  1.00  0.00    -0.237 OA
ATOM     83  O   UNL A   1      42.485  18.389  27.312  1.00  0.00    -0.744 OA
ENDBRANCH  79  80
ENDBRANCH  51  74
BRANCH  63  84
ATOM     84  C   UNL A   1      49.604  26.654  26.360  1.00  0.00    -0.014 A 
ATOM     85  C   UNL A   1      50.123  26.844  25.068  1.00  0.00     0.010 A 
ATOM     86  C   UNL A   1      50.392  26.023  27.337  1.00  0.00     0.010 A 
ATOM     87  C   UNL A   1      51.397  26.375  24.748  1.00  0.00     0.020 A 
ATOM     88  C   UNL A   1      51.677  25.575  27.029  1.00  0.00     0.020 A 
ATOM     89  C   UNL A   1      52.164  25.738  25.730  1.00  0.00     0.054 A 
BRANCH  89  90
ATOM     90  S   UNL A   1      53.828  25.163  25.301  1.00  0.00     0.124 S 
ATOM     91  O   UNL A   1      53.672  23.712  25.367  1.00  0.00    -0.237 OA
ATOM     92  O   UNL A   1      54.025  25.714  23.962  1.00  0.00    -0.237 OA
ATOM     93  O   UNL A   1      54.674  25.747  26.339  1.00  0.00    -0.744 OA
ENDBRANCH  89  90
ENDBRANCH  63  84
ENDBRANCH  37  38
ENDBRANCH  29  32
ENDBRANCH  27  28
ENDBRANCH  26  27
ENDBRANCH   1  26
TORSDOF 18
ENDMDL
MODEL 2
REMARK VINA RESULT:     -11.0      6.448     12.066
REMARK SMILES C[C@@H]1CN(C(=O)C[N@H+]2CCO[C@H](CC(=O)NCCCCNC(=O)c3ccc(-c4c5nc(c(-c6ccc(S(=O)(=O)[O-])cc6)c6ccc([nH]6)c(-c6ccc(S(=O)(=O)[O-])cc6)c6nc(c(-c7ccc(S(=O)(=O)[O-])cc7)c7ccc4[nH]7)C=C6)C=C5)cc3)C2)C[C@H](C)O1
REMARK SMILES IDX 18 1 17 2 16 3 14 4 15 5 13 7 12 8 8 9 9 10 84 11 10 13
REMARK SMILES IDX 11 14 7 15 5 16 6 17 4 18 1 19 2 20 3 21 88 22 86 23 85 24
REMARK SMILES IDX 87 25 19 26 20 27 21 28 22 29 23 31 24 32 25 33 83 34 26 35
REMARK SMILES IDX 82 36 27 37 28 38 29 39 76 40 30 41 81 42 75 43 77 44 31 45
REMARK SMILES IDX 80 46 74 47 73 48 32 50 62 51 43 52 61 53 44 54 47 55 60 56
REMARK SMILES IDX 78 57 45 58 46 59 59 61 79 62 48 63 33 64 34 65 42 66 35 67
REMARK SMILES IDX 41 68 36 69 37 70 38 71 39 72 40 73 63 74 64 75 72 76 65 77
REMARK SMILES IDX 71 78 66 79 67 80 68 81 69 82 70 83 49 84 50 85 58 86 51 87
REMARK SMILES IDX 57 88 52 89 53 90 54 91 55 92 56 93
REMARK H PARENT 16 6 8 12 21 30 77 49 47 60
REMARK Flexibility Score: inf
ROOT
ATOM      1  C   UNL A   1      37.235  23.792  25.349  1.00  0.00     0.023 C 
ENDROOT
BRANCH   1   2
ATOM      2  C   UNL A   1      36.989  22.944  24.091  1.00  0.00     0.116 C 
BRANCH   2   3
ATOM      3  N   UNL A   1      37.026  21.518  24.391  1.00  0.00    -0.356 N 
ATOM      4  C   UNL A   1      36.121  20.632  24.890  1.00  0.00     0.222 C 
ATOM      5  O   UNL A   1      36.474  19.449  24.944  1.00  0.00    -0.275 OA
ATOM      6  H   UNL A   1      37.896  21.104  24.186  1.00  0.00     0.163 HD
BRANCH   4   7
ATOM      7  C   UNL A   1      34.708  21.017  25.277  1.00  0.00     0.138 C 
BRANCH   7   8
ATOM      8  C   UNL A   1      33.893  21.845  24.279  1.00  0.00     0.182 C 
ATOM      9  N   UNL A   1      32.801  24.105  23.977  1.00  0.00    -0.323 N 
ATOM     10  C   UNL A   1      31.713  23.380  23.279  1.00  0.00     0.291 C 
ATOM     11  C   UNL A   1      33.415  23.149  24.912  1.00  0.00     0.295 C 
ATOM     12  H   UNL A   1      32.438  24.893  24.513  1.00  0.00     0.348 HD
ATOM     13  C   UNL A   1      32.103  21.976  22.749  1.00  0.00     0.222 C 
ATOM     14  O   UNL A   1      32.760  21.155  23.736  1.00  0.00    -0.366 OA
BRANCH   9  15
ATOM     15  C   UNL A   1      33.737  24.786  23.046  1.00  0.00     0.363 C 
BRANCH  15  16
ATOM     16  C   UNL A   1      33.053  25.754  22.051  1.00  0.00     0.277 C 
ATOM     17  O   UNL A   1      33.100  25.494  20.842  1.00  0.00    -0.268 OA
BRANCH  16  18
ATOM     18  N   UNL A   1      32.493  26.938  22.491  1.00  0.00    -0.333 N 
ATOM     19  C   UNL A   1      30.853  26.667  25.016  1.00  0.00     0.040 C 
ATOM     20  C   UNL A   1      30.769  27.786  24.000  1.00  0.00     0.135 C 
ATOM     21  C   UNL A   1      31.073  27.233  22.613  1.00  0.00     0.151 C 
ATOM     22  O   UNL A   1      31.575  28.923  24.344  1.00  0.00    -0.372 OA
ATOM     23  C   UNL A   1      32.967  28.911  23.985  1.00  0.00     0.135 C 
ATOM     24  C   UNL A   1      33.342  28.102  22.718  1.00  0.00     0.151 C 
ATOM     25  C   UNL A   1      33.845  28.619  25.206  1.00  0.00     0.040 C 
ENDBRANCH  16  18
ENDBRANCH  15  16
ENDBRANCH   9  15
ENDBRANCH   7   8
ENDBRANCH   4   7
ENDBRANCH   2   3
ENDBRANCH   1   2
BRANCH   1  26
ATOM     26  C   UNL A   1      38.354  23.345  26.296  1.00  0.00     0.023 C 
BRANCH  26  27
ATOM     27  C   UNL A   1      39.129  24.411  27.073  1.00  0.00     0.116 C 
BRANCH  27  28
ATOM     28  N   UNL A   1      40.163  25.088  26.303  1.00  0.00    -0.352 N 
ATOM     29  C   UNL A   1      40.623  26.385  26.353  1.00  0.00     0.251 C 
ATOM     30  H   UNL A   1      40.609  24.522  25.633  1.00  0.00     0.163 HD
ATOM     31  O   UNL A   1      41.341  26.844  25.470  1.00  0.00    -0.269 OA
BRANCH  29  32
ATOM     32  C   UNL A   1      40.274  27.199  27.525  1.00  0.00     0.039 A 
ATOM     33  C   UNL A   1      39.586  26.646  28.606  1.00  0.00     0.014 A 
ATOM     34  C   UNL A   1      40.705  28.526  27.545  1.00  0.00     0.014 A 
ATOM     35  C   UNL A   1      39.453  27.400  29.768  1.00  0.00     0.010 A 
ATOM     36  C   UNL A   1      40.675  29.227  28.731  1.00  0.00     0.010 A 
ATOM     37  C   UNL A   1      40.065  28.663  29.857  1.00  0.00    -0.014 A 
BRANCH  37  38
ATOM     38  C   UNL A   1      40.167  29.387  31.139  1.00  0.00     0.031 A 
ATOM     39  C   UNL A   1      41.263  29.051  32.107  1.00  0.00     0.074 A 
ATOM     40  C   UNL A   1      39.178  30.242  31.464  1.00  0.00     0.049 A 
ATOM     41  N   UNL A   1      41.487  29.546  33.294  1.00  0.00    -0.248 NA
ATOM     42  C   UNL A   1      42.205  27.989  31.711  1.00  0.00     0.031 C 
ATOM     43  C   UNL A   1      38.003  30.537  30.632  1.00  0.00     0.029 A 
ATOM     44  N   UNL A   1      38.995  31.021  32.574  1.00  0.00    -0.354 N 
ATOM     45  C   UNL A   1      42.580  28.845  33.792  1.00  0.00     0.074 A 
ATOM     46  C   UNL A   1      42.930  27.846  32.809  1.00  0.00     0.031 C 
ATOM     47  C   UNL A   1      37.255  31.471  31.237  1.00  0.00     0.029 A 
ATOM     48  C   UNL A   1      37.876  31.818  32.508  1.00  0.00     0.049 A 
ATOM     49  H   UNL A   1      39.604  31.010  33.347  1.00  0.00     0.167 HD
ATOM     50  C   UNL A   1      43.244  29.041  34.953  1.00  0.00     0.031 A 
ATOM     51  C   UNL A   1      37.420  32.744  33.371  1.00  0.00     0.031 A 
ATOM     52  C   UNL A   1      42.879  30.055  35.905  1.00  0.00     0.049 A 
ATOM     53  C   UNL A   1      38.225  33.008  34.610  1.00  0.00     0.074 A 
ATOM     54  C   UNL A   1      43.507  30.399  37.088  1.00  0.00     0.029 A 
ATOM     55  N   UNL A   1      41.784  30.899  35.769  1.00  0.00    -0.354 N 
ATOM     56  N   UNL A   1      39.312  32.400  35.026  1.00  0.00    -0.248 NA
ATOM     57  C   UNL A   1      37.764  34.094  35.480  1.00  0.00     0.031 C 
ATOM     58  C   UNL A   1      42.772  31.432  37.683  1.00  0.00     0.029 A 
ATOM     59  C   UNL A   1      41.716  31.762  36.847  1.00  0.00     0.049 A 
ATOM     60  H   UNL A   1      41.150  30.884  35.016  1.00  0.00     0.167 HD
ATOM     61  C   UNL A   1      39.683  33.050  36.195  1.00  0.00     0.074 A 
ATOM     62  C   UNL A   1      38.712  34.107  36.408  1.00  0.00     0.031 C 
ATOM     63  C   UNL A   1      40.730  32.800  37.020  1.00  0.00     0.031 A 
BRANCH  50  64
ATOM     64  C   UNL A   1      44.427  28.152  35.235  1.00  0.00    -0.014 A 
ATOM     65  C   UNL A   1      44.252  26.782  35.510  1.00  0.00     0.010 A 
ATOM     66  C   UNL A   1      45.729  28.683  35.223  1.00  0.00     0.010 A 
ATOM     67  C   UNL A   1      45.348  25.973  35.819  1.00  0.00     0.020 A 
ATOM     68  C   UNL A   1      46.833  27.870  35.503  1.00  0.00     0.020 A 
ATOM     69  C   UNL A   1      46.633  26.525  35.820  1.00  0.00     0.054 A 
BRANCH  69  70
ATOM     70  S   UNL A   1      48.040  25.450  36.215  1.00  0.00     0.124 S 
ATOM     71  O   UNL A   1      47.661  24.204  35.554  1.00  0.00    -0.237 OA
ATOM     72  O   UNL A   1      49.166  26.162  35.615  1.00  0.00    -0.237 OA
ATOM     73  O   UNL A   1      48.042  25.406  37.675  1.00  0.00    -0.744 OA
ENDBRANCH  69  70
ENDBRANCH  50  64
BRANCH  51  74
ATOM     74  C   UNL A   1      36.199  33.529  33.043  1.00  0.00    -0.014 A 
ATOM     75  C   UNL A   1      34.923  32.989  33.283  1.00  0.00     0.010 A 
ATOM     76  C   UNL A   1      36.302  34.839  32.539  1.00  0.00     0.010 A 
ATOM     77  C   UNL A   1      33.773  33.733  33.006  1.00  0.00     0.020 A 
ATOM     78  C   UNL A   1      35.153  35.596  32.285  1.00  0.00     0.020 A 
ATOM     79  C   UNL A   1      33.895  35.033  32.509  1.00  0.00     0.054 A 
BRANCH  79  80
ATOM     80  S   UNL A   1      32.389  36.000  32.208  1.00  0.00     0.124 S 
ATOM     81  O   UNL A   1      31.342  35.058  32.590  1.00  0.00    -0.237 OA
ATOM     82  O   UNL A   1      32.565  37.146  33.096  1.00  0.00    -0.237 OA
ATOM     83  O   UNL A   1      32.463  36.312  30.782  1.00  0.00    -0.744 OA
ENDBRANCH  79  80
ENDBRANCH  51  74
BRANCH  63  84
ATOM     84  C   UNL A   1      40.889  33.711  38.204  1.00  0.00    -0.014 A 
ATOM     85  C   UNL A   1      41.578  34.930  38.094  1.00  0.00     0.010 A 
ATOM     86  C   UNL A   1      40.303  33.354  39.430  1.00  0.00     0.010 A 
ATOM     87  C   UNL A   1      41.713  35.762  39.206  1.00  0.00     0.020 A 
ATOM     88  C   UNL A   1      40.412  34.194  40.538  1.00  0.00     0.020 A 
ATOM     89  C   UNL A   1      41.133  35.386  40.422  1.00  0.00     0.054 A 
BRANCH  89  90
ATOM     90  S   UNL A   1      41.295  36.495  41.846  1.00  0.00     0.124 S 
ATOM     91  O   UNL A   1      39.899  36.737  42.201  1.00  0.00    -0.237 OA
ATOM     92  O   UNL A   1      42.057  35.690  42.798  1.00  0.00    -0.237 OA
ATOM     93  O   UNL A   1      42.009  37.650  41.305  1.00  0.00    -0.744 OA
ENDBRANCH  89  90
ENDBRANCH  63  84
ENDBRANCH  37  38
ENDBRANCH  29  32
ENDBRANCH  27  28
ENDBRANCH  26  27
ENDBRANCH   1  26
TORSDOF 18
ENDMDL
MODEL 3
REMARK VINA RESULT:     -11.0      6.276     10.428
REMARK SMILES C[C@@H]1CN(C(=O)C[N@H+]2CCO[C@H](CC(=O)NCCCCNC(=O)c3ccc(-c4c5nc(c(-c6ccc(S(=O)(=O)[O-])cc6)c6ccc([nH]6)c(-c6ccc(S(=O)(=O)[O-])cc6)c6nc(c(-c7ccc(S(=O)(=O)[O-])cc7)c7ccc4[nH]7)C=C6)C=C5)cc3)C2)C[C@H](C)O1
REMARK SMILES IDX 18 1 17 2 16 3 14 4 15 5 13 7 12 8 8 9 9 10 84 11 10 13
REMARK SMILES IDX 11 14 7 15 5 16 6 17 4 18 1 19 2 20 3 21 88 22 86 23 85 24
REMARK SMILES IDX 87 25 19 26 20 27 21 28 22 29 23 31 24 32 25 33 83 34 26 35
REMARK SMILES IDX 82 36 27 37 28 38 29 39 76 40 30 41 81 42 75 43 77 44 31 45
REMARK SMILES IDX 80 46 74 47 73 48 32 50 62 51 43 52 61 53 44 54 47 55 60 56
REMARK SMILES IDX 78 57 45 58 46 59 59 61 79 62 48 63 33 64 34 65 42 66 35 67
REMARK SMILES IDX 41 68 36 69 37 70 38 71 39 72 40 73 63 74 64 75 72 76 65 77
REMARK SMILES IDX 71 78 66 79 67 80 68 81 69 82 70 83 49 84 50 85 58 86 51 87
REMARK SMILES IDX 57 88 52 89 53 90 54 91 55 92 56 93
REMARK H PARENT 16 6 8 12 21 30 77 49 47 60
REMARK Flexibility Score: inf
ROOT
ATOM      1  C   UNL A   1      35.127  30.635  28.077  1.00  0.00     0.023 C 
ENDROOT
BRANCH   1   2
ATOM      2  C   UNL A   1      34.832  29.321  27.336  1.00  0.00     0.116 C 
BRANCH   2   3
ATOM      3  N   UNL A   1      33.589  28.714  27.796  1.00  0.00    -0.356 N 
ATOM      4  C   UNL A   1      32.340  28.600  27.268  1.00  0.00     0.222 C 
ATOM      5  O   UNL A   1      31.522  27.936  27.913  1.00  0.00    -0.275 OA
ATOM      6  H   UNL A   1      33.671  28.293  28.682  1.00  0.00     0.163 HD
BRANCH   4   7
ATOM      7  C   UNL A   1      31.956  29.158  25.912  1.00  0.00     0.138 C 
BRANCH   7   8
ATOM      8  C   UNL A   1      31.421  28.180  24.862  1.00  0.00     0.182 C 
ATOM      9  N   UNL A   1      32.170  26.514  23.114  1.00  0.00    -0.323 N 
ATOM     10  C   UNL A   1      31.039  27.010  22.294  1.00  0.00     0.291 C 
ATOM     11  C   UNL A   1      32.556  27.613  24.013  1.00  0.00     0.295 C 
ATOM     12  H   UNL A   1      32.973  26.275  22.533  1.00  0.00     0.348 HD
ATOM     13  C   UNL A   1      29.925  27.735  23.093  1.00  0.00     0.222 C 
ATOM     14  O   UNL A   1      30.431  28.744  23.991  1.00  0.00    -0.366 OA
BRANCH   9  15
ATOM     15  C   UNL A   1      31.884  25.214  23.774  1.00  0.00     0.363 C 
BRANCH  15  16
ATOM     16  C   UNL A   1      33.104  24.267  23.871  1.00  0.00     0.277 C 
ATOM     17  O   UNL A   1      34.164  24.608  23.331  1.00  0.00    -0.268 OA
BRANCH  16  18
ATOM     18  N   UNL A   1      32.987  23.022  24.456  1.00  0.00    -0.333 N 
ATOM     19  C   UNL A   1      35.594  21.508  24.676  1.00  0.00     0.040 C 
ATOM     20  C   UNL A   1      34.200  20.918  24.722  1.00  0.00     0.135 C 
ATOM     21  C   UNL A   1      33.274  21.739  23.832  1.00  0.00     0.151 C 
ATOM     22  O   UNL A   1      33.700  20.754  26.058  1.00  0.00    -0.372 OA
ATOM     23  C   UNL A   1      33.078  21.879  26.701  1.00  0.00     0.135 C 
ATOM     24  C   UNL A   1      32.367  22.894  25.771  1.00  0.00     0.151 C 
ATOM     25  C   UNL A   1      34.021  22.514  27.727  1.00  0.00     0.040 C 
ENDBRANCH  16  18
ENDBRANCH  15  16
ENDBRANCH   9  15
ENDBRANCH   7   8
ENDBRANCH   4   7
ENDBRANCH   2   3
ENDBRANCH   1   2
BRANCH   1  26
ATOM     26  C   UNL A   1      34.087  31.756  27.970  1.00  0.00     0.023 C 
BRANCH  26  27
ATOM     27  C   UNL A   1      34.572  33.205  27.909  1.00  0.00     0.116 C 
BRANCH  27  28
ATOM     28  N   UNL A   1      33.679  34.169  28.537  1.00  0.00    -0.352 N 
ATOM     29  C   UNL A   1      33.493  34.498  29.862  1.00  0.00     0.251 C 
ATOM     30  H   UNL A   1      33.113  34.671  27.907  1.00  0.00     0.163 HD
ATOM     31  O   UNL A   1      32.531  35.169  30.224  1.00  0.00    -0.269 OA
BRANCH  29  32
ATOM     32  C   UNL A   1      34.507  34.067  30.831  1.00  0.00     0.039 A 
ATOM     33  C   UNL A   1      34.450  32.802  31.418  1.00  0.00     0.014 A 
ATOM     34  C   UNL A   1      35.562  34.941  31.100  1.00  0.00     0.014 A 
ATOM     35  C   UNL A   1      35.534  32.367  32.175  1.00  0.00     0.010 A 
ATOM     36  C   UNL A   1      36.681  34.468  31.751  1.00  0.00     0.010 A 
ATOM     37  C   UNL A   1      36.683  33.172  32.278  1.00  0.00    -0.014 A 
BRANCH  37  38
ATOM     38  C   UNL A   1      37.942  32.657  32.851  1.00  0.00     0.031 A 
ATOM     39  C   UNL A   1      38.855  31.808  32.017  1.00  0.00     0.074 A 
ATOM     40  C   UNL A   1      38.166  32.854  34.165  1.00  0.00     0.049 A 
ATOM     41  N   UNL A   1      39.977  31.232  32.359  1.00  0.00    -0.248 NA
ATOM     42  C   UNL A   1      38.434  31.530  30.633  1.00  0.00     0.031 C 
ATOM     43  C   UNL A   1      37.266  33.565  35.083  1.00  0.00     0.029 A 
ATOM     44  N   UNL A   1      39.214  32.478  34.961  1.00  0.00    -0.354 N 
ATOM     45  C   UNL A   1      40.384  30.513  31.241  1.00  0.00     0.074 A 
ATOM     46  C   UNL A   1      39.357  30.668  30.236  1.00  0.00     0.031 C 
ATOM     47  C   UNL A   1      37.827  33.620  36.300  1.00  0.00     0.029 A 
ATOM     48  C   UNL A   1      39.107  32.925  36.258  1.00  0.00     0.049 A 
ATOM     49  H   UNL A   1      39.970  31.938  34.638  1.00  0.00     0.167 HD
ATOM     50  C   UNL A   1      41.526  29.811  31.066  1.00  0.00     0.031 A 
ATOM     51  C   UNL A   1      39.962  32.806  37.288  1.00  0.00     0.031 A 
ATOM     52  C   UNL A   1      42.536  29.688  32.082  1.00  0.00     0.049 A 
ATOM     53  C   UNL A   1      41.265  32.100  37.044  1.00  0.00     0.074 A 
ATOM     54  C   UNL A   1      43.765  29.059  32.010  1.00  0.00     0.029 A 
ATOM     55  N   UNL A   1      42.430  30.220  33.360  1.00  0.00    -0.354 N 
ATOM     56  N   UNL A   1      41.680  31.501  35.951  1.00  0.00    -0.248 NA
ATOM     57  C   UNL A   1      42.224  32.077  38.152  1.00  0.00     0.031 C 
ATOM     58  C   UNL A   1      44.389  29.186  33.257  1.00  0.00     0.029 A 
ATOM     59  C   UNL A   1      43.570  29.934  34.088  1.00  0.00     0.049 A 
ATOM     60  H   UNL A   1      41.656  30.727  33.698  1.00  0.00     0.167 HD
ATOM     61  C   UNL A   1      42.963  31.053  36.232  1.00  0.00     0.074 A 
ATOM     62  C   UNL A   1      43.258  31.465  37.591  1.00  0.00     0.031 C 
ATOM     63  C   UNL A   1      43.822  30.363  35.441  1.00  0.00     0.031 A 
BRANCH  50  64
ATOM     64  C   UNL A   1      41.734  29.146  29.730  1.00  0.00    -0.014 A 
ATOM     65  C   UNL A   1      42.340  29.838  28.665  1.00  0.00     0.010 A 
ATOM     66  C   UNL A   1      41.324  27.816  29.532  1.00  0.00     0.010 A 
ATOM     67  C   UNL A   1      42.485  29.234  27.414  1.00  0.00     0.020 A 
ATOM     68  C   UNL A   1      41.494  27.196  28.289  1.00  0.00     0.020 A 
ATOM     69  C   UNL A   1      42.055  27.917  27.232  1.00  0.00     0.054 A 
BRANCH  69  70
ATOM     70  S   UNL A   1      42.263  27.152  25.601  1.00  0.00     0.124 S 
ATOM     71  O   UNL A   1      41.056  26.336  25.495  1.00  0.00    -0.237 OA
ATOM     72  O   UNL A   1      42.319  28.307  24.708  1.00  0.00    -0.237 OA
ATOM     73  O   UNL A   1      43.512  26.404  25.726  1.00  0.00    -0.744 OA
ENDBRANCH  69  70
ENDBRANCH  50  64
BRANCH  51  74
ATOM     74  C   UNL A   1      39.643  33.436  38.598  1.00  0.00    -0.014 A 
ATOM     75  C   UNL A   1      38.994  32.696  39.601  1.00  0.00     0.010 A 
ATOM     76  C   UNL A   1      40.031  34.761  38.870  1.00  0.00     0.010 A 
ATOM     77  C   UNL A   1      38.718  33.273  40.845  1.00  0.00     0.020 A 
ATOM     78  C   UNL A   1      39.780  35.333  40.122  1.00  0.00     0.020 A 
ATOM     79  C   UNL A   1      39.113  34.588  41.098  1.00  0.00     0.054 A 
BRANCH  79  80
ATOM     80  S   UNL A   1      38.794  35.299  42.737  1.00  0.00     0.124 S 
ATOM     81  O   UNL A   1      39.296  36.660  42.580  1.00  0.00    -0.237 OA
ATOM     82  O   UNL A   1      37.345  35.168  42.863  1.00  0.00    -0.237 OA
ATOM     83  O   UNL A   1      39.568  34.445  43.636  1.00  0.00    -0.744 OA
ENDBRANCH  79  80
ENDBRANCH  51  74
BRANCH  63  84
ATOM     84  C   UNL A   1      45.170  30.048  36.024  1.00  0.00    -0.014 A 
ATOM     85  C   UNL A   1      46.247  30.940  35.887  1.00  0.00     0.010 A 
ATOM     86  C   UNL A   1      45.344  28.858  36.752  1.00  0.00     0.010 A 
ATOM     87  C   UNL A   1      47.491  30.628  36.437  1.00  0.00     0.020 A 
ATOM     88  C   UNL A   1      46.578  28.554  37.326  1.00  0.00     0.020 A 
ATOM     89  C   UNL A   1      47.649  29.434  37.149  1.00  0.00     0.054 A 
BRANCH  89  90
ATOM     90  S   UNL A   1      49.265  29.062  37.881  1.00  0.00     0.124 S 
ATOM     91  O   UNL A   1      49.691  27.905  37.100  1.00  0.00    -0.237 OA
ATOM     92  O   UNL A   1      50.017  30.293  37.645  1.00  0.00    -0.237 OA
ATOM     93  O   UNL A   1      48.954  28.789  39.283  1.00  0.00    -0.744 OA
ENDBRANCH  89  90
ENDBRANCH  63  84
ENDBRANCH  37  38
ENDBRANCH  29  32
ENDBRANCH  27  28
ENDBRANCH  26  27
ENDBRANCH   1  26
TORSDOF 18
ENDMDL
