MODEL 1
REMARK VINA RESULT:     -11.5      0.000      0.000
REMARK SMILES NC(=O)c1ccsc1NS(=O)(=O)c1ccc(C(=O)NCCCCNC(=O)c2ccc(-c3c4nc(c(-c5ccc(S(=O)(=O)[O-])cc5)c5ccc([nH]5)c(-c5ccc(S(=O)(=O)[O-])cc5)c5nc(c(-c6ccc(S(=O)(=O)[O-])cc6)c6ccc3[nH]6)C=C5)C=C4)cc2)cc1
REMARK SMILES IDX 21 1 20 2 19 3 17 4 18 5 16 7 13 8 14 9 88 10 15 11 87 12
REMARK SMILES IDX 10 13 11 14 12 15 9 16 8 18 4 19 5 20 6 21 7 22 2 23 1 24
REMARK SMILES IDX 3 27 22 28 23 29 24 30 25 31 26 33 27 34 28 35 86 36 29 37
REMARK SMILES IDX 85 38 30 39 31 40 32 41 79 42 33 43 84 44 78 45 80 46 34 47
REMARK SMILES IDX 83 48 77 49 76 50 35 52 65 53 46 54 64 55 47 56 50 57 63 58
REMARK SMILES IDX 81 59 48 60 49 61 62 63 82 64 51 65 36 66 37 67 45 68 38 69
REMARK SMILES IDX 44 70 39 71 40 72 41 73 42 74 43 75 66 76 67 77 75 78 68 79
REMARK SMILES IDX 74 80 69 81 70 82 71 83 72 84 73 85 52 86 53 87 61 88 54 89
REMARK SMILES IDX 60 90 55 91 56 92 57 93 58 94 59 95
REMARK H PARENT 19 6 9 17 1 25 1 26 24 32 80 51 50 62
REMARK Flexibility Score: inf
ROOT
ATOM      1  C   UNL A   1      34.756  30.040  27.600  1.00  0.00     0.023 C 
ENDROOT
BRANCH   1   2
ATOM      2  C   UNL A   1      33.379  29.682  27.038  1.00  0.00     0.116 C 
BRANCH   2   3
ATOM      3  N   UNL A   1      33.358  29.774  25.590  1.00  0.00    -0.352 N 
ATOM      4  C   UNL A   1      33.002  28.846  24.643  1.00  0.00     0.251 C 
ATOM      5  O   UNL A   1      32.938  29.188  23.463  1.00  0.00    -0.269 OA
ATOM      6  H   UNL A   1      33.646  30.643  25.227  1.00  0.00     0.163 HD
BRANCH   4   7
ATOM      7  C   UNL A   1      32.679  27.440  24.997  1.00  0.00     0.039 A 
ATOM      8  C   UNL A   1      32.199  24.835  25.890  1.00  0.00     0.087 A 
ATOM      9  C   UNL A   1      33.509  25.228  25.601  1.00  0.00     0.023 A 
ATOM     10  C   UNL A   1      31.128  25.712  25.684  1.00  0.00     0.023 A 
ATOM     11  C   UNL A   1      33.745  26.539  25.169  1.00  0.00     0.015 A 
ATOM     12  C   UNL A   1      31.375  27.018  25.269  1.00  0.00     0.015 A 
BRANCH   8  13
ATOM     13  S   UNL A   1      31.862  23.248  26.602  1.00  0.00     0.262 S 
ATOM     14  O   UNL A   1      30.419  23.115  26.621  1.00  0.00    -0.201 OA
ATOM     15  O   UNL A   1      32.617  23.145  27.836  1.00  0.00    -0.201 OA
BRANCH  13  16
ATOM     16  N   UNL A   1      32.419  22.055  25.583  1.00  0.00    -0.270 N 
ATOM     17  H   UNL A   1      31.752  21.671  24.968  1.00  0.00     0.181 HD
BRANCH  16  18
ATOM     18  C   UNL A   1      33.735  21.513  25.484  1.00  0.00     0.115 A 
ATOM     19  C   UNL A   1      33.929  20.152  25.268  1.00  0.00     0.074 A 
ATOM     20  C   UNL A   1      35.302  19.875  24.940  1.00  0.00     0.028 A 
ATOM     21  C   UNL A   1      36.103  20.986  25.053  1.00  0.00     0.068 A 
ATOM     22  S   UNL A   1      35.227  22.308  25.669  1.00  0.00    -0.125 S 
BRANCH  19  23
ATOM     23  C   UNL A   1      32.852  19.172  25.334  1.00  0.00     0.251 C 
ATOM     24  N   UNL A   1      32.836  18.409  26.466  1.00  0.00    -0.366 N 
ATOM     25  H   UNL A   1      32.140  17.722  26.587  1.00  0.00     0.159 HD
ATOM     26  H   UNL A   1      33.519  18.543  27.161  1.00  0.00     0.159 HD
ATOM     27  O   UNL A   1      31.977  19.068  24.482  1.00  0.00    -0.269 OA
ENDBRANCH  19  23
ENDBRANCH  16  18
ENDBRANCH  13  16
ENDBRANCH   8  13
ENDBRANCH   4   7
ENDBRANCH   2   3
ENDBRANCH   1   2
BRANCH   1  28
ATOM     28  C   UNL A   1      34.932  31.516  27.966  1.00  0.00     0.023 C 
BRANCH  28  29
ATOM     29  C   UNL A   1      35.971  31.796  29.046  1.00  0.00     0.116 C 
BRANCH  29  30
ATOM     30  N   UNL A   1      35.785  30.995  30.247  1.00  0.00    -0.352 N 
ATOM     31  C   UNL A   1      36.678  30.141  30.847  1.00  0.00     0.251 C 
ATOM     32  H   UNL A   1      34.907  31.077  30.686  1.00  0.00     0.163 HD
ATOM     33  O   UNL A   1      36.331  29.454  31.802  1.00  0.00    -0.269 OA
BRANCH  31  34
ATOM     34  C   UNL A   1      38.046  30.028  30.300  1.00  0.00     0.039 A 
ATOM     35  C   UNL A   1      39.120  29.932  31.188  1.00  0.00     0.014 A 
ATOM     36  C   UNL A   1      38.259  29.972  28.920  1.00  0.00     0.014 A 
ATOM     37  C   UNL A   1      40.406  29.710  30.690  1.00  0.00     0.010 A 
ATOM     38  C   UNL A   1      39.530  29.686  28.431  1.00  0.00     0.010 A 
ATOM     39  C   UNL A   1      40.614  29.549  29.311  1.00  0.00    -0.014 A 
BRANCH  39  40
ATOM     40  C   UNL A   1      41.957  29.225  28.768  1.00  0.00     0.031 A 
ATOM     41  C   UNL A   1      42.263  27.831  28.295  1.00  0.00     0.074 A 
ATOM     42  C   UNL A   1      42.920  30.168  28.767  1.00  0.00     0.049 A 
ATOM     43  N   UNL A   1      43.392  27.341  27.852  1.00  0.00    -0.248 NA
ATOM     44  C   UNL A   1      41.164  26.853  28.352  1.00  0.00     0.031 C 
ATOM     45  C   UNL A   1      42.759  31.545  29.242  1.00  0.00     0.029 A 
ATOM     46  N   UNL A   1      44.229  30.109  28.361  1.00  0.00    -0.354 N 
ATOM     47  C   UNL A   1      43.146  25.998  27.594  1.00  0.00     0.074 A 
ATOM     48  C   UNL A   1      41.773  25.738  27.974  1.00  0.00     0.031 C 
ATOM     49  C   UNL A   1      43.917  32.205  29.077  1.00  0.00     0.029 A 
ATOM     50  C   UNL A   1      44.912  31.292  28.523  1.00  0.00     0.049 A 
ATOM     51  H   UNL A   1      44.641  29.296  27.990  1.00  0.00     0.167 HD
ATOM     52  C   UNL A   1      43.979  25.067  27.070  1.00  0.00     0.031 A 
ATOM     53  C   UNL A   1      46.194  31.606  28.259  1.00  0.00     0.031 A 
ATOM     54  C   UNL A   1      45.339  25.332  26.680  1.00  0.00     0.049 A 
ATOM     55  C   UNL A   1      47.101  30.557  27.676  1.00  0.00     0.074 A 
ATOM     56  C   UNL A   1      46.246  24.472  26.089  1.00  0.00     0.029 A 
ATOM     57  N   UNL A   1      45.985  26.548  26.843  1.00  0.00    -0.354 N 
ATOM     58  N   UNL A   1      46.831  29.308  27.380  1.00  0.00    -0.248 NA
ATOM     59  C   UNL A   1      48.482  30.963  27.381  1.00  0.00     0.031 C 
ATOM     60  C   UNL A   1      47.458  25.155  25.933  1.00  0.00     0.029 A 
ATOM     61  C   UNL A   1      47.287  26.456  26.378  1.00  0.00     0.049 A 
ATOM     62  H   UNL A   1      45.580  27.357  27.229  1.00  0.00     0.167 HD
ATOM     63  C   UNL A   1      48.000  28.786  26.839  1.00  0.00     0.074 A 
ATOM     64  C   UNL A   1      48.976  29.858  26.838  1.00  0.00     0.031 C 
ATOM     65  C   UNL A   1      48.244  27.533  26.384  1.00  0.00     0.031 A 
BRANCH  52  66
ATOM     66  C   UNL A   1      43.440  23.674  26.892  1.00  0.00    -0.014 A 
ATOM     67  C   UNL A   1      43.164  23.163  25.611  1.00  0.00     0.010 A 
ATOM     68  C   UNL A   1      43.236  22.852  28.015  1.00  0.00     0.010 A 
ATOM     69  C   UNL A   1      42.653  21.871  25.459  1.00  0.00     0.020 A 
ATOM     70  C   UNL A   1      42.753  21.549  27.866  1.00  0.00     0.020 A 
ATOM     71  C   UNL A   1      42.447  21.073  26.589  1.00  0.00     0.054 A 
BRANCH  71  72
ATOM     72  S   UNL A   1      41.800  19.394  26.361  1.00  0.00     0.124 S 
ATOM     73  O   UNL A   1      40.360  19.633  26.297  1.00  0.00    -0.237 OA
ATOM     74  O   UNL A   1      42.424  18.977  25.108  1.00  0.00    -0.237 OA
ATOM     75  O   UNL A   1      42.260  18.681  27.550  1.00  0.00    -0.744 OA
ENDBRANCH  71  72
ENDBRANCH  52  66
BRANCH  53  76
ATOM     76  C   UNL A   1      46.693  32.983  28.527  1.00  0.00    -0.014 A 
ATOM     77  C   UNL A   1      47.415  33.263  29.700  1.00  0.00     0.010 A 
ATOM     78  C   UNL A   1      46.459  34.018  27.604  1.00  0.00     0.010 A 
ATOM     79  C   UNL A   1      47.879  34.557  29.954  1.00  0.00     0.020 A 
ATOM     80  C   UNL A   1      46.944  35.307  27.841  1.00  0.00     0.020 A 
ATOM     81  C   UNL A   1      47.641  35.571  29.022  1.00  0.00     0.054 A 
BRANCH  81  82
ATOM     82  S   UNL A   1      48.297  37.231  29.346  1.00  0.00     0.124 S 
ATOM     83  O   UNL A   1      47.323  38.080  28.668  1.00  0.00    -0.237 OA
ATOM     84  O   UNL A   1      48.288  37.296  30.806  1.00  0.00    -0.237 OA
ATOM     85  O   UNL A   1      49.628  37.196  28.742  1.00  0.00    -0.744 OA
ENDBRANCH  81  82
ENDBRANCH  53  76
BRANCH  65  86
ATOM     86  C   UNL A   1      49.609  27.258  25.813  1.00  0.00    -0.014 A 
ATOM     87  C   UNL A   1      50.647  26.754  26.617  1.00  0.00     0.010 A 
ATOM     88  C   UNL A   1      49.836  27.450  24.438  1.00  0.00     0.010 A 
ATOM     89  C   UNL A   1      51.897  26.476  26.060  1.00  0.00     0.020 A 
ATOM     90  C   UNL A   1      51.077  27.148  23.873  1.00  0.00     0.020 A 
ATOM     91  C   UNL A   1      52.105  26.674  24.691  1.00  0.00     0.054 A 
BRANCH  91  92
ATOM     92  S   UNL A   1      53.722  26.259  23.983  1.00  0.00     0.124 S 
ATOM     93  O   UNL A   1      54.064  25.036  24.703  1.00  0.00    -0.237 OA
ATOM     94  O   UNL A   1      53.418  26.089  22.564  1.00  0.00    -0.237 OA
ATOM     95  O   UNL A   1      54.548  27.421  24.301  1.00  0.00    -0.744 OA
ENDBRANCH  91  92
ENDBRANCH  65  86
ENDBRANCH  39  40
ENDBRANCH  31  34
ENDBRANCH  29  30
ENDBRANCH  28  29
ENDBRANCH   1  28
TORSDOF 18
ENDMDL
MODEL 2
REMARK VINA RESULT:     -11.1      1.015      8.228
REMARK SMILES NC(=O)c1ccsc1NS(=O)(=O)c1ccc(C(=O)NCCCCNC(=O)c2ccc(-c3c4nc(c(-c5ccc(S(=O)(=O)[O-])cc5)c5ccc([nH]5)c(-c5ccc(S(=O)(=O)[O-])cc5)c5nc(c(-c6ccc(S(=O)(=O)[O-])cc6)c6ccc3[nH]6)C=C5)C=C4)cc2)cc1
REMARK SMILES IDX 21 1 20 2 19 3 17 4 18 5 16 7 13 8 14 9 88 10 15 11 87 12
REMARK SMILES IDX 10 13 11 14 12 15 9 16 8 18 4 19 5 20 6 21 7 22 2 23 1 24
REMARK SMILES IDX 3 27 22 28 23 29 24 30 25 31 26 33 27 34 28 35 86 36 29 37
REMARK SMILES IDX 85 38 30 39 31 40 32 41 79 42 33 43 84 44 78 45 80 46 34 47
REMARK SMILES IDX 83 48 77 49 76 50 35 52 65 53 46 54 64 55 47 56 50 57 63 58
REMARK SMILES IDX 81 59 48 60 49 61 62 63 82 64 51 65 36 66 37 67 45 68 38 69
REMARK SMILES IDX 44 70 39 71 40 72 41 73 42 74 43 75 66 76 67 77 75 78 68 79
REMARK SMILES IDX 74 80 69 81 70 82 71 83 72 84 73 85 52 86 53 87 61 88 54 89
REMARK SMILES IDX 60 90 55 91 56 92 57 93 58 94 59 95
REMARK H PARENT 19 6 9 17 1 25 1 26 24 32 80 51 50 62
REMARK Flexibility Score: inf
ROOT
ATOM      1  C   UNL A   1      35.142  30.455  27.291  1.00  0.00     0.023 C 
ENDROOT
BRANCH   1   2
ATOM      2  C   UNL A   1      33.728  29.969  26.970  1.00  0.00     0.116 C 
BRANCH   2   3
ATOM      3  N   UNL A   1      33.534  29.811  25.540  1.00  0.00    -0.352 N 
ATOM      4  C   UNL A   1      32.989  28.775  24.824  1.00  0.00     0.251 C 
ATOM      5  O   UNL A   1      32.805  28.914  23.615  1.00  0.00    -0.269 OA
ATOM      6  H   UNL A   1      33.844  30.570  24.996  1.00  0.00     0.163 HD
BRANCH   4   7
ATOM      7  C   UNL A   1      32.599  27.492  25.462  1.00  0.00     0.039 A 
ATOM      8  C   UNL A   1      31.729  25.024  26.446  1.00  0.00     0.087 A 
ATOM      9  C   UNL A   1      30.797  26.046  26.241  1.00  0.00     0.023 A 
ATOM     10  C   UNL A   1      33.092  25.244  26.216  1.00  0.00     0.023 A 
ATOM     11  C   UNL A   1      31.237  27.274  25.733  1.00  0.00     0.015 A 
ATOM     12  C   UNL A   1      33.517  26.464  25.697  1.00  0.00     0.015 A 
BRANCH   8  13
ATOM     13  S   UNL A   1      31.207  23.399  26.920  1.00  0.00     0.262 S 
ATOM     14  O   UNL A   1      29.773  23.481  27.118  1.00  0.00    -0.201 OA
ATOM     15  O   UNL A   1      32.064  22.953  28.001  1.00  0.00    -0.201 OA
BRANCH  13  16
ATOM     16  N   UNL A   1      31.433  22.351  25.646  1.00  0.00    -0.270 N 
ATOM     17  H   UNL A   1      30.614  22.028  25.207  1.00  0.00     0.181 HD
BRANCH  16  18
ATOM     18  C   UNL A   1      32.660  21.860  25.107  1.00  0.00     0.115 A 
ATOM     19  C   UNL A   1      33.133  22.322  23.883  1.00  0.00     0.074 A 
ATOM     20  C   UNL A   1      34.492  21.900  23.665  1.00  0.00     0.028 A 
ATOM     21  C   UNL A   1      34.937  21.042  24.642  1.00  0.00     0.068 A 
ATOM     22  S   UNL A   1      33.687  20.656  25.730  1.00  0.00    -0.125 S 
BRANCH  19  23
ATOM     23  C   UNL A   1      32.344  23.155  22.984  1.00  0.00     0.251 C 
ATOM     24  N   UNL A   1      32.839  23.266  21.717  1.00  0.00    -0.366 N 
ATOM     25  H   UNL A   1      32.364  23.812  21.048  1.00  0.00     0.159 HD
ATOM     26  H   UNL A   1      33.671  22.802  21.470  1.00  0.00     0.159 HD
ATOM     27  O   UNL A   1      31.277  23.671  23.300  1.00  0.00    -0.269 OA
ENDBRANCH  19  23
ENDBRANCH  16  18
ENDBRANCH  13  16
ENDBRANCH   8  13
ENDBRANCH   4   7
ENDBRANCH   2   3
ENDBRANCH   1   2
BRANCH   1  28
ATOM     28  C   UNL A   1      35.213  31.862  27.889  1.00  0.00     0.023 C 
BRANCH  28  29
ATOM     29  C   UNL A   1      36.347  32.087  28.883  1.00  0.00     0.116 C 
BRANCH  29  30
ATOM     30  N   UNL A   1      36.028  31.642  30.231  1.00  0.00    -0.352 N 
ATOM     31  C   UNL A   1      36.704  30.732  31.009  1.00  0.00     0.251 C 
ATOM     32  H   UNL A   1      35.227  32.043  30.639  1.00  0.00     0.163 HD
ATOM     33  O   UNL A   1      36.246  30.383  32.092  1.00  0.00    -0.269 OA
BRANCH  31  34
ATOM     34  C   UNL A   1      37.965  30.149  30.506  1.00  0.00     0.039 A 
ATOM     35  C   UNL A   1      38.174  30.088  29.126  1.00  0.00     0.014 A 
ATOM     36  C   UNL A   1      38.949  29.706  31.393  1.00  0.00     0.014 A 
ATOM     37  C   UNL A   1      39.405  29.646  28.636  1.00  0.00     0.010 A 
ATOM     38  C   UNL A   1      40.196  29.328  30.904  1.00  0.00     0.010 A 
ATOM     39  C   UNL A   1      40.437  29.298  29.522  1.00  0.00    -0.014 A 
BRANCH  39  40
ATOM     40  C   UNL A   1      41.780  28.910  29.025  1.00  0.00     0.031 A 
ATOM     41  C   UNL A   1      42.870  29.941  28.914  1.00  0.00     0.074 A 
ATOM     42  C   UNL A   1      41.997  27.647  28.608  1.00  0.00     0.049 A 
ATOM     43  N   UNL A   1      44.083  29.809  28.442  1.00  0.00    -0.248 NA
ATOM     44  C   UNL A   1      42.546  31.303  29.367  1.00  0.00     0.031 C 
ATOM     45  C   UNL A   1      41.006  26.568  28.623  1.00  0.00     0.029 A 
ATOM     46  N   UNL A   1      43.119  27.059  28.080  1.00  0.00    -0.354 N 
ATOM     47  C   UNL A   1      44.661  31.070  28.525  1.00  0.00     0.074 A 
ATOM     48  C   UNL A   1      43.650  31.964  29.049  1.00  0.00     0.031 C 
ATOM     49  C   UNL A   1      41.572  25.444  28.151  1.00  0.00     0.029 A 
ATOM     50  C   UNL A   1      42.950  25.731  27.764  1.00  0.00     0.049 A 
ATOM     51  H   UNL A   1      43.964  27.542  27.941  1.00  0.00     0.167 HD
ATOM     52  C   UNL A   1      45.923  31.448  28.213  1.00  0.00     0.031 A 
ATOM     53  C   UNL A   1      43.805  24.844  27.220  1.00  0.00     0.031 A 
ATOM     54  C   UNL A   1      46.930  30.554  27.706  1.00  0.00     0.049 A 
ATOM     55  C   UNL A   1      45.203  25.286  26.883  1.00  0.00     0.074 A 
ATOM     56  C   UNL A   1      48.253  30.827  27.412  1.00  0.00     0.029 A 
ATOM     57  N   UNL A   1      46.723  29.213  27.419  1.00  0.00    -0.354 N 
ATOM     58  N   UNL A   1      45.749  26.470  27.029  1.00  0.00    -0.248 NA
ATOM     59  C   UNL A   1      46.102  24.271  26.319  1.00  0.00     0.031 C 
ATOM     60  C   UNL A   1      48.837  29.661  26.905  1.00  0.00     0.029 A 
ATOM     61  C   UNL A   1      47.892  28.649  26.933  1.00  0.00     0.049 A 
ATOM     62  H   UNL A   1      45.873  28.732  27.542  1.00  0.00     0.167 HD
ATOM     63  C   UNL A   1      47.065  26.335  26.600  1.00  0.00     0.074 A 
ATOM     64  C   UNL A   1      47.235  24.952  26.200  1.00  0.00     0.031 C 
ATOM     65  C   UNL A   1      48.044  27.271  26.542  1.00  0.00     0.031 A 
BRANCH  52  66
ATOM     66  C   UNL A   1      46.283  32.896  28.411  1.00  0.00    -0.014 A 
ATOM     67  C   UNL A   1      46.026  33.849  27.410  1.00  0.00     0.010 A 
ATOM     68  C   UNL A   1      46.856  33.316  29.625  1.00  0.00     0.010 A 
ATOM     69  C   UNL A   1      46.375  35.189  27.601  1.00  0.00     0.020 A 
ATOM     70  C   UNL A   1      47.180  34.660  29.832  1.00  0.00     0.020 A 
ATOM     71  C   UNL A   1      46.954  35.585  28.811  1.00  0.00     0.054 A 
BRANCH  71  72
ATOM     72  S   UNL A   1      47.380  37.333  29.040  1.00  0.00     0.124 S 
ATOM     73  O   UNL A   1      48.197  37.600  27.859  1.00  0.00    -0.237 OA
ATOM     74  O   UNL A   1      46.072  37.983  29.058  1.00  0.00    -0.237 OA
ATOM     75  O   UNL A   1      48.098  37.351  30.311  1.00  0.00    -0.744 OA
ENDBRANCH  71  72
ENDBRANCH  52  66
BRANCH  53  76
ATOM     76  C   UNL A   1      43.369  23.442  26.978  1.00  0.00    -0.014 A 
ATOM     77  C   UNL A   1      43.017  23.020  25.685  1.00  0.00     0.010 A 
ATOM     78  C   UNL A   1      43.315  22.519  28.038  1.00  0.00     0.010 A 
ATOM     79  C   UNL A   1      42.602  21.704  25.457  1.00  0.00     0.020 A 
ATOM     80  C   UNL A   1      42.926  21.196  27.811  1.00  0.00     0.020 A 
ATOM     81  C   UNL A   1      42.560  20.800  26.522  1.00  0.00     0.054 A 
BRANCH  81  82
ATOM     82  S   UNL A   1      42.069  19.084  26.197  1.00  0.00     0.124 S 
ATOM     83  O   UNL A   1      42.248  18.464  27.505  1.00  0.00    -0.237 OA
ATOM     84  O   UNL A   1      40.687  19.229  25.747  1.00  0.00    -0.237 OA
ATOM     85  O   UNL A   1      43.009  18.651  25.164  1.00  0.00    -0.744 OA
ENDBRANCH  81  82
ENDBRANCH  53  76
BRANCH  65  86
ATOM     86  C   UNL A   1      49.398  26.826  26.061  1.00  0.00    -0.014 A 
ATOM     87  C   UNL A   1      49.793  27.009  24.724  1.00  0.00     0.010 A 
ATOM     88  C   UNL A   1      50.310  26.271  26.977  1.00  0.00     0.010 A 
ATOM     89  C   UNL A   1      51.067  26.618  24.306  1.00  0.00     0.020 A 
ATOM     90  C   UNL A   1      51.594  25.903  26.569  1.00  0.00     0.020 A 
ATOM     91  C   UNL A   1      51.960  26.067  25.231  1.00  0.00     0.054 A 
BRANCH  91  92
ATOM     92  S   UNL A   1      53.625  25.612  24.675  1.00  0.00     0.124 S 
ATOM     93  O   UNL A   1      54.469  26.288  25.657  1.00  0.00    -0.237 OA
ATOM     94  O   UNL A   1      53.606  24.154  24.760  1.00  0.00    -0.237 OA
ATOM     95  O   UNL A   1      53.696  26.149  23.318  1.00  0.00    -0.744 OA
ENDBRANCH  91  92
ENDBRANCH  65  86
ENDBRANCH  39  40
ENDBRANCH  31  34
ENDBRANCH  29  30
ENDBRANCH  28  29
ENDBRANCH   1  28
TORSDOF 18
ENDMDL
MODEL 3
REMARK VINA RESULT:     -10.8      2.552      8.748
REMARK SMILES NC(=O)c1ccsc1NS(=O)(=O)c1ccc(C(=O)NCCCCNC(=O)c2ccc(-c3c4nc(c(-c5ccc(S(=O)(=O)[O-])cc5)c5ccc([nH]5)c(-c5ccc(S(=O)(=O)[O-])cc5)c5nc(c(-c6ccc(S(=O)(=O)[O-])cc6)c6ccc3[nH]6)C=C5)C=C4)cc2)cc1
REMARK SMILES IDX 21 1 20 2 19 3 17 4 18 5 16 7 13 8 14 9 88 10 15 11 87 12
REMARK SMILES IDX 10 13 11 14 12 15 9 16 8 18 4 19 5 20 6 21 7 22 2 23 1 24
REMARK SMILES IDX 3 27 22 28 23 29 24 30 25 31 26 33 27 34 28 35 86 36 29 37
REMARK SMILES IDX 85 38 30 39 31 40 32 41 79 42 33 43 84 44 78 45 80 46 34 47
REMARK SMILES IDX 83 48 77 49 76 50 35 52 65 53 46 54 64 55 47 56 50 57 63 58
REMARK SMILES IDX 81 59 48 60 49 61 62 63 82 64 51 65 36 66 37 67 45 68 38 69
REMARK SMILES IDX 44 70 39 71 40 72 41 73 42 74 43 75 66 76 67 77 75 78 68 79
REMARK SMILES IDX 74 80 69 81 70 82 71 83 72 84 73 85 52 86 53 87 61 88 54 89
REMARK SMILES IDX 60 90 55 91 56 92 57 93 58 94 59 95
REMARK H PARENT 19 6 9 17 1 25 1 26 24 32 80 51 50 62
REMARK Flexibility Score: inf
ROOT
ATOM      1  C   UNL A   1      35.043  30.439  27.653  1.00  0.00     0.023 C 
ENDROOT
BRANCH   1   2
ATOM      2  C   UNL A   1      34.536  29.024  27.370  1.00  0.00     0.116 C 
BRANCH   2   3
ATOM      3  N   UNL A   1      33.150  28.868  27.770  1.00  0.00    -0.352 N 
ATOM      4  C   UNL A   1      32.200  27.966  27.360  1.00  0.00     0.251 C 
ATOM      5  O   UNL A   1      31.114  27.936  27.936  1.00  0.00    -0.269 OA
ATOM      6  H   UNL A   1      32.840  29.514  28.445  1.00  0.00     0.163 HD
BRANCH   4   7
ATOM      7  C   UNL A   1      32.445  27.011  26.249  1.00  0.00     0.039 A 
ATOM      8  C   UNL A   1      32.645  25.201  24.128  1.00  0.00     0.087 A 
ATOM      9  C   UNL A   1      32.072  24.782  25.333  1.00  0.00     0.023 A 
ATOM     10  C   UNL A   1      33.166  26.493  23.996  1.00  0.00     0.023 A 
ATOM     11  C   UNL A   1      31.961  25.698  26.386  1.00  0.00     0.015 A 
ATOM     12  C   UNL A   1      33.036  27.401  25.044  1.00  0.00     0.015 A 
BRANCH   8  13
ATOM     13  S   UNL A   1      32.655  24.140  22.709  1.00  0.00     0.262 S 
ATOM     14  O   UNL A   1      32.988  24.986  21.579  1.00  0.00    -0.201 OA
ATOM     15  O   UNL A   1      31.419  23.383  22.710  1.00  0.00    -0.201 OA
BRANCH  13  16
ATOM     16  N   UNL A   1      33.904  23.046  22.845  1.00  0.00    -0.270 N 
ATOM     17  H   UNL A   1      34.456  22.925  22.039  1.00  0.00     0.181 HD
BRANCH  16  18
ATOM     18  C   UNL A   1      34.277  22.260  23.976  1.00  0.00     0.115 A 
ATOM     19  C   UNL A   1      35.568  22.326  24.490  1.00  0.00     0.074 A 
ATOM     20  C   UNL A   1      35.645  21.667  25.768  1.00  0.00     0.028 A 
ATOM     21  C   UNL A   1      34.476  21.025  26.098  1.00  0.00     0.068 A 
ATOM     22  S   UNL A   1      33.351  21.114  24.824  1.00  0.00    -0.125 S 
BRANCH  19  23
ATOM     23  C   UNL A   1      36.663  23.013  23.817  1.00  0.00     0.251 C 
ATOM     24  N   UNL A   1      37.605  23.549  24.647  1.00  0.00    -0.366 N 
ATOM     25  H   UNL A   1      38.377  24.030  24.270  1.00  0.00     0.159 HD
ATOM     26  H   UNL A   1      37.514  23.454  25.622  1.00  0.00     0.159 HD
ATOM     27  O   UNL A   1      36.785  23.062  22.598  1.00  0.00    -0.269 OA
ENDBRANCH  19  23
ENDBRANCH  16  18
ENDBRANCH  13  16
ENDBRANCH   8  13
ENDBRANCH   4   7
ENDBRANCH   2   3
ENDBRANCH   1   2
BRANCH   1  28
ATOM     28  C   UNL A   1      33.952  31.512  27.691  1.00  0.00     0.023 C 
BRANCH  28  29
ATOM     29  C   UNL A   1      34.357  32.823  28.356  1.00  0.00     0.116 C 
BRANCH  29  30
ATOM     30  N   UNL A   1      33.954  32.910  29.751  1.00  0.00    -0.352 N 
ATOM     31  C   UNL A   1      34.725  32.722  30.873  1.00  0.00     0.251 C 
ATOM     32  H   UNL A   1      33.008  33.132  29.913  1.00  0.00     0.163 HD
ATOM     33  O   UNL A   1      34.210  32.727  31.987  1.00  0.00    -0.269 OA
BRANCH  31  34
ATOM     34  C   UNL A   1      36.173  32.471  30.719  1.00  0.00     0.039 A 
ATOM     35  C   UNL A   1      36.811  31.626  31.630  1.00  0.00     0.014 A 
ATOM     36  C   UNL A   1      36.884  33.033  29.654  1.00  0.00     0.014 A 
ATOM     37  C   UNL A   1      38.151  31.288  31.432  1.00  0.00     0.010 A 
ATOM     38  C   UNL A   1      38.199  32.642  29.423  1.00  0.00     0.010 A 
ATOM     39  C   UNL A   1      38.844  31.764  30.307  1.00  0.00    -0.014 A 
BRANCH  39  40
ATOM     40  C   UNL A   1      40.241  31.347  30.030  1.00  0.00     0.031 A 
ATOM     41  C   UNL A   1      41.367  32.332  30.184  1.00  0.00     0.074 A 
ATOM     42  C   UNL A   1      40.486  30.102  29.574  1.00  0.00     0.049 A 
ATOM     43  N   UNL A   1      42.640  32.174  29.927  1.00  0.00    -0.248 NA
ATOM     44  C   UNL A   1      41.012  33.678  30.664  1.00  0.00     0.031 C 
ATOM     45  C   UNL A   1      39.474  29.070  29.341  1.00  0.00     0.029 A 
ATOM     46  N   UNL A   1      41.665  29.498  29.216  1.00  0.00    -0.354 N 
ATOM     47  C   UNL A   1      43.235  33.401  30.197  1.00  0.00     0.074 A 
ATOM     48  C   UNL A   1      42.177  34.306  30.592  1.00  0.00     0.031 C 
ATOM     49  C   UNL A   1      40.077  27.953  28.902  1.00  0.00     0.029 A 
ATOM     50  C   UNL A   1      41.511  28.200  28.786  1.00  0.00     0.049 A 
ATOM     51  H   UNL A   1      42.537  29.949  29.262  1.00  0.00     0.167 HD
ATOM     52  C   UNL A   1      44.544  33.740  30.140  1.00  0.00     0.031 A 
ATOM     53  C   UNL A   1      42.420  27.310  28.344  1.00  0.00     0.031 A 
ATOM     54  C   UNL A   1      45.595  32.833  29.761  1.00  0.00     0.049 A 
ATOM     55  C   UNL A   1      43.870  27.709  28.291  1.00  0.00     0.074 A 
ATOM     56  C   UNL A   1      46.959  33.064  29.726  1.00  0.00     0.029 A 
ATOM     57  N   UNL A   1      45.400  31.523  29.351  1.00  0.00    -0.354 N 
ATOM     58  N   UNL A   1      44.420  28.856  28.611  1.00  0.00    -0.248 NA
ATOM     59  C   UNL A   1      44.822  26.689  27.828  1.00  0.00     0.031 C 
ATOM     60  C   UNL A   1      47.586  31.906  29.252  1.00  0.00     0.029 A 
ATOM     61  C   UNL A   1      46.617  30.937  29.044  1.00  0.00     0.049 A 
ATOM     62  H   UNL A   1      44.525  31.074  29.289  1.00  0.00     0.167 HD
ATOM     63  C   UNL A   1      45.786  28.687  28.414  1.00  0.00     0.074 A 
ATOM     64  C   UNL A   1      45.979  27.325  27.958  1.00  0.00     0.031 C 
ATOM     65  C   UNL A   1      46.791  29.580  28.593  1.00  0.00     0.031 A 
BRANCH  52  66
ATOM     66  C   UNL A   1      44.911  35.156  30.496  1.00  0.00    -0.014 A 
ATOM     67  C   UNL A   1      45.320  35.492  31.799  1.00  0.00     0.010 A 
ATOM     68  C   UNL A   1      44.880  36.157  29.509  1.00  0.00     0.010 A 
ATOM     69  C   UNL A   1      45.648  36.812  32.119  1.00  0.00     0.020 A 
ATOM     70  C   UNL A   1      45.235  37.473  29.817  1.00  0.00     0.020 A 
ATOM     71  C   UNL A   1      45.599  37.796  31.126  1.00  0.00     0.054 A 
BRANCH  71  72
ATOM     72  S   UNL A   1      46.047  39.498  31.565  1.00  0.00     0.124 S 
ATOM     73  O   UNL A   1      45.866  40.193  30.293  1.00  0.00    -0.237 OA
ATOM     74  O   UNL A   1      45.076  39.827  32.605  1.00  0.00    -0.237 OA
ATOM     75  O   UNL A   1      47.430  39.385  32.021  1.00  0.00    -0.744 OA
ENDBRANCH  71  72
ENDBRANCH  52  66
BRANCH  53  76
ATOM     76  C   UNL A   1      41.988  25.946  27.934  1.00  0.00    -0.014 A 
ATOM     77  C   UNL A   1      42.162  24.854  28.802  1.00  0.00     0.010 A 
ATOM     78  C   UNL A   1      41.389  25.735  26.680  1.00  0.00     0.010 A 
ATOM     79  C   UNL A   1      41.761  23.572  28.416  1.00  0.00     0.020 A 
ATOM     80  C   UNL A   1      40.962  24.459  26.300  1.00  0.00     0.020 A 
ATOM     81  C   UNL A   1      41.163  23.382  27.167  1.00  0.00     0.054 A 
BRANCH  81  82
ATOM     82  S   UNL A   1      40.602  21.719  26.707  1.00  0.00     0.124 S 
ATOM     83  O   UNL A   1      41.546  21.362  25.653  1.00  0.00    -0.237 OA
ATOM     84  O   UNL A   1      40.739  20.980  27.959  1.00  0.00    -0.237 OA
ATOM     85  O   UNL A   1      39.224  21.933  26.269  1.00  0.00    -0.744 OA
ENDBRANCH  81  82
ENDBRANCH  53  76
BRANCH  65  86
ATOM     86  C   UNL A   1      48.194  29.105  28.332  1.00  0.00    -0.014 A 
ATOM     87  C   UNL A   1      48.963  28.512  29.350  1.00  0.00     0.010 A 
ATOM     88  C   UNL A   1      48.727  29.198  27.034  1.00  0.00     0.010 A 
ATOM     89  C   UNL A   1      50.252  28.048  29.078  1.00  0.00     0.020 A 
ATOM     90  C   UNL A   1      50.006  28.712  26.753  1.00  0.00     0.020 A 
ATOM     91  C   UNL A   1      50.765  28.151  27.781  1.00  0.00     0.054 A 
BRANCH  91  92
ATOM     92  S   UNL A   1      52.423  27.497  27.443  1.00  0.00     0.124 S 
ATOM     93  O   UNL A   1      53.207  28.719  27.292  1.00  0.00    -0.237 OA
ATOM     94  O   UNL A   1      52.710  26.710  28.640  1.00  0.00    -0.237 OA
ATOM     95  O   UNL A   1      52.244  26.716  26.221  1.00  0.00    -0.744 OA
ENDBRANCH  91  92
ENDBRANCH  65  86
ENDBRANCH  39  40
ENDBRANCH  31  34
ENDBRANCH  29  30
ENDBRANCH  28  29
ENDBRANCH   1  28
TORSDOF 18
ENDMDL
