MODEL 1
REMARK VINA RESULT:     -12.8      0.000      0.000
REMARK SMILES COc1cccc(-c2c(C(=O)NCCCCNC(=O)c3ccc(-c4c5nc(c(-c6ccc(S(=O)(=O)[O-])cc6)c6ccc([nH]6)c(-c6ccc(S(=O)(=O)[O-])cc6)c6nc(c(-c7ccc(S(=O)(=O)[O-])cc7)c7ccc4[nH]7)C=C6)C=C5)cc3)nnn2-c2ccc(OC(F)(F)F)cc2)c1
REMARK SMILES IDX 14 1 13 2 12 3 10 4 11 5 9 7 8 8 82 9 80 10 81 11 7 12 3 13
REMARK SMILES IDX 4 14 94 15 5 16 6 17 2 18 1 19 83 20 84 21 93 22 85 23 92 24
REMARK SMILES IDX 86 25 87 26 88 27 89 28 90 29 91 30 15 31 16 32 17 33 18 34
REMARK SMILES IDX 19 36 20 37 21 38 79 39 22 40 78 41 23 42 24 43 25 44 72 45
REMARK SMILES IDX 26 46 77 47 71 48 73 49 27 50 76 51 70 52 69 53 28 55 58 56
REMARK SMILES IDX 39 57 57 58 40 59 43 60 56 61 74 62 41 63 42 64 55 66 75 67
REMARK SMILES IDX 44 68 29 69 30 70 38 71 31 72 37 73 32 74 33 75 34 76 35 77
REMARK SMILES IDX 36 78 59 79 60 80 68 81 61 82 67 83 62 84 63 85 64 86 65 87
REMARK SMILES IDX 66 88 45 89 46 90 54 91 47 92 53 93 48 94 49 95 50 96 51 97
REMARK SMILES IDX 52 98
REMARK H PARENT 12 6 17 35 73 54 43 65
REMARK Flexibility Score: inf
ROOT
ATOM      1  C   UNL A   1      36.014  23.109  24.414  1.00  0.00     0.023 C 
ENDROOT
BRANCH   1   2
ATOM      2  C   UNL A   1      34.623  22.544  24.155  1.00  0.00     0.116 C 
BRANCH   2   3
ATOM      3  N   UNL A   1      33.750  22.382  25.286  1.00  0.00    -0.351 N 
ATOM      4  C   UNL A   1      32.510  22.919  25.577  1.00  0.00     0.274 C 
ATOM      5  O   UNL A   1      32.031  22.530  26.646  1.00  0.00    -0.267 OA
ATOM      6  H   UNL A   1      34.099  21.778  25.981  1.00  0.00     0.163 HD
BRANCH   4   7
ATOM      7  C   UNL A   1      31.777  23.918  24.768  1.00  0.00     0.178 A 
ATOM      8  C   UNL A   1      31.639  25.310  24.756  1.00  0.00     0.108 A 
ATOM      9  N   UNL A   1      30.784  25.555  23.678  1.00  0.00    -0.212 N 
ATOM     10  N   UNL A   1      30.965  23.416  23.758  1.00  0.00    -0.124 NA
ATOM     11  N   UNL A   1      30.289  24.403  23.198  1.00  0.00    -0.061 NA
BRANCH   8  12
ATOM     12  C   UNL A   1      31.978  26.380  25.697  1.00  0.00     0.006 A 
ATOM     13  C   UNL A   1      33.645  28.004  26.426  1.00  0.00     0.119 A 
ATOM     14  C   UNL A   1      32.696  28.563  27.281  1.00  0.00     0.046 A 
ATOM     15  C   UNL A   1      33.293  26.900  25.657  1.00  0.00     0.056 A 
ATOM     16  C   UNL A   1      31.400  28.039  27.350  1.00  0.00     0.005 A 
ATOM     17  C   UNL A   1      31.036  26.945  26.559  1.00  0.00     0.011 A 
BRANCH  13  18
ATOM     18  O   UNL A   1      34.883  28.586  26.435  1.00  0.00    -0.497 OA
ATOM     19  C   UNL A   1      35.117  29.528  27.479  1.00  0.00     0.278 C 
ENDBRANCH  13  18
ENDBRANCH   8  12
BRANCH   9  20
ATOM     20  C   UNL A   1      30.315  26.812  23.221  1.00  0.00     0.067 A 
ATOM     21  C   UNL A   1      28.988  27.185  23.447  1.00  0.00     0.032 A 
ATOM     22  C   UNL A   1      31.207  27.720  22.639  1.00  0.00     0.032 A 
ATOM     23  C   UNL A   1      28.596  28.501  23.183  1.00  0.00     0.049 A 
ATOM     24  C   UNL A   1      30.800  29.024  22.354  1.00  0.00     0.049 A 
ATOM     25  C   UNL A   1      29.501  29.431  22.652  1.00  0.00     0.129 A 
BRANCH  25  26
ATOM     26  O   UNL A   1      28.997  30.690  22.481  1.00  0.00    -0.406 OA
BRANCH  26  27
ATOM     27  C   UNL A   1      28.831  31.489  23.641  1.00  0.00     0.573 C 
ATOM     28  F   UNL A   1      29.760  31.201  24.577  1.00  0.00    -0.132 F 
ATOM     29  F   UNL A   1      28.883  32.803  23.337  1.00  0.00    -0.132 F 
ATOM     30  F   UNL A   1      27.613  31.232  24.171  1.00  0.00    -0.132 F 
ENDBRANCH  26  27
ENDBRANCH  25  26
ENDBRANCH   9  20
ENDBRANCH   4   7
ENDBRANCH   2   3
ENDBRANCH   1   2
BRANCH   1  31
ATOM     31  C   UNL A   1      36.582  22.972  25.824  1.00  0.00     0.023 C 
BRANCH  31  32
ATOM     32  C   UNL A   1      37.954  23.595  26.042  1.00  0.00     0.116 C 
BRANCH  32  33
ATOM     33  N   UNL A   1      39.056  22.636  26.165  1.00  0.00    -0.352 N 
ATOM     34  C   UNL A   1      40.415  22.933  26.259  1.00  0.00     0.251 C 
ATOM     35  H   UNL A   1      38.811  21.684  26.182  1.00  0.00     0.163 HD
ATOM     36  O   UNL A   1      41.269  22.108  26.008  1.00  0.00    -0.269 OA
BRANCH  34  37
ATOM     37  C   UNL A   1      40.778  24.298  26.696  1.00  0.00     0.039 A 
ATOM     38  C   UNL A   1      40.459  25.438  25.954  1.00  0.00     0.014 A 
ATOM     39  C   UNL A   1      41.352  24.404  27.955  1.00  0.00     0.014 A 
ATOM     40  C   UNL A   1      40.628  26.692  26.546  1.00  0.00     0.010 A 
ATOM     41  C   UNL A   1      41.327  25.613  28.598  1.00  0.00     0.010 A 
ATOM     42  C   UNL A   1      41.034  26.774  27.887  1.00  0.00    -0.014 A 
BRANCH  42  43
ATOM     43  C   UNL A   1      41.105  28.051  28.598  1.00  0.00     0.031 A 
ATOM     44  C   UNL A   1      42.240  28.953  28.241  1.00  0.00     0.074 A 
ATOM     45  C   UNL A   1      40.085  28.512  29.358  1.00  0.00     0.049 A 
ATOM     46  N   UNL A   1      43.216  29.336  28.999  1.00  0.00    -0.248 NA
ATOM     47  C   UNL A   1      42.352  29.422  26.851  1.00  0.00     0.031 C 
ATOM     48  C   UNL A   1      38.755  27.916  29.571  1.00  0.00     0.029 A 
ATOM     49  N   UNL A   1      39.975  29.704  30.001  1.00  0.00    -0.354 N 
ATOM     50  C   UNL A   1      43.966  30.241  28.250  1.00  0.00     0.074 A 
ATOM     51  C   UNL A   1      43.476  30.141  26.897  1.00  0.00     0.031 C 
ATOM     52  C   UNL A   1      37.907  28.854  30.046  1.00  0.00     0.029 A 
ATOM     53  C   UNL A   1      38.678  30.035  30.374  1.00  0.00     0.049 A 
ATOM     54  H   UNL A   1      40.748  30.283  30.186  1.00  0.00     0.167 HD
ATOM     55  C   UNL A   1      44.802  31.149  28.833  1.00  0.00     0.031 A 
ATOM     56  C   UNL A   1      38.257  31.205  30.909  1.00  0.00     0.031 A 
ATOM     57  C   UNL A   1      45.011  30.862  30.227  1.00  0.00     0.049 A 
ATOM     58  C   UNL A   1      39.449  31.857  31.499  1.00  0.00     0.074 A 
ATOM     59  C   UNL A   1      45.554  29.808  30.935  1.00  0.00     0.029 A 
ATOM     60  N   UNL A   1      44.265  31.582  31.133  1.00  0.00    -0.354 N 
ATOM     61  N   UNL A   1      40.119  31.354  32.500  1.00  0.00    -0.248 NA
ATOM     62  C   UNL A   1      40.168  32.833  30.697  1.00  0.00     0.031 C 
ATOM     63  C   UNL A   1      44.717  29.673  32.083  1.00  0.00     0.029 A 
ATOM     64  C   UNL A   1      43.759  30.690  32.043  1.00  0.00     0.049 A 
ATOM     65  H   UNL A   1      44.122  32.555  31.128  1.00  0.00     0.167 HD
ATOM     66  C   UNL A   1      41.450  31.615  32.206  1.00  0.00     0.074 A 
ATOM     67  C   UNL A   1      41.409  32.618  31.144  1.00  0.00     0.031 C 
ATOM     68  C   UNL A   1      42.450  30.801  32.657  1.00  0.00     0.031 A 
BRANCH  55  69
ATOM     69  C   UNL A   1      45.150  32.498  28.250  1.00  0.00    -0.014 A 
ATOM     70  C   UNL A   1      46.415  33.060  28.531  1.00  0.00     0.010 A 
ATOM     71  C   UNL A   1      44.189  33.352  27.672  1.00  0.00     0.010 A 
ATOM     72  C   UNL A   1      46.676  34.420  28.313  1.00  0.00     0.020 A 
ATOM     73  C   UNL A   1      44.454  34.699  27.410  1.00  0.00     0.020 A 
ATOM     74  C   UNL A   1      45.685  35.234  27.768  1.00  0.00     0.054 A 
BRANCH  74  75
ATOM     75  S   UNL A   1      45.984  37.013  27.609  1.00  0.00     0.124 S 
ATOM     76  O   UNL A   1      44.755  37.467  26.966  1.00  0.00    -0.237 OA
ATOM     77  O   UNL A   1      46.162  37.423  28.999  1.00  0.00    -0.237 OA
ATOM     78  O   UNL A   1      47.188  37.084  26.784  1.00  0.00    -0.744 OA
ENDBRANCH  74  75
ENDBRANCH  55  69
BRANCH  56  79
ATOM     79  C   UNL A   1      36.974  31.904  30.663  1.00  0.00    -0.014 A 
ATOM     80  C   UNL A   1      36.397  32.726  31.646  1.00  0.00     0.010 A 
ATOM     81  C   UNL A   1      36.461  31.986  29.351  1.00  0.00     0.010 A 
ATOM     82  C   UNL A   1      35.386  33.644  31.314  1.00  0.00     0.020 A 
ATOM     83  C   UNL A   1      35.451  32.896  29.013  1.00  0.00     0.020 A 
ATOM     84  C   UNL A   1      34.936  33.739  29.993  1.00  0.00     0.054 A 
BRANCH  84  85
ATOM     85  S   UNL A   1      33.772  35.061  29.542  1.00  0.00     0.124 S 
ATOM     86  O   UNL A   1      34.554  35.851  28.595  1.00  0.00    -0.237 OA
ATOM     87  O   UNL A   1      32.653  34.317  28.972  1.00  0.00    -0.237 OA
ATOM     88  O   UNL A   1      33.489  35.720  30.816  1.00  0.00    -0.744 OA
ENDBRANCH  84  85
ENDBRANCH  56  79
BRANCH  68  89
ATOM     89  C   UNL A   1      42.122  29.758  33.704  1.00  0.00    -0.014 A 
ATOM     90  C   UNL A   1      41.624  28.475  33.400  1.00  0.00     0.010 A 
ATOM     91  C   UNL A   1      42.513  30.025  35.028  1.00  0.00     0.010 A 
ATOM     92  C   UNL A   1      41.512  27.493  34.396  1.00  0.00     0.020 A 
ATOM     93  C   UNL A   1      42.420  29.046  36.021  1.00  0.00     0.020 A 
ATOM     94  C   UNL A   1      41.917  27.784  35.702  1.00  0.00     0.054 A 
BRANCH  94  95
ATOM     95  S   UNL A   1      41.847  26.488  36.972  1.00  0.00     0.124 S 
ATOM     96  O   UNL A   1      41.975  25.265  36.185  1.00  0.00    -0.237 OA
ATOM     97  O   UNL A   1      42.987  26.808  37.828  1.00  0.00    -0.237 OA
ATOM     98  O   UNL A   1      40.540  26.685  37.599  1.00  0.00    -0.744 OA
ENDBRANCH  94  95
ENDBRANCH  68  89
ENDBRANCH  42  43
ENDBRANCH  34  37
ENDBRANCH  32  33
ENDBRANCH  31  32
ENDBRANCH   1  31
TORSDOF 19
ENDMDL
MODEL 2
REMARK VINA RESULT:     -12.2      3.953      9.768
REMARK SMILES COc1cccc(-c2c(C(=O)NCCCCNC(=O)c3ccc(-c4c5nc(c(-c6ccc(S(=O)(=O)[O-])cc6)c6ccc([nH]6)c(-c6ccc(S(=O)(=O)[O-])cc6)c6nc(c(-c7ccc(S(=O)(=O)[O-])cc7)c7ccc4[nH]7)C=C6)C=C5)cc3)nnn2-c2ccc(OC(F)(F)F)cc2)c1
REMARK SMILES IDX 14 1 13 2 12 3 10 4 11 5 9 7 8 8 82 9 80 10 81 11 7 12 3 13
REMARK SMILES IDX 4 14 94 15 5 16 6 17 2 18 1 19 83 20 84 21 93 22 85 23 92 24
REMARK SMILES IDX 86 25 87 26 88 27 89 28 90 29 91 30 15 31 16 32 17 33 18 34
REMARK SMILES IDX 19 36 20 37 21 38 79 39 22 40 78 41 23 42 24 43 25 44 72 45
REMARK SMILES IDX 26 46 77 47 71 48 73 49 27 50 76 51 70 52 69 53 28 55 58 56
REMARK SMILES IDX 39 57 57 58 40 59 43 60 56 61 74 62 41 63 42 64 55 66 75 67
REMARK SMILES IDX 44 68 29 69 30 70 38 71 31 72 37 73 32 74 33 75 34 76 35 77
REMARK SMILES IDX 36 78 59 79 60 80 68 81 61 82 67 83 62 84 63 85 64 86 65 87
REMARK SMILES IDX 66 88 45 89 46 90 54 91 47 92 53 93 48 94 49 95 50 96 51 97
REMARK SMILES IDX 52 98
REMARK H PARENT 12 6 17 35 73 54 43 65
REMARK Flexibility Score: inf
ROOT
ATOM      1  C   UNL A   1      33.986  28.208  26.733  1.00  0.00     0.023 C 
ENDROOT
BRANCH   1   2
ATOM      2  C   UNL A   1      33.109  27.199  26.001  1.00  0.00     0.116 C 
BRANCH   2   3
ATOM      3  N   UNL A   1      32.904  27.396  24.592  1.00  0.00    -0.351 N 
ATOM      4  C   UNL A   1      32.526  26.526  23.586  1.00  0.00     0.274 C 
ATOM      5  O   UNL A   1      32.419  27.056  22.476  1.00  0.00    -0.267 OA
ATOM      6  H   UNL A   1      33.060  28.319  24.287  1.00  0.00     0.163 HD
BRANCH   4   7
ATOM      7  C   UNL A   1      32.308  25.069  23.724  1.00  0.00     0.178 A 
ATOM      8  C   UNL A   1      33.095  23.947  24.004  1.00  0.00     0.108 A 
ATOM      9  N   UNL A   1      32.186  22.885  23.987  1.00  0.00    -0.212 N 
ATOM     10  N   UNL A   1      31.013  24.617  23.501  1.00  0.00    -0.124 NA
ATOM     11  N   UNL A   1      30.988  23.298  23.544  1.00  0.00    -0.061 NA
BRANCH   8  12
ATOM     12  C   UNL A   1      34.536  23.694  24.049  1.00  0.00     0.006 A 
ATOM     13  C   UNL A   1      36.555  23.621  25.417  1.00  0.00     0.119 A 
ATOM     14  C   UNL A   1      37.238  23.055  24.341  1.00  0.00     0.046 A 
ATOM     15  C   UNL A   1      35.215  23.963  25.261  1.00  0.00     0.056 A 
ATOM     16  C   UNL A   1      36.584  22.811  23.128  1.00  0.00     0.005 A 
ATOM     17  C   UNL A   1      35.231  23.129  22.977  1.00  0.00     0.011 A 
BRANCH  13  18
ATOM     18  O   UNL A   1      37.284  23.823  26.557  1.00  0.00    -0.497 OA
ATOM     19  C   UNL A   1      38.649  24.185  26.363  1.00  0.00     0.278 C 
ENDBRANCH  13  18
ENDBRANCH   8  12
BRANCH   9  20
ATOM     20  C   UNL A   1      32.463  21.513  24.213  1.00  0.00     0.067 A 
ATOM     21  C   UNL A   1      32.687  21.052  25.512  1.00  0.00     0.032 A 
ATOM     22  C   UNL A   1      32.408  20.607  23.148  1.00  0.00     0.032 A 
ATOM     23  C   UNL A   1      32.749  19.674  25.744  1.00  0.00     0.049 A 
ATOM     24  C   UNL A   1      32.497  19.234  23.386  1.00  0.00     0.049 A 
ATOM     25  C   UNL A   1      32.637  18.758  24.688  1.00  0.00     0.129 A 
BRANCH  25  26
ATOM     26  O   UNL A   1      32.675  17.444  25.062  1.00  0.00    -0.406 OA
BRANCH  26  27
ATOM     27  C   UNL A   1      33.782  16.674  24.623  1.00  0.00     0.573 C 
ATOM     28  F   UNL A   1      34.913  17.410  24.586  1.00  0.00    -0.132 F 
ATOM     29  F   UNL A   1      33.967  15.596  25.415  1.00  0.00    -0.132 F 
ATOM     30  F   UNL A   1      33.531  16.232  23.370  1.00  0.00    -0.132 F 
ENDBRANCH  26  27
ENDBRANCH  25  26
ENDBRANCH   9  20
ENDBRANCH   4   7
ENDBRANCH   2   3
ENDBRANCH   1   2
BRANCH   1  31
ATOM     31  C   UNL A   1      33.310  29.458  27.291  1.00  0.00     0.023 C 
BRANCH  31  32
ATOM     32  C   UNL A   1      34.154  30.725  27.267  1.00  0.00     0.116 C 
BRANCH  32  33
ATOM     33  N   UNL A   1      34.056  31.557  28.470  1.00  0.00    -0.352 N 
ATOM     34  C   UNL A   1      34.970  31.617  29.522  1.00  0.00     0.251 C 
ATOM     35  H   UNL A   1      33.262  32.133  28.543  1.00  0.00     0.163 HD
ATOM     36  O   UNL A   1      34.660  32.044  30.615  1.00  0.00    -0.269 OA
BRANCH  34  37
ATOM     37  C   UNL A   1      36.345  31.148  29.247  1.00  0.00     0.039 A 
ATOM     38  C   UNL A   1      37.407  32.023  29.011  1.00  0.00     0.014 A 
ATOM     39  C   UNL A   1      36.556  29.780  29.354  1.00  0.00     0.014 A 
ATOM     40  C   UNL A   1      38.707  31.509  28.994  1.00  0.00     0.010 A 
ATOM     41  C   UNL A   1      37.832  29.317  29.535  1.00  0.00     0.010 A 
ATOM     42  C   UNL A   1      38.918  30.153  29.289  1.00  0.00    -0.014 A 
BRANCH  42  43
ATOM     43  C   UNL A   1      40.262  29.588  29.411  1.00  0.00     0.031 A 
ATOM     44  C   UNL A   1      40.802  29.437  30.795  1.00  0.00     0.074 A 
ATOM     45  C   UNL A   1      40.899  29.008  28.368  1.00  0.00     0.049 A 
ATOM     46  N   UNL A   1      41.822  30.036  31.318  1.00  0.00    -0.248 NA
ATOM     47  C   UNL A   1      40.072  28.579  31.742  1.00  0.00     0.031 C 
ATOM     48  C   UNL A   1      40.400  28.772  27.003  1.00  0.00     0.029 A 
ATOM     49  N   UNL A   1      42.100  28.373  28.352  1.00  0.00    -0.354 N 
ATOM     50  C   UNL A   1      41.983  29.500  32.595  1.00  0.00     0.074 A 
ATOM     51  C   UNL A   1      40.797  28.722  32.853  1.00  0.00     0.031 C 
ATOM     52  C   UNL A   1      41.157  27.829  26.399  1.00  0.00     0.029 A 
ATOM     53  C   UNL A   1      42.306  27.566  27.240  1.00  0.00     0.049 A 
ATOM     54  H   UNL A   1      42.768  28.477  29.067  1.00  0.00     0.167 HD
ATOM     55  C   UNL A   1      43.169  29.574  33.268  1.00  0.00     0.031 A 
ATOM     56  C   UNL A   1      43.344  26.725  27.023  1.00  0.00     0.031 A 
ATOM     57  C   UNL A   1      44.084  30.487  32.636  1.00  0.00     0.049 A 
ATOM     58  C   UNL A   1      44.453  27.184  27.892  1.00  0.00     0.074 A 
ATOM     59  C   UNL A   1      44.079  31.839  32.362  1.00  0.00     0.029 A 
ATOM     60  N   UNL A   1      45.051  29.939  31.824  1.00  0.00    -0.354 N 
ATOM     61  N   UNL A   1      45.038  28.343  27.754  1.00  0.00    -0.248 NA
ATOM     62  C   UNL A   1      44.612  26.557  29.193  1.00  0.00     0.031 C 
ATOM     63  C   UNL A   1      44.677  31.950  31.071  1.00  0.00     0.029 A 
ATOM     64  C   UNL A   1      45.072  30.672  30.665  1.00  0.00     0.049 A 
ATOM     65  H   UNL A   1      45.622  29.166  32.036  1.00  0.00     0.167 HD
ATOM     66  C   UNL A   1      45.268  28.784  29.049  1.00  0.00     0.074 A 
ATOM     67  C   UNL A   1      45.084  27.599  29.886  1.00  0.00     0.031 C 
ATOM     68  C   UNL A   1      45.319  30.116  29.349  1.00  0.00     0.031 A 
BRANCH  55  69
ATOM     69  C   UNL A   1      43.645  28.567  34.287  1.00  0.00    -0.014 A 
ATOM     70  C   UNL A   1      44.352  27.427  33.845  1.00  0.00     0.010 A 
ATOM     71  C   UNL A   1      43.190  28.556  35.621  1.00  0.00     0.010 A 
ATOM     72  C   UNL A   1      44.526  26.308  34.672  1.00  0.00     0.020 A 
ATOM     73  C   UNL A   1      43.397  27.462  36.468  1.00  0.00     0.020 A 
ATOM     74  C   UNL A   1      44.031  26.329  35.974  1.00  0.00     0.054 A 
BRANCH  74  75
ATOM     75  S   UNL A   1      44.146  24.836  36.992  1.00  0.00     0.124 S 
ATOM     76  O   UNL A   1      44.133  23.782  35.982  1.00  0.00    -0.237 OA
ATOM     77  O   UNL A   1      45.414  25.032  37.688  1.00  0.00    -0.237 OA
ATOM     78  O   UNL A   1      42.957  24.907  37.839  1.00  0.00    -0.744 OA
ENDBRANCH  74  75
ENDBRANCH  55  69
BRANCH  56  79
ATOM     79  C   UNL A   1      43.315  25.402  26.357  1.00  0.00    -0.014 A 
ATOM     80  C   UNL A   1      43.998  25.184  25.148  1.00  0.00     0.010 A 
ATOM     81  C   UNL A   1      42.846  24.273  27.062  1.00  0.00     0.010 A 
ATOM     82  C   UNL A   1      44.259  23.881  24.693  1.00  0.00     0.020 A 
ATOM     83  C   UNL A   1      43.099  22.971  26.613  1.00  0.00     0.020 A 
ATOM     84  C   UNL A   1      43.828  22.781  25.442  1.00  0.00     0.054 A 
BRANCH  84  85
ATOM     85  S   UNL A   1      44.340  21.109  24.945  1.00  0.00     0.124 S 
ATOM     86  O   UNL A   1      45.579  20.929  25.697  1.00  0.00    -0.237 OA
ATOM     87  O   UNL A   1      43.212  20.290  25.378  1.00  0.00    -0.237 OA
ATOM     88  O   UNL A   1      44.504  21.215  23.496  1.00  0.00    -0.744 OA
ENDBRANCH  84  85
ENDBRANCH  56  79
BRANCH  68  89
ATOM     89  C   UNL A   1      45.386  31.113  28.213  1.00  0.00    -0.014 A 
ATOM     90  C   UNL A   1      44.250  31.655  27.580  1.00  0.00     0.010 A 
ATOM     91  C   UNL A   1      46.645  31.662  27.907  1.00  0.00     0.010 A 
ATOM     92  C   UNL A   1      44.373  32.709  26.660  1.00  0.00     0.020 A 
ATOM     93  C   UNL A   1      46.772  32.722  27.006  1.00  0.00     0.020 A 
ATOM     94  C   UNL A   1      45.636  33.239  26.383  1.00  0.00     0.054 A 
BRANCH  94  95
ATOM     95  S   UNL A   1      45.786  34.654  25.254  1.00  0.00     0.124 S 
ATOM     96  O   UNL A   1      44.983  34.233  24.109  1.00  0.00    -0.237 OA
ATOM     97  O   UNL A   1      45.234  35.756  26.038  1.00  0.00    -0.237 OA
ATOM     98  O   UNL A   1      47.223  34.747  25.000  1.00  0.00    -0.744 OA
ENDBRANCH  94  95
ENDBRANCH  68  89
ENDBRANCH  42  43
ENDBRANCH  34  37
ENDBRANCH  32  33
ENDBRANCH  31  32
ENDBRANCH   1  31
TORSDOF 19
ENDMDL
MODEL 3
REMARK VINA RESULT:     -11.5      4.245      8.079
REMARK SMILES COc1cccc(-c2c(C(=O)NCCCCNC(=O)c3ccc(-c4c5nc(c(-c6ccc(S(=O)(=O)[O-])cc6)c6ccc([nH]6)c(-c6ccc(S(=O)(=O)[O-])cc6)c6nc(c(-c7ccc(S(=O)(=O)[O-])cc7)c7ccc4[nH]7)C=C6)C=C5)cc3)nnn2-c2ccc(OC(F)(F)F)cc2)c1
REMARK SMILES IDX 14 1 13 2 12 3 10 4 11 5 9 7 8 8 82 9 80 10 81 11 7 12 3 13
REMARK SMILES IDX 4 14 94 15 5 16 6 17 2 18 1 19 83 20 84 21 93 22 85 23 92 24
REMARK SMILES IDX 86 25 87 26 88 27 89 28 90 29 91 30 15 31 16 32 17 33 18 34
REMARK SMILES IDX 19 36 20 37 21 38 79 39 22 40 78 41 23 42 24 43 25 44 72 45
REMARK SMILES IDX 26 46 77 47 71 48 73 49 27 50 76 51 70 52 69 53 28 55 58 56
REMARK SMILES IDX 39 57 57 58 40 59 43 60 56 61 74 62 41 63 42 64 55 66 75 67
REMARK SMILES IDX 44 68 29 69 30 70 38 71 31 72 37 73 32 74 33 75 34 76 35 77
REMARK SMILES IDX 36 78 59 79 60 80 68 81 61 82 67 83 62 84 63 85 64 86 65 87
REMARK SMILES IDX 66 88 45 89 46 90 54 91 47 92 53 93 48 94 49 95 50 96 51 97
REMARK SMILES IDX 52 98
REMARK H PARENT 12 6 17 35 73 54 43 65
REMARK Flexibility Score: inf
ROOT
ATOM      1  C   UNL A   1      33.392  28.337  24.634  1.00  0.00     0.023 C 
ENDROOT
BRANCH   1   2
ATOM      2  C   UNL A   1      33.736  27.983  23.192  1.00  0.00     0.116 C 
BRANCH   2   3
ATOM      3  N   UNL A   1      32.644  27.749  22.287  1.00  0.00    -0.351 N 
ATOM      4  C   UNL A   1      32.049  26.582  21.844  1.00  0.00     0.274 C 
ATOM      5  O   UNL A   1      31.099  26.761  21.077  1.00  0.00    -0.267 OA
ATOM      6  H   UNL A   1      32.247  28.569  21.913  1.00  0.00     0.163 HD
BRANCH   4   7
ATOM      7  C   UNL A   1      32.481  25.203  22.163  1.00  0.00     0.178 A 
ATOM      8  C   UNL A   1      32.179  24.244  23.136  1.00  0.00     0.108 A 
ATOM      9  N   UNL A   1      32.977  23.150  22.790  1.00  0.00    -0.212 N 
ATOM     10  N   UNL A   1      33.466  24.663  21.345  1.00  0.00    -0.124 NA
ATOM     11  N   UNL A   1      33.833  23.482  21.811  1.00  0.00    -0.061 NA
BRANCH   8  12
ATOM     12  C   UNL A   1      31.469  24.275  24.416  1.00  0.00     0.006 A 
ATOM     13  C   UNL A   1      31.384  23.484  26.722  1.00  0.00     0.119 A 
ATOM     14  C   UNL A   1      30.349  24.385  26.971  1.00  0.00     0.046 A 
ATOM     15  C   UNL A   1      31.923  23.412  25.441  1.00  0.00     0.056 A 
ATOM     16  C   UNL A   1      29.873  25.224  25.956  1.00  0.00     0.005 A 
ATOM     17  C   UNL A   1      30.431  25.172  24.675  1.00  0.00     0.011 A 
BRANCH  13  18
ATOM     18  O   UNL A   1      31.774  22.707  27.778  1.00  0.00    -0.497 OA
ATOM     19  C   UNL A   1      33.172  22.447  27.872  1.00  0.00     0.278 C 
ENDBRANCH  13  18
ENDBRANCH   8  12
BRANCH   9  20
ATOM     20  C   UNL A   1      33.057  21.901  23.454  1.00  0.00     0.067 A 
ATOM     21  C   UNL A   1      32.149  20.887  23.143  1.00  0.00     0.032 A 
ATOM     22  C   UNL A   1      34.109  21.649  24.343  1.00  0.00     0.032 A 
ATOM     23  C   UNL A   1      32.365  19.600  23.646  1.00  0.00     0.049 A 
ATOM     24  C   UNL A   1      34.302  20.368  24.861  1.00  0.00     0.049 A 
ATOM     25  C   UNL A   1      33.450  19.328  24.492  1.00  0.00     0.129 A 
BRANCH  25  26
ATOM     26  O   UNL A   1      33.565  18.022  24.876  1.00  0.00    -0.406 OA
BRANCH  26  27
ATOM     27  C   UNL A   1      34.512  17.222  24.187  1.00  0.00     0.573 C 
ATOM     28  F   UNL A   1      34.485  15.943  24.617  1.00  0.00    -0.132 F 
ATOM     29  F   UNL A   1      34.298  17.257  22.854  1.00  0.00    -0.132 F 
ATOM     30  F   UNL A   1      35.749  17.715  24.423  1.00  0.00    -0.132 F 
ENDBRANCH  26  27
ENDBRANCH  25  26
ENDBRANCH   9  20
ENDBRANCH   4   7
ENDBRANCH   2   3
ENDBRANCH   1   2
BRANCH   1  31
ATOM     31  C   UNL A   1      32.120  29.143  24.880  1.00  0.00     0.023 C 
BRANCH  31  32
ATOM     32  C   UNL A   1      32.067  29.897  26.202  1.00  0.00     0.116 C 
BRANCH  32  33
ATOM     33  N   UNL A   1      31.762  31.326  26.087  1.00  0.00    -0.352 N 
ATOM     34  C   UNL A   1      32.239  32.351  26.905  1.00  0.00     0.251 C 
ATOM     35  H   UNL A   1      31.158  31.590  25.357  1.00  0.00     0.163 HD
ATOM     36  O   UNL A   1      31.683  33.427  26.971  1.00  0.00    -0.269 OA
BRANCH  34  37
ATOM     37  C   UNL A   1      33.466  32.076  27.683  1.00  0.00     0.039 A 
ATOM     38  C   UNL A   1      33.931  30.782  27.928  1.00  0.00     0.014 A 
ATOM     39  C   UNL A   1      34.209  33.185  28.062  1.00  0.00     0.014 A 
ATOM     40  C   UNL A   1      35.211  30.620  28.463  1.00  0.00     0.010 A 
ATOM     41  C   UNL A   1      35.527  33.020  28.395  1.00  0.00     0.010 A 
ATOM     42  C   UNL A   1      36.023  31.747  28.667  1.00  0.00    -0.014 A 
BRANCH  42  43
ATOM     43  C   UNL A   1      37.414  31.630  29.105  1.00  0.00     0.031 A 
ATOM     44  C   UNL A   1      38.076  30.310  28.884  1.00  0.00     0.074 A 
ATOM     45  C   UNL A   1      38.150  32.706  29.467  1.00  0.00     0.049 A 
ATOM     46  N   UNL A   1      38.513  29.484  29.778  1.00  0.00    -0.248 NA
ATOM     47  C   UNL A   1      38.193  29.806  27.507  1.00  0.00     0.031 C 
ATOM     48  C   UNL A   1      37.772  34.129  29.442  1.00  0.00     0.029 A 
ATOM     49  N   UNL A   1      39.463  32.761  29.811  1.00  0.00    -0.354 N 
ATOM     50  C   UNL A   1      39.129  28.442  29.085  1.00  0.00     0.074 A 
ATOM     51  C   UNL A   1      38.772  28.619  27.699  1.00  0.00     0.031 C 
ATOM     52  C   UNL A   1      38.884  34.895  29.485  1.00  0.00     0.029 A 
ATOM     53  C   UNL A   1      40.015  34.035  29.762  1.00  0.00     0.049 A 
ATOM     54  H   UNL A   1      39.980  31.965  30.073  1.00  0.00     0.167 HD
ATOM     55  C   UNL A   1      40.049  27.623  29.674  1.00  0.00     0.031 A 
ATOM     56  C   UNL A   1      41.317  34.367  29.927  1.00  0.00     0.031 A 
ATOM     57  C   UNL A   1      40.072  27.789  31.104  1.00  0.00     0.049 A 
ATOM     58  C   UNL A   1      41.951  33.250  30.665  1.00  0.00     0.074 A 
ATOM     59  C   UNL A   1      39.158  27.605  32.121  1.00  0.00     0.029 A 
ATOM     60  N   UNL A   1      41.061  28.592  31.623  1.00  0.00    -0.354 N 
ATOM     61  N   UNL A   1      41.623  32.920  31.884  1.00  0.00    -0.248 NA
ATOM     62  C   UNL A   1      42.627  32.215  29.900  1.00  0.00     0.031 C 
ATOM     63  C   UNL A   1      39.388  28.693  33.016  1.00  0.00     0.029 A 
ATOM     64  C   UNL A   1      40.468  29.434  32.529  1.00  0.00     0.049 A 
ATOM     65  H   UNL A   1      42.017  28.566  31.389  1.00  0.00     0.167 HD
ATOM     66  C   UNL A   1      41.658  31.533  31.901  1.00  0.00     0.074 A 
ATOM     67  C   UNL A   1      42.385  31.162  30.687  1.00  0.00     0.031 C 
ATOM     68  C   UNL A   1      40.865  30.811  32.748  1.00  0.00     0.031 A 
BRANCH  55  69
ATOM     69  C   UNL A   1      41.178  26.932  28.947  1.00  0.00    -0.014 A 
ATOM     70  C   UNL A   1      41.058  25.558  28.645  1.00  0.00     0.010 A 
ATOM     71  C   UNL A   1      42.455  27.508  28.796  1.00  0.00     0.010 A 
ATOM     72  C   UNL A   1      42.173  24.788  28.284  1.00  0.00     0.020 A 
ATOM     73  C   UNL A   1      43.565  26.759  28.394  1.00  0.00     0.020 A 
ATOM     74  C   UNL A   1      43.424  25.394  28.178  1.00  0.00     0.054 A 
BRANCH  74  75
ATOM     75  S   UNL A   1      44.879  24.372  27.838  1.00  0.00     0.124 S 
ATOM     76  O   UNL A   1      45.970  25.278  28.187  1.00  0.00    -0.237 OA
ATOM     77  O   UNL A   1      44.682  23.241  28.740  1.00  0.00    -0.237 OA
ATOM     78  O   UNL A   1      44.754  24.060  26.416  1.00  0.00    -0.744 OA
ENDBRANCH  74  75
ENDBRANCH  55  69
BRANCH  56  79
ATOM     79  C   UNL A   1      42.078  35.425  29.223  1.00  0.00    -0.014 A 
ATOM     80  C   UNL A   1      41.654  35.915  27.975  1.00  0.00     0.010 A 
ATOM     81  C   UNL A   1      43.069  36.154  29.914  1.00  0.00     0.010 A 
ATOM     82  C   UNL A   1      42.156  37.124  27.468  1.00  0.00     0.020 A 
ATOM     83  C   UNL A   1      43.577  37.359  29.413  1.00  0.00     0.020 A 
ATOM     84  C   UNL A   1      43.098  37.851  28.202  1.00  0.00     0.054 A 
BRANCH  84  85
ATOM     85  S   UNL A   1      43.592  39.505  27.629  1.00  0.00     0.124 S 
ATOM     86  O   UNL A   1      44.650  39.197  26.672  1.00  0.00    -0.237 OA
ATOM     87  O   UNL A   1      42.354  40.025  27.058  1.00  0.00    -0.237 OA
ATOM     88  O   UNL A   1      44.035  40.174  28.851  1.00  0.00    -0.744 OA
ENDBRANCH  84  85
ENDBRANCH  56  79
BRANCH  68  89
ATOM     89  C   UNL A   1      40.138  31.538  33.858  1.00  0.00    -0.014 A 
ATOM     90  C   UNL A   1      38.823  32.032  33.739  1.00  0.00     0.010 A 
ATOM     91  C   UNL A   1      40.743  31.553  35.127  1.00  0.00     0.010 A 
ATOM     92  C   UNL A   1      38.139  32.533  34.858  1.00  0.00     0.020 A 
ATOM     93  C   UNL A   1      40.062  32.035  36.248  1.00  0.00     0.020 A 
ATOM     94  C   UNL A   1      38.763  32.526  36.109  1.00  0.00     0.054 A 
BRANCH  94  95
ATOM     95  S   UNL A   1      37.850  33.101  37.569  1.00  0.00     0.124 S 
ATOM     96  O   UNL A   1      38.568  34.320  37.934  1.00  0.00    -0.237 OA
ATOM     97  O   UNL A   1      36.498  33.299  37.052  1.00  0.00    -0.237 OA
ATOM     98  O   UNL A   1      37.983  31.998  38.520  1.00  0.00    -0.744 OA
ENDBRANCH  94  95
ENDBRANCH  68  89
ENDBRANCH  42  43
ENDBRANCH  34  37
ENDBRANCH  32  33
ENDBRANCH  31  32
ENDBRANCH   1  31
TORSDOF 19
ENDMDL
