MODEL 1
REMARK VINA RESULT:     -11.2      0.000      0.000
REMARK SMILES CCc1cc(Nc2ccc(C(=O)NCCCCNC(=O)c3ccc(-c4c5nc(c(-c6ccc(S(=O)(=O)[O-])cc6)c6ccc([nH]6)c(-c6ccc(S(=O)(=O)[O-])cc6)c6nc(c(-c7ccc(S(=O)(=O)[O-])cc7)c7ccc4[nH]7)C=C6)C=C5)cc3)cc2)nc(C(C)C)n1
REMARK SMILES IDX 15 1 14 2 13 3 11 4 12 5 10 7 7 8 8 9 82 10 9 11 81 12 6 13
REMARK SMILES IDX 5 15 3 16 4 17 88 18 84 19 83 20 2 21 1 22 85 23 86 24 87 25
REMARK SMILES IDX 16 26 17 27 18 28 19 29 20 31 21 32 22 33 80 34 23 35 79 36
REMARK SMILES IDX 24 37 25 38 26 39 73 40 27 41 78 42 72 43 74 44 28 45 77 46
REMARK SMILES IDX 71 47 70 48 29 50 59 51 40 52 58 53 41 54 44 55 57 56 75 57
REMARK SMILES IDX 42 58 43 59 56 61 76 62 45 63 30 64 31 65 39 66 32 67 38 68
REMARK SMILES IDX 33 69 34 70 35 71 36 72 37 73 60 74 61 75 69 76 62 77 68 78
REMARK SMILES IDX 63 79 64 80 65 81 66 82 67 83 46 84 47 85 55 86 48 87 54 88
REMARK SMILES IDX 49 89 50 90 51 91 52 92 53 93
REMARK H PARENT 13 6 6 14 18 30 74 49 44 60
REMARK Flexibility Score: inf
ROOT
ATOM      1  C   UNL A   1      35.548  21.982  24.774  1.00  0.00     0.023 C 
ENDROOT
BRANCH   1   2
ATOM      2  C   UNL A   1      34.955  21.378  26.050  1.00  0.00     0.116 C 
BRANCH   2   3
ATOM      3  N   UNL A   1      34.006  20.334  25.714  1.00  0.00    -0.352 N 
ATOM      4  C   UNL A   1      32.738  20.379  25.196  1.00  0.00     0.251 C 
ATOM      5  O   UNL A   1      32.150  19.311  25.022  1.00  0.00    -0.269 OA
ATOM      6  H   UNL A   1      34.334  19.422  25.891  1.00  0.00     0.163 HD
BRANCH   4   7
ATOM      7  C   UNL A   1      32.066  21.645  24.781  1.00  0.00     0.039 A 
ATOM      8  C   UNL A   1      30.626  23.991  24.144  1.00  0.00     0.040 A 
ATOM      9  C   UNL A   1      30.654  23.514  25.456  1.00  0.00     0.027 A 
ATOM     10  C   UNL A   1      31.356  23.313  23.169  1.00  0.00     0.027 A 
ATOM     11  C   UNL A   1      31.356  22.343  25.769  1.00  0.00     0.016 A 
ATOM     12  C   UNL A   1      32.108  22.182  23.493  1.00  0.00     0.016 A 
BRANCH   8  13
ATOM     13  N   UNL A   1      29.881  25.128  23.811  1.00  0.00    -0.340 N 
ATOM     14  H   UNL A   1      29.005  24.966  23.394  1.00  0.00     0.168 HD
BRANCH  13  15
ATOM     15  C   UNL A   1      30.241  26.472  24.003  1.00  0.00     0.134 A 
ATOM     16  C   UNL A   1      29.904  28.761  23.535  1.00  0.00     0.046 A 
ATOM     17  C   UNL A   1      29.548  27.445  23.311  1.00  0.00     0.071 A 
ATOM     18  N   UNL A   1      30.902  29.101  24.371  1.00  0.00    -0.238 NA
ATOM     19  C   UNL A   1      31.543  28.095  24.996  1.00  0.00     0.133 A 
ATOM     20  N   UNL A   1      31.231  26.794  24.853  1.00  0.00    -0.216 NA
BRANCH  16  21
ATOM     21  C   UNL A   1      29.184  29.880  22.828  1.00  0.00     0.053 C 
ATOM     22  C   UNL A   1      27.671  29.762  22.942  1.00  0.00     0.011 C 
ENDBRANCH  16  21
BRANCH  19  23
ATOM     23  C   UNL A   1      32.731  28.430  25.873  1.00  0.00     0.051 C 
ATOM     24  C   UNL A   1      32.293  29.260  27.080  1.00  0.00     0.016 C 
ATOM     25  C   UNL A   1      33.476  27.173  26.313  1.00  0.00     0.016 C 
ENDBRANCH  19  23
ENDBRANCH  13  15
ENDBRANCH   8  13
ENDBRANCH   4   7
ENDBRANCH   2   3
ENDBRANCH   1   2
BRANCH   1  26
ATOM     26  C   UNL A   1      35.700  23.505  24.823  1.00  0.00     0.023 C 
BRANCH  26  27
ATOM     27  C   UNL A   1      36.974  23.993  25.499  1.00  0.00     0.116 C 
BRANCH  27  28
ATOM     28  N   UNL A   1      37.992  22.961  25.601  1.00  0.00    -0.352 N 
ATOM     29  C   UNL A   1      39.241  23.041  26.171  1.00  0.00     0.251 C 
ATOM     30  H   UNL A   1      37.756  22.088  25.211  1.00  0.00     0.163 HD
ATOM     31  O   UNL A   1      40.029  22.116  26.053  1.00  0.00    -0.269 OA
BRANCH  29  32
ATOM     32  C   UNL A   1      39.628  24.272  26.894  1.00  0.00     0.039 A 
ATOM     33  C   UNL A   1      40.370  25.241  26.219  1.00  0.00     0.014 A 
ATOM     34  C   UNL A   1      39.258  24.468  28.228  1.00  0.00     0.014 A 
ATOM     35  C   UNL A   1      40.714  26.425  26.873  1.00  0.00     0.010 A 
ATOM     36  C   UNL A   1      39.527  25.683  28.850  1.00  0.00     0.010 A 
ATOM     37  C   UNL A   1      40.279  26.663  28.188  1.00  0.00    -0.014 A 
BRANCH  37  38
ATOM     38  C   UNL A   1      40.651  27.912  28.899  1.00  0.00     0.031 A 
ATOM     39  C   UNL A   1      42.013  28.042  29.528  1.00  0.00     0.074 A 
ATOM     40  C   UNL A   1      39.756  28.914  29.003  1.00  0.00     0.049 A 
ATOM     41  N   UNL A   1      42.524  29.049  30.187  1.00  0.00    -0.248 NA
ATOM     42  C   UNL A   1      42.909  26.877  29.428  1.00  0.00     0.031 C 
ATOM     43  C   UNL A   1      38.388  28.889  28.479  1.00  0.00     0.029 A 
ATOM     44  N   UNL A   1      39.866  30.152  29.582  1.00  0.00    -0.354 N 
ATOM     45  C   UNL A   1      43.790  28.638  30.586  1.00  0.00     0.074 A 
ATOM     46  C   UNL A   1      43.944  27.266  30.155  1.00  0.00     0.031 C 
ATOM     47  C   UNL A   1      37.800  30.069  28.730  1.00  0.00     0.029 A 
ATOM     48  C   UNL A   1      38.733  30.922  29.459  1.00  0.00     0.049 A 
ATOM     49  H   UNL A   1      40.680  30.462  30.042  1.00  0.00     0.167 HD
ATOM     50  C   UNL A   1      44.752  29.343  31.227  1.00  0.00     0.031 A 
ATOM     51  C   UNL A   1      38.477  32.175  29.880  1.00  0.00     0.031 A 
ATOM     52  C   UNL A   1      44.598  30.711  31.646  1.00  0.00     0.049 A 
ATOM     53  C   UNL A   1      39.565  32.946  30.579  1.00  0.00     0.074 A 
ATOM     54  C   UNL A   1      45.524  31.532  32.266  1.00  0.00     0.029 A 
ATOM     55  N   UNL A   1      43.442  31.461  31.484  1.00  0.00    -0.354 N 
ATOM     56  N   UNL A   1      40.778  32.559  30.895  1.00  0.00    -0.248 NA
ATOM     57  C   UNL A   1      39.255  34.332  30.955  1.00  0.00     0.031 C 
ATOM     58  C   UNL A   1      44.911  32.764  32.521  1.00  0.00     0.029 A 
ATOM     59  C   UNL A   1      43.626  32.732  32.002  1.00  0.00     0.049 A 
ATOM     60  H   UNL A   1      42.613  31.137  31.063  1.00  0.00     0.167 HD
ATOM     61  C   UNL A   1      41.390  33.667  31.473  1.00  0.00     0.074 A 
ATOM     62  C   UNL A   1      40.416  34.740  31.450  1.00  0.00     0.031 C 
ATOM     63  C   UNL A   1      42.646  33.788  31.970  1.00  0.00     0.031 A 
BRANCH  50  64
ATOM     64  C   UNL A   1      46.055  28.641  31.511  1.00  0.00    -0.014 A 
ATOM     65  C   UNL A   1      47.123  28.691  30.594  1.00  0.00     0.010 A 
ATOM     66  C   UNL A   1      46.227  27.938  32.717  1.00  0.00     0.010 A 
ATOM     67  C   UNL A   1      48.316  28.014  30.855  1.00  0.00     0.020 A 
ATOM     68  C   UNL A   1      47.430  27.286  32.998  1.00  0.00     0.020 A 
ATOM     69  C   UNL A   1      48.461  27.311  32.055  1.00  0.00     0.054 A 
BRANCH  69  70
ATOM     70  S   UNL A   1      50.026  26.454  32.376  1.00  0.00     0.124 S 
ATOM     71  O   UNL A   1      49.998  26.310  33.829  1.00  0.00    -0.237 OA
ATOM     72  O   UNL A   1      49.872  25.214  31.620  1.00  0.00    -0.237 OA
ATOM     73  O   UNL A   1      51.038  27.372  31.860  1.00  0.00    -0.744 OA
ENDBRANCH  69  70
ENDBRANCH  50  64
BRANCH  51  74
ATOM     74  C   UNL A   1      37.146  32.789  29.619  1.00  0.00    -0.014 A 
ATOM     75  C   UNL A   1      36.149  32.792  30.610  1.00  0.00     0.010 A 
ATOM     76  C   UNL A   1      36.873  33.389  28.376  1.00  0.00     0.010 A 
ATOM     77  C   UNL A   1      34.898  33.364  30.358  1.00  0.00     0.020 A 
ATOM     78  C   UNL A   1      35.635  33.989  28.130  1.00  0.00     0.020 A 
ATOM     79  C   UNL A   1      34.650  33.961  29.118  1.00  0.00     0.054 A 
BRANCH  79  80
ATOM     80  S   UNL A   1      33.037  34.742  28.831  1.00  0.00     0.124 S 
ATOM     81  O   UNL A   1      33.422  36.045  28.298  1.00  0.00    -0.237 OA
ATOM     82  O   UNL A   1      32.410  33.828  27.878  1.00  0.00    -0.237 OA
ATOM     83  O   UNL A   1      32.427  34.761  30.158  1.00  0.00    -0.744 OA
ENDBRANCH  79  80
ENDBRANCH  51  74
BRANCH  63  84
ATOM     84  C   UNL A   1      43.059  35.143  32.482  1.00  0.00    -0.014 A 
ATOM     85  C   UNL A   1      42.780  35.553  33.797  1.00  0.00     0.010 A 
ATOM     86  C   UNL A   1      43.769  36.011  31.630  1.00  0.00     0.010 A 
ATOM     87  C   UNL A   1      43.156  36.827  34.234  1.00  0.00     0.020 A 
ATOM     88  C   UNL A   1      44.176  37.271  32.074  1.00  0.00     0.020 A 
ATOM     89  C   UNL A   1      43.847  37.680  33.367  1.00  0.00     0.054 A 
BRANCH  89  90
ATOM     90  S   UNL A   1      44.334  39.322  33.959  1.00  0.00     0.124 S 
ATOM     91  O   UNL A   1      45.338  39.714  32.974  1.00  0.00    -0.237 OA
ATOM     92  O   UNL A   1      43.079  40.068  33.908  1.00  0.00    -0.237 OA
ATOM     93  O   UNL A   1      44.846  39.069  35.304  1.00  0.00    -0.744 OA
ENDBRANCH  89  90
ENDBRANCH  63  84
ENDBRANCH  37  38
ENDBRANCH  29  32
ENDBRANCH  27  28
ENDBRANCH  26  27
ENDBRANCH   1  26
TORSDOF 18
ENDMDL
MODEL 2
REMARK VINA RESULT:     -10.9      2.207      2.783
REMARK SMILES CCc1cc(Nc2ccc(C(=O)NCCCCNC(=O)c3ccc(-c4c5nc(c(-c6ccc(S(=O)(=O)[O-])cc6)c6ccc([nH]6)c(-c6ccc(S(=O)(=O)[O-])cc6)c6nc(c(-c7ccc(S(=O)(=O)[O-])cc7)c7ccc4[nH]7)C=C6)C=C5)cc3)cc2)nc(C(C)C)n1
REMARK SMILES IDX 15 1 14 2 13 3 11 4 12 5 10 7 7 8 8 9 82 10 9 11 81 12 6 13
REMARK SMILES IDX 5 15 3 16 4 17 88 18 84 19 83 20 2 21 1 22 85 23 86 24 87 25
REMARK SMILES IDX 16 26 17 27 18 28 19 29 20 31 21 32 22 33 80 34 23 35 79 36
REMARK SMILES IDX 24 37 25 38 26 39 73 40 27 41 78 42 72 43 74 44 28 45 77 46
REMARK SMILES IDX 71 47 70 48 29 50 59 51 40 52 58 53 41 54 44 55 57 56 75 57
REMARK SMILES IDX 42 58 43 59 56 61 76 62 45 63 30 64 31 65 39 66 32 67 38 68
REMARK SMILES IDX 33 69 34 70 35 71 36 72 37 73 60 74 61 75 69 76 62 77 68 78
REMARK SMILES IDX 63 79 64 80 65 81 66 82 67 83 46 84 47 85 55 86 48 87 54 88
REMARK SMILES IDX 49 89 50 90 51 91 52 92 53 93
REMARK H PARENT 13 6 6 14 18 30 74 49 44 60
REMARK Flexibility Score: inf
ROOT
ATOM      1  C   UNL A   1      35.337  21.679  26.244  1.00  0.00     0.023 C 
ENDROOT
BRANCH   1   2
ATOM      2  C   UNL A   1      35.315  20.757  25.021  1.00  0.00     0.116 C 
BRANCH   2   3
ATOM      3  N   UNL A   1      34.227  19.806  25.132  1.00  0.00    -0.352 N 
ATOM      4  C   UNL A   1      32.868  19.949  25.017  1.00  0.00     0.251 C 
ATOM      5  O   UNL A   1      32.170  18.947  25.176  1.00  0.00    -0.269 OA
ATOM      6  H   UNL A   1      34.517  18.885  25.327  1.00  0.00     0.163 HD
BRANCH   4   7
ATOM      7  C   UNL A   1      32.207  21.235  24.651  1.00  0.00     0.039 A 
ATOM      8  C   UNL A   1      30.789  23.619  24.109  1.00  0.00     0.040 A 
ATOM      9  C   UNL A   1      30.838  23.105  25.407  1.00  0.00     0.027 A 
ATOM     10  C   UNL A   1      31.488  22.956  23.100  1.00  0.00     0.027 A 
ATOM     11  C   UNL A   1      31.529  21.917  25.673  1.00  0.00     0.016 A 
ATOM     12  C   UNL A   1      32.229  21.806  23.378  1.00  0.00     0.016 A 
BRANCH   8  13
ATOM     13  N   UNL A   1      30.055  24.774  23.823  1.00  0.00    -0.340 N 
ATOM     14  H   UNL A   1      29.134  24.636  23.507  1.00  0.00     0.168 HD
BRANCH  13  15
ATOM     15  C   UNL A   1      30.482  26.108  23.936  1.00  0.00     0.134 A 
ATOM     16  C   UNL A   1      30.087  28.411  23.601  1.00  0.00     0.046 A 
ATOM     17  C   UNL A   1      29.657  27.107  23.458  1.00  0.00     0.071 A 
ATOM     18  N   UNL A   1      31.273  28.717  24.160  1.00  0.00    -0.238 NA
ATOM     19  C   UNL A   1      32.029  27.687  24.585  1.00  0.00     0.133 A 
ATOM     20  N   UNL A   1      31.663  26.396  24.509  1.00  0.00    -0.216 NA
BRANCH  16  21
ATOM     21  C   UNL A   1      29.236  29.556  23.118  1.00  0.00     0.053 C 
ATOM     22  C   UNL A   1      29.660  30.057  21.745  1.00  0.00     0.011 C 
ENDBRANCH  16  21
BRANCH  19  23
ATOM     23  C   UNL A   1      33.409  27.985  25.134  1.00  0.00     0.051 C 
ATOM     24  C   UNL A   1      33.376  29.220  26.036  1.00  0.00     0.016 C 
ATOM     25  C   UNL A   1      33.990  26.782  25.874  1.00  0.00     0.016 C 
ENDBRANCH  19  23
ENDBRANCH  13  15
ENDBRANCH   8  13
ENDBRANCH   4   7
ENDBRANCH   2   3
ENDBRANCH   1   2
BRANCH   1  26
ATOM     26  C   UNL A   1      35.586  23.151  25.905  1.00  0.00     0.023 C 
BRANCH  26  27
ATOM     27  C   UNL A   1      37.045  23.581  25.982  1.00  0.00     0.116 C 
BRANCH  27  28
ATOM     28  N   UNL A   1      37.964  22.457  26.040  1.00  0.00    -0.352 N 
ATOM     29  C   UNL A   1      39.301  22.458  26.361  1.00  0.00     0.251 C 
ATOM     30  H   UNL A   1      37.578  21.578  25.822  1.00  0.00     0.163 HD
ATOM     31  O   UNL A   1      39.963  21.440  26.232  1.00  0.00    -0.269 OA
BRANCH  29  32
ATOM     32  C   UNL A   1      39.932  23.712  26.828  1.00  0.00     0.039 A 
ATOM     33  C   UNL A   1      39.979  24.802  25.959  1.00  0.00     0.014 A 
ATOM     34  C   UNL A   1      40.470  23.811  28.114  1.00  0.00     0.014 A 
ATOM     35  C   UNL A   1      40.537  26.005  26.393  1.00  0.00     0.010 A 
ATOM     36  C   UNL A   1      40.947  25.033  28.574  1.00  0.00     0.010 A 
ATOM     37  C   UNL A   1      41.009  26.136  27.710  1.00  0.00    -0.014 A 
BRANCH  37  38
ATOM     38  C   UNL A   1      41.618  27.406  28.179  1.00  0.00     0.031 A 
ATOM     39  C   UNL A   1      43.110  27.596  28.106  1.00  0.00     0.074 A 
ATOM     40  C   UNL A   1      40.834  28.373  28.694  1.00  0.00     0.049 A 
ATOM     41  N   UNL A   1      43.828  28.630  28.461  1.00  0.00    -0.248 NA
ATOM     42  C   UNL A   1      43.903  26.466  27.592  1.00  0.00     0.031 C 
ATOM     43  C   UNL A   1      39.381  28.289  28.864  1.00  0.00     0.029 A 
ATOM     44  N   UNL A   1      41.151  29.621  29.167  1.00  0.00    -0.354 N 
ATOM     45  C   UNL A   1      45.150  28.273  28.225  1.00  0.00     0.074 A 
ATOM     46  C   UNL A   1      45.141  26.904  27.759  1.00  0.00     0.031 C 
ATOM     47  C   UNL A   1      38.930  29.447  29.370  1.00  0.00     0.029 A 
ATOM     48  C   UNL A   1      40.060  30.344  29.590  1.00  0.00     0.049 A 
ATOM     49  H   UNL A   1      42.072  29.967  29.200  1.00  0.00     0.167 HD
ATOM     50  C   UNL A   1      46.270  29.022  28.353  1.00  0.00     0.031 A 
ATOM     51  C   UNL A   1      39.979  31.591  30.093  1.00  0.00     0.031 A 
ATOM     52  C   UNL A   1      46.274  30.387  28.808  1.00  0.00     0.049 A 
ATOM     53  C   UNL A   1      41.235  32.411  30.215  1.00  0.00     0.074 A 
ATOM     54  C   UNL A   1      47.348  31.250  28.935  1.00  0.00     0.029 A 
ATOM     55  N   UNL A   1      45.145  31.089  29.207  1.00  0.00    -0.354 N 
ATOM     56  N   UNL A   1      42.470  32.076  29.929  1.00  0.00    -0.248 NA
ATOM     57  C   UNL A   1      41.079  33.788  30.704  1.00  0.00     0.031 C 
ATOM     58  C   UNL A   1      46.875  32.460  29.457  1.00  0.00     0.029 A 
ATOM     59  C   UNL A   1      45.498  32.372  29.591  1.00  0.00     0.049 A 
ATOM     60  H   UNL A   1      44.229  30.729  29.216  1.00  0.00     0.167 HD
ATOM     61  C   UNL A   1      43.236  33.213  30.167  1.00  0.00     0.074 A 
ATOM     62  C   UNL A   1      42.321  34.246  30.608  1.00  0.00     0.031 C 
ATOM     63  C   UNL A   1      44.574  33.388  30.027  1.00  0.00     0.031 A 
BRANCH  50  64
ATOM     64  C   UNL A   1      47.583  28.374  27.995  1.00  0.00    -0.014 A 
ATOM     65  C   UNL A   1      48.075  28.410  26.675  1.00  0.00     0.010 A 
ATOM     66  C   UNL A   1      48.349  27.740  28.989  1.00  0.00     0.010 A 
ATOM     67  C   UNL A   1      49.279  27.783  26.350  1.00  0.00     0.020 A 
ATOM     68  C   UNL A   1      49.571  27.139  28.674  1.00  0.00     0.020 A 
ATOM     69  C   UNL A   1      50.018  27.147  27.351  1.00  0.00     0.054 A 
BRANCH  69  70
ATOM     70  S   UNL A   1      51.587  26.354  26.903  1.00  0.00     0.124 S 
ATOM     71  O   UNL A   1      51.243  24.937  26.991  1.00  0.00    -0.237 OA
ATOM     72  O   UNL A   1      51.826  26.858  25.553  1.00  0.00    -0.237 OA
ATOM     73  O   UNL A   1      52.521  26.834  27.918  1.00  0.00    -0.744 OA
ENDBRANCH  69  70
ENDBRANCH  50  64
BRANCH  51  74
ATOM     74  C   UNL A   1      38.654  32.149  30.484  1.00  0.00    -0.014 A 
ATOM     75  C   UNL A   1      37.854  32.823  29.545  1.00  0.00     0.010 A 
ATOM     76  C   UNL A   1      38.180  31.995  31.800  1.00  0.00     0.010 A 
ATOM     77  C   UNL A   1      36.614  33.350  29.918  1.00  0.00     0.020 A 
ATOM     78  C   UNL A   1      36.928  32.494  32.169  1.00  0.00     0.020 A 
ATOM     79  C   UNL A   1      36.158  33.180  31.229  1.00  0.00     0.054 A 
BRANCH  79  80
ATOM     80  S   UNL A   1      34.523  33.829  31.677  1.00  0.00     0.124 S 
ATOM     81  O   UNL A   1      34.870  35.012  32.458  1.00  0.00    -0.237 OA
ATOM     82  O   UNL A   1      33.917  34.085  30.373  1.00  0.00    -0.237 OA
ATOM     83  O   UNL A   1      33.918  32.734  32.432  1.00  0.00    -0.744 OA
ENDBRANCH  79  80
ENDBRANCH  51  74
BRANCH  63  84
ATOM     84  C   UNL A   1      45.123  34.764  30.301  1.00  0.00    -0.014 A 
ATOM     85  C   UNL A   1      45.662  35.109  31.552  1.00  0.00     0.010 A 
ATOM     86  C   UNL A   1      45.123  35.720  29.268  1.00  0.00     0.010 A 
ATOM     87  C   UNL A   1      46.141  36.402  31.782  1.00  0.00     0.020 A 
ATOM     88  C   UNL A   1      45.633  37.003  29.483  1.00  0.00     0.020 A 
ATOM     89  C   UNL A   1      46.119  37.343  30.747  1.00  0.00     0.054 A 
BRANCH  89  90
ATOM     90  S   UNL A   1      46.757  39.009  31.064  1.00  0.00     0.124 S 
ATOM     91  O   UNL A   1      46.034  39.385  32.276  1.00  0.00    -0.237 OA
ATOM     92  O   UNL A   1      48.190  38.778  31.233  1.00  0.00    -0.237 OA
ATOM     93  O   UNL A   1      46.391  39.756  29.863  1.00  0.00    -0.744 OA
ENDBRANCH  89  90
ENDBRANCH  63  84
ENDBRANCH  37  38
ENDBRANCH  29  32
ENDBRANCH  27  28
ENDBRANCH  26  27
ENDBRANCH   1  26
TORSDOF 18
ENDMDL
MODEL 3
REMARK VINA RESULT:     -10.8      3.852      5.090
REMARK SMILES CCc1cc(Nc2ccc(C(=O)NCCCCNC(=O)c3ccc(-c4c5nc(c(-c6ccc(S(=O)(=O)[O-])cc6)c6ccc([nH]6)c(-c6ccc(S(=O)(=O)[O-])cc6)c6nc(c(-c7ccc(S(=O)(=O)[O-])cc7)c7ccc4[nH]7)C=C6)C=C5)cc3)cc2)nc(C(C)C)n1
REMARK SMILES IDX 15 1 14 2 13 3 11 4 12 5 10 7 7 8 8 9 82 10 9 11 81 12 6 13
REMARK SMILES IDX 5 15 3 16 4 17 88 18 84 19 83 20 2 21 1 22 85 23 86 24 87 25
REMARK SMILES IDX 16 26 17 27 18 28 19 29 20 31 21 32 22 33 80 34 23 35 79 36
REMARK SMILES IDX 24 37 25 38 26 39 73 40 27 41 78 42 72 43 74 44 28 45 77 46
REMARK SMILES IDX 71 47 70 48 29 50 59 51 40 52 58 53 41 54 44 55 57 56 75 57
REMARK SMILES IDX 42 58 43 59 56 61 76 62 45 63 30 64 31 65 39 66 32 67 38 68
REMARK SMILES IDX 33 69 34 70 35 71 36 72 37 73 60 74 61 75 69 76 62 77 68 78
REMARK SMILES IDX 63 79 64 80 65 81 66 82 67 83 46 84 47 85 55 86 48 87 54 88
REMARK SMILES IDX 49 89 50 90 51 91 52 92 53 93
REMARK H PARENT 13 6 6 14 18 30 74 49 44 60
REMARK Flexibility Score: inf
ROOT
ATOM      1  C   UNL A   1      37.138  19.938  24.997  1.00  0.00     0.023 C 
ENDROOT
BRANCH   1   2
ATOM      2  C   UNL A   1      35.826  20.723  25.076  1.00  0.00     0.116 C 
BRANCH   2   3
ATOM      3  N   UNL A   1      34.700  19.811  25.135  1.00  0.00    -0.352 N 
ATOM      4  C   UNL A   1      33.393  19.990  25.508  1.00  0.00     0.251 C 
ATOM      5  O   UNL A   1      32.646  19.013  25.470  1.00  0.00    -0.269 OA
ATOM      6  H   UNL A   1      34.914  18.891  24.855  1.00  0.00     0.163 HD
BRANCH   4   7
ATOM      7  C   UNL A   1      32.826  21.315  25.896  1.00  0.00     0.039 A 
ATOM      8  C   UNL A   1      31.718  23.864  26.405  1.00  0.00     0.040 A 
ATOM      9  C   UNL A   1      31.210  23.065  25.379  1.00  0.00     0.027 A 
ATOM     10  C   UNL A   1      32.750  23.360  27.197  1.00  0.00     0.027 A 
ATOM     11  C   UNL A   1      31.768  21.807  25.117  1.00  0.00     0.016 A 
ATOM     12  C   UNL A   1      33.263  22.081  26.977  1.00  0.00     0.016 A 
BRANCH   8  13
ATOM     13  N   UNL A   1      31.204  25.144  26.637  1.00  0.00    -0.340 N 
ATOM     14  H   UNL A   1      30.454  25.203  27.271  1.00  0.00     0.168 HD
BRANCH  13  15
ATOM     15  C   UNL A   1      31.636  26.354  26.069  1.00  0.00     0.134 A 
ATOM     16  C   UNL A   1      31.982  28.682  26.248  1.00  0.00     0.046 A 
ATOM     17  C   UNL A   1      31.529  27.509  26.818  1.00  0.00     0.071 A 
ATOM     18  N   UNL A   1      32.487  28.724  25.001  1.00  0.00    -0.238 NA
ATOM     19  C   UNL A   1      32.542  27.560  24.327  1.00  0.00     0.133 A 
ATOM     20  N   UNL A   1      32.151  26.375  24.828  1.00  0.00    -0.216 NA
BRANCH  16  21
ATOM     21  C   UNL A   1      31.913  29.981  27.008  1.00  0.00     0.053 C 
ATOM     22  C   UNL A   1      33.289  30.577  27.267  1.00  0.00     0.011 C 
ENDBRANCH  16  21
BRANCH  19  23
ATOM     23  C   UNL A   1      33.017  27.581  22.889  1.00  0.00     0.051 C 
ATOM     24  C   UNL A   1      34.158  28.584  22.713  1.00  0.00     0.016 C 
ATOM     25  C   UNL A   1      33.432  26.191  22.415  1.00  0.00     0.016 C 
ENDBRANCH  19  23
ENDBRANCH  13  15
ENDBRANCH   8  13
ENDBRANCH   4   7
ENDBRANCH   2   3
ENDBRANCH   1   2
BRANCH   1  26
ATOM     26  C   UNL A   1      38.389  20.821  24.996  1.00  0.00     0.023 C 
BRANCH  26  27
ATOM     27  C   UNL A   1      39.275  20.664  26.224  1.00  0.00     0.116 C 
BRANCH  27  28
ATOM     28  N   UNL A   1      40.323  19.674  26.046  1.00  0.00    -0.352 N 
ATOM     29  C   UNL A   1      41.686  19.857  26.053  1.00  0.00     0.251 C 
ATOM     30  H   UNL A   1      40.016  18.750  25.900  1.00  0.00     0.163 HD
ATOM     31  O   UNL A   1      42.429  18.936  25.753  1.00  0.00    -0.269 OA
BRANCH  29  32
ATOM     32  C   UNL A   1      42.236  21.187  26.394  1.00  0.00     0.039 A 
ATOM     33  C   UNL A   1      42.358  22.141  25.384  1.00  0.00     0.014 A 
ATOM     34  C   UNL A   1      42.625  21.490  27.702  1.00  0.00     0.014 A 
ATOM     35  C   UNL A   1      42.840  23.413  25.692  1.00  0.00     0.010 A 
ATOM     36  C   UNL A   1      43.024  22.783  28.024  1.00  0.00     0.010 A 
ATOM     37  C   UNL A   1      43.160  23.750  27.019  1.00  0.00    -0.014 A 
BRANCH  37  38
ATOM     38  C   UNL A   1      43.687  25.096  27.357  1.00  0.00     0.031 A 
ATOM     39  C   UNL A   1      45.144  25.409  27.138  1.00  0.00     0.074 A 
ATOM     40  C   UNL A   1      42.865  26.023  27.886  1.00  0.00     0.049 A 
ATOM     41  N   UNL A   1      45.792  26.521  27.367  1.00  0.00    -0.248 NA
ATOM     42  C   UNL A   1      45.990  24.320  26.618  1.00  0.00     0.031 C 
ATOM     43  C   UNL A   1      41.447  25.824  28.192  1.00  0.00     0.029 A 
ATOM     44  N   UNL A   1      43.106  27.322  28.256  1.00  0.00    -0.354 N 
ATOM     45  C   UNL A   1      47.116  26.265  27.031  1.00  0.00     0.074 A 
ATOM     46  C   UNL A   1      47.193  24.873  26.647  1.00  0.00     0.031 C 
ATOM     47  C   UNL A   1      40.936  26.970  28.670  1.00  0.00     0.029 A 
ATOM     48  C   UNL A   1      41.994  27.974  28.735  1.00  0.00     0.049 A 
ATOM     49  H   UNL A   1      43.991  27.747  28.185  1.00  0.00     0.167 HD
ATOM     50  C   UNL A   1      48.170  27.115  27.014  1.00  0.00     0.031 A 
ATOM     51  C   UNL A   1      41.842  29.239  29.172  1.00  0.00     0.031 A 
ATOM     52  C   UNL A   1      48.087  28.502  27.388  1.00  0.00     0.049 A 
ATOM     53  C   UNL A   1      43.023  30.171  29.131  1.00  0.00     0.074 A 
ATOM     54  C   UNL A   1      49.084  29.461  27.367  1.00  0.00     0.029 A 
ATOM     55  N   UNL A   1      46.937  29.128  27.847  1.00  0.00    -0.354 N 
ATOM     56  N   UNL A   1      44.255  29.925  28.754  1.00  0.00    -0.248 NA
ATOM     57  C   UNL A   1      42.784  31.557  29.553  1.00  0.00     0.031 C 
ATOM     58  C   UNL A   1      48.549  30.656  27.860  1.00  0.00     0.029 A 
ATOM     59  C   UNL A   1      47.202  30.459  28.125  1.00  0.00     0.049 A 
ATOM     60  H   UNL A   1      46.062  28.692  27.960  1.00  0.00     0.167 HD
ATOM     61  C   UNL A   1      44.930  31.137  28.856  1.00  0.00     0.074 A 
ATOM     62  C   UNL A   1      43.966  32.114  29.318  1.00  0.00     0.031 C 
ATOM     63  C   UNL A   1      46.230  31.418  28.584  1.00  0.00     0.031 A 
BRANCH  50  64
ATOM     64  C   UNL A   1      49.500  26.561  26.575  1.00  0.00    -0.014 A 
ATOM     65  C   UNL A   1      49.910  26.635  25.229  1.00  0.00     0.010 A 
ATOM     66  C   UNL A   1      50.365  25.978  27.518  1.00  0.00     0.010 A 
ATOM     67  C   UNL A   1      51.134  26.094  24.829  1.00  0.00     0.020 A 
ATOM     68  C   UNL A   1      51.606  25.465  27.128  1.00  0.00     0.020 A 
ATOM     69  C   UNL A   1      51.973  25.508  25.781  1.00  0.00     0.054 A 
BRANCH  69  70
ATOM     70  S   UNL A   1      53.563  24.828  25.236  1.00  0.00     0.124 S 
ATOM     71  O   UNL A   1      53.801  25.571  24.001  1.00  0.00    -0.237 OA
ATOM     72  O   UNL A   1      54.451  25.159  26.348  1.00  0.00    -0.237 OA
ATOM     73  O   UNL A   1      53.292  23.403  25.064  1.00  0.00    -0.744 OA
ENDBRANCH  69  70
ENDBRANCH  50  64
BRANCH  51  74
ATOM     74  C   UNL A   1      40.510  29.705  29.649  1.00  0.00    -0.014 A 
ATOM     75  C   UNL A   1      40.214  29.747  31.023  1.00  0.00     0.010 A 
ATOM     76  C   UNL A   1      39.533  30.124  28.727  1.00  0.00     0.010 A 
ATOM     77  C   UNL A   1      38.961  30.180  31.466  1.00  0.00     0.020 A 
ATOM     78  C   UNL A   1      38.290  30.585  29.168  1.00  0.00     0.020 A 
ATOM     79  C   UNL A   1      38.006  30.598  30.534  1.00  0.00     0.054 A 
BRANCH  79  80
ATOM     80  S   UNL A   1      36.404  31.203  31.134  1.00  0.00     0.124 S 
ATOM     81  O   UNL A   1      35.624  31.270  29.903  1.00  0.00    -0.237 OA
ATOM     82  O   UNL A   1      36.008  30.162  32.080  1.00  0.00    -0.237 OA
ATOM     83  O   UNL A   1      36.732  32.492  31.740  1.00  0.00    -0.744 OA
ENDBRANCH  79  80
ENDBRANCH  51  74
BRANCH  63  84
ATOM     84  C   UNL A   1      46.672  32.851  28.728  1.00  0.00    -0.014 A 
ATOM     85  C   UNL A   1      47.207  33.342  29.931  1.00  0.00     0.010 A 
ATOM     86  C   UNL A   1      46.572  33.713  27.620  1.00  0.00     0.010 A 
ATOM     87  C   UNL A   1      47.586  34.683  30.039  1.00  0.00     0.020 A 
ATOM     88  C   UNL A   1      46.981  35.046  27.714  1.00  0.00     0.020 A 
ATOM     89  C   UNL A   1      47.465  35.528  28.931  1.00  0.00     0.054 A 
BRANCH  89  90
ATOM     90  S   UNL A   1      47.974  37.260  29.092  1.00  0.00     0.124 S 
ATOM     91  O   UNL A   1      46.928  37.953  28.344  1.00  0.00    -0.237 OA
ATOM     92  O   UNL A   1      47.954  37.469  30.538  1.00  0.00    -0.237 OA
ATOM     93  O   UNL A   1      49.301  37.291  28.483  1.00  0.00    -0.744 OA
ENDBRANCH  89  90
ENDBRANCH  63  84
ENDBRANCH  37  38
ENDBRANCH  29  32
ENDBRANCH  27  28
ENDBRANCH  26  27
ENDBRANCH   1  26
TORSDOF 18
ENDMDL
