MODEL 1
REMARK VINA RESULT:     -10.0      0.000      0.000
REMARK SMILES CC[C@H](C)Oc1ccc(NC(=O)/C=C/C(=O)NCCCCNC(=O)c2ccc(-c3c4nc(c(-c5ccc(S(=O)(=O)[O-])cc5)c5ccc([nH]5)c(-c5ccc(S(=O)(=O)[O-])cc5)c5nc(c(-c6ccc(S(=O)(=O)[O-])cc6)c6ccc3[nH]6)C=C5)C=C4)cc2)cc1
REMARK SMILES IDX 18 1 17 2 15 3 16 4 14 6 13 7 11 8 10 9 12 11 9 12 6 13 7 14
REMARK SMILES IDX 86 15 8 16 85 17 5 18 3 19 4 20 2 21 1 22 19 23 20 24 21 25
REMARK SMILES IDX 22 26 23 27 24 29 25 30 26 31 84 32 27 33 83 34 28 35 29 36
REMARK SMILES IDX 30 37 77 38 31 39 82 40 76 41 78 42 32 43 81 44 75 45 74 46
REMARK SMILES IDX 33 48 63 49 44 50 62 51 45 52 48 53 61 54 79 55 46 56 47 57
REMARK SMILES IDX 60 59 80 60 49 61 34 62 35 63 43 64 36 65 42 66 37 67 38 68
REMARK SMILES IDX 39 69 40 70 41 71 64 72 65 73 73 74 66 75 72 76 67 77 68 78
REMARK SMILES IDX 69 79 70 80 71 81 50 82 51 83 59 84 52 85 58 86 53 87 54 88
REMARK SMILES IDX 55 89 56 90 57 91
REMARK H PARENT 17 5 10 10 22 28 78 47 48 58
REMARK Flexibility Score: inf
ROOT
ATOM      1  C   UNL A   1      33.819  23.506  23.227  1.00  0.00     0.116 C 
ENDROOT
BRANCH   1   2
ATOM      2  N   UNL A   1      33.790  24.789  22.554  1.00  0.00    -0.353 N 
ATOM      3  C   UNL A   1      33.058  25.893  22.850  1.00  0.00     0.244 C 
ATOM      4  O   UNL A   1      33.271  26.958  22.278  1.00  0.00    -0.270 OA
ATOM      5  H   UNL A   1      34.385  24.874  21.774  1.00  0.00     0.163 HD
BRANCH   3   6
ATOM      6  C   UNL A   1      32.002  25.823  23.876  1.00  0.00     0.077 C 
ATOM      7  C   UNL A   1      32.308  25.932  25.178  1.00  0.00     0.077 C 
BRANCH   7   8
ATOM      8  C   UNL A   1      31.299  25.619  26.199  1.00  0.00     0.248 C 
ATOM      9  N   UNL A   1      31.104  24.324  26.591  1.00  0.00    -0.323 N 
ATOM     10  H   UNL A   1      30.349  24.202  27.211  1.00  0.00     0.170 HD
ATOM     11  O   UNL A   1      30.624  26.528  26.674  1.00  0.00    -0.270 OA
BRANCH   9  12
ATOM     12  C   UNL A   1      31.785  23.134  26.271  1.00  0.00     0.041 A 
ATOM     13  C   UNL A   1      33.092  20.658  25.965  1.00  0.00     0.119 A 
ATOM     14  C   UNL A   1      32.058  21.024  25.110  1.00  0.00     0.048 A 
ATOM     15  C   UNL A   1      33.540  21.577  26.907  1.00  0.00     0.048 A 
ATOM     16  C   UNL A   1      31.423  22.260  25.248  1.00  0.00     0.030 A 
ATOM     17  C   UNL A   1      32.893  22.810  27.056  1.00  0.00     0.030 A 
BRANCH  13  18
ATOM     18  O   UNL A   1      33.611  19.422  25.736  1.00  0.00    -0.491 OA
BRANCH  18  19
ATOM     19  C   UNL A   1      34.504  19.175  24.640  1.00  0.00     0.170 C 
ATOM     20  C   UNL A   1      35.886  19.778  24.877  1.00  0.00     0.053 C 
BRANCH  19  21
ATOM     21  C   UNL A   1      34.501  17.719  24.141  1.00  0.00     0.041 C 
ATOM     22  C   UNL A   1      33.106  17.208  23.810  1.00  0.00     0.008 C 
ENDBRANCH  19  21
ENDBRANCH  18  19
ENDBRANCH  13  18
ENDBRANCH   9  12
ENDBRANCH   7   8
ENDBRANCH   3   6
ENDBRANCH   1   2
BRANCH   1  23
ATOM     23  C   UNL A   1      35.116  23.316  24.010  1.00  0.00     0.023 C 
BRANCH  23  24
ATOM     24  C   UNL A   1      35.416  24.426  25.022  1.00  0.00     0.023 C 
BRANCH  24  25
ATOM     25  C   UNL A   1      36.257  23.998  26.220  1.00  0.00     0.116 C 
BRANCH  25  26
ATOM     26  N   UNL A   1      37.227  22.960  25.903  1.00  0.00    -0.352 N 
ATOM     27  C   UNL A   1      38.581  22.967  26.131  1.00  0.00     0.251 C 
ATOM     28  H   UNL A   1      36.867  22.152  25.471  1.00  0.00     0.163 HD
ATOM     29  O   UNL A   1      39.285  22.045  25.730  1.00  0.00    -0.269 OA
BRANCH  27  30
ATOM     30  C   UNL A   1      39.177  24.122  26.824  1.00  0.00     0.039 A 
ATOM     31  C   UNL A   1      39.944  25.025  26.084  1.00  0.00     0.014 A 
ATOM     32  C   UNL A   1      38.927  24.341  28.181  1.00  0.00     0.014 A 
ATOM     33  C   UNL A   1      40.409  26.189  26.696  1.00  0.00     0.010 A 
ATOM     34  C   UNL A   1      39.337  25.532  28.770  1.00  0.00     0.010 A 
ATOM     35  C   UNL A   1      40.081  26.466  28.033  1.00  0.00    -0.014 A 
BRANCH  35  36
ATOM     36  C   UNL A   1      40.514  27.727  28.682  1.00  0.00     0.031 A 
ATOM     37  C   UNL A   1      41.893  27.827  29.272  1.00  0.00     0.074 A 
ATOM     38  C   UNL A   1      39.649  28.756  28.787  1.00  0.00     0.049 A 
ATOM     39  N   UNL A   1      42.433  28.811  29.942  1.00  0.00    -0.248 NA
ATOM     40  C   UNL A   1      42.774  26.657  29.108  1.00  0.00     0.031 C 
ATOM     41  C   UNL A   1      38.271  28.764  28.288  1.00  0.00     0.029 A 
ATOM     42  N   UNL A   1      39.800  29.995  29.357  1.00  0.00    -0.354 N 
ATOM     43  C   UNL A   1      43.707  28.378  30.289  1.00  0.00     0.074 A 
ATOM     44  C   UNL A   1      43.843  27.024  29.801  1.00  0.00     0.031 C 
ATOM     45  C   UNL A   1      37.713  29.956  28.555  1.00  0.00     0.029 A 
ATOM     46  C   UNL A   1      38.676  30.783  29.274  1.00  0.00     0.049 A 
ATOM     47  H   UNL A   1      40.634  30.292  29.787  1.00  0.00     0.167 HD
ATOM     48  C   UNL A   1      44.686  29.057  30.932  1.00  0.00     0.031 A 
ATOM     49  C   UNL A   1      38.447  32.029  29.731  1.00  0.00     0.031 A 
ATOM     50  C   UNL A   1      44.554  30.410  31.399  1.00  0.00     0.049 A 
ATOM     51  C   UNL A   1      39.551  32.758  30.449  1.00  0.00     0.074 A 
ATOM     52  C   UNL A   1      45.499  31.198  32.032  1.00  0.00     0.029 A 
ATOM     53  N   UNL A   1      43.408  31.181  31.274  1.00  0.00    -0.354 N 
ATOM     54  N   UNL A   1      40.766  32.347  30.724  1.00  0.00    -0.248 NA
ATOM     55  C   UNL A   1      39.259  34.124  30.904  1.00  0.00     0.031 C 
ATOM     56  C   UNL A   1      44.913  32.434  32.321  1.00  0.00     0.029 A 
ATOM     57  C   UNL A   1      43.620  32.433  31.823  1.00  0.00     0.049 A 
ATOM     58  H   UNL A   1      42.568  30.882  30.855  1.00  0.00     0.167 HD
ATOM     59  C   UNL A   1      41.391  33.415  31.356  1.00  0.00     0.074 A 
ATOM     60  C   UNL A   1      40.427  34.495  31.410  1.00  0.00     0.031 C 
ATOM     61  C   UNL A   1      42.651  33.497  31.851  1.00  0.00     0.031 A 
BRANCH  48  62
ATOM     62  C   UNL A   1      45.995  28.350  31.152  1.00  0.00    -0.014 A 
ATOM     63  C   UNL A   1      46.223  27.607  32.324  1.00  0.00     0.010 A 
ATOM     64  C   UNL A   1      46.987  28.377  30.154  1.00  0.00     0.010 A 
ATOM     65  C   UNL A   1      47.428  26.925  32.507  1.00  0.00     0.020 A 
ATOM     66  C   UNL A   1      48.184  27.675  30.323  1.00  0.00     0.020 A 
ATOM     67  C   UNL A   1      48.401  26.963  31.504  1.00  0.00     0.054 A 
BRANCH  67  68
ATOM     68  S   UNL A   1      49.935  26.027  31.750  1.00  0.00     0.124 S 
ATOM     69  O   UNL A   1      50.850  27.067  32.214  1.00  0.00    -0.237 OA
ATOM     70  O   UNL A   1      49.549  25.036  32.751  1.00  0.00    -0.237 OA
ATOM     71  O   UNL A   1      50.228  25.487  30.424  1.00  0.00    -0.744 OA
ENDBRANCH  67  68
ENDBRANCH  48  62
BRANCH  49  72
ATOM     72  C   UNL A   1      37.122  32.677  29.523  1.00  0.00    -0.014 A 
ATOM     73  C   UNL A   1      36.894  33.493  28.400  1.00  0.00     0.010 A 
ATOM     74  C   UNL A   1      36.092  32.506  30.465  1.00  0.00     0.010 A 
ATOM     75  C   UNL A   1      35.675  34.159  28.245  1.00  0.00     0.020 A 
ATOM     76  C   UNL A   1      34.861  33.149  30.297  1.00  0.00     0.020 A 
ATOM     77  C   UNL A   1      34.668  33.988  29.198  1.00  0.00     0.054 A 
BRANCH  77  78
ATOM     78  S   UNL A   1      33.089  34.853  28.973  1.00  0.00     0.124 S 
ATOM     79  O   UNL A   1      33.526  36.148  28.460  1.00  0.00    -0.237 OA
ATOM     80  O   UNL A   1      32.390  33.997  28.019  1.00  0.00    -0.237 OA
ATOM     81  O   UNL A   1      32.517  34.870  30.317  1.00  0.00    -0.744 OA
ENDBRANCH  77  78
ENDBRANCH  49  72
BRANCH  61  82
ATOM     82  C   UNL A   1      43.076  34.812  32.447  1.00  0.00    -0.014 A 
ATOM     83  C   UNL A   1      43.698  35.799  31.664  1.00  0.00     0.010 A 
ATOM     84  C   UNL A   1      42.795  35.080  33.799  1.00  0.00     0.010 A 
ATOM     85  C   UNL A   1      44.059  37.023  32.231  1.00  0.00     0.020 A 
ATOM     86  C   UNL A   1      43.132  36.313  34.363  1.00  0.00     0.020 A 
ATOM     87  C   UNL A   1      43.775  37.271  33.579  1.00  0.00     0.054 A 
BRANCH  87  88
ATOM     88  S   UNL A   1      44.211  38.886  34.280  1.00  0.00     0.124 S 
ATOM     89  O   UNL A   1      44.383  38.566  35.695  1.00  0.00    -0.237 OA
ATOM     90  O   UNL A   1      45.435  39.229  33.561  1.00  0.00    -0.237 OA
ATOM     91  O   UNL A   1      43.055  39.723  33.966  1.00  0.00    -0.744 OA
ENDBRANCH  87  88
ENDBRANCH  61  82
ENDBRANCH  35  36
ENDBRANCH  27  30
ENDBRANCH  25  26
ENDBRANCH  24  25
ENDBRANCH  23  24
ENDBRANCH   1  23
TORSDOF 19
ENDMDL
MODEL 2
REMARK VINA RESULT:      -9.9      3.473      6.829
REMARK SMILES CC[C@H](C)Oc1ccc(NC(=O)/C=C/C(=O)NCCCCNC(=O)c2ccc(-c3c4nc(c(-c5ccc(S(=O)(=O)[O-])cc5)c5ccc([nH]5)c(-c5ccc(S(=O)(=O)[O-])cc5)c5nc(c(-c6ccc(S(=O)(=O)[O-])cc6)c6ccc3[nH]6)C=C5)C=C4)cc2)cc1
REMARK SMILES IDX 18 1 17 2 15 3 16 4 14 6 13 7 11 8 10 9 12 11 9 12 6 13 7 14
REMARK SMILES IDX 86 15 8 16 85 17 5 18 3 19 4 20 2 21 1 22 19 23 20 24 21 25
REMARK SMILES IDX 22 26 23 27 24 29 25 30 26 31 84 32 27 33 83 34 28 35 29 36
REMARK SMILES IDX 30 37 77 38 31 39 82 40 76 41 78 42 32 43 81 44 75 45 74 46
REMARK SMILES IDX 33 48 63 49 44 50 62 51 45 52 48 53 61 54 79 55 46 56 47 57
REMARK SMILES IDX 60 59 80 60 49 61 34 62 35 63 43 64 36 65 42 66 37 67 38 68
REMARK SMILES IDX 39 69 40 70 41 71 64 72 65 73 73 74 66 75 72 76 67 77 68 78
REMARK SMILES IDX 69 79 70 80 71 81 50 82 51 83 59 84 52 85 58 86 53 87 54 88
REMARK SMILES IDX 55 89 56 90 57 91
REMARK H PARENT 17 5 10 10 22 28 78 47 48 58
REMARK Flexibility Score: inf
ROOT
ATOM      1  C   UNL A   1      42.860  20.359  25.830  1.00  0.00     0.116 C 
ENDROOT
BRANCH   1   2
ATOM      2  N   UNL A   1      43.788  19.495  25.129  1.00  0.00    -0.353 N 
ATOM      3  C   UNL A   1      44.917  19.825  24.452  1.00  0.00     0.244 C 
ATOM      4  O   UNL A   1      45.683  18.954  24.051  1.00  0.00    -0.270 OA
ATOM      5  H   UNL A   1      43.571  18.535  25.146  1.00  0.00     0.163 HD
BRANCH   3   6
ATOM      6  C   UNL A   1      45.240  21.242  24.202  1.00  0.00     0.077 C 
ATOM      7  C   UNL A   1      46.099  21.895  24.998  1.00  0.00     0.077 C 
BRANCH   7   8
ATOM      8  C   UNL A   1      46.228  23.355  24.898  1.00  0.00     0.248 C 
ATOM      9  N   UNL A   1      45.821  24.149  25.933  1.00  0.00    -0.323 N 
ATOM     10  H   UNL A   1      45.863  25.114  25.740  1.00  0.00     0.170 HD
ATOM     11  O   UNL A   1      46.683  23.849  23.869  1.00  0.00    -0.270 OA
BRANCH   9  12
ATOM     12  C   UNL A   1      45.352  23.840  27.224  1.00  0.00     0.041 A 
ATOM     13  C   UNL A   1      44.434  23.568  29.873  1.00  0.00     0.119 A 
ATOM     14  C   UNL A   1      43.702  23.046  28.812  1.00  0.00     0.048 A 
ATOM     15  C   UNL A   1      45.678  24.132  29.615  1.00  0.00     0.048 A 
ATOM     16  C   UNL A   1      44.166  23.163  27.499  1.00  0.00     0.030 A 
ATOM     17  C   UNL A   1      46.136  24.265  28.298  1.00  0.00     0.030 A 
BRANCH  13  18
ATOM     18  O   UNL A   1      43.862  23.403  31.096  1.00  0.00    -0.491 OA
BRANCH  18  19
ATOM     19  C   UNL A   1      44.489  23.894  32.289  1.00  0.00     0.170 C 
ATOM     20  C   UNL A   1      44.087  25.334  32.599  1.00  0.00     0.053 C 
BRANCH  19  21
ATOM     21  C   UNL A   1      44.418  22.924  33.482  1.00  0.00     0.041 C 
ATOM     22  C   UNL A   1      43.884  23.578  34.748  1.00  0.00     0.008 C 
ENDBRANCH  19  21
ENDBRANCH  18  19
ENDBRANCH  13  18
ENDBRANCH   9  12
ENDBRANCH   7   8
ENDBRANCH   3   6
ENDBRANCH   1   2
BRANCH   1  23
ATOM     23  C   UNL A   1      41.874  19.551  26.671  1.00  0.00     0.023 C 
BRANCH  23  24
ATOM     24  C   UNL A   1      41.064  20.379  27.673  1.00  0.00     0.023 C 
BRANCH  24  25
ATOM     25  C   UNL A   1      40.722  21.793  27.217  1.00  0.00     0.116 C 
BRANCH  25  26
ATOM     26  N   UNL A   1      39.530  21.857  26.384  1.00  0.00    -0.352 N 
ATOM     27  C   UNL A   1      38.735  22.946  26.124  1.00  0.00     0.251 C 
ATOM     28  H   UNL A   1      39.259  21.014  25.954  1.00  0.00     0.163 HD
ATOM     29  O   UNL A   1      37.709  22.825  25.463  1.00  0.00    -0.269 OA
BRANCH  27  30
ATOM     30  C   UNL A   1      39.114  24.252  26.692  1.00  0.00     0.039 A 
ATOM     31  C   UNL A   1      38.744  24.545  28.006  1.00  0.00     0.014 A 
ATOM     32  C   UNL A   1      39.883  25.151  25.949  1.00  0.00     0.014 A 
ATOM     33  C   UNL A   1      39.201  25.720  28.599  1.00  0.00     0.010 A 
ATOM     34  C   UNL A   1      40.391  26.290  26.564  1.00  0.00     0.010 A 
ATOM     35  C   UNL A   1      40.056  26.584  27.895  1.00  0.00    -0.014 A 
BRANCH  35  36
ATOM     36  C   UNL A   1      40.603  27.807  28.530  1.00  0.00     0.031 A 
ATOM     37  C   UNL A   1      42.039  27.837  28.976  1.00  0.00     0.074 A 
ATOM     38  C   UNL A   1      39.796  28.862  28.755  1.00  0.00     0.049 A 
ATOM     39  N   UNL A   1      42.684  28.780  29.613  1.00  0.00    -0.248 NA
ATOM     40  C   UNL A   1      42.851  26.642  28.687  1.00  0.00     0.031 C 
ATOM     41  C   UNL A   1      38.374  28.936  28.403  1.00  0.00     0.029 A 
ATOM     42  N   UNL A   1      40.053  30.076  29.341  1.00  0.00    -0.354 N 
ATOM     43  C   UNL A   1      43.969  28.289  29.811  1.00  0.00     0.074 A 
ATOM     44  C   UNL A   1      44.000  26.948  29.274  1.00  0.00     0.031 C 
ATOM     45  C   UNL A   1      37.894  30.139  28.761  1.00  0.00     0.029 A 
ATOM     46  C   UNL A   1      38.959  30.906  29.398  1.00  0.00     0.049 A 
ATOM     47  H   UNL A   1      40.939  30.329  29.688  1.00  0.00     0.167 HD
ATOM     48  C   UNL A   1      45.035  28.911  30.367  1.00  0.00     0.031 A 
ATOM     49  C   UNL A   1      38.827  32.145  29.912  1.00  0.00     0.031 A 
ATOM     50  C   UNL A   1      45.006  30.253  30.883  1.00  0.00     0.049 A 
ATOM     51  C   UNL A   1      40.028  32.809  30.530  1.00  0.00     0.074 A 
ATOM     52  C   UNL A   1      46.042  30.984  31.437  1.00  0.00     0.029 A 
ATOM     53  N   UNL A   1      43.884  31.067  30.901  1.00  0.00    -0.354 N 
ATOM     54  N   UNL A   1      41.248  32.346  30.665  1.00  0.00    -0.248 NA
ATOM     55  C   UNL A   1      39.838  34.170  31.052  1.00  0.00     0.031 C 
ATOM     56  C   UNL A   1      45.538  32.231  31.820  1.00  0.00     0.029 A 
ATOM     57  C   UNL A   1      44.201  32.293  31.461  1.00  0.00     0.049 A 
ATOM     58  H   UNL A   1      42.994  30.813  30.564  1.00  0.00     0.167 HD
ATOM     59  C   UNL A   1      41.977  33.370  31.258  1.00  0.00     0.074 A 
ATOM     60  C   UNL A   1      41.067  34.481  31.443  1.00  0.00     0.031 C 
ATOM     61  C   UNL A   1      43.283  33.390  31.620  1.00  0.00     0.031 A 
BRANCH  48  62
ATOM     62  C   UNL A   1      46.332  28.150  30.429  1.00  0.00    -0.014 A 
ATOM     63  C   UNL A   1      46.675  27.407  31.572  1.00  0.00     0.010 A 
ATOM     64  C   UNL A   1      47.188  28.127  29.313  1.00  0.00     0.010 A 
ATOM     65  C   UNL A   1      47.864  26.676  31.610  1.00  0.00     0.020 A 
ATOM     66  C   UNL A   1      48.366  27.376  29.338  1.00  0.00     0.020 A 
ATOM     67  C   UNL A   1      48.702  26.664  30.491  1.00  0.00     0.054 A 
BRANCH  67  68
ATOM     68  S   UNL A   1      50.215  25.666  30.553  1.00  0.00     0.124 S 
ATOM     69  O   UNL A   1      50.208  25.027  29.239  1.00  0.00    -0.237 OA
ATOM     70  O   UNL A   1      51.255  26.671  30.756  1.00  0.00    -0.237 OA
ATOM     71  O   UNL A   1      49.992  24.767  31.684  1.00  0.00    -0.744 OA
ENDBRANCH  67  68
ENDBRANCH  48  62
BRANCH  49  72
ATOM     72  C   UNL A   1      37.515  32.847  29.862  1.00  0.00    -0.014 A 
ATOM     73  C   UNL A   1      36.636  32.798  30.959  1.00  0.00     0.010 A 
ATOM     74  C   UNL A   1      37.124  33.542  28.704  1.00  0.00     0.010 A 
ATOM     75  C   UNL A   1      35.375  33.395  30.884  1.00  0.00     0.020 A 
ATOM     76  C   UNL A   1      35.874  34.165  28.636  1.00  0.00     0.020 A 
ATOM     77  C   UNL A   1      34.999  34.070  29.719  1.00  0.00     0.054 A 
BRANCH  77  78
ATOM     78  S   UNL A   1      33.361  34.848  29.644  1.00  0.00     0.124 S 
ATOM     79  O   UNL A   1      32.947  34.812  31.044  1.00  0.00    -0.237 OA
ATOM     80  O   UNL A   1      33.662  36.171  29.105  1.00  0.00    -0.237 OA
ATOM     81  O   UNL A   1      32.612  33.973  28.745  1.00  0.00    -0.744 OA
ENDBRANCH  77  78
ENDBRANCH  49  72
BRANCH  61  82
ATOM     82  C   UNL A   1      43.820  34.669  32.205  1.00  0.00    -0.014 A 
ATOM     83  C   UNL A   1      44.335  35.685  31.383  1.00  0.00     0.010 A 
ATOM     84  C   UNL A   1      43.751  34.874  33.596  1.00  0.00     0.010 A 
ATOM     85  C   UNL A   1      44.802  36.876  31.946  1.00  0.00     0.020 A 
ATOM     86  C   UNL A   1      44.194  36.073  34.158  1.00  0.00     0.020 A 
ATOM     87  C   UNL A   1      44.730  37.061  33.331  1.00  0.00     0.054 A 
BRANCH  87  88
ATOM     88  S   UNL A   1      45.299  38.633  34.032  1.00  0.00     0.124 S 
ATOM     89  O   UNL A   1      45.758  38.226  35.358  1.00  0.00    -0.237 OA
ATOM     90  O   UNL A   1      46.349  39.040  33.102  1.00  0.00    -0.237 OA
ATOM     91  O   UNL A   1      44.102  39.472  34.018  1.00  0.00    -0.744 OA
ENDBRANCH  87  88
ENDBRANCH  61  82
ENDBRANCH  35  36
ENDBRANCH  27  30
ENDBRANCH  25  26
ENDBRANCH  24  25
ENDBRANCH  23  24
ENDBRANCH   1  23
TORSDOF 19
ENDMDL
MODEL 3
REMARK VINA RESULT:      -9.8      3.818      9.587
REMARK SMILES CC[C@H](C)Oc1ccc(NC(=O)/C=C/C(=O)NCCCCNC(=O)c2ccc(-c3c4nc(c(-c5ccc(S(=O)(=O)[O-])cc5)c5ccc([nH]5)c(-c5ccc(S(=O)(=O)[O-])cc5)c5nc(c(-c6ccc(S(=O)(=O)[O-])cc6)c6ccc3[nH]6)C=C5)C=C4)cc2)cc1
REMARK SMILES IDX 18 1 17 2 15 3 16 4 14 6 13 7 11 8 10 9 12 11 9 12 6 13 7 14
REMARK SMILES IDX 86 15 8 16 85 17 5 18 3 19 4 20 2 21 1 22 19 23 20 24 21 25
REMARK SMILES IDX 22 26 23 27 24 29 25 30 26 31 84 32 27 33 83 34 28 35 29 36
REMARK SMILES IDX 30 37 77 38 31 39 82 40 76 41 78 42 32 43 81 44 75 45 74 46
REMARK SMILES IDX 33 48 63 49 44 50 62 51 45 52 48 53 61 54 79 55 46 56 47 57
REMARK SMILES IDX 60 59 80 60 49 61 34 62 35 63 43 64 36 65 42 66 37 67 38 68
REMARK SMILES IDX 39 69 40 70 41 71 64 72 65 73 73 74 66 75 72 76 67 77 68 78
REMARK SMILES IDX 69 79 70 80 71 81 50 82 51 83 59 84 52 85 58 86 53 87 54 88
REMARK SMILES IDX 55 89 56 90 57 91
REMARK H PARENT 17 5 10 10 22 28 78 47 48 58
REMARK Flexibility Score: inf
ROOT
ATOM      1  C   UNL A   1      40.032  22.333  27.134  1.00  0.00     0.116 C 
ENDROOT
BRANCH   1   2
ATOM      2  N   UNL A   1      39.211  23.219  26.335  1.00  0.00    -0.353 N 
ATOM      3  C   UNL A   1      38.019  22.971  25.735  1.00  0.00     0.244 C 
ATOM      4  O   UNL A   1      37.371  23.882  25.229  1.00  0.00    -0.270 OA
ATOM      5  H   UNL A   1      39.565  24.130  26.210  1.00  0.00     0.163 HD
BRANCH   3   6
ATOM      6  C   UNL A   1      37.485  21.597  25.698  1.00  0.00     0.077 C 
ATOM      7  C   UNL A   1      36.465  21.286  24.885  1.00  0.00     0.077 C 
BRANCH   7   8
ATOM      8  C   UNL A   1      35.780  19.993  25.028  1.00  0.00     0.248 C 
ATOM      9  N   UNL A   1      34.536  19.938  25.590  1.00  0.00    -0.323 N 
ATOM     10  H   UNL A   1      34.196  19.025  25.725  1.00  0.00     0.170 HD
ATOM     11  O   UNL A   1      36.347  18.969  24.657  1.00  0.00    -0.270 OA
BRANCH   9  12
ATOM     12  C   UNL A   1      33.652  20.950  26.012  1.00  0.00     0.041 A 
ATOM     13  C   UNL A   1      32.164  23.189  26.854  1.00  0.00     0.119 A 
ATOM     14  C   UNL A   1      31.773  22.456  25.738  1.00  0.00     0.048 A 
ATOM     15  C   UNL A   1      33.240  22.736  27.608  1.00  0.00     0.048 A 
ATOM     16  C   UNL A   1      32.498  21.334  25.331  1.00  0.00     0.030 A 
ATOM     17  C   UNL A   1      33.978  21.621  27.192  1.00  0.00     0.030 A 
BRANCH  13  18
ATOM     18  O   UNL A   1      31.383  24.267  27.130  1.00  0.00    -0.491 OA
BRANCH  18  19
ATOM     19  C   UNL A   1      31.274  25.368  26.216  1.00  0.00     0.170 C 
ATOM     20  C   UNL A   1      29.822  25.680  25.863  1.00  0.00     0.053 C 
BRANCH  19  21
ATOM     21  C   UNL A   1      32.133  26.588  26.595  1.00  0.00     0.041 C 
ATOM     22  C   UNL A   1      31.464  27.912  26.254  1.00  0.00     0.008 C 
ENDBRANCH  19  21
ENDBRANCH  18  19
ENDBRANCH  13  18
ENDBRANCH   9  12
ENDBRANCH   7   8
ENDBRANCH   3   6
ENDBRANCH   1   2
BRANCH   1  23
ATOM     23  C   UNL A   1      41.400  22.111  26.493  1.00  0.00     0.023 C 
BRANCH  23  24
ATOM     24  C   UNL A   1      42.589  22.393  27.416  1.00  0.00     0.023 C 
BRANCH  24  25
ATOM     25  C   UNL A   1      43.336  23.692  27.131  1.00  0.00     0.116 C 
BRANCH  25  26
ATOM     26  N   UNL A   1      42.785  24.440  26.011  1.00  0.00    -0.352 N 
ATOM     27  C   UNL A   1      42.142  25.653  26.035  1.00  0.00     0.251 C 
ATOM     28  H   UNL A   1      42.885  24.024  25.124  1.00  0.00     0.163 HD
ATOM     29  O   UNL A   1      41.657  26.122  25.011  1.00  0.00    -0.269 OA
BRANCH  27  30
ATOM     30  C   UNL A   1      42.007  26.357  27.323  1.00  0.00     0.039 A 
ATOM     31  C   UNL A   1      42.864  27.425  27.596  1.00  0.00     0.014 A 
ATOM     32  C   UNL A   1      40.999  26.001  28.223  1.00  0.00     0.014 A 
ATOM     33  C   UNL A   1      42.667  28.181  28.752  1.00  0.00     0.010 A 
ATOM     34  C   UNL A   1      40.766  26.795  29.340  1.00  0.00     0.010 A 
ATOM     35  C   UNL A   1      41.597  27.892  29.614  1.00  0.00    -0.014 A 
BRANCH  35  36
ATOM     36  C   UNL A   1      41.334  28.723  30.814  1.00  0.00     0.031 A 
ATOM     37  C   UNL A   1      40.215  29.727  30.796  1.00  0.00     0.074 A 
ATOM     38  C   UNL A   1      42.135  28.611  31.892  1.00  0.00     0.049 A 
ATOM     39  N   UNL A   1      39.872  30.594  31.712  1.00  0.00    -0.248 NA
ATOM     40  C   UNL A   1      39.386  29.779  29.578  1.00  0.00     0.031 C 
ATOM     41  C   UNL A   1      43.277  27.700  32.013  1.00  0.00     0.029 A 
ATOM     42  N   UNL A   1      42.115  29.276  33.092  1.00  0.00    -0.354 N 
ATOM     43  C   UNL A   1      38.799  31.300  31.181  1.00  0.00     0.074 A 
ATOM     44  C   UNL A   1      38.580  30.798  29.843  1.00  0.00     0.031 C 
ATOM     45  C   UNL A   1      43.832  27.850  33.227  1.00  0.00     0.029 A 
ATOM     46  C   UNL A   1      43.112  28.888  33.956  1.00  0.00     0.049 A 
ATOM     47  H   UNL A   1      41.449  29.966  33.315  1.00  0.00     0.167 HD
ATOM     48  C   UNL A   1      38.048  32.263  31.764  1.00  0.00     0.031 A 
ATOM     49  C   UNL A   1      43.415  29.325  35.194  1.00  0.00     0.031 A 
ATOM     50  C   UNL A   1      38.256  32.747  33.102  1.00  0.00     0.049 A 
ATOM     51  C   UNL A   1      42.566  30.401  35.816  1.00  0.00     0.074 A 
ATOM     52  C   UNL A   1      37.527  33.696  33.796  1.00  0.00     0.029 A 
ATOM     53  N   UNL A   1      39.261  32.312  33.951  1.00  0.00    -0.354 N 
ATOM     54  N   UNL A   1      41.526  31.023  35.313  1.00  0.00    -0.248 NA
ATOM     55  C   UNL A   1      42.922  30.824  37.177  1.00  0.00     0.031 C 
ATOM     56  C   UNL A   1      38.114  33.860  35.055  1.00  0.00     0.029 A 
ATOM     57  C   UNL A   1      39.176  32.977  35.161  1.00  0.00     0.049 A 
ATOM     58  H   UNL A   1      39.936  31.629  33.727  1.00  0.00     0.167 HD
ATOM     59  C   UNL A   1      41.085  31.887  36.310  1.00  0.00     0.074 A 
ATOM     60  C   UNL A   1      41.961  31.698  37.447  1.00  0.00     0.031 C 
ATOM     61  C   UNL A   1      40.050  32.761  36.286  1.00  0.00     0.031 A 
BRANCH  48  62
ATOM     62  C   UNL A   1      36.914  32.844  30.963  1.00  0.00    -0.014 A 
ATOM     63  C   UNL A   1      35.595  32.397  31.156  1.00  0.00     0.010 A 
ATOM     64  C   UNL A   1      37.158  33.887  30.052  1.00  0.00     0.010 A 
ATOM     65  C   UNL A   1      34.543  32.964  30.433  1.00  0.00     0.020 A 
ATOM     66  C   UNL A   1      36.105  34.475  29.346  1.00  0.00     0.020 A 
ATOM     67  C   UNL A   1      34.804  34.001  29.533  1.00  0.00     0.054 A 
BRANCH  67  68
ATOM     68  S   UNL A   1      33.412  34.750  28.646  1.00  0.00     0.124 S 
ATOM     69  O   UNL A   1      33.066  33.702  27.689  1.00  0.00    -0.237 OA
ATOM     70  O   UNL A   1      32.437  34.975  29.710  1.00  0.00    -0.237 OA
ATOM     71  O   UNL A   1      33.984  35.962  28.063  1.00  0.00    -0.744 OA
ENDBRANCH  67  68
ENDBRANCH  48  62
BRANCH  49  72
ATOM     72  C   UNL A   1      44.569  28.747  35.937  1.00  0.00    -0.014 A 
ATOM     73  C   UNL A   1      45.843  29.336  35.848  1.00  0.00     0.010 A 
ATOM     74  C   UNL A   1      44.405  27.585  36.712  1.00  0.00     0.010 A 
ATOM     75  C   UNL A   1      46.940  28.750  36.487  1.00  0.00     0.020 A 
ATOM     76  C   UNL A   1      45.495  27.013  37.376  1.00  0.00     0.020 A 
ATOM     77  C   UNL A   1      46.760  27.588  37.242  1.00  0.00     0.054 A 
BRANCH  77  78
ATOM     78  S   UNL A   1      48.194  26.848  38.072  1.00  0.00     0.124 S 
ATOM     79  O   UNL A   1      49.304  27.556  37.443  1.00  0.00    -0.237 OA
ATOM     80  O   UNL A   1      47.950  27.170  39.475  1.00  0.00    -0.237 OA
ATOM     81  O   UNL A   1      48.084  25.430  37.738  1.00  0.00    -0.744 OA
ENDBRANCH  77  78
ENDBRANCH  49  72
BRANCH  61  82
ATOM     82  C   UNL A   1      39.774  33.542  37.542  1.00  0.00    -0.014 A 
ATOM     83  C   UNL A   1      38.976  33.011  38.570  1.00  0.00     0.010 A 
ATOM     84  C   UNL A   1      40.374  34.804  37.716  1.00  0.00     0.010 A 
ATOM     85  C   UNL A   1      38.757  33.743  39.740  1.00  0.00     0.020 A 
ATOM     86  C   UNL A   1      40.176  35.526  38.895  1.00  0.00     0.020 A 
ATOM     87  C   UNL A   1      39.358  34.996  39.894  1.00  0.00     0.054 A 
BRANCH  87  88
ATOM     88  S   UNL A   1      39.096  35.906  41.441  1.00  0.00     0.124 S 
ATOM     89  O   UNL A   1      37.776  35.435  41.851  1.00  0.00    -0.237 OA
ATOM     90  O   UNL A   1      40.209  35.454  42.272  1.00  0.00    -0.237 OA
ATOM     91  O   UNL A   1      39.159  37.308  41.033  1.00  0.00    -0.744 OA
ENDBRANCH  87  88
ENDBRANCH  61  82
ENDBRANCH  35  36
ENDBRANCH  27  30
ENDBRANCH  25  26
ENDBRANCH  24  25
ENDBRANCH  23  24
ENDBRANCH   1  23
TORSDOF 19
ENDMDL
