MODEL 1
REMARK VINA RESULT:     -11.0      0.000      0.000
REMARK SMILES C[C@@H]1CCCCN1S(=O)(=O)c1ccc(CCC(=O)NCCCCNC(=O)c2ccc(-c3c4nc(c(-c5ccc(S(=O)(=O)[O-])cc5)c5ccc([nH]5)c(-c5ccc(S(=O)(=O)[O-])cc5)c5nc(c(-c6ccc(S(=O)(=O)[O-])cc6)c6ccc3[nH]6)C=C5)C=C4)cc2)cc1
REMARK SMILES IDX 21 1 20 2 19 3 17 4 18 5 16 7 15 8 14 9 11 10 12 11 88 12
REMARK SMILES IDX 13 13 87 14 8 15 9 16 10 17 7 18 1 19 2 20 3 21 4 22 6 23
REMARK SMILES IDX 5 24 22 25 23 26 24 27 25 28 26 30 27 31 28 32 86 33 29 34
REMARK SMILES IDX 85 35 30 36 31 37 32 38 79 39 33 40 84 41 78 42 80 43 34 44
REMARK SMILES IDX 83 45 77 46 76 47 35 49 65 50 46 51 64 52 47 53 50 54 63 55
REMARK SMILES IDX 81 56 48 57 49 58 62 60 82 61 51 62 36 63 37 64 45 65 38 66
REMARK SMILES IDX 44 67 39 68 40 69 41 70 42 71 43 72 66 73 67 74 75 75 68 76
REMARK SMILES IDX 74 77 69 78 70 79 71 80 72 81 73 82 52 83 53 84 61 85 54 86
REMARK SMILES IDX 60 87 55 88 56 89 57 90 58 91 59 92
REMARK H PARENT 19 6 24 29 80 48 50 59
REMARK Flexibility Score: inf
ROOT
ATOM      1  C   UNL A   1      32.810  28.493  24.839  1.00  0.00     0.023 C 
ENDROOT
BRANCH   1   2
ATOM      2  C   UNL A   1      31.552  29.130  25.409  1.00  0.00     0.116 C 
BRANCH   2   3
ATOM      3  N   UNL A   1      30.965  30.047  24.446  1.00  0.00    -0.356 N 
ATOM      4  C   UNL A   1      30.072  29.797  23.446  1.00  0.00     0.220 C 
ATOM      5  O   UNL A   1      29.850  30.686  22.622  1.00  0.00    -0.275 OA
ATOM      6  H   UNL A   1      31.256  30.984  24.526  1.00  0.00     0.163 HD
BRANCH   4   7
ATOM      7  C   UNL A   1      29.323  28.478  23.375  1.00  0.00     0.105 C 
BRANCH   7   8
ATOM      8  C   UNL A   1      30.141  27.344  22.729  1.00  0.00     0.045 C 
BRANCH   8   9
ATOM      9  C   UNL A   1      30.126  26.062  23.534  1.00  0.00    -0.047 A 
ATOM     10  C   UNL A   1      30.645  23.845  25.162  1.00  0.00     0.082 A 
ATOM     11  C   UNL A   1      30.799  23.736  23.775  1.00  0.00     0.022 A 
ATOM     12  C   UNL A   1      30.093  25.007  25.714  1.00  0.00     0.022 A 
ATOM     13  C   UNL A   1      30.530  24.845  22.962  1.00  0.00     0.005 A 
ATOM     14  C   UNL A   1      29.817  26.103  24.900  1.00  0.00     0.005 A 
BRANCH  10  15
ATOM     15  S   UNL A   1      31.653  22.812  26.227  1.00  0.00     0.243 S 
ATOM     16  O   UNL A   1      31.315  21.443  25.878  1.00  0.00    -0.207 OA
ATOM     17  O   UNL A   1      31.448  23.288  27.576  1.00  0.00    -0.207 OA
BRANCH  15  18
ATOM     18  N   UNL A   1      33.270  23.097  25.821  1.00  0.00    -0.195 NA
ATOM     19  C   UNL A   1      34.479  21.761  27.606  1.00  0.00     0.026 C 
ATOM     20  C   UNL A   1      34.327  22.091  26.122  1.00  0.00     0.070 C 
ATOM     21  C   UNL A   1      35.687  22.577  25.568  1.00  0.00     0.020 C 
ATOM     22  C   UNL A   1      35.548  23.698  24.545  1.00  0.00     0.003 C 
ATOM     23  C   UNL A   1      33.706  24.491  26.119  1.00  0.00     0.103 C 
ATOM     24  C   UNL A   1      34.813  24.895  25.146  1.00  0.00     0.017 C 
ENDBRANCH  15  18
ENDBRANCH  10  15
ENDBRANCH   8   9
ENDBRANCH   7   8
ENDBRANCH   4   7
ENDBRANCH   2   3
ENDBRANCH   1   2
BRANCH   1  25
ATOM     25  C   UNL A   1      34.056  28.590  25.703  1.00  0.00     0.023 C 
BRANCH  25  26
ATOM     26  C   UNL A   1      33.769  28.644  27.196  1.00  0.00     0.116 C 
BRANCH  26  27
ATOM     27  N   UNL A   1      33.722  29.993  27.757  1.00  0.00    -0.352 N 
ATOM     28  C   UNL A   1      34.703  30.711  28.406  1.00  0.00     0.251 C 
ATOM     29  H   UNL A   1      32.860  30.458  27.655  1.00  0.00     0.163 HD
ATOM     30  O   UNL A   1      34.471  31.815  28.891  1.00  0.00    -0.269 OA
BRANCH  28  31
ATOM     31  C   UNL A   1      36.048  30.129  28.558  1.00  0.00     0.039 A 
ATOM     32  C   UNL A   1      36.962  30.248  27.507  1.00  0.00     0.014 A 
ATOM     33  C   UNL A   1      36.423  29.519  29.753  1.00  0.00     0.014 A 
ATOM     34  C   UNL A   1      38.281  29.832  27.692  1.00  0.00     0.010 A 
ATOM     35  C   UNL A   1      37.758  29.236  29.981  1.00  0.00     0.010 A 
ATOM     36  C   UNL A   1      38.700  29.370  28.948  1.00  0.00    -0.014 A 
BRANCH  36  37
ATOM     37  C   UNL A   1      40.099  28.964  29.222  1.00  0.00     0.031 A 
ATOM     38  C   UNL A   1      41.040  29.969  29.834  1.00  0.00     0.074 A 
ATOM     39  C   UNL A   1      40.552  27.759  28.824  1.00  0.00     0.049 A 
ATOM     40  N   UNL A   1      42.339  29.924  29.953  1.00  0.00    -0.248 NA
ATOM     41  C   UNL A   1      40.435  31.224  30.318  1.00  0.00     0.031 C 
ATOM     42  C   UNL A   1      39.749  26.712  28.186  1.00  0.00     0.029 A 
ATOM     43  N   UNL A   1      41.809  27.216  28.891  1.00  0.00    -0.354 N 
ATOM     44  C   UNL A   1      42.711  31.165  30.458  1.00  0.00     0.074 A 
ATOM     45  C   UNL A   1      41.507  31.957  30.570  1.00  0.00     0.031 C 
ATOM     46  C   UNL A   1      40.524  25.640  27.958  1.00  0.00     0.029 A 
ATOM     47  C   UNL A   1      41.887  25.941  28.382  1.00  0.00     0.049 A 
ATOM     48  H   UNL A   1      42.582  27.693  29.268  1.00  0.00     0.167 HD
ATOM     49  C   UNL A   1      43.941  31.600  30.819  1.00  0.00     0.031 A 
ATOM     50  C   UNL A   1      42.943  25.113  28.266  1.00  0.00     0.031 A 
ATOM     51  C   UNL A   1      45.117  30.778  30.767  1.00  0.00     0.049 A 
ATOM     52  C   UNL A   1      44.291  25.590  28.733  1.00  0.00     0.074 A 
ATOM     53  C   UNL A   1      46.404  31.083  31.173  1.00  0.00     0.029 A 
ATOM     54  N   UNL A   1      45.140  29.471  30.301  1.00  0.00    -0.354 N 
ATOM     55  N   UNL A   1      44.625  26.759  29.227  1.00  0.00    -0.248 NA
ATOM     56  C   UNL A   1      45.402  24.633  28.635  1.00  0.00     0.031 C 
ATOM     57  C   UNL A   1      47.210  29.965  30.931  1.00  0.00     0.029 A 
ATOM     58  C   UNL A   1      46.417  28.952  30.412  1.00  0.00     0.049 A 
ATOM     59  H   UNL A   1      44.363  28.985  29.942  1.00  0.00     0.167 HD
ATOM     60  C   UNL A   1      45.979  26.671  29.525  1.00  0.00     0.074 A 
ATOM     61  C   UNL A   1      46.400  25.330  29.163  1.00  0.00     0.031 C 
ATOM     62  C   UNL A   1      46.801  27.610  30.053  1.00  0.00     0.031 A 
BRANCH  49  63
ATOM     63  C   UNL A   1      44.053  33.024  31.296  1.00  0.00    -0.014 A 
ATOM     64  C   UNL A   1      43.933  33.348  32.661  1.00  0.00     0.010 A 
ATOM     65  C   UNL A   1      44.247  34.060  30.365  1.00  0.00     0.010 A 
ATOM     66  C   UNL A   1      43.924  34.681  33.076  1.00  0.00     0.020 A 
ATOM     67  C   UNL A   1      44.274  35.395  30.780  1.00  0.00     0.020 A 
ATOM     68  C   UNL A   1      44.081  35.698  32.130  1.00  0.00     0.054 A 
BRANCH  68  69
ATOM     69  S   UNL A   1      44.042  37.424  32.687  1.00  0.00     0.124 S 
ATOM     70  O   UNL A   1      42.957  37.397  33.665  1.00  0.00    -0.237 OA
ATOM     71  O   UNL A   1      45.380  37.617  33.241  1.00  0.00    -0.237 OA
ATOM     72  O   UNL A   1      43.762  38.175  31.465  1.00  0.00    -0.744 OA
ENDBRANCH  68  69
ENDBRANCH  49  63
BRANCH  50  73
ATOM     73  C   UNL A   1      42.751  23.738  27.733  1.00  0.00    -0.014 A 
ATOM     74  C   UNL A   1      42.388  22.693  28.602  1.00  0.00     0.010 A 
ATOM     75  C   UNL A   1      42.879  23.468  26.358  1.00  0.00     0.010 A 
ATOM     76  C   UNL A   1      42.164  21.405  28.110  1.00  0.00     0.020 A 
ATOM     77  C   UNL A   1      42.634  22.185  25.859  1.00  0.00     0.020 A 
ATOM     78  C   UNL A   1      42.283  21.159  26.740  1.00  0.00     0.054 A 
BRANCH  78  79
ATOM     79  S   UNL A   1      41.914  19.495  26.117  1.00  0.00     0.124 S 
ATOM     80  O   UNL A   1      40.475  19.567  25.889  1.00  0.00    -0.237 OA
ATOM     81  O   UNL A   1      42.741  19.417  24.916  1.00  0.00    -0.237 OA
ATOM     82  O   UNL A   1      42.333  18.619  27.209  1.00  0.00    -0.744 OA
ENDBRANCH  78  79
ENDBRANCH  50  73
BRANCH  62  83
ATOM     83  C   UNL A   1      48.226  27.210  30.314  1.00  0.00    -0.014 A 
ATOM     84  C   UNL A   1      49.220  27.378  29.334  1.00  0.00     0.010 A 
ATOM     85  C   UNL A   1      48.584  26.727  31.586  1.00  0.00     0.010 A 
ATOM     86  C   UNL A   1      50.547  27.049  29.618  1.00  0.00     0.020 A 
ATOM     87  C   UNL A   1      49.913  26.418  31.880  1.00  0.00     0.020 A 
ATOM     88  C   UNL A   1      50.885  26.571  30.889  1.00  0.00     0.054 A 
BRANCH  88  89
ATOM     89  S   UNL A   1      52.624  26.207  31.252  1.00  0.00     0.124 S 
ATOM     90  O   UNL A   1      53.220  26.213  29.919  1.00  0.00    -0.237 OA
ATOM     91  O   UNL A   1      53.012  27.318  32.119  1.00  0.00    -0.237 OA
ATOM     92  O   UNL A   1      52.574  24.903  31.907  1.00  0.00    -0.744 OA
ENDBRANCH  88  89
ENDBRANCH  62  83
ENDBRANCH  36  37
ENDBRANCH  28  31
ENDBRANCH  26  27
ENDBRANCH  25  26
ENDBRANCH   1  25
TORSDOF 18
ENDMDL
MODEL 2
REMARK VINA RESULT:     -11.0      2.655      9.342
REMARK SMILES C[C@@H]1CCCCN1S(=O)(=O)c1ccc(CCC(=O)NCCCCNC(=O)c2ccc(-c3c4nc(c(-c5ccc(S(=O)(=O)[O-])cc5)c5ccc([nH]5)c(-c5ccc(S(=O)(=O)[O-])cc5)c5nc(c(-c6ccc(S(=O)(=O)[O-])cc6)c6ccc3[nH]6)C=C5)C=C4)cc2)cc1
REMARK SMILES IDX 21 1 20 2 19 3 17 4 18 5 16 7 15 8 14 9 11 10 12 11 88 12
REMARK SMILES IDX 13 13 87 14 8 15 9 16 10 17 7 18 1 19 2 20 3 21 4 22 6 23
REMARK SMILES IDX 5 24 22 25 23 26 24 27 25 28 26 30 27 31 28 32 86 33 29 34
REMARK SMILES IDX 85 35 30 36 31 37 32 38 79 39 33 40 84 41 78 42 80 43 34 44
REMARK SMILES IDX 83 45 77 46 76 47 35 49 65 50 46 51 64 52 47 53 50 54 63 55
REMARK SMILES IDX 81 56 48 57 49 58 62 60 82 61 51 62 36 63 37 64 45 65 38 66
REMARK SMILES IDX 44 67 39 68 40 69 41 70 42 71 43 72 66 73 67 74 75 75 68 76
REMARK SMILES IDX 74 77 69 78 70 79 71 80 72 81 73 82 52 83 53 84 61 85 54 86
REMARK SMILES IDX 60 87 55 88 56 89 57 90 58 91 59 92
REMARK H PARENT 19 6 24 29 80 48 50 59
REMARK Flexibility Score: inf
ROOT
ATOM      1  C   UNL A   1      34.867  22.520  27.279  1.00  0.00     0.023 C 
ENDROOT
BRANCH   1   2
ATOM      2  C   UNL A   1      33.552  21.760  27.358  1.00  0.00     0.116 C 
BRANCH   2   3
ATOM      3  N   UNL A   1      33.663  20.480  26.680  1.00  0.00    -0.356 N 
ATOM      4  C   UNL A   1      32.972  20.007  25.604  1.00  0.00     0.220 C 
ATOM      5  O   UNL A   1      33.091  18.817  25.306  1.00  0.00    -0.275 OA
ATOM      6  H   UNL A   1      34.334  19.864  27.053  1.00  0.00     0.163 HD
BRANCH   4   7
ATOM      7  C   UNL A   1      32.116  20.931  24.755  1.00  0.00     0.105 C 
BRANCH   7   8
ATOM      8  C   UNL A   1      32.911  21.666  23.659  1.00  0.00     0.045 C 
BRANCH   8   9
ATOM      9  C   UNL A   1      32.222  22.920  23.160  1.00  0.00    -0.047 A 
ATOM     10  C   UNL A   1      31.117  25.458  22.752  1.00  0.00     0.082 A 
ATOM     11  C   UNL A   1      30.306  24.418  23.218  1.00  0.00     0.022 A 
ATOM     12  C   UNL A   1      32.432  25.193  22.351  1.00  0.00     0.022 A 
ATOM     13  C   UNL A   1      30.860  23.145  23.413  1.00  0.00     0.005 A 
ATOM     14  C   UNL A   1      32.975  23.924  22.538  1.00  0.00     0.005 A 
BRANCH  10  15
ATOM     15  S   UNL A   1      30.707  27.144  23.207  1.00  0.00     0.243 S 
ATOM     16  O   UNL A   1      29.394  27.073  23.827  1.00  0.00    -0.207 OA
ATOM     17  O   UNL A   1      30.907  27.949  22.024  1.00  0.00    -0.207 OA
BRANCH  15  18
ATOM     18  N   UNL A   1      31.833  27.641  24.365  1.00  0.00    -0.195 NA
ATOM     19  C   UNL A   1      31.210  26.173  26.337  1.00  0.00     0.026 C 
ATOM     20  C   UNL A   1      32.312  26.707  25.424  1.00  0.00     0.070 C 
ATOM     21  C   UNL A   1      33.394  27.401  26.286  1.00  0.00     0.020 C 
ATOM     22  C   UNL A   1      33.974  28.645  25.625  1.00  0.00     0.003 C 
ATOM     23  C   UNL A   1      31.561  29.009  24.890  1.00  0.00     0.103 C 
ATOM     24  C   UNL A   1      32.875  29.661  25.317  1.00  0.00     0.017 C 
ENDBRANCH  15  18
ENDBRANCH  10  15
ENDBRANCH   8   9
ENDBRANCH   7   8
ENDBRANCH   4   7
ENDBRANCH   2   3
ENDBRANCH   1   2
BRANCH   1  25
ATOM     25  C   UNL A   1      35.586  22.471  25.941  1.00  0.00     0.023 C 
BRANCH  25  26
ATOM     26  C   UNL A   1      36.859  23.301  25.893  1.00  0.00     0.116 C 
BRANCH  26  27
ATOM     27  N   UNL A   1      38.094  22.526  26.000  1.00  0.00    -0.352 N 
ATOM     28  C   UNL A   1      39.335  22.907  26.461  1.00  0.00     0.251 C 
ATOM     29  H   UNL A   1      38.029  21.591  25.696  1.00  0.00     0.163 HD
ATOM     30  O   UNL A   1      40.298  22.146  26.408  1.00  0.00    -0.269 OA
BRANCH  28  31
ATOM     31  C   UNL A   1      39.525  24.268  26.994  1.00  0.00     0.039 A 
ATOM     32  C   UNL A   1      39.216  24.522  28.333  1.00  0.00     0.014 A 
ATOM     33  C   UNL A   1      40.059  25.273  26.190  1.00  0.00     0.014 A 
ATOM     34  C   UNL A   1      39.528  25.764  28.887  1.00  0.00     0.010 A 
ATOM     35  C   UNL A   1      40.492  26.451  26.774  1.00  0.00     0.010 A 
ATOM     36  C   UNL A   1      40.215  26.718  28.124  1.00  0.00    -0.014 A 
BRANCH  36  37
ATOM     37  C   UNL A   1      40.621  28.035  28.672  1.00  0.00     0.031 A 
ATOM     38  C   UNL A   1      42.028  28.207  29.180  1.00  0.00     0.074 A 
ATOM     39  C   UNL A   1      39.716  29.022  28.821  1.00  0.00     0.049 A 
ATOM     40  N   UNL A   1      42.540  29.170  29.897  1.00  0.00    -0.248 NA
ATOM     41  C   UNL A   1      42.969  27.108  28.893  1.00  0.00     0.031 C 
ATOM     42  C   UNL A   1      38.312  28.965  28.403  1.00  0.00     0.029 A 
ATOM     43  N   UNL A   1      39.844  30.269  29.377  1.00  0.00    -0.354 N 
ATOM     44  C   UNL A   1      43.833  28.762  30.204  1.00  0.00     0.074 A 
ATOM     45  C   UNL A   1      44.006  27.442  29.641  1.00  0.00     0.031 C 
ATOM     46  C   UNL A   1      37.722  30.139  28.682  1.00  0.00     0.029 A 
ATOM     47  C   UNL A   1      38.686  31.010  29.344  1.00  0.00     0.049 A 
ATOM     48  H   UNL A   1      40.686  30.602  29.763  1.00  0.00     0.167 HD
ATOM     49  C   UNL A   1      44.799  29.434  30.873  1.00  0.00     0.031 A 
ATOM     50  C   UNL A   1      38.433  32.249  29.804  1.00  0.00     0.031 A 
ATOM     51  C   UNL A   1      44.634  30.773  31.365  1.00  0.00     0.049 A 
ATOM     52  C   UNL A   1      39.538  33.008  30.488  1.00  0.00     0.074 A 
ATOM     53  C   UNL A   1      45.563  31.583  31.994  1.00  0.00     0.029 A 
ATOM     54  N   UNL A   1      43.463  31.509  31.257  1.00  0.00    -0.354 N 
ATOM     55  N   UNL A   1      40.762  32.617  30.754  1.00  0.00    -0.248 NA
ATOM     56  C   UNL A   1      39.230  34.376  30.925  1.00  0.00     0.031 C 
ATOM     57  C   UNL A   1      44.944  32.803  32.286  1.00  0.00     0.029 A 
ATOM     58  C   UNL A   1      43.644  32.767  31.803  1.00  0.00     0.049 A 
ATOM     59  H   UNL A   1      42.626  31.185  30.853  1.00  0.00     0.167 HD
ATOM     60  C   UNL A   1      41.381  33.700  31.365  1.00  0.00     0.074 A 
ATOM     61  C   UNL A   1      40.397  34.765  31.422  1.00  0.00     0.031 C 
ATOM     62  C   UNL A   1      42.648  33.808  31.835  1.00  0.00     0.031 A 
BRANCH  49  63
ATOM     63  C   UNL A   1      46.104  28.717  31.098  1.00  0.00    -0.014 A 
ATOM     64  C   UNL A   1      47.238  29.003  30.316  1.00  0.00     0.010 A 
ATOM     65  C   UNL A   1      46.191  27.717  32.083  1.00  0.00     0.010 A 
ATOM     66  C   UNL A   1      48.408  28.252  30.459  1.00  0.00     0.020 A 
ATOM     67  C   UNL A   1      47.370  26.985  32.254  1.00  0.00     0.020 A 
ATOM     68  C   UNL A   1      48.461  27.238  31.419  1.00  0.00     0.054 A 
BRANCH  68  69
ATOM     69  S   UNL A   1      49.980  26.258  31.570  1.00  0.00     0.124 S 
ATOM     70  O   UNL A   1      50.976  27.160  31.000  1.00  0.00    -0.237 OA
ATOM     71  O   UNL A   1      50.083  26.040  33.011  1.00  0.00    -0.237 OA
ATOM     72  O   UNL A   1      49.698  25.060  30.781  1.00  0.00    -0.744 OA
ENDBRANCH  68  69
ENDBRANCH  49  63
BRANCH  50  73
ATOM     73  C   UNL A   1      37.096  32.863  29.584  1.00  0.00    -0.014 A 
ATOM     74  C   UNL A   1      36.173  32.931  30.643  1.00  0.00     0.010 A 
ATOM     75  C   UNL A   1      36.751  33.423  28.341  1.00  0.00     0.010 A 
ATOM     76  C   UNL A   1      34.929  33.541  30.463  1.00  0.00     0.020 A 
ATOM     77  C   UNL A   1      35.516  34.053  28.162  1.00  0.00     0.020 A 
ATOM     78  C   UNL A   1      34.609  34.103  29.224  1.00  0.00     0.054 A 
BRANCH  78  79
ATOM     79  S   UNL A   1      33.016  34.955  29.037  1.00  0.00     0.124 S 
ATOM     80  O   UNL A   1      33.429  36.269  28.556  1.00  0.00    -0.237 OA
ATOM     81  O   UNL A   1      32.321  34.115  28.066  1.00  0.00    -0.237 OA
ATOM     82  O   UNL A   1      32.454  34.930  30.386  1.00  0.00    -0.744 OA
ENDBRANCH  78  79
ENDBRANCH  50  73
BRANCH  62  83
ATOM     83  C   UNL A   1      43.058  35.135  32.409  1.00  0.00    -0.014 A 
ATOM     84  C   UNL A   1      43.661  36.119  31.608  1.00  0.00     0.010 A 
ATOM     85  C   UNL A   1      42.764  35.423  33.755  1.00  0.00     0.010 A 
ATOM     86  C   UNL A   1      43.984  37.365  32.151  1.00  0.00     0.020 A 
ATOM     87  C   UNL A   1      43.066  36.675  34.295  1.00  0.00     0.020 A 
ATOM     88  C   UNL A   1      43.685  37.634  33.491  1.00  0.00     0.054 A 
BRANCH  88  89
ATOM     89  S   UNL A   1      44.059  39.278  34.157  1.00  0.00     0.124 S 
ATOM     90  O   UNL A   1      45.342  39.576  33.527  1.00  0.00    -0.237 OA
ATOM     91  O   UNL A   1      42.930  40.081  33.692  1.00  0.00    -0.237 OA
ATOM     92  O   UNL A   1      44.108  39.064  35.601  1.00  0.00    -0.744 OA
ENDBRANCH  88  89
ENDBRANCH  62  83
ENDBRANCH  36  37
ENDBRANCH  28  31
ENDBRANCH  26  27
ENDBRANCH  25  26
ENDBRANCH   1  25
TORSDOF 18
ENDMDL
MODEL 3
REMARK VINA RESULT:     -10.6      3.768      6.621
REMARK SMILES C[C@@H]1CCCCN1S(=O)(=O)c1ccc(CCC(=O)NCCCCNC(=O)c2ccc(-c3c4nc(c(-c5ccc(S(=O)(=O)[O-])cc5)c5ccc([nH]5)c(-c5ccc(S(=O)(=O)[O-])cc5)c5nc(c(-c6ccc(S(=O)(=O)[O-])cc6)c6ccc3[nH]6)C=C5)C=C4)cc2)cc1
REMARK SMILES IDX 21 1 20 2 19 3 17 4 18 5 16 7 15 8 14 9 11 10 12 11 88 12
REMARK SMILES IDX 13 13 87 14 8 15 9 16 10 17 7 18 1 19 2 20 3 21 4 22 6 23
REMARK SMILES IDX 5 24 22 25 23 26 24 27 25 28 26 30 27 31 28 32 86 33 29 34
REMARK SMILES IDX 85 35 30 36 31 37 32 38 79 39 33 40 84 41 78 42 80 43 34 44
REMARK SMILES IDX 83 45 77 46 76 47 35 49 65 50 46 51 64 52 47 53 50 54 63 55
REMARK SMILES IDX 81 56 48 57 49 58 62 60 82 61 51 62 36 63 37 64 45 65 38 66
REMARK SMILES IDX 44 67 39 68 40 69 41 70 42 71 43 72 66 73 67 74 75 75 68 76
REMARK SMILES IDX 74 77 69 78 70 79 71 80 72 81 73 82 52 83 53 84 61 85 54 86
REMARK SMILES IDX 60 87 55 88 56 89 57 90 58 91 59 92
REMARK H PARENT 19 6 24 29 80 48 50 59
REMARK Flexibility Score: inf
ROOT
ATOM      1  C   UNL A   1      33.131  34.583  28.811  1.00  0.00     0.023 C 
ENDROOT
BRANCH   1   2
ATOM      2  C   UNL A   1      33.697  35.635  29.753  1.00  0.00     0.116 C 
BRANCH   2   3
ATOM      3  N   UNL A   1      32.654  36.154  30.621  1.00  0.00    -0.356 N 
ATOM      4  C   UNL A   1      32.521  36.048  31.974  1.00  0.00     0.220 C 
ATOM      5  O   UNL A   1      31.458  36.399  32.489  1.00  0.00    -0.275 OA
ATOM      6  H   UNL A   1      31.938  36.654  30.166  1.00  0.00     0.163 HD
BRANCH   4   7
ATOM      7  C   UNL A   1      33.670  35.560  32.839  1.00  0.00     0.105 C 
BRANCH   7   8
ATOM      8  C   UNL A   1      33.685  34.032  33.032  1.00  0.00     0.045 C 
BRANCH   8   9
ATOM      9  C   UNL A   1      35.073  33.471  33.257  1.00  0.00    -0.047 A 
ATOM     10  C   UNL A   1      37.357  32.020  33.973  1.00  0.00     0.082 A 
ATOM     11  C   UNL A   1      36.981  33.135  34.730  1.00  0.00     0.022 A 
ATOM     12  C   UNL A   1      36.683  31.723  32.783  1.00  0.00     0.022 A 
ATOM     13  C   UNL A   1      35.842  33.865  34.363  1.00  0.00     0.005 A 
ATOM     14  C   UNL A   1      35.557  32.458  32.418  1.00  0.00     0.005 A 
BRANCH  10  15
ATOM     15  S   UNL A   1      38.250  30.690  34.780  1.00  0.00     0.243 S 
ATOM     16  O   UNL A   1      38.014  29.510  33.967  1.00  0.00    -0.207 OA
ATOM     17  O   UNL A   1      37.846  30.706  36.168  1.00  0.00    -0.207 OA
BRANCH  15  18
ATOM     18  N   UNL A   1      39.894  31.078  34.718  1.00  0.00    -0.195 NA
ATOM     19  C   UNL A   1      40.803  29.189  33.290  1.00  0.00     0.026 C 
ATOM     20  C   UNL A   1      40.732  30.693  33.547  1.00  0.00     0.070 C 
ATOM     21  C   UNL A   1      42.166  31.247  33.722  1.00  0.00     0.020 C 
ATOM     22  C   UNL A   1      42.257  32.340  34.781  1.00  0.00     0.003 C 
ATOM     23  C   UNL A   1      40.592  30.857  36.017  1.00  0.00     0.103 C 
ATOM     24  C   UNL A   1      41.766  31.829  36.134  1.00  0.00     0.017 C 
ENDBRANCH  15  18
ENDBRANCH  10  15
ENDBRANCH   8   9
ENDBRANCH   7   8
ENDBRANCH   4   7
ENDBRANCH   2   3
ENDBRANCH   1   2
BRANCH   1  25
ATOM     25  C   UNL A   1      34.149  33.788  28.011  1.00  0.00     0.023 C 
BRANCH  25  26
ATOM     26  C   UNL A   1      34.696  32.572  28.743  1.00  0.00     0.116 C 
BRANCH  26  27
ATOM     27  N   UNL A   1      34.103  31.300  28.334  1.00  0.00    -0.352 N 
ATOM     28  C   UNL A   1      34.699  30.072  28.143  1.00  0.00     0.251 C 
ATOM     29  H   UNL A   1      33.132  31.324  28.170  1.00  0.00     0.163 HD
ATOM     30  O   UNL A   1      34.062  29.112  27.715  1.00  0.00    -0.269 OA
BRANCH  28  31
ATOM     31  C   UNL A   1      36.138  29.913  28.418  1.00  0.00     0.039 A 
ATOM     32  C   UNL A   1      36.544  29.499  29.689  1.00  0.00     0.014 A 
ATOM     33  C   UNL A   1      37.077  30.117  27.408  1.00  0.00     0.014 A 
ATOM     34  C   UNL A   1      37.889  29.205  29.919  1.00  0.00     0.010 A 
ATOM     35  C   UNL A   1      38.381  29.694  27.598  1.00  0.00     0.010 A 
ATOM     36  C   UNL A   1      38.807  29.251  28.860  1.00  0.00    -0.014 A 
BRANCH  36  37
ATOM     37  C   UNL A   1      40.238  28.899  29.030  1.00  0.00     0.031 A 
ATOM     38  C   UNL A   1      41.191  29.957  29.521  1.00  0.00     0.074 A 
ATOM     39  C   UNL A   1      40.696  27.694  28.641  1.00  0.00     0.049 A 
ATOM     40  N   UNL A   1      42.497  29.956  29.531  1.00  0.00    -0.248 NA
ATOM     41  C   UNL A   1      40.587  31.211  30.007  1.00  0.00     0.031 C 
ATOM     42  C   UNL A   1      39.878  26.598  28.113  1.00  0.00     0.029 A 
ATOM     43  N   UNL A   1      41.971  27.192  28.621  1.00  0.00    -0.354 N 
ATOM     44  C   UNL A   1      42.867  31.227  29.955  1.00  0.00     0.074 A 
ATOM     45  C   UNL A   1      41.651  31.986  30.139  1.00  0.00     0.031 C 
ATOM     46  C   UNL A   1      40.668  25.542  27.860  1.00  0.00     0.029 A 
ATOM     47  C   UNL A   1      42.050  25.901  28.155  1.00  0.00     0.049 A 
ATOM     48  H   UNL A   1      42.757  27.708  28.912  1.00  0.00     0.167 HD
ATOM     49  C   UNL A   1      44.108  31.714  30.194  1.00  0.00     0.031 A 
ATOM     50  C   UNL A   1      43.120  25.102  27.981  1.00  0.00     0.031 A 
ATOM     51  C   UNL A   1      45.303  30.926  30.073  1.00  0.00     0.049 A 
ATOM     52  C   UNL A   1      44.485  25.638  28.314  1.00  0.00     0.074 A 
ATOM     53  C   UNL A   1      46.608  31.287  30.357  1.00  0.00     0.029 A 
ATOM     54  N   UNL A   1      45.331  29.603  29.656  1.00  0.00    -0.354 N 
ATOM     55  N   UNL A   1      44.820  26.836  28.733  1.00  0.00    -0.248 NA
ATOM     56  C   UNL A   1      45.616  24.712  28.158  1.00  0.00     0.031 C 
ATOM     57  C   UNL A   1      47.428  30.186  30.089  1.00  0.00     0.029 A 
ATOM     58  C   UNL A   1      46.629  29.129  29.678  1.00  0.00     0.049 A 
ATOM     59  H   UNL A   1      44.543  29.080  29.384  1.00  0.00     0.167 HD
ATOM     60  C   UNL A   1      46.196  26.801  28.918  1.00  0.00     0.074 A 
ATOM     61  C   UNL A   1      46.630  25.461  28.572  1.00  0.00     0.031 C 
ATOM     62  C   UNL A   1      47.028  27.786  29.339  1.00  0.00     0.031 A 
BRANCH  49  63
ATOM     63  C   UNL A   1      44.211  33.159  30.606  1.00  0.00    -0.014 A 
ATOM     64  C   UNL A   1      44.158  33.537  31.961  1.00  0.00     0.010 A 
ATOM     65  C   UNL A   1      44.328  34.159  29.624  1.00  0.00     0.010 A 
ATOM     66  C   UNL A   1      44.140  34.886  32.321  1.00  0.00     0.020 A 
ATOM     67  C   UNL A   1      44.345  35.510  29.982  1.00  0.00     0.020 A 
ATOM     68  C   UNL A   1      44.220  35.866  31.327  1.00  0.00     0.054 A 
BRANCH  68  69
ATOM     69  S   UNL A   1      44.169  37.612  31.815  1.00  0.00     0.124 S 
ATOM     70  O   UNL A   1      43.608  38.240  30.622  1.00  0.00    -0.237 OA
ATOM     71  O   UNL A   1      43.293  37.596  32.985  1.00  0.00    -0.237 OA
ATOM     72  O   UNL A   1      45.567  37.934  32.092  1.00  0.00    -0.744 OA
ENDBRANCH  68  69
ENDBRANCH  49  63
BRANCH  50  73
ATOM     73  C   UNL A   1      42.930  23.701  27.518  1.00  0.00    -0.014 A 
ATOM     74  C   UNL A   1      42.657  22.685  28.452  1.00  0.00     0.010 A 
ATOM     75  C   UNL A   1      42.973  23.377  26.150  1.00  0.00     0.010 A 
ATOM     76  C   UNL A   1      42.436  21.373  28.029  1.00  0.00     0.020 A 
ATOM     77  C   UNL A   1      42.731  22.068  25.721  1.00  0.00     0.020 A 
ATOM     78  C   UNL A   1      42.469  21.072  26.665  1.00  0.00     0.054 A 
BRANCH  78  79
ATOM     79  S   UNL A   1      42.105  19.373  26.136  1.00  0.00     0.124 S 
ATOM     80  O   UNL A   1      40.663  19.425  25.919  1.00  0.00    -0.237 OA
ATOM     81  O   UNL A   1      42.922  19.236  24.934  1.00  0.00    -0.237 OA
ATOM     82  O   UNL A   1      42.540  18.561  27.271  1.00  0.00    -0.744 OA
ENDBRANCH  78  79
ENDBRANCH  50  73
BRANCH  62  83
ATOM     83  C   UNL A   1      48.482  27.440  29.493  1.00  0.00    -0.014 A 
ATOM     84  C   UNL A   1      49.392  27.638  28.440  1.00  0.00     0.010 A 
ATOM     85  C   UNL A   1      48.952  26.980  30.736  1.00  0.00     0.010 A 
ATOM     86  C   UNL A   1      50.748  27.360  28.624  1.00  0.00     0.020 A 
ATOM     87  C   UNL A   1      50.311  26.722  30.929  1.00  0.00     0.020 A 
ATOM     88  C   UNL A   1      51.199  26.904  29.867  1.00  0.00     0.054 A 
BRANCH  88  89
ATOM     89  S   UNL A   1      52.972  26.607  30.099  1.00  0.00     0.124 S 
ATOM     90  O   UNL A   1      52.972  25.510  31.062  1.00  0.00    -0.237 OA
ATOM     91  O   UNL A   1      53.421  26.261  28.752  1.00  0.00    -0.237 OA
ATOM     92  O   UNL A   1      53.473  27.882  30.606  1.00  0.00    -0.744 OA
ENDBRANCH  88  89
ENDBRANCH  62  83
ENDBRANCH  36  37
ENDBRANCH  28  31
ENDBRANCH  26  27
ENDBRANCH  25  26
ENDBRANCH   1  25
TORSDOF 18
ENDMDL
