MODEL 1
REMARK VINA RESULT:     -11.5      0.000      0.000
REMARK SMILES C#Cc1ccc2c(c1)C=C(C(=O)NCCCCNC(=O)c1ccc(-c3c4nc(c(-c5ccc(S(=O)(=O)[O-])cc5)c5ccc([nH]5)c(-c5ccc(S(=O)(=O)[O-])cc5)c5nc(c(-c6ccc(S(=O)(=O)[O-])cc6)c6ccc3[nH]6)C=C5)C=C4)cc1)[C@@H](C(F)(F)F)O2
REMARK SMILES IDX 16 1 15 2 14 3 13 4 11 5 12 6 10 8 3 9 4 10 8 11 5 12 7 13
REMARK SMILES IDX 6 14 9 15 86 16 81 17 2 18 1 19 82 20 83 21 84 22 85 23
REMARK SMILES IDX 17 24 18 25 19 26 20 28 21 29 22 30 80 31 23 32 79 33 24 34
REMARK SMILES IDX 25 35 26 36 73 37 27 38 78 39 72 40 74 41 28 42 77 43 71 44
REMARK SMILES IDX 70 45 29 47 59 48 40 49 58 50 41 51 44 52 57 53 75 54 42 55
REMARK SMILES IDX 43 56 56 58 76 59 45 60 30 61 31 62 39 63 32 64 38 65 33 66
REMARK SMILES IDX 34 67 35 68 36 69 37 70 60 71 61 72 69 73 62 74 68 75 63 76
REMARK SMILES IDX 64 77 65 78 66 79 67 80 46 81 47 82 55 83 48 84 54 85 49 86
REMARK SMILES IDX 50 87 51 88 52 89 53 90
REMARK H PARENT 13 7 18 27 74 46 44 57
REMARK Flexibility Score: inf
ROOT
ATOM      1  C   UNL A   1      33.575  28.854  25.769  1.00  0.00     0.023 C 
ENDROOT
BRANCH   1   2
ATOM      2  C   UNL A   1      32.430  29.555  25.052  1.00  0.00     0.023 C 
BRANCH   2   3
ATOM      3  C   UNL A   1      31.815  28.714  23.942  1.00  0.00     0.116 C 
BRANCH   3   4
ATOM      4  N   UNL A   1      30.963  27.654  24.459  1.00  0.00    -0.352 N 
ATOM      5  C   UNL A   1      31.038  26.308  24.603  1.00  0.00     0.251 C 
ATOM      6  O   UNL A   1      30.079  25.772  25.165  1.00  0.00    -0.270 OA
ATOM      7  H   UNL A   1      30.108  28.008  24.794  1.00  0.00     0.163 HD
BRANCH   5   8
ATOM      8  C   UNL A   1      32.178  25.467  24.127  1.00  0.00     0.067 C 
ATOM      9  C   UNL A   1      36.516  23.495  24.949  1.00  0.00     0.025 A 
ATOM     10  C   UNL A   1      36.399  22.754  23.770  1.00  0.00     0.021 A 
ATOM     11  C   UNL A   1      35.482  24.349  25.352  1.00  0.00     0.029 A 
ATOM     12  C   UNL A   1      35.254  22.868  22.992  1.00  0.00     0.048 A 
ATOM     13  C   UNL A   1      34.328  24.466  24.570  1.00  0.00     0.018 A 
ATOM     14  C   UNL A   1      34.233  23.726  23.390  1.00  0.00     0.128 A 
ATOM     15  C   UNL A   1      33.202  25.298  24.983  1.00  0.00     0.025 C 
ATOM     16  O   UNL A   1      33.142  23.749  22.579  1.00  0.00    -0.475 OA
ATOM     17  C   UNL A   1      32.219  24.847  22.761  1.00  0.00     0.314 C 
BRANCH   9  18
ATOM     18  C   UNL A   1      37.695  23.356  25.743  1.00  0.00    -0.070 C 
ATOM     19  C   UNL A   1      38.677  23.205  26.419  1.00  0.00     0.010 C 
ENDBRANCH   9  18
BRANCH  17  20
ATOM     20  C   UNL A   1      32.461  25.890  21.652  1.00  0.00     0.429 C 
ATOM     21  F   UNL A   1      32.824  25.274  20.498  1.00  0.00    -0.167 F 
ATOM     22  F   UNL A   1      31.359  26.622  21.362  1.00  0.00    -0.167 F 
ATOM     23  F   UNL A   1      33.440  26.767  21.968  1.00  0.00    -0.167 F 
ENDBRANCH  17  20
ENDBRANCH   5   8
ENDBRANCH   3   4
ENDBRANCH   2   3
ENDBRANCH   1   2
BRANCH   1  24
ATOM     24  C   UNL A   1      33.479  28.886  27.288  1.00  0.00     0.116 C 
BRANCH  24  25
ATOM     25  N   UNL A   1      33.530  30.230  27.860  1.00  0.00    -0.352 N 
ATOM     26  C   UNL A   1      34.606  30.844  28.466  1.00  0.00     0.251 C 
ATOM     27  H   UNL A   1      32.701  30.758  27.807  1.00  0.00     0.163 HD
ATOM     28  O   UNL A   1      34.494  31.939  29.002  1.00  0.00    -0.269 OA
BRANCH  26  29
ATOM     29  C   UNL A   1      35.886  30.109  28.490  1.00  0.00     0.039 A 
ATOM     30  C   UNL A   1      36.319  29.544  29.689  1.00  0.00     0.014 A 
ATOM     31  C   UNL A   1      36.724  30.156  27.376  1.00  0.00     0.014 A 
ATOM     32  C   UNL A   1      37.663  29.247  29.844  1.00  0.00     0.010 A 
ATOM     33  C   UNL A   1      38.046  29.725  27.501  1.00  0.00     0.010 A 
ATOM     34  C   UNL A   1      38.546  29.330  28.753  1.00  0.00    -0.014 A 
BRANCH  34  35
ATOM     35  C   UNL A   1      39.980  28.991  28.951  1.00  0.00     0.031 A 
ATOM     36  C   UNL A   1      40.934  29.963  29.596  1.00  0.00     0.074 A 
ATOM     37  C   UNL A   1      40.408  27.764  28.589  1.00  0.00     0.049 A 
ATOM     38  N   UNL A   1      42.209  29.813  29.849  1.00  0.00    -0.248 NA
ATOM     39  C   UNL A   1      40.399  31.273  30.009  1.00  0.00     0.031 C 
ATOM     40  C   UNL A   1      39.567  26.730  27.982  1.00  0.00     0.029 A 
ATOM     41  N   UNL A   1      41.637  27.164  28.703  1.00  0.00    -0.354 N 
ATOM     42  C   UNL A   1      42.633  31.005  30.428  1.00  0.00     0.074 A 
ATOM     43  C   UNL A   1      41.488  31.887  30.456  1.00  0.00     0.031 C 
ATOM     44  C   UNL A   1      40.281  25.606  27.843  1.00  0.00     0.029 A 
ATOM     45  C   UNL A   1      41.656  25.864  28.253  1.00  0.00     0.049 A 
ATOM     46  H   UNL A   1      42.429  27.620  29.072  1.00  0.00     0.167 HD
ATOM     47  C   UNL A   1      43.860  31.323  30.906  1.00  0.00     0.031 A 
ATOM     48  C   UNL A   1      42.666  24.977  28.153  1.00  0.00     0.031 A 
ATOM     49  C   UNL A   1      44.985  30.421  30.886  1.00  0.00     0.049 A 
ATOM     50  C   UNL A   1      44.030  25.378  28.632  1.00  0.00     0.074 A 
ATOM     51  C   UNL A   1      46.263  30.642  31.373  1.00  0.00     0.029 A 
ATOM     52  N   UNL A   1      44.978  29.136  30.362  1.00  0.00    -0.354 N 
ATOM     53  N   UNL A   1      44.401  26.499  29.202  1.00  0.00    -0.248 NA
ATOM     54  C   UNL A   1      45.110  24.397  28.464  1.00  0.00     0.031 C 
ATOM     55  C   UNL A   1      47.048  29.533  31.060  1.00  0.00     0.029 A 
ATOM     56  C   UNL A   1      46.239  28.572  30.475  1.00  0.00     0.049 A 
ATOM     57  H   UNL A   1      44.193  28.690  29.970  1.00  0.00     0.167 HD
ATOM     58  C   UNL A   1      45.754  26.352  29.480  1.00  0.00     0.074 A 
ATOM     59  C   UNL A   1      46.129  25.023  29.040  1.00  0.00     0.031 C 
ATOM     60  C   UNL A   1      46.607  27.243  30.042  1.00  0.00     0.031 A 
BRANCH  47  61
ATOM     61  C   UNL A   1      44.078  32.694  31.504  1.00  0.00    -0.014 A 
ATOM     62  C   UNL A   1      43.698  32.942  32.838  1.00  0.00     0.010 A 
ATOM     63  C   UNL A   1      44.509  33.774  30.712  1.00  0.00     0.010 A 
ATOM     64  C   UNL A   1      43.692  34.242  33.351  1.00  0.00     0.020 A 
ATOM     65  C   UNL A   1      44.543  35.072  31.234  1.00  0.00     0.020 A 
ATOM     66  C   UNL A   1      44.104  35.302  32.539  1.00  0.00     0.054 A 
BRANCH  66  67
ATOM     67  S   UNL A   1      44.030  36.989  33.202  1.00  0.00     0.124 S 
ATOM     68  O   UNL A   1      45.349  37.142  33.807  1.00  0.00    -0.237 OA
ATOM     69  O   UNL A   1      43.785  37.789  32.006  1.00  0.00    -0.237 OA
ATOM     70  O   UNL A   1      42.914  36.938  34.145  1.00  0.00    -0.744 OA
ENDBRANCH  66  67
ENDBRANCH  47  61
BRANCH  48  71
ATOM     71  C   UNL A   1      42.385  23.623  27.594  1.00  0.00    -0.014 A 
ATOM     72  C   UNL A   1      42.083  22.546  28.451  1.00  0.00     0.010 A 
ATOM     73  C   UNL A   1      42.528  23.376  26.218  1.00  0.00     0.010 A 
ATOM     74  C   UNL A   1      42.015  21.241  27.958  1.00  0.00     0.020 A 
ATOM     75  C   UNL A   1      42.414  22.076  25.714  1.00  0.00     0.020 A 
ATOM     76  C   UNL A   1      42.197  21.014  26.592  1.00  0.00     0.054 A 
BRANCH  76  77
ATOM     77  S   UNL A   1      42.188  19.303  25.993  1.00  0.00     0.124 S 
ATOM     78  O   UNL A   1      43.140  19.368  24.887  1.00  0.00    -0.237 OA
ATOM     79  O   UNL A   1      42.635  18.555  27.165  1.00  0.00    -0.237 OA
ATOM     80  O   UNL A   1      40.797  19.081  25.607  1.00  0.00    -0.744 OA
ENDBRANCH  76  77
ENDBRANCH  48  71
BRANCH  60  81
ATOM     81  C   UNL A   1      48.049  26.837  30.228  1.00  0.00    -0.014 A 
ATOM     82  C   UNL A   1      48.432  26.135  31.387  1.00  0.00     0.010 A 
ATOM     83  C   UNL A   1      49.044  27.279  29.339  1.00  0.00     0.010 A 
ATOM     84  C   UNL A   1      49.782  25.936  31.685  1.00  0.00     0.020 A 
ATOM     85  C   UNL A   1      50.395  27.044  29.611  1.00  0.00     0.020 A 
ATOM     86  C   UNL A   1      50.756  26.404  30.800  1.00  0.00     0.054 A 
BRANCH  86  87
ATOM     87  S   UNL A   1      52.503  26.201  31.240  1.00  0.00     0.124 S 
ATOM     88  O   UNL A   1      52.475  24.994  32.061  1.00  0.00    -0.237 OA
ATOM     89  O   UNL A   1      53.146  26.062  29.936  1.00  0.00    -0.237 OA
ATOM     90  O   UNL A   1      52.825  27.434  31.957  1.00  0.00    -0.744 OA
ENDBRANCH  86  87
ENDBRANCH  60  81
ENDBRANCH  34  35
ENDBRANCH  26  29
ENDBRANCH  24  25
ENDBRANCH   1  24
TORSDOF 16
ENDMDL
MODEL 2
REMARK VINA RESULT:     -11.3      1.697      3.648
REMARK SMILES C#Cc1ccc2c(c1)C=C(C(=O)NCCCCNC(=O)c1ccc(-c3c4nc(c(-c5ccc(S(=O)(=O)[O-])cc5)c5ccc([nH]5)c(-c5ccc(S(=O)(=O)[O-])cc5)c5nc(c(-c6ccc(S(=O)(=O)[O-])cc6)c6ccc3[nH]6)C=C5)C=C4)cc1)[C@@H](C(F)(F)F)O2
REMARK SMILES IDX 16 1 15 2 14 3 13 4 11 5 12 6 10 8 3 9 4 10 8 11 5 12 7 13
REMARK SMILES IDX 6 14 9 15 86 16 81 17 2 18 1 19 82 20 83 21 84 22 85 23
REMARK SMILES IDX 17 24 18 25 19 26 20 28 21 29 22 30 80 31 23 32 79 33 24 34
REMARK SMILES IDX 25 35 26 36 73 37 27 38 78 39 72 40 74 41 28 42 77 43 71 44
REMARK SMILES IDX 70 45 29 47 59 48 40 49 58 50 41 51 44 52 57 53 75 54 42 55
REMARK SMILES IDX 43 56 56 58 76 59 45 60 30 61 31 62 39 63 32 64 38 65 33 66
REMARK SMILES IDX 34 67 35 68 36 69 37 70 60 71 61 72 69 73 62 74 68 75 63 76
REMARK SMILES IDX 64 77 65 78 66 79 67 80 46 81 47 82 55 83 48 84 54 85 49 86
REMARK SMILES IDX 50 87 51 88 52 89 53 90
REMARK H PARENT 13 7 18 27 74 46 44 57
REMARK Flexibility Score: inf
ROOT
ATOM      1  C   UNL A   1      33.095  28.725  25.822  1.00  0.00     0.023 C 
ENDROOT
BRANCH   1   2
ATOM      2  C   UNL A   1      34.061  27.772  25.134  1.00  0.00     0.023 C 
BRANCH   2   3
ATOM      3  C   UNL A   1      33.778  26.308  25.441  1.00  0.00     0.116 C 
BRANCH   3   4
ATOM      4  N   UNL A   1      33.494  25.536  24.241  1.00  0.00    -0.352 N 
ATOM      5  C   UNL A   1      32.476  25.430  23.352  1.00  0.00     0.251 C 
ATOM      6  O   UNL A   1      32.666  24.664  22.403  1.00  0.00    -0.270 OA
ATOM      7  H   UNL A   1      34.239  24.933  24.014  1.00  0.00     0.163 HD
BRANCH   5   8
ATOM      8  C   UNL A   1      31.177  26.160  23.461  1.00  0.00     0.067 C 
ATOM      9  C   UNL A   1      28.512  30.074  22.479  1.00  0.00     0.025 A 
ATOM     10  C   UNL A   1      27.379  29.424  22.973  1.00  0.00     0.021 A 
ATOM     11  C   UNL A   1      29.750  29.419  22.455  1.00  0.00     0.029 A 
ATOM     12  C   UNL A   1      27.481  28.121  23.447  1.00  0.00     0.048 A 
ATOM     13  C   UNL A   1      29.855  28.108  22.932  1.00  0.00     0.018 A 
ATOM     14  C   UNL A   1      28.714  27.477  23.432  1.00  0.00     0.128 A 
ATOM     15  C   UNL A   1      31.111  27.368  22.871  1.00  0.00     0.025 C 
ATOM     16  O   UNL A   1      28.709  26.197  23.890  1.00  0.00    -0.475 OA
ATOM     17  C   UNL A   1      29.994  25.612  24.204  1.00  0.00     0.314 C 
BRANCH   9  18
ATOM     18  C   UNL A   1      28.387  31.408  21.984  1.00  0.00    -0.070 C 
ATOM     19  C   UNL A   1      28.308  32.524  21.543  1.00  0.00     0.010 C 
ENDBRANCH   9  18
BRANCH  17  20
ATOM     20  C   UNL A   1      30.196  25.642  25.732  1.00  0.00     0.429 C 
ATOM     21  F   UNL A   1      29.016  25.423  26.366  1.00  0.00    -0.167 F 
ATOM     22  F   UNL A   1      31.049  24.689  26.173  1.00  0.00    -0.167 F 
ATOM     23  F   UNL A   1      30.676  26.829  26.168  1.00  0.00    -0.167 F 
ENDBRANCH  17  20
ENDBRANCH   5   8
ENDBRANCH   3   4
ENDBRANCH   2   3
ENDBRANCH   1   2
BRANCH   1  24
ATOM     24  C   UNL A   1      33.328  28.885  27.319  1.00  0.00     0.116 C 
BRANCH  24  25
ATOM     25  N   UNL A   1      33.406  30.274  27.764  1.00  0.00    -0.352 N 
ATOM     26  C   UNL A   1      34.498  30.923  28.303  1.00  0.00     0.251 C 
ATOM     27  H   UNL A   1      32.586  30.810  27.668  1.00  0.00     0.163 HD
ATOM     28  O   UNL A   1      34.408  32.064  28.737  1.00  0.00    -0.269 OA
BRANCH  26  29
ATOM     29  C   UNL A   1      35.765  30.170  28.386  1.00  0.00     0.039 A 
ATOM     30  C   UNL A   1      36.160  29.646  29.617  1.00  0.00     0.014 A 
ATOM     31  C   UNL A   1      36.630  30.162  27.292  1.00  0.00     0.014 A 
ATOM     32  C   UNL A   1      37.495  29.335  29.816  1.00  0.00     0.010 A 
ATOM     33  C   UNL A   1      37.942  29.717  27.466  1.00  0.00     0.010 A 
ATOM     34  C   UNL A   1      38.405  29.363  28.745  1.00  0.00    -0.014 A 
BRANCH  34  35
ATOM     35  C   UNL A   1      39.829  29.010  28.991  1.00  0.00     0.031 A 
ATOM     36  C   UNL A   1      40.763  29.964  29.691  1.00  0.00     0.074 A 
ATOM     37  C   UNL A   1      40.263  27.788  28.621  1.00  0.00     0.049 A 
ATOM     38  N   UNL A   1      42.027  29.800  29.989  1.00  0.00    -0.248 NA
ATOM     39  C   UNL A   1      40.220  31.268  30.109  1.00  0.00     0.031 C 
ATOM     40  C   UNL A   1      39.440  26.772  27.961  1.00  0.00     0.029 A 
ATOM     41  N   UNL A   1      41.484  27.178  28.770  1.00  0.00    -0.354 N 
ATOM     42  C   UNL A   1      42.434  30.978  30.607  1.00  0.00     0.074 A 
ATOM     43  C   UNL A   1      41.294  31.866  30.609  1.00  0.00     0.031 C 
ATOM     44  C   UNL A   1      40.153  25.647  27.827  1.00  0.00     0.029 A 
ATOM     45  C   UNL A   1      41.513  25.887  28.294  1.00  0.00     0.049 A 
ATOM     46  H   UNL A   1      42.263  27.621  29.177  1.00  0.00     0.167 HD
ATOM     47  C   UNL A   1      43.644  31.278  31.138  1.00  0.00     0.031 A 
ATOM     48  C   UNL A   1      42.520  24.995  28.215  1.00  0.00     0.031 A 
ATOM     49  C   UNL A   1      44.764  30.370  31.144  1.00  0.00     0.049 A 
ATOM     50  C   UNL A   1      43.867  25.378  28.754  1.00  0.00     0.074 A 
ATOM     51  C   UNL A   1      46.023  30.573  31.683  1.00  0.00     0.029 A 
ATOM     52  N   UNL A   1      44.770  29.095  30.594  1.00  0.00    -0.354 N 
ATOM     53  N   UNL A   1      44.222  26.485  29.361  1.00  0.00    -0.248 NA
ATOM     54  C   UNL A   1      44.947  24.394  28.608  1.00  0.00     0.031 C 
ATOM     55  C   UNL A   1      46.814  29.465  31.378  1.00  0.00     0.029 A 
ATOM     56  C   UNL A   1      46.022  28.520  30.744  1.00  0.00     0.049 A 
ATOM     57  H   UNL A   1      43.997  28.662  30.163  1.00  0.00     0.167 HD
ATOM     58  C   UNL A   1      45.563  26.324  29.687  1.00  0.00     0.074 A 
ATOM     59  C   UNL A   1      45.947  25.002  29.234  1.00  0.00     0.031 C 
ATOM     60  C   UNL A   1      46.398  27.198  30.298  1.00  0.00     0.031 A 
BRANCH  47  61
ATOM     61  C   UNL A   1      43.847  32.635  31.772  1.00  0.00    -0.014 A 
ATOM     62  C   UNL A   1      43.550  32.820  33.137  1.00  0.00     0.010 A 
ATOM     63  C   UNL A   1      44.178  33.760  30.994  1.00  0.00     0.010 A 
ATOM     64  C   UNL A   1      43.527  34.100  33.698  1.00  0.00     0.020 A 
ATOM     65  C   UNL A   1      44.195  35.040  31.561  1.00  0.00     0.020 A 
ATOM     66  C   UNL A   1      43.838  35.205  32.901  1.00  0.00     0.054 A 
BRANCH  66  67
ATOM     67  S   UNL A   1      43.741  36.863  33.631  1.00  0.00     0.124 S 
ATOM     68  O   UNL A   1      42.475  36.808  34.354  1.00  0.00    -0.237 OA
ATOM     69  O   UNL A   1      44.942  36.915  34.460  1.00  0.00    -0.237 OA
ATOM     70  O   UNL A   1      43.759  37.750  32.469  1.00  0.00    -0.744 OA
ENDBRANCH  66  67
ENDBRANCH  47  61
BRANCH  48  71
ATOM     71  C   UNL A   1      42.253  23.655  27.619  1.00  0.00    -0.014 A 
ATOM     72  C   UNL A   1      41.762  22.603  28.418  1.00  0.00     0.010 A 
ATOM     73  C   UNL A   1      42.592  23.389  26.281  1.00  0.00     0.010 A 
ATOM     74  C   UNL A   1      41.698  21.300  27.920  1.00  0.00     0.020 A 
ATOM     75  C   UNL A   1      42.485  22.094  25.765  1.00  0.00     0.020 A 
ATOM     76  C   UNL A   1      42.075  21.053  26.599  1.00  0.00     0.054 A 
BRANCH  76  77
ATOM     77  S   UNL A   1      42.063  19.340  26.005  1.00  0.00     0.124 S 
ATOM     78  O   UNL A   1      42.591  18.618  27.159  1.00  0.00    -0.237 OA
ATOM     79  O   UNL A   1      40.649  19.115  25.715  1.00  0.00    -0.237 OA
ATOM     80  O   UNL A   1      42.939  19.375  24.836  1.00  0.00    -0.744 OA
ENDBRANCH  76  77
ENDBRANCH  48  71
BRANCH  60  81
ATOM     81  C   UNL A   1      47.830  26.779  30.531  1.00  0.00    -0.014 A 
ATOM     82  C   UNL A   1      48.171  26.085  31.709  1.00  0.00     0.010 A 
ATOM     83  C   UNL A   1      48.856  27.201  29.668  1.00  0.00     0.010 A 
ATOM     84  C   UNL A   1      49.510  25.876  32.048  1.00  0.00     0.020 A 
ATOM     85  C   UNL A   1      50.195  26.955  29.982  1.00  0.00     0.020 A 
ATOM     86  C   UNL A   1      50.514  26.324  31.188  1.00  0.00     0.054 A 
BRANCH  86  87
ATOM     87  S   UNL A   1      52.245  26.108  31.682  1.00  0.00     0.124 S 
ATOM     88  O   UNL A   1      52.930  26.060  30.394  1.00  0.00    -0.237 OA
ATOM     89  O   UNL A   1      52.498  27.301  32.486  1.00  0.00    -0.237 OA
ATOM     90  O   UNL A   1      52.237  24.852  32.430  1.00  0.00    -0.744 OA
ENDBRANCH  86  87
ENDBRANCH  60  81
ENDBRANCH  34  35
ENDBRANCH  26  29
ENDBRANCH  24  25
ENDBRANCH   1  24
TORSDOF 16
ENDMDL
MODEL 3
REMARK VINA RESULT:     -11.3      0.781      8.209
REMARK SMILES C#Cc1ccc2c(c1)C=C(C(=O)NCCCCNC(=O)c1ccc(-c3c4nc(c(-c5ccc(S(=O)(=O)[O-])cc5)c5ccc([nH]5)c(-c5ccc(S(=O)(=O)[O-])cc5)c5nc(c(-c6ccc(S(=O)(=O)[O-])cc6)c6ccc3[nH]6)C=C5)C=C4)cc1)[C@@H](C(F)(F)F)O2
REMARK SMILES IDX 16 1 15 2 14 3 13 4 11 5 12 6 10 8 3 9 4 10 8 11 5 12 7 13
REMARK SMILES IDX 6 14 9 15 86 16 81 17 2 18 1 19 82 20 83 21 84 22 85 23
REMARK SMILES IDX 17 24 18 25 19 26 20 28 21 29 22 30 80 31 23 32 79 33 24 34
REMARK SMILES IDX 25 35 26 36 73 37 27 38 78 39 72 40 74 41 28 42 77 43 71 44
REMARK SMILES IDX 70 45 29 47 59 48 40 49 58 50 41 51 44 52 57 53 75 54 42 55
REMARK SMILES IDX 43 56 56 58 76 59 45 60 30 61 31 62 39 63 32 64 38 65 33 66
REMARK SMILES IDX 34 67 35 68 36 69 37 70 60 71 61 72 69 73 62 74 68 75 63 76
REMARK SMILES IDX 64 77 65 78 66 79 67 80 46 81 47 82 55 83 48 84 54 85 49 86
REMARK SMILES IDX 50 87 51 88 52 89 53 90
REMARK H PARENT 13 7 18 27 74 46 44 57
REMARK Flexibility Score: inf
ROOT
ATOM      1  C   UNL A   1      32.950  29.707  25.822  1.00  0.00     0.023 C 
ENDROOT
BRANCH   1   2
ATOM      2  C   UNL A   1      31.708  28.859  26.061  1.00  0.00     0.023 C 
BRANCH   2   3
ATOM      3  C   UNL A   1      31.934  27.739  27.068  1.00  0.00     0.116 C 
BRANCH   3   4
ATOM      4  N   UNL A   1      31.026  26.621  26.863  1.00  0.00    -0.352 N 
ATOM      5  C   UNL A   1      31.060  25.425  26.227  1.00  0.00     0.251 C 
ATOM      6  O   UNL A   1      30.054  24.720  26.349  1.00  0.00    -0.270 OA
ATOM      7  H   UNL A   1      30.159  26.773  27.305  1.00  0.00     0.163 HD
BRANCH   5   8
ATOM      8  C   UNL A   1      32.208  24.934  25.406  1.00  0.00     0.067 C 
ATOM      9  C   UNL A   1      36.721  23.212  25.179  1.00  0.00     0.025 A 
ATOM     10  C   UNL A   1      36.554  22.961  23.816  1.00  0.00     0.021 A 
ATOM     11  C   UNL A   1      35.671  23.753  25.933  1.00  0.00     0.029 A 
ATOM     12  C   UNL A   1      35.341  23.250  23.202  1.00  0.00     0.048 A 
ATOM     13  C   UNL A   1      34.450  24.045  25.318  1.00  0.00     0.018 A 
ATOM     14  C   UNL A   1      34.304  23.797  23.952  1.00  0.00     0.128 A 
ATOM     15  C   UNL A   1      33.311  24.553  26.076  1.00  0.00     0.025 C 
ATOM     16  O   UNL A   1      33.148  24.020  23.271  1.00  0.00    -0.475 OA
ATOM     17  C   UNL A   1      32.173  24.879  23.907  1.00  0.00     0.314 C 
BRANCH   9  18
ATOM     18  C   UNL A   1      37.971  22.897  25.796  1.00  0.00    -0.070 C 
ATOM     19  C   UNL A   1      39.006  22.603  26.332  1.00  0.00     0.010 C 
ENDBRANCH   9  18
BRANCH  17  20
ATOM     20  C   UNL A   1      32.250  26.279  23.267  1.00  0.00     0.429 C 
ATOM     21  F   UNL A   1      32.413  26.174  21.924  1.00  0.00    -0.167 F 
ATOM     22  F   UNL A   1      31.128  27.012  23.459  1.00  0.00    -0.167 F 
ATOM     23  F   UNL A   1      33.282  27.012  23.744  1.00  0.00    -0.167 F 
ENDBRANCH  17  20
ENDBRANCH   5   8
ENDBRANCH   3   4
ENDBRANCH   2   3
ENDBRANCH   1   2
BRANCH   1  24
ATOM     24  C   UNL A   1      34.005  29.599  26.915  1.00  0.00     0.116 C 
BRANCH  24  25
ATOM     25  N   UNL A   1      33.979  30.698  27.878  1.00  0.00    -0.352 N 
ATOM     26  C   UNL A   1      34.951  31.032  28.797  1.00  0.00     0.251 C 
ATOM     27  H   UNL A   1      33.175  31.265  27.870  1.00  0.00     0.163 HD
ATOM     28  O   UNL A   1      34.767  31.915  29.625  1.00  0.00    -0.269 OA
BRANCH  26  29
ATOM     29  C   UNL A   1      36.203  30.248  28.780  1.00  0.00     0.039 A 
ATOM     30  C   UNL A   1      36.607  29.595  29.944  1.00  0.00     0.014 A 
ATOM     31  C   UNL A   1      37.049  30.333  27.674  1.00  0.00     0.014 A 
ATOM     32  C   UNL A   1      37.938  29.239  30.085  1.00  0.00     0.010 A 
ATOM     33  C   UNL A   1      38.353  29.846  27.777  1.00  0.00     0.010 A 
ATOM     34  C   UNL A   1      38.830  29.355  29.005  1.00  0.00    -0.014 A 
BRANCH  34  35
ATOM     35  C   UNL A   1      40.249  28.951  29.187  1.00  0.00     0.031 A 
ATOM     36  C   UNL A   1      40.739  27.593  28.752  1.00  0.00     0.074 A 
ATOM     37  C   UNL A   1      41.113  29.847  29.706  1.00  0.00     0.049 A 
ATOM     38  N   UNL A   1      41.947  27.095  28.832  1.00  0.00    -0.248 NA
ATOM     39  C   UNL A   1      39.757  26.672  28.153  1.00  0.00     0.031 C 
ATOM     40  C   UNL A   1      40.757  31.201  30.136  1.00  0.00     0.029 A 
ATOM     41  N   UNL A   1      42.465  29.774  29.931  1.00  0.00    -0.354 N 
ATOM     42  C   UNL A   1      41.868  25.805  28.317  1.00  0.00     0.074 A 
ATOM     43  C   UNL A   1      40.486  25.579  27.961  1.00  0.00     0.031 C 
ATOM     44  C   UNL A   1      41.867  31.852  30.504  1.00  0.00     0.029 A 
ATOM     45  C   UNL A   1      42.999  30.937  30.438  1.00  0.00     0.049 A 
ATOM     46  H   UNL A   1      43.001  28.968  29.749  1.00  0.00     0.167 HD
ATOM     47  C   UNL A   1      42.864  24.903  28.144  1.00  0.00     0.031 A 
ATOM     48  C   UNL A   1      44.253  31.238  30.830  1.00  0.00     0.031 A 
ATOM     49  C   UNL A   1      44.242  25.154  28.489  1.00  0.00     0.049 A 
ATOM     50  C   UNL A   1      45.324  30.197  30.686  1.00  0.00     0.074 A 
ATOM     51  C   UNL A   1      45.329  24.312  28.324  1.00  0.00     0.029 A 
ATOM     52  N   UNL A   1      44.729  26.322  29.058  1.00  0.00    -0.354 N 
ATOM     53  N   UNL A   1      45.234  28.995  30.170  1.00  0.00    -0.248 NA
ATOM     54  C   UNL A   1      46.666  30.551  31.167  1.00  0.00     0.031 C 
ATOM     55  C   UNL A   1      46.449  24.930  28.879  1.00  0.00     0.029 A 
ATOM     56  C   UNL A   1      46.090  26.204  29.292  1.00  0.00     0.049 A 
ATOM     57  H   UNL A   1      44.187  27.118  29.265  1.00  0.00     0.167 HD
ATOM     58  C   UNL A   1      46.511  28.454  30.245  1.00  0.00     0.074 A 
ATOM     59  C   UNL A   1      47.361  29.471  30.832  1.00  0.00     0.031 C 
ATOM     60  C   UNL A   1      46.935  27.223  29.869  1.00  0.00     0.031 A 
BRANCH  47  61
ATOM     61  C   UNL A   1      42.531  23.553  27.551  1.00  0.00    -0.014 A 
ATOM     62  C   UNL A   1      42.116  22.503  28.394  1.00  0.00     0.010 A 
ATOM     63  C   UNL A   1      42.774  23.274  26.193  1.00  0.00     0.010 A 
ATOM     64  C   UNL A   1      42.004  21.197  27.908  1.00  0.00     0.020 A 
ATOM     65  C   UNL A   1      42.624  21.975  25.693  1.00  0.00     0.020 A 
ATOM     66  C   UNL A   1      42.271  20.940  26.561  1.00  0.00     0.054 A 
BRANCH  66  67
ATOM     67  S   UNL A   1      42.181  19.229  25.965  1.00  0.00     0.124 S 
ATOM     68  O   UNL A   1      40.758  19.076  25.677  1.00  0.00    -0.237 OA
ATOM     69  O   UNL A   1      43.063  19.252  24.801  1.00  0.00    -0.237 OA
ATOM     70  O   UNL A   1      42.677  18.445  27.095  1.00  0.00    -0.744 OA
ENDBRANCH  66  67
ENDBRANCH  47  61
BRANCH  48  71
ATOM     71  C   UNL A   1      44.534  32.599  31.369  1.00  0.00    -0.014 A 
ATOM     72  C   UNL A   1      44.397  32.863  32.747  1.00  0.00     0.010 A 
ATOM     73  C   UNL A   1      44.826  33.665  30.500  1.00  0.00     0.010 A 
ATOM     74  C   UNL A   1      44.462  34.171  33.232  1.00  0.00     0.020 A 
ATOM     75  C   UNL A   1      44.939  34.970  30.990  1.00  0.00     0.020 A 
ATOM     76  C   UNL A   1      44.718  35.218  32.345  1.00  0.00     0.054 A 
BRANCH  76  77
ATOM     77  S   UNL A   1      44.713  36.914  32.988  1.00  0.00     0.124 S 
ATOM     78  O   UNL A   1      45.457  37.628  31.954  1.00  0.00    -0.237 OA
ATOM     79  O   UNL A   1      43.287  37.220  33.062  1.00  0.00    -0.237 OA
ATOM     80  O   UNL A   1      45.391  36.795  34.276  1.00  0.00    -0.744 OA
ENDBRANCH  76  77
ENDBRANCH  48  71
BRANCH  60  81
ATOM     81  C   UNL A   1      48.390  26.874  30.069  1.00  0.00    -0.014 A 
ATOM     82  C   UNL A   1      48.793  26.207  31.242  1.00  0.00     0.010 A 
ATOM     83  C   UNL A   1      49.373  27.335  29.176  1.00  0.00     0.010 A 
ATOM     84  C   UNL A   1      50.148  26.063  31.549  1.00  0.00     0.020 A 
ATOM     85  C   UNL A   1      50.730  27.154  29.458  1.00  0.00     0.020 A 
ATOM     86  C   UNL A   1      51.109  26.550  30.659  1.00  0.00     0.054 A 
BRANCH  86  87
ATOM     87  S   UNL A   1      52.860  26.419  31.111  1.00  0.00     0.124 S 
ATOM     88  O   UNL A   1      53.493  26.170  29.819  1.00  0.00    -0.237 OA
ATOM     89  O   UNL A   1      53.134  27.725  31.706  1.00  0.00    -0.237 OA
ATOM     90  O   UNL A   1      52.892  25.297  32.047  1.00  0.00    -0.744 OA
ENDBRANCH  86  87
ENDBRANCH  60  81
ENDBRANCH  34  35
ENDBRANCH  26  29
ENDBRANCH  24  25
ENDBRANCH   1  24
TORSDOF 16
ENDMDL
