MODEL 1
REMARK VINA RESULT:     -12.9      0.000      0.000
REMARK SMILES COc1ccccc1[C@@H]1CN(C(=O)c2cnn3ccccc23)C[C@H]1C(=O)NCCCCNC(=O)c1ccc(-c2c3nc(c(-c4ccc(S(=O)(=O)[O-])cc4)c4ccc([nH]4)c(-c4ccc(S(=O)(=O)[O-])cc4)c4nc(c(-c5ccc(S(=O)(=O)[O-])cc5)c5ccc2[nH]5)C=C4)C=C3)cc1
REMARK SMILES IDX 30 1 29 2 28 3 27 4 25 5 26 6 24 8 9 9 10 10 11 11 23 12
REMARK SMILES IDX 8 13 3 14 4 15 5 16 7 17 6 18 2 19 1 20 12 21 13 22 14 23
REMARK SMILES IDX 15 24 22 25 16 26 17 27 21 28 18 29 20 30 19 31 31 32 32 33
REMARK SMILES IDX 33 34 34 36 35 37 36 38 94 39 37 40 93 41 38 42 39 43 40 44
REMARK SMILES IDX 87 45 41 46 92 47 86 48 88 49 42 50 91 51 85 52 84 53 43 55
REMARK SMILES IDX 73 56 54 57 72 58 55 59 58 60 71 61 89 62 56 63 57 64 70 66
REMARK SMILES IDX 90 67 59 68 44 69 45 70 53 71 46 72 52 73 47 74 48 75 49 76
REMARK SMILES IDX 50 77 51 78 74 79 75 80 83 81 76 82 82 83 77 84 78 85 79 86
REMARK SMILES IDX 80 87 81 88 60 89 61 90 69 91 62 92 68 93 63 94 64 95 65 96
REMARK SMILES IDX 66 97 67 98
REMARK H PARENT 27 7 32 35 88 54 58 65
REMARK Flexibility Score: inf
ROOT
ATOM      1  C   UNL A   1      39.371  21.829  25.638  1.00  0.00     0.023 C 
ENDROOT
BRANCH   1   2
ATOM      2  C   UNL A   1      38.361  22.589  26.505  1.00  0.00     0.023 C 
BRANCH   2   3
ATOM      3  C   UNL A   1      37.741  23.830  25.862  1.00  0.00     0.116 C 
BRANCH   3   4
ATOM      4  N   UNL A   1      37.304  23.572  24.505  1.00  0.00    -0.356 N 
ATOM      5  C   UNL A   1      36.065  23.477  23.960  1.00  0.00     0.225 C 
ATOM      6  O   UNL A   1      36.004  23.169  22.767  1.00  0.00    -0.275 OA
ATOM      7  H   UNL A   1      38.038  23.440  23.863  1.00  0.00     0.163 HD
BRANCH   5   8
ATOM      8  C   UNL A   1      34.786  23.719  24.742  1.00  0.00     0.107 C 
ATOM      9  C   UNL A   1      33.642  24.363  23.935  1.00  0.00     0.057 C 
ATOM     10  C   UNL A   1      32.375  23.767  24.542  1.00  0.00     0.129 C 
ATOM     11  N   UNL A   1      32.796  22.431  24.929  1.00  0.00    -0.337 N 
ATOM     12  C   UNL A   1      34.192  22.445  25.349  1.00  0.00     0.134 C 
BRANCH   9  13
ATOM     13  C   UNL A   1      33.677  25.868  23.798  1.00  0.00    -0.000 A 
ATOM     14  C   UNL A   1      33.631  26.577  22.587  1.00  0.00     0.122 A 
ATOM     15  C   UNL A   1      33.691  27.977  22.578  1.00  0.00     0.047 A 
ATOM     16  C   UNL A   1      33.814  28.691  23.769  1.00  0.00     0.004 A 
ATOM     17  C   UNL A   1      33.800  26.616  24.990  1.00  0.00     0.008 A 
ATOM     18  C   UNL A   1      33.884  28.008  24.977  1.00  0.00     0.001 A 
BRANCH  14  19
ATOM     19  O   UNL A   1      33.732  25.965  21.367  1.00  0.00    -0.496 OA
ATOM     20  C   UNL A   1      32.478  25.595  20.799  1.00  0.00     0.278 C 
ENDBRANCH  14  19
ENDBRANCH   9  13
BRANCH  11  21
ATOM     21  C   UNL A   1      32.015  21.301  25.086  1.00  0.00     0.257 C 
ATOM     22  O   UNL A   1      31.111  21.251  25.915  1.00  0.00    -0.269 OA
BRANCH  21  23
ATOM     23  C   UNL A   1      32.286  20.171  24.223  1.00  0.00     0.085 A 
ATOM     24  C   UNL A   1      32.187  20.143  22.818  1.00  0.00     0.150 A 
ATOM     25  C   UNL A   1      32.601  18.867  24.559  1.00  0.00     0.079 A 
ATOM     26  N   UNL A   1      32.516  18.964  22.289  1.00  0.00    -0.176 NA
ATOM     27  N   UNL A   1      32.771  18.169  23.360  1.00  0.00    -0.240 N 
ATOM     28  C   UNL A   1      32.774  18.142  25.777  1.00  0.00     0.029 A 
ATOM     29  C   UNL A   1      33.166  16.830  23.334  1.00  0.00     0.113 A 
ATOM     30  C   UNL A   1      33.155  16.851  25.739  1.00  0.00     0.004 A 
ATOM     31  C   UNL A   1      33.375  16.161  24.480  1.00  0.00     0.020 A 
ENDBRANCH  21  23
ENDBRANCH  11  21
ENDBRANCH   5   8
ENDBRANCH   3   4
ENDBRANCH   2   3
ENDBRANCH   1   2
BRANCH   1  32
ATOM     32  C   UNL A   1      40.593  21.329  26.395  1.00  0.00     0.116 C 
BRANCH  32  33
ATOM     33  N   UNL A   1      41.832  21.553  25.659  1.00  0.00    -0.352 N 
ATOM     34  C   UNL A   1      42.467  22.759  25.422  1.00  0.00     0.251 C 
ATOM     35  H   UNL A   1      42.268  20.753  25.287  1.00  0.00     0.163 HD
ATOM     36  O   UNL A   1      43.273  22.870  24.515  1.00  0.00    -0.269 OA
BRANCH  34  37
ATOM     37  C   UNL A   1      42.136  23.902  26.291  1.00  0.00     0.039 A 
ATOM     38  C   UNL A   1      42.606  23.958  27.605  1.00  0.00     0.014 A 
ATOM     39  C   UNL A   1      41.390  24.948  25.750  1.00  0.00     0.014 A 
ATOM     40  C   UNL A   1      42.393  25.119  28.344  1.00  0.00     0.010 A 
ATOM     41  C   UNL A   1      41.279  26.133  26.439  1.00  0.00     0.010 A 
ATOM     42  C   UNL A   1      41.751  26.216  27.747  1.00  0.00    -0.014 A 
BRANCH  42  43
ATOM     43  C   UNL A   1      41.680  27.497  28.449  1.00  0.00     0.031 A 
ATOM     44  C   UNL A   1      42.798  28.442  28.166  1.00  0.00     0.074 A 
ATOM     45  C   UNL A   1      40.589  27.913  29.125  1.00  0.00     0.049 A 
ATOM     46  N   UNL A   1      43.716  28.852  28.978  1.00  0.00    -0.248 NA
ATOM     47  C   UNL A   1      42.986  28.901  26.779  1.00  0.00     0.031 C 
ATOM     48  C   UNL A   1      39.280  27.258  29.234  1.00  0.00     0.029 A 
ATOM     49  N   UNL A   1      40.383  29.097  29.764  1.00  0.00    -0.354 N 
ATOM     50  C   UNL A   1      44.476  29.780  28.272  1.00  0.00     0.074 A 
ATOM     51  C   UNL A   1      44.090  29.644  26.890  1.00  0.00     0.031 C 
ATOM     52  C   UNL A   1      38.363  28.149  29.672  1.00  0.00     0.029 A 
ATOM     53  C   UNL A   1      39.050  29.371  30.047  1.00  0.00     0.049 A 
ATOM     54  H   UNL A   1      41.116  29.707  30.005  1.00  0.00     0.167 HD
ATOM     55  C   UNL A   1      45.203  30.746  28.904  1.00  0.00     0.031 A 
ATOM     56  C   UNL A   1      38.542  30.533  30.529  1.00  0.00     0.031 A 
ATOM     57  C   UNL A   1      45.325  30.484  30.315  1.00  0.00     0.049 A 
ATOM     58  C   UNL A   1      39.660  31.261  31.173  1.00  0.00     0.074 A 
ATOM     59  C   UNL A   1      45.852  29.459  31.075  1.00  0.00     0.029 A 
ATOM     60  N   UNL A   1      44.491  31.187  31.153  1.00  0.00    -0.354 N 
ATOM     61  N   UNL A   1      40.277  30.827  32.237  1.00  0.00    -0.248 NA
ATOM     62  C   UNL A   1      40.389  32.242  30.388  1.00  0.00     0.031 C 
ATOM     63  C   UNL A   1      44.941  29.306  32.161  1.00  0.00     0.029 A 
ATOM     64  C   UNL A   1      43.956  30.291  32.041  1.00  0.00     0.049 A 
ATOM     65  H   UNL A   1      44.313  32.155  31.122  1.00  0.00     0.167 HD
ATOM     66  C   UNL A   1      41.613  31.134  32.024  1.00  0.00     0.074 A 
ATOM     67  C   UNL A   1      41.604  32.098  30.924  1.00  0.00     0.031 C 
ATOM     68  C   UNL A   1      42.610  30.376  32.570  1.00  0.00     0.031 A 
BRANCH  55  69
ATOM     69  C   UNL A   1      45.470  32.120  28.332  1.00  0.00    -0.014 A 
ATOM     70  C   UNL A   1      46.787  32.626  28.360  1.00  0.00     0.010 A 
ATOM     71  C   UNL A   1      44.443  33.037  28.031  1.00  0.00     0.010 A 
ATOM     72  C   UNL A   1      47.050  33.991  28.174  1.00  0.00     0.020 A 
ATOM     73  C   UNL A   1      44.698  34.390  27.800  1.00  0.00     0.020 A 
ATOM     74  C   UNL A   1      45.997  34.867  27.911  1.00  0.00     0.054 A 
BRANCH  74  75
ATOM     75  S   UNL A   1      46.328  36.642  27.789  1.00  0.00     0.124 S 
ATOM     76  O   UNL A   1      45.247  37.089  26.916  1.00  0.00    -0.237 OA
ATOM     77  O   UNL A   1      46.238  37.070  29.182  1.00  0.00    -0.237 OA
ATOM     78  O   UNL A   1      47.668  36.700  27.209  1.00  0.00    -0.744 OA
ENDBRANCH  74  75
ENDBRANCH  55  69
BRANCH  56  79
ATOM     79  C   UNL A   1      37.242  31.169  30.207  1.00  0.00    -0.014 A 
ATOM     80  C   UNL A   1      36.498  31.839  31.195  1.00  0.00     0.010 A 
ATOM     81  C   UNL A   1      36.871  31.366  28.859  1.00  0.00     0.010 A 
ATOM     82  C   UNL A   1      35.467  32.728  30.844  1.00  0.00     0.020 A 
ATOM     83  C   UNL A   1      35.842  32.246  28.504  1.00  0.00     0.020 A 
ATOM     84  C   UNL A   1      35.161  32.944  29.499  1.00  0.00     0.054 A 
BRANCH  84  85
ATOM     85  S   UNL A   1      33.964  34.236  29.049  1.00  0.00     0.124 S 
ATOM     86  O   UNL A   1      33.111  33.549  28.083  1.00  0.00    -0.237 OA
ATOM     87  O   UNL A   1      33.340  34.552  30.330  1.00  0.00    -0.237 OA
ATOM     88  O   UNL A   1      34.799  35.301  28.492  1.00  0.00    -0.744 OA
ENDBRANCH  84  85
ENDBRANCH  56  79
BRANCH  68  89
ATOM     89  C   UNL A   1      42.249  29.374  33.645  1.00  0.00    -0.014 A 
ATOM     90  C   UNL A   1      41.750  28.083  33.384  1.00  0.00     0.010 A 
ATOM     91  C   UNL A   1      42.577  29.706  34.972  1.00  0.00     0.010 A 
ATOM     92  C   UNL A   1      41.559  27.161  34.427  1.00  0.00     0.020 A 
ATOM     93  C   UNL A   1      42.408  28.789  36.011  1.00  0.00     0.020 A 
ATOM     94  C   UNL A   1      41.890  27.523  35.736  1.00  0.00     0.054 A 
BRANCH  94  95
ATOM     95  S   UNL A   1      41.686  26.317  37.078  1.00  0.00     0.124 S 
ATOM     96  O   UNL A   1      41.718  25.042  36.365  1.00  0.00    -0.237 OA
ATOM     97  O   UNL A   1      42.836  26.587  37.937  1.00  0.00    -0.237 OA
ATOM     98  O   UNL A   1      40.392  26.664  37.664  1.00  0.00    -0.744 OA
ENDBRANCH  94  95
ENDBRANCH  68  89
ENDBRANCH  42  43
ENDBRANCH  34  37
ENDBRANCH  32  33
ENDBRANCH   1  32
TORSDOF 18
ENDMDL
MODEL 2
REMARK VINA RESULT:     -12.7      1.842      4.311
REMARK SMILES COc1ccccc1[C@@H]1CN(C(=O)c2cnn3ccccc23)C[C@H]1C(=O)NCCCCNC(=O)c1ccc(-c2c3nc(c(-c4ccc(S(=O)(=O)[O-])cc4)c4ccc([nH]4)c(-c4ccc(S(=O)(=O)[O-])cc4)c4nc(c(-c5ccc(S(=O)(=O)[O-])cc5)c5ccc2[nH]5)C=C4)C=C3)cc1
REMARK SMILES IDX 30 1 29 2 28 3 27 4 25 5 26 6 24 8 9 9 10 10 11 11 23 12
REMARK SMILES IDX 8 13 3 14 4 15 5 16 7 17 6 18 2 19 1 20 12 21 13 22 14 23
REMARK SMILES IDX 15 24 22 25 16 26 17 27 21 28 18 29 20 30 19 31 31 32 32 33
REMARK SMILES IDX 33 34 34 36 35 37 36 38 94 39 37 40 93 41 38 42 39 43 40 44
REMARK SMILES IDX 87 45 41 46 92 47 86 48 88 49 42 50 91 51 85 52 84 53 43 55
REMARK SMILES IDX 73 56 54 57 72 58 55 59 58 60 71 61 89 62 56 63 57 64 70 66
REMARK SMILES IDX 90 67 59 68 44 69 45 70 53 71 46 72 52 73 47 74 48 75 49 76
REMARK SMILES IDX 50 77 51 78 74 79 75 80 83 81 76 82 82 83 77 84 78 85 79 86
REMARK SMILES IDX 80 87 81 88 60 89 61 90 69 91 62 92 68 93 63 94 64 95 65 96
REMARK SMILES IDX 66 97 67 98
REMARK H PARENT 27 7 32 35 88 54 58 65
REMARK Flexibility Score: inf
ROOT
ATOM      1  C   UNL A   1      38.094  21.328  25.510  1.00  0.00     0.023 C 
ENDROOT
BRANCH   1   2
ATOM      2  C   UNL A   1      37.309  22.326  24.651  1.00  0.00     0.023 C 
BRANCH   2   3
ATOM      3  C   UNL A   1      36.516  23.381  25.423  1.00  0.00     0.116 C 
BRANCH   3   4
ATOM      4  N   UNL A   1      35.801  22.805  26.544  1.00  0.00    -0.356 N 
ATOM      5  C   UNL A   1      34.483  22.550  26.737  1.00  0.00     0.225 C 
ATOM      6  O   UNL A   1      34.156  22.114  27.844  1.00  0.00    -0.275 OA
ATOM      7  H   UNL A   1      36.376  22.555  27.303  1.00  0.00     0.163 HD
BRANCH   5   8
ATOM      8  C   UNL A   1      33.421  22.781  25.676  1.00  0.00     0.107 C 
ATOM      9  C   UNL A   1      32.234  21.800  25.718  1.00  0.00     0.057 C 
ATOM     10  C   UNL A   1      31.044  22.633  25.252  1.00  0.00     0.129 C 
ATOM     11  N   UNL A   1      31.358  23.961  25.754  1.00  0.00    -0.337 N 
ATOM     12  C   UNL A   1      32.799  24.179  25.731  1.00  0.00     0.134 C 
BRANCH   9  13
ATOM     13  C   UNL A   1      32.433  20.469  25.028  1.00  0.00    -0.000 A 
ATOM     14  C   UNL A   1      32.371  20.253  23.642  1.00  0.00     0.122 A 
ATOM     15  C   UNL A   1      32.551  18.969  23.112  1.00  0.00     0.047 A 
ATOM     16  C   UNL A   1      32.780  17.879  23.952  1.00  0.00     0.004 A 
ATOM     17  C   UNL A   1      32.667  19.349  25.856  1.00  0.00     0.008 A 
ATOM     18  C   UNL A   1      32.822  18.067  25.328  1.00  0.00     0.001 A 
BRANCH  14  19
ATOM     19  O   UNL A   1      31.938  21.209  22.763  1.00  0.00    -0.496 OA
ATOM     20  C   UNL A   1      31.754  20.732  21.433  1.00  0.00     0.278 C 
ENDBRANCH  14  19
ENDBRANCH   9  13
BRANCH  11  21
ATOM     21  C   UNL A   1      30.485  24.990  26.053  1.00  0.00     0.257 C 
ATOM     22  O   UNL A   1      29.566  24.845  26.853  1.00  0.00    -0.269 OA
BRANCH  21  23
ATOM     23  C   UNL A   1      30.698  26.263  25.398  1.00  0.00     0.085 A 
ATOM     24  C   UNL A   1      30.524  26.545  24.029  1.00  0.00     0.150 A 
ATOM     25  C   UNL A   1      31.199  27.443  25.918  1.00  0.00     0.079 A 
ATOM     26  N   UNL A   1      30.780  27.816  23.714  1.00  0.00    -0.176 NA
ATOM     27  N   UNL A   1      31.200  28.376  24.877  1.00  0.00    -0.240 N 
ATOM     28  C   UNL A   1      31.679  27.873  27.192  1.00  0.00     0.029 A 
ATOM     29  C   UNL A   1      31.584  29.705  25.076  1.00  0.00     0.113 A 
ATOM     30  C   UNL A   1      32.046  29.156  27.371  1.00  0.00     0.004 A 
ATOM     31  C   UNL A   1      31.989  30.120  26.287  1.00  0.00     0.020 A 
ENDBRANCH  21  23
ENDBRANCH  11  21
ENDBRANCH   5   8
ENDBRANCH   3   4
ENDBRANCH   2   3
ENDBRANCH   1   2
BRANCH   1  32
ATOM     32  C   UNL A   1      39.232  21.949  26.307  1.00  0.00     0.116 C 
BRANCH  32  33
ATOM     33  N   UNL A   1      40.464  21.175  26.210  1.00  0.00    -0.352 N 
ATOM     34  C   UNL A   1      41.763  21.651  26.218  1.00  0.00     0.251 C 
ATOM     35  H   UNL A   1      40.360  20.200  26.130  1.00  0.00     0.163 HD
ATOM     36  O   UNL A   1      42.676  20.975  25.778  1.00  0.00    -0.269 OA
BRANCH  34  37
ATOM     37  C   UNL A   1      42.007  22.997  26.767  1.00  0.00     0.039 A 
ATOM     38  C   UNL A   1      41.891  24.128  25.956  1.00  0.00     0.014 A 
ATOM     39  C   UNL A   1      42.301  23.113  28.124  1.00  0.00     0.014 A 
ATOM     40  C   UNL A   1      41.987  25.387  26.545  1.00  0.00     0.010 A 
ATOM     41  C   UNL A   1      42.283  24.352  28.722  1.00  0.00     0.010 A 
ATOM     42  C   UNL A   1      42.157  25.494  27.935  1.00  0.00    -0.014 A 
BRANCH  42  43
ATOM     43  C   UNL A   1      42.081  26.801  28.586  1.00  0.00     0.031 A 
ATOM     44  C   UNL A   1      43.217  27.724  28.299  1.00  0.00     0.074 A 
ATOM     45  C   UNL A   1      40.977  27.252  29.217  1.00  0.00     0.049 A 
ATOM     46  N   UNL A   1      44.117  28.155  29.120  1.00  0.00    -0.248 NA
ATOM     47  C   UNL A   1      43.446  28.129  26.902  1.00  0.00     0.031 C 
ATOM     48  C   UNL A   1      39.659  26.615  29.315  1.00  0.00     0.029 A 
ATOM     49  N   UNL A   1      40.767  28.461  29.806  1.00  0.00    -0.354 N 
ATOM     50  C   UNL A   1      44.905  29.049  28.401  1.00  0.00     0.074 A 
ATOM     51  C   UNL A   1      44.554  28.865  27.014  1.00  0.00     0.031 C 
ATOM     52  C   UNL A   1      38.740  27.530  29.695  1.00  0.00     0.029 A 
ATOM     53  C   UNL A   1      39.429  28.759  30.042  1.00  0.00     0.049 A 
ATOM     54  H   UNL A   1      41.499  29.073  30.044  1.00  0.00     0.167 HD
ATOM     55  C   UNL A   1      45.625  30.031  29.015  1.00  0.00     0.031 A 
ATOM     56  C   UNL A   1      38.921  29.942  30.467  1.00  0.00     0.031 A 
ATOM     57  C   UNL A   1      45.707  29.821  30.438  1.00  0.00     0.049 A 
ATOM     58  C   UNL A   1      40.029  30.683  31.114  1.00  0.00     0.074 A 
ATOM     59  C   UNL A   1      46.202  28.820  31.249  1.00  0.00     0.029 A 
ATOM     60  N   UNL A   1      44.858  30.563  31.227  1.00  0.00    -0.354 N 
ATOM     61  N   UNL A   1      40.613  30.284  32.210  1.00  0.00    -0.248 NA
ATOM     62  C   UNL A   1      40.789  31.628  30.312  1.00  0.00     0.031 C 
ATOM     63  C   UNL A   1      45.261  28.717  32.316  1.00  0.00     0.029 A 
ATOM     64  C   UNL A   1      44.290  29.706  32.133  1.00  0.00     0.049 A 
ATOM     65  H   UNL A   1      44.691  31.530  31.155  1.00  0.00     0.167 HD
ATOM     66  C   UNL A   1      41.958  30.570  32.021  1.00  0.00     0.074 A 
ATOM     67  C   UNL A   1      41.988  31.492  30.886  1.00  0.00     0.031 C 
ATOM     68  C   UNL A   1      42.931  29.823  32.622  1.00  0.00     0.031 A 
BRANCH  55  69
ATOM     69  C   UNL A   1      45.921  31.381  28.401  1.00  0.00    -0.014 A 
ATOM     70  C   UNL A   1      44.849  32.259  28.135  1.00  0.00     0.010 A 
ATOM     71  C   UNL A   1      47.165  31.701  27.820  1.00  0.00     0.010 A 
ATOM     72  C   UNL A   1      44.998  33.353  27.271  1.00  0.00     0.020 A 
ATOM     73  C   UNL A   1      47.336  32.814  26.994  1.00  0.00     0.020 A 
ATOM     74  C   UNL A   1      46.241  33.612  26.693  1.00  0.00     0.054 A 
BRANCH  74  75
ATOM     75  S   UNL A   1      46.398  34.955  25.489  1.00  0.00     0.124 S 
ATOM     76  O   UNL A   1      46.034  36.120  26.290  1.00  0.00    -0.237 OA
ATOM     77  O   UNL A   1      47.803  34.862  25.105  1.00  0.00    -0.237 OA
ATOM     78  O   UNL A   1      45.445  34.588  24.444  1.00  0.00    -0.744 OA
ENDBRANCH  74  75
ENDBRANCH  55  69
BRANCH  56  79
ATOM     79  C   UNL A   1      37.637  30.578  30.087  1.00  0.00    -0.014 A 
ATOM     80  C   UNL A   1      36.819  31.194  31.051  1.00  0.00     0.010 A 
ATOM     81  C   UNL A   1      37.355  30.833  28.728  1.00  0.00     0.010 A 
ATOM     82  C   UNL A   1      35.802  32.087  30.672  1.00  0.00     0.020 A 
ATOM     83  C   UNL A   1      36.339  31.716  28.343  1.00  0.00     0.020 A 
ATOM     84  C   UNL A   1      35.584  32.361  29.320  1.00  0.00     0.054 A 
BRANCH  84  85
ATOM     85  S   UNL A   1      34.402  33.659  28.849  1.00  0.00     0.124 S 
ATOM     86  O   UNL A   1      33.757  33.970  30.121  1.00  0.00    -0.237 OA
ATOM     87  O   UNL A   1      35.271  34.701  28.310  1.00  0.00    -0.237 OA
ATOM     88  O   UNL A   1      33.544  33.003  27.862  1.00  0.00    -0.744 OA
ENDBRANCH  84  85
ENDBRANCH  56  79
BRANCH  68  89
ATOM     89  C   UNL A   1      42.532  28.866  33.723  1.00  0.00    -0.014 A 
ATOM     90  C   UNL A   1      41.904  27.624  33.499  1.00  0.00     0.010 A 
ATOM     91  C   UNL A   1      42.952  29.174  35.029  1.00  0.00     0.010 A 
ATOM     92  C   UNL A   1      41.679  26.731  34.560  1.00  0.00     0.020 A 
ATOM     93  C   UNL A   1      42.749  28.283  36.085  1.00  0.00     0.020 A 
ATOM     94  C   UNL A   1      42.104  27.069  35.848  1.00  0.00     0.054 A 
BRANCH  94  95
ATOM     95  S   UNL A   1      41.855  25.895  37.210  1.00  0.00     0.124 S 
ATOM     96  O   UNL A   1      42.124  24.608  36.573  1.00  0.00    -0.237 OA
ATOM     97  O   UNL A   1      42.840  26.327  38.198  1.00  0.00    -0.237 OA
ATOM     98  O   UNL A   1      40.462  26.110  37.603  1.00  0.00    -0.744 OA
ENDBRANCH  94  95
ENDBRANCH  68  89
ENDBRANCH  42  43
ENDBRANCH  34  37
ENDBRANCH  32  33
ENDBRANCH   1  32
TORSDOF 18
ENDMDL
MODEL 3
REMARK VINA RESULT:     -12.6      1.382      4.133
REMARK SMILES COc1ccccc1[C@@H]1CN(C(=O)c2cnn3ccccc23)C[C@H]1C(=O)NCCCCNC(=O)c1ccc(-c2c3nc(c(-c4ccc(S(=O)(=O)[O-])cc4)c4ccc([nH]4)c(-c4ccc(S(=O)(=O)[O-])cc4)c4nc(c(-c5ccc(S(=O)(=O)[O-])cc5)c5ccc2[nH]5)C=C4)C=C3)cc1
REMARK SMILES IDX 30 1 29 2 28 3 27 4 25 5 26 6 24 8 9 9 10 10 11 11 23 12
REMARK SMILES IDX 8 13 3 14 4 15 5 16 7 17 6 18 2 19 1 20 12 21 13 22 14 23
REMARK SMILES IDX 15 24 22 25 16 26 17 27 21 28 18 29 20 30 19 31 31 32 32 33
REMARK SMILES IDX 33 34 34 36 35 37 36 38 94 39 37 40 93 41 38 42 39 43 40 44
REMARK SMILES IDX 87 45 41 46 92 47 86 48 88 49 42 50 91 51 85 52 84 53 43 55
REMARK SMILES IDX 73 56 54 57 72 58 55 59 58 60 71 61 89 62 56 63 57 64 70 66
REMARK SMILES IDX 90 67 59 68 44 69 45 70 53 71 46 72 52 73 47 74 48 75 49 76
REMARK SMILES IDX 50 77 51 78 74 79 75 80 83 81 76 82 82 83 77 84 78 85 79 86
REMARK SMILES IDX 80 87 81 88 60 89 61 90 69 91 62 92 68 93 63 94 64 95 65 96
REMARK SMILES IDX 66 97 67 98
REMARK H PARENT 27 7 32 35 88 54 58 65
REMARK Flexibility Score: inf
ROOT
ATOM      1  C   UNL A   1      38.599  23.077  25.864  1.00  0.00     0.023 C 
ENDROOT
BRANCH   1   2
ATOM      2  C   UNL A   1      37.444  23.856  26.503  1.00  0.00     0.023 C 
BRANCH   2   3
ATOM      3  C   UNL A   1      36.068  23.631  25.873  1.00  0.00     0.116 C 
BRANCH   3   4
ATOM      4  N   UNL A   1      36.143  23.559  24.429  1.00  0.00    -0.356 N 
ATOM      5  C   UNL A   1      35.258  23.112  23.502  1.00  0.00     0.225 C 
ATOM      6  O   UNL A   1      35.638  23.106  22.327  1.00  0.00    -0.275 OA
ATOM      7  H   UNL A   1      36.989  23.892  24.051  1.00  0.00     0.163 HD
BRANCH   5   8
ATOM      8  C   UNL A   1      33.862  22.625  23.844  1.00  0.00     0.107 C 
ATOM      9  C   UNL A   1      33.782  21.672  25.052  1.00  0.00     0.057 C 
ATOM     10  C   UNL A   1      32.431  21.987  25.688  1.00  0.00     0.129 C 
ATOM     11  N   UNL A   1      32.272  23.409  25.428  1.00  0.00    -0.337 N 
ATOM     12  C   UNL A   1      32.878  23.757  24.150  1.00  0.00     0.134 C 
BRANCH   9  13
ATOM     13  C   UNL A   1      34.073  20.213  24.782  1.00  0.00    -0.000 A 
ATOM     14  C   UNL A   1      35.321  19.590  24.935  1.00  0.00     0.122 A 
ATOM     15  C   UNL A   1      35.481  18.231  24.634  1.00  0.00     0.047 A 
ATOM     16  C   UNL A   1      34.407  17.476  24.163  1.00  0.00     0.004 A 
ATOM     17  C   UNL A   1      33.002  19.426  24.304  1.00  0.00     0.008 A 
ATOM     18  C   UNL A   1      33.169  18.079  23.983  1.00  0.00     0.001 A 
BRANCH  14  19
ATOM     19  O   UNL A   1      36.473  20.289  25.178  1.00  0.00    -0.496 OA
ATOM     20  C   UNL A   1      37.642  19.691  24.625  1.00  0.00     0.278 C 
ENDBRANCH  14  19
ENDBRANCH   9  13
BRANCH  11  21
ATOM     21  C   UNL A   1      31.517  24.326  26.135  1.00  0.00     0.257 C 
ATOM     22  O   UNL A   1      31.078  24.077  27.254  1.00  0.00    -0.269 OA
BRANCH  21  23
ATOM     23  C   UNL A   1      31.269  25.611  25.516  1.00  0.00     0.085 A 
ATOM     24  C   UNL A   1      30.199  25.941  24.661  1.00  0.00     0.150 A 
ATOM     25  C   UNL A   1      32.044  26.756  25.533  1.00  0.00     0.079 A 
ATOM     26  N   UNL A   1      30.219  27.211  24.255  1.00  0.00    -0.176 NA
ATOM     27  N   UNL A   1      31.360  27.721  24.788  1.00  0.00    -0.240 N 
ATOM     28  C   UNL A   1      33.299  27.130  26.104  1.00  0.00     0.029 A 
ATOM     29  C   UNL A   1      31.833  29.028  24.658  1.00  0.00     0.113 A 
ATOM     30  C   UNL A   1      33.745  28.393  25.972  1.00  0.00     0.004 A 
ATOM     31  C   UNL A   1      32.990  29.392  25.236  1.00  0.00     0.020 A 
ENDBRANCH  21  23
ENDBRANCH  11  21
ENDBRANCH   5   8
ENDBRANCH   3   4
ENDBRANCH   2   3
ENDBRANCH   1   2
BRANCH   1  32
ATOM     32  C   UNL A   1      39.579  22.480  26.863  1.00  0.00     0.116 C 
BRANCH  32  33
ATOM     33  N   UNL A   1      40.819  22.043  26.233  1.00  0.00    -0.352 N 
ATOM     34  C   UNL A   1      41.879  22.830  25.819  1.00  0.00     0.251 C 
ATOM     35  H   UNL A   1      40.913  21.075  26.083  1.00  0.00     0.163 HD
ATOM     36  O   UNL A   1      42.679  22.415  25.000  1.00  0.00    -0.269 OA
BRANCH  34  37
ATOM     37  C   UNL A   1      42.006  24.182  26.392  1.00  0.00     0.039 A 
ATOM     38  C   UNL A   1      41.490  25.292  25.721  1.00  0.00     0.014 A 
ATOM     39  C   UNL A   1      42.605  24.314  27.643  1.00  0.00     0.014 A 
ATOM     40  C   UNL A   1      41.502  26.528  26.362  1.00  0.00     0.010 A 
ATOM     41  C   UNL A   1      42.515  25.509  28.319  1.00  0.00     0.010 A 
ATOM     42  C   UNL A   1      41.993  26.628  27.674  1.00  0.00    -0.014 A 
BRANCH  42  43
ATOM     43  C   UNL A   1      41.849  27.876  28.420  1.00  0.00     0.031 A 
ATOM     44  C   UNL A   1      42.929  28.880  28.200  1.00  0.00     0.074 A 
ATOM     45  C   UNL A   1      40.725  28.217  29.085  1.00  0.00     0.049 A 
ATOM     46  N   UNL A   1      43.809  29.298  29.048  1.00  0.00    -0.248 NA
ATOM     47  C   UNL A   1      43.127  29.399  26.836  1.00  0.00     0.031 C 
ATOM     48  C   UNL A   1      39.445  27.501  29.139  1.00  0.00     0.029 A 
ATOM     49  N   UNL A   1      40.452  29.366  29.763  1.00  0.00    -0.354 N 
ATOM     50  C   UNL A   1      44.543  30.286  28.395  1.00  0.00     0.074 A 
ATOM     51  C   UNL A   1      44.193  30.186  27.000  1.00  0.00     0.031 C 
ATOM     52  C   UNL A   1      38.479  28.334  29.587  1.00  0.00     0.029 A 
ATOM     53  C   UNL A   1      39.102  29.570  30.024  1.00  0.00     0.049 A 
ATOM     54  H   UNL A   1      41.151  29.998  30.044  1.00  0.00     0.167 HD
ATOM     55  C   UNL A   1      45.211  31.258  29.079  1.00  0.00     0.031 A 
ATOM     56  C   UNL A   1      38.531  30.688  30.536  1.00  0.00     0.031 A 
ATOM     57  C   UNL A   1      45.313  30.948  30.483  1.00  0.00     0.049 A 
ATOM     58  C   UNL A   1      39.601  31.440  31.234  1.00  0.00     0.074 A 
ATOM     59  C   UNL A   1      45.869  29.920  31.216  1.00  0.00     0.029 A 
ATOM     60  N   UNL A   1      44.430  31.581  31.326  1.00  0.00    -0.354 N 
ATOM     61  N   UNL A   1      40.213  30.994  32.295  1.00  0.00    -0.248 NA
ATOM     62  C   UNL A   1      40.302  32.482  30.503  1.00  0.00     0.031 C 
ATOM     63  C   UNL A   1      44.941  29.685  32.274  1.00  0.00     0.029 A 
ATOM     64  C   UNL A   1      43.916  30.629  32.167  1.00  0.00     0.049 A 
ATOM     65  H   UNL A   1      44.209  32.541  31.326  1.00  0.00     0.167 HD
ATOM     66  C   UNL A   1      41.538  31.368  32.126  1.00  0.00     0.074 A 
ATOM     67  C   UNL A   1      41.511  32.371  31.062  1.00  0.00     0.031 C 
ATOM     68  C   UNL A   1      42.556  30.634  32.667  1.00  0.00     0.031 A 
BRANCH  55  69
ATOM     69  C   UNL A   1      45.428  32.664  28.566  1.00  0.00    -0.014 A 
ATOM     70  C   UNL A   1      46.728  33.211  28.607  1.00  0.00     0.010 A 
ATOM     71  C   UNL A   1      44.369  33.558  28.310  1.00  0.00     0.010 A 
ATOM     72  C   UNL A   1      46.944  34.591  28.478  1.00  0.00     0.020 A 
ATOM     73  C   UNL A   1      44.577  34.928  28.136  1.00  0.00     0.020 A 
ATOM     74  C   UNL A   1      45.860  35.442  28.259  1.00  0.00     0.054 A 
BRANCH  74  75
ATOM     75  S   UNL A   1      46.132  37.231  28.211  1.00  0.00     0.124 S 
ATOM     76  O   UNL A   1      47.518  37.336  28.655  1.00  0.00    -0.237 OA
ATOM     77  O   UNL A   1      45.889  37.542  26.806  1.00  0.00    -0.237 OA
ATOM     78  O   UNL A   1      45.133  37.752  29.141  1.00  0.00    -0.744 OA
ENDBRANCH  74  75
ENDBRANCH  55  69
BRANCH  56  79
ATOM     79  C   UNL A   1      37.211  31.278  30.207  1.00  0.00    -0.014 A 
ATOM     80  C   UNL A   1      36.470  31.980  31.174  1.00  0.00     0.010 A 
ATOM     81  C   UNL A   1      36.813  31.398  28.859  1.00  0.00     0.010 A 
ATOM     82  C   UNL A   1      35.412  32.827  30.799  1.00  0.00     0.020 A 
ATOM     83  C   UNL A   1      35.756  32.235  28.479  1.00  0.00     0.020 A 
ATOM     84  C   UNL A   1      35.078  32.967  29.450  1.00  0.00     0.054 A 
BRANCH  84  85
ATOM     85  S   UNL A   1      33.843  34.208  28.958  1.00  0.00     0.124 S 
ATOM     86  O   UNL A   1      34.673  35.264  28.385  1.00  0.00    -0.237 OA
ATOM     87  O   UNL A   1      33.013  33.473  28.009  1.00  0.00    -0.237 OA
ATOM     88  O   UNL A   1      33.181  34.553  30.216  1.00  0.00    -0.744 OA
ENDBRANCH  84  85
ENDBRANCH  56  79
BRANCH  68  89
ATOM     89  C   UNL A   1      42.217  29.577  33.695  1.00  0.00    -0.014 A 
ATOM     90  C   UNL A   1      41.687  28.311  33.379  1.00  0.00     0.010 A 
ATOM     91  C   UNL A   1      42.599  29.827  35.025  1.00  0.00     0.010 A 
ATOM     92  C   UNL A   1      41.518  27.333  34.373  1.00  0.00     0.020 A 
ATOM     93  C   UNL A   1      42.452  28.853  36.015  1.00  0.00     0.020 A 
ATOM     94  C   UNL A   1      41.903  27.614  35.688  1.00  0.00     0.054 A 
BRANCH  94  95
ATOM     95  S   UNL A   1      41.727  26.335  36.964  1.00  0.00     0.124 S 
ATOM     96  O   UNL A   1      40.412  26.630  37.530  1.00  0.00    -0.237 OA
ATOM     97  O   UNL A   1      41.818  25.095  36.199  1.00  0.00    -0.237 OA
ATOM     98  O   UNL A   1      42.855  26.582  37.862  1.00  0.00    -0.744 OA
ENDBRANCH  94  95
ENDBRANCH  68  89
ENDBRANCH  42  43
ENDBRANCH  34  37
ENDBRANCH  32  33
ENDBRANCH   1  32
TORSDOF 18
ENDMDL
