MODEL 1
REMARK VINA RESULT:      -9.6      0.000      0.000
REMARK SMILES CC(C)(C(=O)NCCCCNC(=O)c1ccc(-c2c3nc(c(-c4ccc(S(=O)(=O)[O-])cc4)c4ccc([nH]4)c(-c4ccc(S(=O)(=O)[O-])cc4)c4nc(c(-c5ccc(S(=O)(=O)[O-])cc5)c5ccc2[nH]5)C=C4)C=C3)cc1)c1ccc(NS(=O)(=O)c2c(F)cc(F)cc2F)cc1
REMARK SMILES IDX 8 1 7 2 6 3 4 4 5 5 2 7 1 8 3 9 74 10 75 11 92 12 76 13
REMARK SMILES IDX 91 14 77 15 78 16 79 18 80 19 81 20 82 21 83 22 89 23 84 24
REMARK SMILES IDX 85 25 88 26 90 27 86 28 87 29 9 30 10 31 11 32 12 33 13 35
REMARK SMILES IDX 14 36 15 37 73 38 16 39 72 40 17 41 18 42 19 43 66 44 20 45
REMARK SMILES IDX 71 46 65 47 67 48 21 49 70 50 64 51 63 52 22 54 52 55 33 56
REMARK SMILES IDX 51 57 34 58 37 59 50 60 68 61 35 62 36 63 49 65 69 66 38 67
REMARK SMILES IDX 23 68 24 69 32 70 25 71 31 72 26 73 27 74 28 75 29 76 30 77
REMARK SMILES IDX 53 78 54 79 62 80 55 81 61 82 56 83 57 84 58 85 59 86 60 87
REMARK SMILES IDX 39 88 40 89 48 90 41 91 47 92 42 93 43 94 44 95 45 96 46 97
REMARK H PARENT 6 6 78 17 11 34 67 53 37 64
REMARK Flexibility Score: inf
ROOT
ATOM      1  C   UNL A   1      35.297  32.254  31.252  1.00  0.00     0.023 C 
ENDROOT
BRANCH   1   2
ATOM      2  C   UNL A   1      35.875  33.002  32.455  1.00  0.00     0.116 C 
BRANCH   2   3
ATOM      3  N   UNL A   1      37.195  33.521  32.164  1.00  0.00    -0.355 N 
ATOM      4  C   UNL A   1      38.238  33.902  32.947  1.00  0.00     0.230 C 
ATOM      5  O   UNL A   1      39.130  34.504  32.338  1.00  0.00    -0.274 OA
ATOM      6  H   UNL A   1      37.373  33.617  31.200  1.00  0.00     0.163 HD
BRANCH   4   7
ATOM      7  C   UNL A   1      38.326  33.616  34.490  1.00  0.00     0.068 C 
ATOM      8  C   UNL A   1      39.113  34.766  35.151  1.00  0.00     0.026 C 
ATOM      9  C   UNL A   1      36.924  33.508  35.122  1.00  0.00     0.026 C 
BRANCH   7  10
ATOM     10  C   UNL A   1      39.018  32.240  34.742  1.00  0.00    -0.033 A 
ATOM     11  C   UNL A   1      39.903  32.007  35.807  1.00  0.00     0.007 A 
ATOM     12  C   UNL A   1      38.767  31.162  33.874  1.00  0.00     0.007 A 
ATOM     13  C   UNL A   1      40.599  30.797  35.924  1.00  0.00     0.027 A 
ATOM     14  C   UNL A   1      39.500  29.976  33.961  1.00  0.00     0.027 A 
ATOM     15  C   UNL A   1      40.483  29.824  34.937  1.00  0.00     0.049 A 
BRANCH  15  16
ATOM     16  N   UNL A   1      41.316  28.671  34.837  1.00  0.00    -0.279 N 
ATOM     17  H   UNL A   1      41.559  28.361  33.935  1.00  0.00     0.180 HD
BRANCH  16  18
ATOM     18  S   UNL A   1      41.911  27.804  36.142  1.00  0.00     0.267 S 
ATOM     19  O   UNL A   1      42.961  28.617  36.728  1.00  0.00    -0.201 OA
ATOM     20  O   UNL A   1      40.760  27.402  36.923  1.00  0.00    -0.201 OA
BRANCH  18  21
ATOM     21  C   UNL A   1      42.639  26.337  35.517  1.00  0.00     0.159 A 
ATOM     22  C   UNL A   1      42.289  25.087  36.011  1.00  0.00     0.149 A 
ATOM     23  C   UNL A   1      43.506  26.424  34.432  1.00  0.00     0.149 A 
ATOM     24  F   UNL A   1      41.509  24.959  37.092  1.00  0.00    -0.205 F 
ATOM     25  C   UNL A   1      42.735  23.927  35.379  1.00  0.00     0.080 A 
ATOM     26  C   UNL A   1      43.974  25.276  33.802  1.00  0.00     0.080 A 
ATOM     27  F   UNL A   1      43.921  27.607  33.962  1.00  0.00    -0.205 F 
ATOM     28  C   UNL A   1      43.566  24.035  34.271  1.00  0.00     0.129 A 
ATOM     29  F   UNL A   1      43.983  22.928  33.645  1.00  0.00    -0.207 F 
ENDBRANCH  18  21
ENDBRANCH  16  18
ENDBRANCH  15  16
ENDBRANCH   7  10
ENDBRANCH   4   7
ENDBRANCH   2   3
ENDBRANCH   1   2
BRANCH   1  30
ATOM     30  C   UNL A   1      34.525  33.127  30.257  1.00  0.00     0.023 C 
BRANCH  30  31
ATOM     31  C   UNL A   1      34.914  32.960  28.791  1.00  0.00     0.116 C 
BRANCH  31  32
ATOM     32  N   UNL A   1      34.103  31.980  28.086  1.00  0.00    -0.352 N 
ATOM     33  C   UNL A   1      34.425  30.694  27.722  1.00  0.00     0.251 C 
ATOM     34  H   UNL A   1      33.199  32.277  27.835  1.00  0.00     0.163 HD
ATOM     35  O   UNL A   1      33.638  30.035  27.050  1.00  0.00    -0.269 OA
BRANCH  33  36
ATOM     36  C   UNL A   1      35.736  30.129  28.106  1.00  0.00     0.039 A 
ATOM     37  C   UNL A   1      36.802  30.247  27.210  1.00  0.00     0.014 A 
ATOM     38  C   UNL A   1      35.918  29.506  29.343  1.00  0.00     0.014 A 
ATOM     39  C   UNL A   1      38.072  29.806  27.585  1.00  0.00     0.010 A 
ATOM     40  C   UNL A   1      37.195  29.115  29.737  1.00  0.00     0.010 A 
ATOM     41  C   UNL A   1      38.284  29.270  28.866  1.00  0.00    -0.014 A 
BRANCH  41  42
ATOM     42  C   UNL A   1      39.642  28.885  29.321  1.00  0.00     0.031 A 
ATOM     43  C   UNL A   1      40.486  29.859  30.092  1.00  0.00     0.074 A 
ATOM     44  C   UNL A   1      40.142  27.683  28.974  1.00  0.00     0.049 A 
ATOM     45  N   UNL A   1      41.723  29.735  30.499  1.00  0.00    -0.248 NA
ATOM     46  C   UNL A   1      39.868  31.153  30.427  1.00  0.00     0.031 C 
ATOM     47  C   UNL A   1      39.438  26.666  28.188  1.00  0.00     0.029 A 
ATOM     48  N   UNL A   1      41.367  27.119  29.226  1.00  0.00    -0.354 N 
ATOM     49  C   UNL A   1      42.041  30.938  31.117  1.00  0.00     0.074 A 
ATOM     50  C   UNL A   1      40.876  31.791  31.004  1.00  0.00     0.031 C 
ATOM     51  C   UNL A   1      40.239  25.598  28.036  1.00  0.00     0.029 A 
ATOM     52  C   UNL A   1      41.518  25.865  28.685  1.00  0.00     0.049 A 
ATOM     53  H   UNL A   1      42.072  27.571  29.744  1.00  0.00     0.167 HD
ATOM     54  C   UNL A   1      43.191  31.296  31.735  1.00  0.00     0.031 A 
ATOM     55  C   UNL A   1      42.569  25.024  28.704  1.00  0.00     0.031 A 
ATOM     56  C   UNL A   1      44.341  30.444  31.863  1.00  0.00     0.049 A 
ATOM     57  C   UNL A   1      43.825  25.433  29.421  1.00  0.00     0.074 A 
ATOM     58  C   UNL A   1      45.537  30.701  32.513  1.00  0.00     0.029 A 
ATOM     59  N   UNL A   1      44.438  29.165  31.338  1.00  0.00    -0.354 N 
ATOM     60  N   UNL A   1      44.089  26.558  30.040  1.00  0.00    -0.248 NA
ATOM     61  C   UNL A   1      44.920  24.452  29.452  1.00  0.00     0.031 C 
ATOM     62  C   UNL A   1      46.366  29.584  32.357  1.00  0.00     0.029 A 
ATOM     63  C   UNL A   1      45.674  28.621  31.641  1.00  0.00     0.049 A 
ATOM     64  H   UNL A   1      43.732  28.710  30.825  1.00  0.00     0.167 HD
ATOM     65  C   UNL A   1      45.373  26.415  30.550  1.00  0.00     0.074 A 
ATOM     66  C   UNL A   1      45.828  25.091  30.177  1.00  0.00     0.031 C 
ATOM     67  C   UNL A   1      46.109  27.302  31.263  1.00  0.00     0.031 A 
BRANCH  54  68
ATOM     68  C   UNL A   1      43.253  32.683  32.316  1.00  0.00    -0.014 A 
ATOM     69  C   UNL A   1      43.886  33.728  31.620  1.00  0.00     0.010 A 
ATOM     70  C   UNL A   1      42.662  32.947  33.565  1.00  0.00     0.010 A 
ATOM     71  C   UNL A   1      43.970  35.003  32.185  1.00  0.00     0.020 A 
ATOM     72  C   UNL A   1      42.726  34.226  34.123  1.00  0.00     0.020 A 
ATOM     73  C   UNL A   1      43.398  35.241  33.438  1.00  0.00     0.054 A 
BRANCH  73  74
ATOM     74  S   UNL A   1      43.521  36.904  34.154  1.00  0.00     0.124 S 
ATOM     75  O   UNL A   1      43.584  37.739  32.958  1.00  0.00    -0.237 OA
ATOM     76  O   UNL A   1      42.290  37.014  34.932  1.00  0.00    -0.237 OA
ATOM     77  O   UNL A   1      44.749  36.849  34.943  1.00  0.00    -0.744 OA
ENDBRANCH  73  74
ENDBRANCH  54  68
BRANCH  55  78
ATOM     78  C   UNL A   1      42.468  23.700  28.038  1.00  0.00    -0.014 A 
ATOM     79  C   UNL A   1      43.173  23.450  26.848  1.00  0.00     0.010 A 
ATOM     80  C   UNL A   1      41.688  22.675  28.602  1.00  0.00     0.010 A 
ATOM     81  C   UNL A   1      43.095  22.200  26.229  1.00  0.00     0.020 A 
ATOM     82  C   UNL A   1      41.621  21.418  27.996  1.00  0.00     0.020 A 
ATOM     83  C   UNL A   1      42.319  21.192  26.807  1.00  0.00     0.054 A 
BRANCH  83  84
ATOM     84  S   UNL A   1      42.279  19.554  26.027  1.00  0.00     0.124 S 
ATOM     85  O   UNL A   1      43.177  19.738  24.891  1.00  0.00    -0.237 OA
ATOM     86  O   UNL A   1      42.773  18.681  27.090  1.00  0.00    -0.237 OA
ATOM     87  O   UNL A   1      40.869  19.373  25.691  1.00  0.00    -0.744 OA
ENDBRANCH  83  84
ENDBRANCH  55  78
BRANCH  67  88
ATOM     88  C   UNL A   1      47.475  26.859  31.710  1.00  0.00    -0.014 A 
ATOM     89  C   UNL A   1      47.654  26.195  32.934  1.00  0.00     0.010 A 
ATOM     90  C   UNL A   1      48.582  27.069  30.869  1.00  0.00     0.010 A 
ATOM     91  C   UNL A   1      48.926  25.766  33.323  1.00  0.00     0.020 A 
ATOM     92  C   UNL A   1      49.851  26.625  31.246  1.00  0.00     0.020 A 
ATOM     93  C   UNL A   1      50.018  25.987  32.477  1.00  0.00     0.054 A 
BRANCH  93  94
ATOM     94  S   UNL A   1      51.653  25.381  32.977  1.00  0.00     0.124 S 
ATOM     95  O   UNL A   1      52.123  24.735  31.755  1.00  0.00    -0.237 OA
ATOM     96  O   UNL A   1      52.354  26.607  33.349  1.00  0.00    -0.237 OA
ATOM     97  O   UNL A   1      51.361  24.478  34.088  1.00  0.00    -0.744 OA
ENDBRANCH  93  94
ENDBRANCH  67  88
ENDBRANCH  41  42
ENDBRANCH  33  36
ENDBRANCH  31  32
ENDBRANCH  30  31
ENDBRANCH   1  30
TORSDOF 18
ENDMDL
MODEL 2
REMARK VINA RESULT:      -8.9      5.493      8.511
REMARK SMILES CC(C)(C(=O)NCCCCNC(=O)c1ccc(-c2c3nc(c(-c4ccc(S(=O)(=O)[O-])cc4)c4ccc([nH]4)c(-c4ccc(S(=O)(=O)[O-])cc4)c4nc(c(-c5ccc(S(=O)(=O)[O-])cc5)c5ccc2[nH]5)C=C4)C=C3)cc1)c1ccc(NS(=O)(=O)c2c(F)cc(F)cc2F)cc1
REMARK SMILES IDX 8 1 7 2 6 3 4 4 5 5 2 7 1 8 3 9 74 10 75 11 92 12 76 13
REMARK SMILES IDX 91 14 77 15 78 16 79 18 80 19 81 20 82 21 83 22 89 23 84 24
REMARK SMILES IDX 85 25 88 26 90 27 86 28 87 29 9 30 10 31 11 32 12 33 13 35
REMARK SMILES IDX 14 36 15 37 73 38 16 39 72 40 17 41 18 42 19 43 66 44 20 45
REMARK SMILES IDX 71 46 65 47 67 48 21 49 70 50 64 51 63 52 22 54 52 55 33 56
REMARK SMILES IDX 51 57 34 58 37 59 50 60 68 61 35 62 36 63 49 65 69 66 38 67
REMARK SMILES IDX 23 68 24 69 32 70 25 71 31 72 26 73 27 74 28 75 29 76 30 77
REMARK SMILES IDX 53 78 54 79 62 80 55 81 61 82 56 83 57 84 58 85 59 86 60 87
REMARK SMILES IDX 39 88 40 89 48 90 41 91 47 92 42 93 43 94 44 95 45 96 46 97
REMARK H PARENT 6 6 78 17 11 34 67 53 37 64
REMARK Flexibility Score: inf
ROOT
ATOM      1  C   UNL A   1      34.667  29.262  27.328  1.00  0.00     0.023 C 
ENDROOT
BRANCH   1   2
ATOM      2  C   UNL A   1      34.232  28.858  25.919  1.00  0.00     0.116 C 
BRANCH   2   3
ATOM      3  N   UNL A   1      32.811  29.062  25.731  1.00  0.00    -0.355 N 
ATOM      4  C   UNL A   1      31.977  28.884  24.672  1.00  0.00     0.230 C 
ATOM      5  O   UNL A   1      30.854  29.379  24.828  1.00  0.00    -0.274 OA
ATOM      6  H   UNL A   1      32.355  29.397  26.536  1.00  0.00     0.163 HD
BRANCH   4   7
ATOM      7  C   UNL A   1      32.381  28.126  23.357  1.00  0.00     0.068 C 
ATOM      8  C   UNL A   1      31.184  28.170  22.385  1.00  0.00     0.026 C 
ATOM      9  C   UNL A   1      33.617  28.767  22.695  1.00  0.00     0.026 C 
BRANCH   7  10
ATOM     10  C   UNL A   1      32.786  26.656  23.688  1.00  0.00    -0.033 A 
ATOM     11  C   UNL A   1      33.714  25.923  22.930  1.00  0.00     0.007 A 
ATOM     12  C   UNL A   1      32.206  26.003  24.791  1.00  0.00     0.007 A 
ATOM     13  C   UNL A   1      33.954  24.567  23.187  1.00  0.00     0.027 A 
ATOM     14  C   UNL A   1      32.405  24.639  25.013  1.00  0.00     0.027 A 
ATOM     15  C   UNL A   1      33.216  23.896  24.156  1.00  0.00     0.049 A 
BRANCH  15  16
ATOM     16  N   UNL A   1      33.212  22.481  24.333  1.00  0.00    -0.279 N 
ATOM     17  H   UNL A   1      32.417  21.985  24.031  1.00  0.00     0.180 HD
BRANCH  16  18
ATOM     18  S   UNL A   1      34.462  21.599  25.018  1.00  0.00     0.267 S 
ATOM     19  O   UNL A   1      35.642  21.875  24.221  1.00  0.00    -0.201 OA
ATOM     20  O   UNL A   1      34.438  21.893  26.437  1.00  0.00    -0.201 OA
BRANCH  18  21
ATOM     21  C   UNL A   1      34.069  19.899  24.845  1.00  0.00     0.159 A 
ATOM     22  C   UNL A   1      32.754  19.466  24.745  1.00  0.00     0.149 A 
ATOM     23  C   UNL A   1      35.103  18.980  24.700  1.00  0.00     0.149 A 
ATOM     24  F   UNL A   1      31.727  20.304  24.940  1.00  0.00    -0.205 F 
ATOM     25  C   UNL A   1      32.469  18.140  24.422  1.00  0.00     0.080 A 
ATOM     26  C   UNL A   1      34.835  17.650  24.395  1.00  0.00     0.080 A 
ATOM     27  F   UNL A   1      36.385  19.340  24.851  1.00  0.00    -0.205 F 
ATOM     28  C   UNL A   1      33.517  17.246  24.238  1.00  0.00     0.129 A 
ATOM     29  F   UNL A   1      33.254  15.976  23.907  1.00  0.00    -0.207 F 
ENDBRANCH  18  21
ENDBRANCH  16  18
ENDBRANCH  15  16
ENDBRANCH   7  10
ENDBRANCH   4   7
ENDBRANCH   2   3
ENDBRANCH   1   2
BRANCH   1  30
ATOM     30  C   UNL A   1      34.509  30.751  27.653  1.00  0.00     0.023 C 
BRANCH  30  31
ATOM     31  C   UNL A   1      35.679  31.394  28.393  1.00  0.00     0.116 C 
BRANCH  31  32
ATOM     32  N   UNL A   1      35.551  31.332  29.841  1.00  0.00    -0.352 N 
ATOM     33  C   UNL A   1      36.419  30.797  30.762  1.00  0.00     0.251 C 
ATOM     34  H   UNL A   1      34.729  31.726  30.212  1.00  0.00     0.163 HD
ATOM     35  O   UNL A   1      36.102  30.758  31.947  1.00  0.00    -0.269 OA
BRANCH  33  36
ATOM     36  C   UNL A   1      37.710  30.235  30.314  1.00  0.00     0.039 A 
ATOM     37  C   UNL A   1      38.002  30.239  28.948  1.00  0.00     0.014 A 
ATOM     38  C   UNL A   1      38.633  29.727  31.232  1.00  0.00     0.014 A 
ATOM     39  C   UNL A   1      39.252  29.801  28.506  1.00  0.00     0.010 A 
ATOM     40  C   UNL A   1      39.898  29.340  30.796  1.00  0.00     0.010 A 
ATOM     41  C   UNL A   1      40.221  29.382  29.432  1.00  0.00    -0.014 A 
BRANCH  41  42
ATOM     42  C   UNL A   1      41.587  29.005  28.994  1.00  0.00     0.031 A 
ATOM     43  C   UNL A   1      42.673  30.041  28.929  1.00  0.00     0.074 A 
ATOM     44  C   UNL A   1      41.828  27.745  28.583  1.00  0.00     0.049 A 
ATOM     45  N   UNL A   1      43.901  29.920  28.492  1.00  0.00    -0.248 NA
ATOM     46  C   UNL A   1      42.328  31.395  29.389  1.00  0.00     0.031 C 
ATOM     47  C   UNL A   1      40.844  26.658  28.557  1.00  0.00     0.029 A 
ATOM     48  N   UNL A   1      42.973  27.167  28.096  1.00  0.00    -0.354 N 
ATOM     49  C   UNL A   1      44.468  31.183  28.603  1.00  0.00     0.074 A 
ATOM     50  C   UNL A   1      43.440  32.064  29.119  1.00  0.00     0.031 C 
ATOM     51  C   UNL A   1      41.434  25.545  28.092  1.00  0.00     0.029 A 
ATOM     52  C   UNL A   1      42.824  25.844  27.761  1.00  0.00     0.049 A 
ATOM     53  H   UNL A   1      43.822  27.656  27.996  1.00  0.00     0.167 HD
ATOM     54  C   UNL A   1      45.732  31.574  28.316  1.00  0.00     0.031 A 
ATOM     55  C   UNL A   1      43.704  24.967  27.242  1.00  0.00     0.031 A 
ATOM     56  C   UNL A   1      46.758  30.698  27.820  1.00  0.00     0.049 A 
ATOM     57  C   UNL A   1      45.109  25.417  26.957  1.00  0.00     0.074 A 
ATOM     58  C   UNL A   1      48.083  30.989  27.543  1.00  0.00     0.029 A 
ATOM     59  N   UNL A   1      46.576  29.353  27.534  1.00  0.00    -0.354 N 
ATOM     60  N   UNL A   1      45.639  26.605  27.114  1.00  0.00    -0.248 NA
ATOM     61  C   UNL A   1      46.038  24.402  26.439  1.00  0.00     0.031 C 
ATOM     62  C   UNL A   1      48.696  29.826  27.065  1.00  0.00     0.029 A 
ATOM     63  C   UNL A   1      47.762  28.803  27.077  1.00  0.00     0.049 A 
ATOM     64  H   UNL A   1      45.730  28.862  27.640  1.00  0.00     0.167 HD
ATOM     65  C   UNL A   1      46.968  26.479  26.730  1.00  0.00     0.074 A 
ATOM     66  C   UNL A   1      47.164  25.096  26.346  1.00  0.00     0.031 C 
ATOM     67  C   UNL A   1      47.939  27.425  26.700  1.00  0.00     0.031 A 
BRANCH  54  68
ATOM     68  C   UNL A   1      46.066  33.025  28.532  1.00  0.00    -0.014 A 
ATOM     69  C   UNL A   1      45.881  33.967  27.505  1.00  0.00     0.010 A 
ATOM     70  C   UNL A   1      46.559  33.453  29.778  1.00  0.00     0.010 A 
ATOM     71  C   UNL A   1      46.229  35.305  27.703  1.00  0.00     0.020 A 
ATOM     72  C   UNL A   1      46.888  34.795  29.987  1.00  0.00     0.020 A 
ATOM     73  C   UNL A   1      46.741  35.709  28.940  1.00  0.00     0.054 A 
BRANCH  73  74
ATOM     74  S   UNL A   1      47.188  37.451  29.176  1.00  0.00     0.124 S 
ATOM     75  O   UNL A   1      46.467  37.780  30.403  1.00  0.00    -0.237 OA
ATOM     76  O   UNL A   1      48.642  37.400  29.298  1.00  0.00    -0.237 OA
ATOM     77  O   UNL A   1      46.690  38.101  27.966  1.00  0.00    -0.744 OA
ENDBRANCH  73  74
ENDBRANCH  54  68
BRANCH  55  78
ATOM     78  C   UNL A   1      43.282  23.568  26.975  1.00  0.00    -0.014 A 
ATOM     79  C   UNL A   1      43.078  22.675  28.041  1.00  0.00     0.010 A 
ATOM     80  C   UNL A   1      43.056  23.130  25.658  1.00  0.00     0.010 A 
ATOM     81  C   UNL A   1      42.663  21.363  27.795  1.00  0.00     0.020 A 
ATOM     82  C   UNL A   1      42.623  21.825  25.409  1.00  0.00     0.020 A 
ATOM     83  C   UNL A   1      42.438  20.947  26.480  1.00  0.00     0.054 A 
BRANCH  83  84
ATOM     84  S   UNL A   1      41.837  19.261  26.181  1.00  0.00     0.124 S 
ATOM     85  O   UNL A   1      42.662  18.841  25.053  1.00  0.00    -0.237 OA
ATOM     86  O   UNL A   1      42.112  18.593  27.451  1.00  0.00    -0.237 OA
ATOM     87  O   UNL A   1      40.419  19.455  25.886  1.00  0.00    -0.744 OA
ENDBRANCH  83  84
ENDBRANCH  55  78
BRANCH  67  88
ATOM     88  C   UNL A   1      49.308  26.989  26.259  1.00  0.00    -0.014 A 
ATOM     89  C   UNL A   1      49.708  27.110  24.918  1.00  0.00     0.010 A 
ATOM     90  C   UNL A   1      50.221  26.500  27.211  1.00  0.00     0.010 A 
ATOM     91  C   UNL A   1      50.994  26.727  24.529  1.00  0.00     0.020 A 
ATOM     92  C   UNL A   1      51.513  26.133  26.829  1.00  0.00     0.020 A 
ATOM     93  C   UNL A   1      51.888  26.237  25.487  1.00  0.00     0.054 A 
BRANCH  93  94
ATOM     94  S   UNL A   1      53.568  25.788  24.973  1.00  0.00     0.124 S 
ATOM     95  O   UNL A   1      53.494  25.944  23.523  1.00  0.00    -0.237 OA
ATOM     96  O   UNL A   1      54.395  26.770  25.669  1.00  0.00    -0.237 OA
ATOM     97  O   UNL A   1      53.717  24.413  25.446  1.00  0.00    -0.744 OA
ENDBRANCH  93  94
ENDBRANCH  67  88
ENDBRANCH  41  42
ENDBRANCH  33  36
ENDBRANCH  31  32
ENDBRANCH  30  31
ENDBRANCH   1  30
TORSDOF 18
ENDMDL
MODEL 3
REMARK VINA RESULT:      -8.8      5.001     12.099
REMARK SMILES CC(C)(C(=O)NCCCCNC(=O)c1ccc(-c2c3nc(c(-c4ccc(S(=O)(=O)[O-])cc4)c4ccc([nH]4)c(-c4ccc(S(=O)(=O)[O-])cc4)c4nc(c(-c5ccc(S(=O)(=O)[O-])cc5)c5ccc2[nH]5)C=C4)C=C3)cc1)c1ccc(NS(=O)(=O)c2c(F)cc(F)cc2F)cc1
REMARK SMILES IDX 8 1 7 2 6 3 4 4 5 5 2 7 1 8 3 9 74 10 75 11 92 12 76 13
REMARK SMILES IDX 91 14 77 15 78 16 79 18 80 19 81 20 82 21 83 22 89 23 84 24
REMARK SMILES IDX 85 25 88 26 90 27 86 28 87 29 9 30 10 31 11 32 12 33 13 35
REMARK SMILES IDX 14 36 15 37 73 38 16 39 72 40 17 41 18 42 19 43 66 44 20 45
REMARK SMILES IDX 71 46 65 47 67 48 21 49 70 50 64 51 63 52 22 54 52 55 33 56
REMARK SMILES IDX 51 57 34 58 37 59 50 60 68 61 35 62 36 63 49 65 69 66 38 67
REMARK SMILES IDX 23 68 24 69 32 70 25 71 31 72 26 73 27 74 28 75 29 76 30 77
REMARK SMILES IDX 53 78 54 79 62 80 55 81 61 82 56 83 57 84 58 85 59 86 60 87
REMARK SMILES IDX 39 88 40 89 48 90 41 91 47 92 42 93 43 94 44 95 45 96 46 97
REMARK H PARENT 6 6 78 17 11 34 67 53 37 64
REMARK Flexibility Score: inf
ROOT
ATOM      1  C   UNL A   1      46.045  24.260  27.457  1.00  0.00     0.023 C 
ENDROOT
BRANCH   1   2
ATOM      2  C   UNL A   1      44.942  23.218  27.646  1.00  0.00     0.116 C 
BRANCH   2   3
ATOM      3  N   UNL A   1      44.205  23.007  26.417  1.00  0.00    -0.355 N 
ATOM      4  C   UNL A   1      42.995  22.451  26.142  1.00  0.00     0.230 C 
ATOM      5  O   UNL A   1      42.797  22.251  24.937  1.00  0.00    -0.274 OA
ATOM      6  H   UNL A   1      44.675  23.336  25.618  1.00  0.00     0.163 HD
BRANCH   4   7
ATOM      7  C   UNL A   1      41.930  22.083  27.237  1.00  0.00     0.068 C 
ATOM      8  C   UNL A   1      42.057  20.578  27.550  1.00  0.00     0.026 C 
ATOM      9  C   UNL A   1      42.139  22.906  28.523  1.00  0.00     0.026 C 
BRANCH   7  10
ATOM     10  C   UNL A   1      40.497  22.435  26.729  1.00  0.00    -0.033 A 
ATOM     11  C   UNL A   1      39.922  23.709  26.868  1.00  0.00     0.007 A 
ATOM     12  C   UNL A   1      39.715  21.448  26.103  1.00  0.00     0.007 A 
ATOM     13  C   UNL A   1      38.589  23.949  26.512  1.00  0.00     0.027 A 
ATOM     14  C   UNL A   1      38.370  21.673  25.799  1.00  0.00     0.027 A 
ATOM     15  C   UNL A   1      37.779  22.902  26.083  1.00  0.00     0.049 A 
BRANCH  15  16
ATOM     16  N   UNL A   1      36.364  22.987  25.925  1.00  0.00    -0.279 N 
ATOM     17  H   UNL A   1      35.823  23.142  26.733  1.00  0.00     0.180 HD
BRANCH  16  18
ATOM     18  S   UNL A   1      35.554  22.841  24.465  1.00  0.00     0.267 S 
ATOM     19  O   UNL A   1      34.775  24.056  24.307  1.00  0.00    -0.201 OA
ATOM     20  O   UNL A   1      36.550  22.464  23.483  1.00  0.00    -0.201 OA
BRANCH  18  21
ATOM     21  C   UNL A   1      34.443  21.492  24.606  1.00  0.00     0.159 A 
ATOM     22  C   UNL A   1      33.072  21.667  24.481  1.00  0.00     0.149 A 
ATOM     23  C   UNL A   1      34.959  20.207  24.740  1.00  0.00     0.149 A 
ATOM     24  F   UNL A   1      32.529  22.890  24.412  1.00  0.00    -0.205 F 
ATOM     25  C   UNL A   1      32.222  20.564  24.408  1.00  0.00     0.080 A 
ATOM     26  C   UNL A   1      34.122  19.097  24.689  1.00  0.00     0.080 A 
ATOM     27  F   UNL A   1      36.268  19.994  24.927  1.00  0.00    -0.205 F 
ATOM     28  C   UNL A   1      32.760  19.286  24.502  1.00  0.00     0.129 A 
ATOM     29  F   UNL A   1      31.955  18.221  24.413  1.00  0.00    -0.207 F 
ENDBRANCH  18  21
ENDBRANCH  16  18
ENDBRANCH  15  16
ENDBRANCH   7  10
ENDBRANCH   4   7
ENDBRANCH   2   3
ENDBRANCH   1   2
BRANCH   1  30
ATOM     30  C   UNL A   1      45.591  25.716  27.601  1.00  0.00     0.023 C 
BRANCH  30  31
ATOM     31  C   UNL A   1      45.481  26.507  26.300  1.00  0.00     0.116 C 
BRANCH  31  32
ATOM     32  N   UNL A   1      44.370  26.087  25.460  1.00  0.00    -0.352 N 
ATOM     33  C   UNL A   1      43.026  26.322  25.624  1.00  0.00     0.251 C 
ATOM     34  H   UNL A   1      44.614  25.561  24.665  1.00  0.00     0.163 HD
ATOM     35  O   UNL A   1      42.219  25.812  24.853  1.00  0.00    -0.269 OA
BRANCH  33  36
ATOM     36  C   UNL A   1      42.559  27.154  26.753  1.00  0.00     0.039 A 
ATOM     37  C   UNL A   1      41.890  26.530  27.809  1.00  0.00     0.014 A 
ATOM     38  C   UNL A   1      42.795  28.530  26.781  1.00  0.00     0.014 A 
ATOM     39  C   UNL A   1      41.521  27.276  28.931  1.00  0.00     0.010 A 
ATOM     40  C   UNL A   1      42.474  29.263  27.921  1.00  0.00     0.010 A 
ATOM     41  C   UNL A   1      41.843  28.641  29.009  1.00  0.00    -0.014 A 
BRANCH  41  42
ATOM     42  C   UNL A   1      41.548  29.430  30.229  1.00  0.00     0.031 A 
ATOM     43  C   UNL A   1      42.398  29.270  31.457  1.00  0.00     0.074 A 
ATOM     44  C   UNL A   1      40.468  30.234  30.254  1.00  0.00     0.049 A 
ATOM     45  N   UNL A   1      42.245  29.808  32.640  1.00  0.00    -0.248 NA
ATOM     46  C   UNL A   1      43.557  28.368  31.350  1.00  0.00     0.031 C 
ATOM     47  C   UNL A   1      39.538  30.441  29.140  1.00  0.00     0.029 A 
ATOM     48  N   UNL A   1      39.961  31.019  31.259  1.00  0.00    -0.354 N 
ATOM     49  C   UNL A   1      43.271  29.294  33.424  1.00  0.00     0.074 A 
ATOM     50  C   UNL A   1      44.022  28.378  32.591  1.00  0.00     0.031 C 
ATOM     51  C   UNL A   1      38.584  31.306  29.521  1.00  0.00     0.029 A 
ATOM     52  C   UNL A   1      38.816  31.692  30.909  1.00  0.00     0.049 A 
ATOM     53  H   UNL A   1      40.379  31.092  32.148  1.00  0.00     0.167 HD
ATOM     54  C   UNL A   1      43.571  29.570  34.716  1.00  0.00     0.031 A 
ATOM     55  C   UNL A   1      38.036  32.525  31.624  1.00  0.00     0.031 A 
ATOM     56  C   UNL A   1      42.837  30.492  35.539  1.00  0.00     0.049 A 
ATOM     57  C   UNL A   1      38.405  32.837  33.047  1.00  0.00     0.074 A 
ATOM     58  C   UNL A   1      43.091  30.874  36.845  1.00  0.00     0.029 A 
ATOM     59  N   UNL A   1      41.708  31.186  35.132  1.00  0.00    -0.354 N 
ATOM     60  N   UNL A   1      39.407  32.377  33.756  1.00  0.00    -0.248 NA
ATOM     61  C   UNL A   1      37.545  33.792  33.760  1.00  0.00     0.031 C 
ATOM     62  C   UNL A   1      42.099  31.780  37.236  1.00  0.00     0.029 A 
ATOM     63  C   UNL A   1      41.248  31.988  36.163  1.00  0.00     0.049 A 
ATOM     64  H   UNL A   1      41.294  31.119  34.242  1.00  0.00     0.167 HD
ATOM     65  C   UNL A   1      39.309  32.999  34.994  1.00  0.00     0.074 A 
ATOM     66  C   UNL A   1      38.158  33.877  34.933  1.00  0.00     0.031 C 
ATOM     67  C   UNL A   1      40.102  32.856  36.084  1.00  0.00     0.031 A 
BRANCH  54  68
ATOM     68  C   UNL A   1      44.749  28.851  35.314  1.00  0.00    -0.014 A 
ATOM     69  C   UNL A   1      46.034  29.421  35.279  1.00  0.00     0.010 A 
ATOM     70  C   UNL A   1      44.568  27.599  35.928  1.00  0.00     0.010 A 
ATOM     71  C   UNL A   1      47.128  28.729  35.804  1.00  0.00     0.020 A 
ATOM     72  C   UNL A   1      45.657  26.913  36.473  1.00  0.00     0.020 A 
ATOM     73  C   UNL A   1      46.934  27.474  36.389  1.00  0.00     0.054 A 
BRANCH  73  74
ATOM     74  S   UNL A   1      48.369  26.591  37.063  1.00  0.00     0.124 S 
ATOM     75  O   UNL A   1      48.912  25.950  35.869  1.00  0.00    -0.237 OA
ATOM     76  O   UNL A   1      49.180  27.669  37.621  1.00  0.00    -0.237 OA
ATOM     77  O   UNL A   1      47.783  25.684  38.047  1.00  0.00    -0.744 OA
ENDBRANCH  73  74
ENDBRANCH  54  68
BRANCH  55  78
ATOM     78  C   UNL A   1      36.838  33.136  30.995  1.00  0.00    -0.014 A 
ATOM     79  C   UNL A   1      35.574  32.998  31.595  1.00  0.00     0.010 A 
ATOM     80  C   UNL A   1      36.958  33.882  29.808  1.00  0.00     0.010 A 
ATOM     81  C   UNL A   1      34.448  33.589  31.015  1.00  0.00     0.020 A 
ATOM     82  C   UNL A   1      35.837  34.489  29.235  1.00  0.00     0.020 A 
ATOM     83  C   UNL A   1      34.587  34.330  29.839  1.00  0.00     0.054 A 
BRANCH  83  84
ATOM     84  S   UNL A   1      33.126  35.145  29.134  1.00  0.00     0.124 S 
ATOM     85  O   UNL A   1      33.695  36.379  28.602  1.00  0.00    -0.237 OA
ATOM     86  O   UNL A   1      32.669  34.177  28.139  1.00  0.00    -0.237 OA
ATOM     87  O   UNL A   1      32.240  35.305  30.285  1.00  0.00    -0.744 OA
ENDBRANCH  83  84
ENDBRANCH  55  78
BRANCH  67  88
ATOM     88  C   UNL A   1      39.767  33.685  37.292  1.00  0.00    -0.014 A 
ATOM     89  C   UNL A   1      38.646  33.389  38.084  1.00  0.00     0.010 A 
ATOM     90  C   UNL A   1      40.616  34.743  37.663  1.00  0.00     0.010 A 
ATOM     91  C   UNL A   1      38.363  34.153  39.219  1.00  0.00     0.020 A 
ATOM     92  C   UNL A   1      40.346  35.497  38.808  1.00  0.00     0.020 A 
ATOM     93  C   UNL A   1      39.214  35.205  39.572  1.00  0.00     0.054 A 
BRANCH  93  94
ATOM     94  S   UNL A   1      38.858  36.156  41.075  1.00  0.00     0.124 S 
ATOM     95  O   UNL A   1      38.465  37.452  40.529  1.00  0.00    -0.237 OA
ATOM     96  O   UNL A   1      37.786  35.387  41.701  1.00  0.00    -0.237 OA
ATOM     97  O   UNL A   1      40.127  36.143  41.799  1.00  0.00    -0.744 OA
ENDBRANCH  93  94
ENDBRANCH  67  88
ENDBRANCH  41  42
ENDBRANCH  33  36
ENDBRANCH  31  32
ENDBRANCH  30  31
ENDBRANCH   1  30
TORSDOF 18
ENDMDL
