MODEL 1
REMARK VINA RESULT:     -12.5      0.000      0.000
REMARK SMILES Cc1c(Br)c(C(=O)NCCCCNC(=O)c2ccc(-c3c4nc(c(-c5ccc(S(=O)(=O)[O-])cc5)c5ccc([nH]5)c(-c5ccc(S(=O)(=O)[O-])cc5)c5nc(c(-c6ccc(S(=O)(=O)[O-])cc6)c6ccc3[nH]6)C=C5)C=C4)cc2)nn1-c1ccccc1
REMARK SMILES IDX 11 1 10 2 9 3 8 4 6 5 7 6 5 8 1 9 2 10 3 11 77 12 4 13 76 14
REMARK SMILES IDX 78 15 79 16 83 17 80 18 82 19 81 20 12 21 13 22 14 23 15 25
REMARK SMILES IDX 16 26 17 27 75 28 18 29 74 30 19 31 20 32 21 33 68 34 22 35
REMARK SMILES IDX 73 36 67 37 69 38 23 39 72 40 66 41 65 42 24 44 54 45 35 46
REMARK SMILES IDX 53 47 36 48 39 49 52 50 70 51 37 52 38 53 51 55 71 56 40 57
REMARK SMILES IDX 25 58 26 59 34 60 27 61 33 62 28 63 29 64 30 65 31 66 32 67
REMARK SMILES IDX 55 68 56 69 64 70 57 71 63 72 58 73 59 74 60 75 61 76 62 77
REMARK SMILES IDX 41 78 42 79 50 80 43 81 49 82 44 83 45 84 46 85 47 86 48 87
REMARK H PARENT 8 7 13 24 69 43 39 54
REMARK Flexibility Score: inf
ROOT
ATOM      1  C   UNL A   1      39.797  20.936  26.355  1.00  0.00     0.023 C 
ENDROOT
BRANCH   1   2
ATOM      2  C   UNL A   1      39.465  22.431  26.449  1.00  0.00     0.023 C 
BRANCH   2   3
ATOM      3  C   UNL A   1      38.010  22.819  26.164  1.00  0.00     0.116 C 
BRANCH   3   4
ATOM      4  N   UNL A   1      37.774  23.147  24.764  1.00  0.00    -0.351 N 
ATOM      5  C   UNL A   1      36.712  22.879  23.917  1.00  0.00     0.272 C 
ATOM      6  O   UNL A   1      36.843  23.246  22.746  1.00  0.00    -0.267 OA
ATOM      7  H   UNL A   1      38.505  23.654  24.342  1.00  0.00     0.163 HD
BRANCH   5   8
ATOM      8  C   UNL A   1      35.515  22.151  24.380  1.00  0.00     0.165 A 
ATOM      9  C   UNL A   1      32.011  21.495  25.419  1.00  0.00     0.068 C 
ATOM     10  C   UNL A   1      33.416  21.556  24.941  1.00  0.00     0.056 A 
ATOM     11  C   UNL A   1      34.213  22.645  24.649  1.00  0.00     0.072 A 
ATOM     12  N   UNL A   1      34.248  20.466  24.782  1.00  0.00    -0.236 N 
ATOM     13  Br  UNL A   1      33.661  24.440  24.631  1.00  0.00    -0.046 Br
ATOM     14  N   UNL A   1      35.538  20.842  24.676  1.00  0.00    -0.161 NA
BRANCH  12  15
ATOM     15  C   UNL A   1      33.951  19.089  24.627  1.00  0.00     0.065 A 
ATOM     16  C   UNL A   1      32.605  18.691  24.614  1.00  0.00     0.028 A 
ATOM     17  C   UNL A   1      34.966  18.126  24.619  1.00  0.00     0.028 A 
ATOM     18  C   UNL A   1      32.275  17.338  24.564  1.00  0.00     0.002 A 
ATOM     19  C   UNL A   1      34.626  16.770  24.600  1.00  0.00     0.002 A 
ATOM     20  C   UNL A   1      33.285  16.379  24.565  1.00  0.00     0.000 A 
ENDBRANCH  12  15
ENDBRANCH   5   8
ENDBRANCH   3   4
ENDBRANCH   2   3
ENDBRANCH   1   2
BRANCH   1  21
ATOM     21  C   UNL A   1      40.966  20.480  27.220  1.00  0.00     0.116 C 
BRANCH  21  22
ATOM     22  N   UNL A   1      42.178  20.196  26.453  1.00  0.00    -0.352 N 
ATOM     23  C   UNL A   1      43.046  21.104  25.882  1.00  0.00     0.251 C 
ATOM     24  H   UNL A   1      42.400  19.246  26.330  1.00  0.00     0.163 HD
ATOM     25  O   UNL A   1      43.773  20.759  24.948  1.00  0.00    -0.269 OA
BRANCH  23  26
ATOM     26  C   UNL A   1      43.101  22.486  26.394  1.00  0.00     0.039 A 
ATOM     27  C   UNL A   1      42.667  23.564  25.616  1.00  0.00     0.014 A 
ATOM     28  C   UNL A   1      43.599  22.702  27.680  1.00  0.00     0.014 A 
ATOM     29  C   UNL A   1      42.653  24.842  26.176  1.00  0.00     0.010 A 
ATOM     30  C   UNL A   1      43.484  23.941  28.269  1.00  0.00     0.010 A 
ATOM     31  C   UNL A   1      43.037  25.021  27.515  1.00  0.00    -0.014 A 
BRANCH  31  32
ATOM     32  C   UNL A   1      42.805  26.298  28.191  1.00  0.00     0.031 A 
ATOM     33  C   UNL A   1      43.890  27.296  27.968  1.00  0.00     0.074 A 
ATOM     34  C   UNL A   1      41.632  26.651  28.763  1.00  0.00     0.049 A 
ATOM     35  N   UNL A   1      44.756  27.720  28.826  1.00  0.00    -0.248 NA
ATOM     36  C   UNL A   1      44.151  27.750  26.590  1.00  0.00     0.031 C 
ATOM     37  C   UNL A   1      40.376  25.892  28.777  1.00  0.00     0.029 A 
ATOM     38  N   UNL A   1      41.273  27.824  29.358  1.00  0.00    -0.354 N 
ATOM     39  C   UNL A   1      45.510  28.683  28.162  1.00  0.00     0.074 A 
ATOM     40  C   UNL A   1      45.241  28.501  26.759  1.00  0.00     0.031 C 
ATOM     41  C   UNL A   1      39.355  26.709  29.124  1.00  0.00     0.029 A 
ATOM     42  C   UNL A   1      39.897  27.998  29.516  1.00  0.00     0.049 A 
ATOM     43  H   UNL A   1      41.932  28.495  29.652  1.00  0.00     0.167 HD
ATOM     44  C   UNL A   1      46.072  29.727  28.836  1.00  0.00     0.031 A 
ATOM     45  C   UNL A   1      39.249  29.125  29.912  1.00  0.00     0.031 A 
ATOM     46  C   UNL A   1      46.030  29.509  30.262  1.00  0.00     0.049 A 
ATOM     47  C   UNL A   1      40.244  29.975  30.606  1.00  0.00     0.074 A 
ATOM     48  C   UNL A   1      46.522  28.550  31.123  1.00  0.00     0.029 A 
ATOM     49  N   UNL A   1      45.038  30.171  30.947  1.00  0.00    -0.354 N 
ATOM     50  N   UNL A   1      40.789  29.655  31.745  1.00  0.00    -0.248 NA
ATOM     51  C   UNL A   1      40.964  30.967  29.827  1.00  0.00     0.031 C 
ATOM     52  C   UNL A   1      45.503  28.381  32.106  1.00  0.00     0.029 A 
ATOM     53  C   UNL A   1      44.485  29.302  31.847  1.00  0.00     0.049 A 
ATOM     54  H   UNL A   1      44.772  31.110  30.812  1.00  0.00     0.167 HD
ATOM     55  C   UNL A   1      42.115  30.035  31.616  1.00  0.00     0.074 A 
ATOM     56  C   UNL A   1      42.137  30.938  30.466  1.00  0.00     0.031 C 
ATOM     57  C   UNL A   1      43.103  29.358  32.274  1.00  0.00     0.031 A 
BRANCH  44  58
ATOM     58  C   UNL A   1      46.241  31.120  28.264  1.00  0.00    -0.014 A 
ATOM     59  C   UNL A   1      45.084  31.909  28.077  1.00  0.00     0.010 A 
ATOM     60  C   UNL A   1      47.423  31.572  27.644  1.00  0.00     0.010 A 
ATOM     61  C   UNL A   1      45.092  33.031  27.237  1.00  0.00     0.020 A 
ATOM     62  C   UNL A   1      47.452  32.715  26.841  1.00  0.00     0.020 A 
ATOM     63  C   UNL A   1      46.276  33.417  26.614  1.00  0.00     0.054 A 
BRANCH  63  64
ATOM     64  S   UNL A   1      46.257  34.815  25.467  1.00  0.00     0.124 S 
ATOM     65  O   UNL A   1      45.278  34.377  24.476  1.00  0.00    -0.237 OA
ATOM     66  O   UNL A   1      45.837  35.915  26.330  1.00  0.00    -0.237 OA
ATOM     67  O   UNL A   1      47.637  34.889  24.996  1.00  0.00    -0.744 OA
ENDBRANCH  63  64
ENDBRANCH  44  58
BRANCH  45  68
ATOM     68  C   UNL A   1      37.909  29.645  29.528  1.00  0.00    -0.014 A 
ATOM     69  C   UNL A   1      37.034  30.177  30.499  1.00  0.00     0.010 A 
ATOM     70  C   UNL A   1      37.612  29.904  28.176  1.00  0.00     0.010 A 
ATOM     71  C   UNL A   1      35.958  31.007  30.135  1.00  0.00     0.020 A 
ATOM     72  C   UNL A   1      36.536  30.724  27.805  1.00  0.00     0.020 A 
ATOM     73  C   UNL A   1      35.733  31.297  28.788  1.00  0.00     0.054 A 
BRANCH  73  74
ATOM     74  S   UNL A   1      34.478  32.536  28.336  1.00  0.00     0.124 S 
ATOM     75  O   UNL A   1      33.977  32.965  29.637  1.00  0.00    -0.237 OA
ATOM     76  O   UNL A   1      35.259  33.528  27.601  1.00  0.00    -0.237 OA
ATOM     77  O   UNL A   1      33.526  31.780  27.524  1.00  0.00    -0.744 OA
ENDBRANCH  73  74
ENDBRANCH  45  68
BRANCH  57  78
ATOM     78  C   UNL A   1      42.714  28.442  33.412  1.00  0.00    -0.014 A 
ATOM     79  C   UNL A   1      42.802  27.037  33.376  1.00  0.00     0.010 A 
ATOM     80  C   UNL A   1      42.353  29.059  34.623  1.00  0.00     0.010 A 
ATOM     81  C   UNL A   1      42.497  26.272  34.513  1.00  0.00     0.020 A 
ATOM     82  C   UNL A   1      42.071  28.306  35.762  1.00  0.00     0.020 A 
ATOM     83  C   UNL A   1      42.127  26.915  35.699  1.00  0.00     0.054 A 
BRANCH  83  84
ATOM     84  S   UNL A   1      41.743  25.930  37.173  1.00  0.00     0.124 S 
ATOM     85  O   UNL A   1      40.397  26.381  37.514  1.00  0.00    -0.237 OA
ATOM     86  O   UNL A   1      41.844  24.556  36.684  1.00  0.00    -0.237 OA
ATOM     87  O   UNL A   1      42.783  26.314  38.129  1.00  0.00    -0.744 OA
ENDBRANCH  83  84
ENDBRANCH  57  78
ENDBRANCH  31  32
ENDBRANCH  23  26
ENDBRANCH  21  22
ENDBRANCH   1  21
TORSDOF 15
ENDMDL
MODEL 2
REMARK VINA RESULT:     -12.5      1.728      3.112
REMARK SMILES Cc1c(Br)c(C(=O)NCCCCNC(=O)c2ccc(-c3c4nc(c(-c5ccc(S(=O)(=O)[O-])cc5)c5ccc([nH]5)c(-c5ccc(S(=O)(=O)[O-])cc5)c5nc(c(-c6ccc(S(=O)(=O)[O-])cc6)c6ccc3[nH]6)C=C5)C=C4)cc2)nn1-c1ccccc1
REMARK SMILES IDX 11 1 10 2 9 3 8 4 6 5 7 6 5 8 1 9 2 10 3 11 77 12 4 13 76 14
REMARK SMILES IDX 78 15 79 16 83 17 80 18 82 19 81 20 12 21 13 22 14 23 15 25
REMARK SMILES IDX 16 26 17 27 75 28 18 29 74 30 19 31 20 32 21 33 68 34 22 35
REMARK SMILES IDX 73 36 67 37 69 38 23 39 72 40 66 41 65 42 24 44 54 45 35 46
REMARK SMILES IDX 53 47 36 48 39 49 52 50 70 51 37 52 38 53 51 55 71 56 40 57
REMARK SMILES IDX 25 58 26 59 34 60 27 61 33 62 28 63 29 64 30 65 31 66 32 67
REMARK SMILES IDX 55 68 56 69 64 70 57 71 63 72 58 73 59 74 60 75 61 76 62 77
REMARK SMILES IDX 41 78 42 79 50 80 43 81 49 82 44 83 45 84 46 85 47 86 48 87
REMARK H PARENT 8 7 13 24 69 43 39 54
REMARK Flexibility Score: inf
ROOT
ATOM      1  C   UNL A   1      39.411  21.296  25.742  1.00  0.00     0.023 C 
ENDROOT
BRANCH   1   2
ATOM      2  C   UNL A   1      38.397  22.359  26.184  1.00  0.00     0.023 C 
BRANCH   2   3
ATOM      3  C   UNL A   1      37.023  22.304  25.508  1.00  0.00     0.116 C 
BRANCH   3   4
ATOM      4  N   UNL A   1      35.997  21.708  26.355  1.00  0.00    -0.351 N 
ATOM      5  C   UNL A   1      34.665  22.028  26.559  1.00  0.00     0.272 C 
ATOM      6  O   UNL A   1      34.068  21.356  27.404  1.00  0.00    -0.267 OA
ATOM      7  H   UNL A   1      36.309  20.935  26.878  1.00  0.00     0.163 HD
BRANCH   5   8
ATOM      8  C   UNL A   1      34.016  23.141  25.842  1.00  0.00     0.165 A 
ATOM      9  C   UNL A   1      31.924  24.953  23.365  1.00  0.00     0.068 C 
ATOM     10  C   UNL A   1      32.724  24.392  24.484  1.00  0.00     0.056 A 
ATOM     11  C   UNL A   1      33.170  23.103  24.704  1.00  0.00     0.072 A 
ATOM     12  N   UNL A   1      33.269  25.127  25.518  1.00  0.00    -0.236 N 
ATOM     13  Br  UNL A   1      32.737  21.597  23.670  1.00  0.00    -0.046 Br
ATOM     14  N   UNL A   1      34.211  24.426  26.178  1.00  0.00    -0.161 NA
BRANCH  12  15
ATOM     15  C   UNL A   1      32.932  26.409  26.020  1.00  0.00     0.065 A 
ATOM     16  C   UNL A   1      33.906  27.420  25.982  1.00  0.00     0.028 A 
ATOM     17  C   UNL A   1      31.710  26.638  26.660  1.00  0.00     0.028 A 
ATOM     18  C   UNL A   1      33.647  28.662  26.556  1.00  0.00     0.002 A 
ATOM     19  C   UNL A   1      31.471  27.878  27.261  1.00  0.00     0.002 A 
ATOM     20  C   UNL A   1      32.434  28.888  27.202  1.00  0.00     0.000 A 
ENDBRANCH  12  15
ENDBRANCH   5   8
ENDBRANCH   3   4
ENDBRANCH   2   3
ENDBRANCH   1   2
BRANCH   1  21
ATOM     21  C   UNL A   1      40.350  20.806  26.839  1.00  0.00     0.116 C 
BRANCH  21  22
ATOM     22  N   UNL A   1      41.652  20.373  26.335  1.00  0.00    -0.352 N 
ATOM     23  C   UNL A   1      42.716  21.166  25.956  1.00  0.00     0.251 C 
ATOM     24  H   UNL A   1      41.785  19.401  26.257  1.00  0.00     0.163 HD
ATOM     25  O   UNL A   1      43.574  20.722  25.190  1.00  0.00    -0.269 OA
BRANCH  23  26
ATOM     26  C   UNL A   1      42.823  22.543  26.474  1.00  0.00     0.039 A 
ATOM     27  C   UNL A   1      42.465  23.642  25.686  1.00  0.00     0.014 A 
ATOM     28  C   UNL A   1      43.293  22.733  27.774  1.00  0.00     0.014 A 
ATOM     29  C   UNL A   1      42.496  24.918  26.249  1.00  0.00     0.010 A 
ATOM     30  C   UNL A   1      43.219  23.975  28.363  1.00  0.00     0.010 A 
ATOM     31  C   UNL A   1      42.848  25.077  27.599  1.00  0.00    -0.014 A 
BRANCH  31  32
ATOM     32  C   UNL A   1      42.658  26.363  28.272  1.00  0.00     0.031 A 
ATOM     33  C   UNL A   1      43.766  27.330  28.029  1.00  0.00     0.074 A 
ATOM     34  C   UNL A   1      41.502  26.749  28.856  1.00  0.00     0.049 A 
ATOM     35  N   UNL A   1      44.654  27.737  28.873  1.00  0.00    -0.248 NA
ATOM     36  C   UNL A   1      44.021  27.771  26.645  1.00  0.00     0.031 C 
ATOM     37  C   UNL A   1      40.227  26.023  28.890  1.00  0.00     0.029 A 
ATOM     38  N   UNL A   1      41.182  27.934  29.450  1.00  0.00    -0.354 N 
ATOM     39  C   UNL A   1      45.424  28.676  28.195  1.00  0.00     0.074 A 
ATOM     40  C   UNL A   1      45.132  28.495  26.797  1.00  0.00     0.031 C 
ATOM     41  C   UNL A   1      39.233  26.868  29.246  1.00  0.00     0.029 A 
ATOM     42  C   UNL A   1      39.813  28.145  29.624  1.00  0.00     0.049 A 
ATOM     43  H   UNL A   1      41.861  28.589  29.732  1.00  0.00     0.167 HD
ATOM     44  C   UNL A   1      46.021  29.708  28.857  1.00  0.00     0.031 A 
ATOM     45  C   UNL A   1      39.200  29.290  30.023  1.00  0.00     0.031 A 
ATOM     46  C   UNL A   1      45.992  29.499  30.283  1.00  0.00     0.049 A 
ATOM     47  C   UNL A   1      40.225  30.117  30.700  1.00  0.00     0.074 A 
ATOM     48  C   UNL A   1      46.470  28.531  31.143  1.00  0.00     0.029 A 
ATOM     49  N   UNL A   1      45.027  30.190  30.977  1.00  0.00    -0.354 N 
ATOM     50  N   UNL A   1      40.776  29.788  31.833  1.00  0.00    -0.248 NA
ATOM     51  C   UNL A   1      40.961  31.086  29.906  1.00  0.00     0.031 C 
ATOM     52  C   UNL A   1      45.460  28.394  32.140  1.00  0.00     0.029 A 
ATOM     53  C   UNL A   1      44.463  29.340  31.889  1.00  0.00     0.049 A 
ATOM     54  H   UNL A   1      44.783  31.134  30.841  1.00  0.00     0.167 HD
ATOM     55  C   UNL A   1      42.110  30.134  31.685  1.00  0.00     0.074 A 
ATOM     56  C   UNL A   1      42.141  31.029  30.530  1.00  0.00     0.031 C 
ATOM     57  C   UNL A   1      43.088  29.434  32.334  1.00  0.00     0.031 A 
BRANCH  44  58
ATOM     58  C   UNL A   1      46.219  31.094  28.275  1.00  0.00    -0.014 A 
ATOM     59  C   UNL A   1      45.094  31.943  28.175  1.00  0.00     0.010 A 
ATOM     60  C   UNL A   1      47.373  31.487  27.568  1.00  0.00     0.010 A 
ATOM     61  C   UNL A   1      45.097  33.066  27.339  1.00  0.00     0.020 A 
ATOM     62  C   UNL A   1      47.401  32.631  26.767  1.00  0.00     0.020 A 
ATOM     63  C   UNL A   1      46.250  33.394  26.629  1.00  0.00     0.054 A 
BRANCH  63  64
ATOM     64  S   UNL A   1      46.217  34.797  25.488  1.00  0.00     0.124 S 
ATOM     65  O   UNL A   1      45.265  34.342  24.480  1.00  0.00    -0.237 OA
ATOM     66  O   UNL A   1      45.758  35.883  26.350  1.00  0.00    -0.237 OA
ATOM     67  O   UNL A   1      47.603  34.905  25.040  1.00  0.00    -0.744 OA
ENDBRANCH  63  64
ENDBRANCH  44  58
BRANCH  45  68
ATOM     68  C   UNL A   1      37.868  29.843  29.653  1.00  0.00    -0.014 A 
ATOM     69  C   UNL A   1      37.028  30.416  30.630  1.00  0.00     0.010 A 
ATOM     70  C   UNL A   1      37.555  30.088  28.302  1.00  0.00     0.010 A 
ATOM     71  C   UNL A   1      35.970  31.272  30.270  1.00  0.00     0.020 A 
ATOM     72  C   UNL A   1      36.498  30.933  27.936  1.00  0.00     0.020 A 
ATOM     73  C   UNL A   1      35.729  31.546  28.923  1.00  0.00     0.054 A 
BRANCH  73  74
ATOM     74  S   UNL A   1      34.503  32.814  28.471  1.00  0.00     0.124 S 
ATOM     75  O   UNL A   1      34.103  33.340  29.772  1.00  0.00    -0.237 OA
ATOM     76  O   UNL A   1      35.279  33.724  27.633  1.00  0.00    -0.237 OA
ATOM     77  O   UNL A   1      33.471  32.057  27.764  1.00  0.00    -0.744 OA
ENDBRANCH  73  74
ENDBRANCH  45  68
BRANCH  57  78
ATOM     78  C   UNL A   1      42.691  28.534  33.481  1.00  0.00    -0.014 A 
ATOM     79  C   UNL A   1      42.416  27.158  33.364  1.00  0.00     0.010 A 
ATOM     80  C   UNL A   1      42.717  29.103  34.768  1.00  0.00     0.010 A 
ATOM     81  C   UNL A   1      42.135  26.384  34.501  1.00  0.00     0.020 A 
ATOM     82  C   UNL A   1      42.462  28.336  35.903  1.00  0.00     0.020 A 
ATOM     83  C   UNL A   1      42.155  26.983  35.765  1.00  0.00     0.054 A 
BRANCH  83  84
ATOM     84  S   UNL A   1      41.805  25.983  37.238  1.00  0.00     0.124 S 
ATOM     85  O   UNL A   1      40.450  26.401  37.589  1.00  0.00    -0.237 OA
ATOM     86  O   UNL A   1      41.935  24.615  36.743  1.00  0.00    -0.237 OA
ATOM     87  O   UNL A   1      42.841  26.389  38.188  1.00  0.00    -0.744 OA
ENDBRANCH  83  84
ENDBRANCH  57  78
ENDBRANCH  31  32
ENDBRANCH  23  26
ENDBRANCH  21  22
ENDBRANCH   1  21
TORSDOF 15
ENDMDL
MODEL 3
REMARK VINA RESULT:     -12.4      2.390      4.164
REMARK SMILES Cc1c(Br)c(C(=O)NCCCCNC(=O)c2ccc(-c3c4nc(c(-c5ccc(S(=O)(=O)[O-])cc5)c5ccc([nH]5)c(-c5ccc(S(=O)(=O)[O-])cc5)c5nc(c(-c6ccc(S(=O)(=O)[O-])cc6)c6ccc3[nH]6)C=C5)C=C4)cc2)nn1-c1ccccc1
REMARK SMILES IDX 11 1 10 2 9 3 8 4 6 5 7 6 5 8 1 9 2 10 3 11 77 12 4 13 76 14
REMARK SMILES IDX 78 15 79 16 83 17 80 18 82 19 81 20 12 21 13 22 14 23 15 25
REMARK SMILES IDX 16 26 17 27 75 28 18 29 74 30 19 31 20 32 21 33 68 34 22 35
REMARK SMILES IDX 73 36 67 37 69 38 23 39 72 40 66 41 65 42 24 44 54 45 35 46
REMARK SMILES IDX 53 47 36 48 39 49 52 50 70 51 37 52 38 53 51 55 71 56 40 57
REMARK SMILES IDX 25 58 26 59 34 60 27 61 33 62 28 63 29 64 30 65 31 66 32 67
REMARK SMILES IDX 55 68 56 69 64 70 57 71 63 72 58 73 59 74 60 75 61 76 62 77
REMARK SMILES IDX 41 78 42 79 50 80 43 81 49 82 44 83 45 84 46 85 47 86 48 87
REMARK H PARENT 8 7 13 24 69 43 39 54
REMARK Flexibility Score: inf
ROOT
ATOM      1  C   UNL A   1      36.495  22.367  24.623  1.00  0.00     0.023 C 
ENDROOT
BRANCH   1   2
ATOM      2  C   UNL A   1      35.545  21.232  25.026  1.00  0.00     0.023 C 
BRANCH   2   3
ATOM      3  C   UNL A   1      34.793  21.420  26.348  1.00  0.00     0.116 C 
BRANCH   3   4
ATOM      4  N   UNL A   1      33.346  21.324  26.196  1.00  0.00    -0.351 N 
ATOM      5  C   UNL A   1      32.402  22.227  25.739  1.00  0.00     0.272 C 
ATOM      6  O   UNL A   1      31.226  21.859  25.792  1.00  0.00    -0.267 OA
ATOM      7  H   UNL A   1      32.971  20.456  26.469  1.00  0.00     0.163 HD
BRANCH   5   8
ATOM      8  C   UNL A   1      32.781  23.572  25.263  1.00  0.00     0.165 A 
ATOM      9  C   UNL A   1      33.615  26.349  22.944  1.00  0.00     0.068 C 
ATOM     10  C   UNL A   1      33.213  25.389  24.003  1.00  0.00     0.056 A 
ATOM     11  C   UNL A   1      32.994  24.026  23.937  1.00  0.00     0.072 A 
ATOM     12  N   UNL A   1      33.069  25.697  25.341  1.00  0.00    -0.236 N 
ATOM     13  Br  UNL A   1      32.997  22.986  22.374  1.00  0.00    -0.046 Br
ATOM     14  N   UNL A   1      33.041  24.586  26.102  1.00  0.00    -0.161 NA
BRANCH  12  15
ATOM     15  C   UNL A   1      32.860  26.941  25.987  1.00  0.00     0.065 A 
ATOM     16  C   UNL A   1      33.951  27.812  26.132  1.00  0.00     0.028 A 
ATOM     17  C   UNL A   1      31.634  27.249  26.587  1.00  0.00     0.028 A 
ATOM     18  C   UNL A   1      33.810  28.998  26.849  1.00  0.00     0.002 A 
ATOM     19  C   UNL A   1      31.509  28.426  27.330  1.00  0.00     0.002 A 
ATOM     20  C   UNL A   1      32.592  29.301  27.453  1.00  0.00     0.000 A 
ENDBRANCH  12  15
ENDBRANCH   5   8
ENDBRANCH   3   4
ENDBRANCH   2   3
ENDBRANCH   1   2
BRANCH   1  21
ATOM     21  C   UNL A   1      37.372  22.905  25.749  1.00  0.00     0.116 C 
BRANCH  21  22
ATOM     22  N   UNL A   1      38.415  21.970  26.167  1.00  0.00    -0.352 N 
ATOM     23  C   UNL A   1      39.717  22.261  26.518  1.00  0.00     0.251 C 
ATOM     24  H   UNL A   1      38.158  21.020  26.202  1.00  0.00     0.163 HD
ATOM     25  O   UNL A   1      40.584  21.386  26.456  1.00  0.00    -0.269 OA
BRANCH  23  26
ATOM     26  C   UNL A   1      40.066  23.621  26.971  1.00  0.00     0.039 A 
ATOM     27  C   UNL A   1      39.315  24.731  26.570  1.00  0.00     0.014 A 
ATOM     28  C   UNL A   1      41.168  23.784  27.810  1.00  0.00     0.014 A 
ATOM     29  C   UNL A   1      39.627  25.985  27.095  1.00  0.00     0.010 A 
ATOM     30  C   UNL A   1      41.408  24.998  28.413  1.00  0.00     0.010 A 
ATOM     31  C   UNL A   1      40.659  26.110  28.040  1.00  0.00    -0.014 A 
BRANCH  31  32
ATOM     32  C   UNL A   1      40.846  27.359  28.778  1.00  0.00     0.031 A 
ATOM     33  C   UNL A   1      41.928  28.221  28.224  1.00  0.00     0.074 A 
ATOM     34  C   UNL A   1      39.989  27.822  29.715  1.00  0.00     0.049 A 
ATOM     35  N   UNL A   1      43.079  28.475  28.751  1.00  0.00    -0.248 NA
ATOM     36  C   UNL A   1      41.785  28.727  26.847  1.00  0.00     0.031 C 
ATOM     37  C   UNL A   1      38.712  27.231  30.134  1.00  0.00     0.029 A 
ATOM     38  N   UNL A   1      40.016  28.990  30.418  1.00  0.00    -0.354 N 
ATOM     39  C   UNL A   1      43.703  29.374  27.892  1.00  0.00     0.074 A 
ATOM     40  C   UNL A   1      42.965  29.320  26.656  1.00  0.00     0.031 C 
ATOM     41  C   UNL A   1      37.989  28.148  30.817  1.00  0.00     0.029 A 
ATOM     42  C   UNL A   1      38.808  29.329  31.029  1.00  0.00     0.049 A 
ATOM     43  H   UNL A   1      40.823  29.550  30.487  1.00  0.00     0.167 HD
ATOM     44  C   UNL A   1      44.597  30.291  28.359  1.00  0.00     0.031 A 
ATOM     45  C   UNL A   1      38.493  30.501  31.640  1.00  0.00     0.031 A 
ATOM     46  C   UNL A   1      44.995  29.989  29.712  1.00  0.00     0.049 A 
ATOM     47  C   UNL A   1      39.771  31.170  31.978  1.00  0.00     0.074 A 
ATOM     48  C   UNL A   1      45.599  28.921  30.342  1.00  0.00     0.029 A 
ATOM     49  N   UNL A   1      44.387  30.727  30.701  1.00  0.00    -0.354 N 
ATOM     50  N   UNL A   1      40.608  30.709  32.863  1.00  0.00    -0.248 NA
ATOM     51  C   UNL A   1      40.329  32.109  31.021  1.00  0.00     0.031 C 
ATOM     52  C   UNL A   1      44.947  28.820  31.605  1.00  0.00     0.029 A 
ATOM     53  C   UNL A   1      44.042  29.879  31.718  1.00  0.00     0.049 A 
ATOM     54  H   UNL A   1      44.228  31.698  30.681  1.00  0.00     0.167 HD
ATOM     55  C   UNL A   1      41.858  30.924  32.305  1.00  0.00     0.074 A 
ATOM     56  C   UNL A   1      41.630  31.889  31.231  1.00  0.00     0.031 C 
ATOM     57  C   UNL A   1      42.900  30.084  32.583  1.00  0.00     0.031 A 
BRANCH  44  58
ATOM     58  C   UNL A   1      44.766  31.686  27.789  1.00  0.00    -0.014 A 
ATOM     59  C   UNL A   1      46.018  32.034  27.236  1.00  0.00     0.010 A 
ATOM     60  C   UNL A   1      43.864  32.742  28.030  1.00  0.00     0.010 A 
ATOM     61  C   UNL A   1      46.379  33.372  27.028  1.00  0.00     0.020 A 
ATOM     62  C   UNL A   1      44.197  34.075  27.782  1.00  0.00     0.020 A 
ATOM     63  C   UNL A   1      45.468  34.385  27.317  1.00  0.00     0.054 A 
BRANCH  63  64
ATOM     64  S   UNL A   1      45.974  36.110  27.124  1.00  0.00     0.124 S 
ATOM     65  O   UNL A   1      46.760  36.057  25.895  1.00  0.00    -0.237 OA
ATOM     66  O   UNL A   1      44.689  36.798  27.026  1.00  0.00    -0.237 OA
ATOM     67  O   UNL A   1      46.730  36.383  28.343  1.00  0.00    -0.744 OA
ENDBRANCH  63  64
ENDBRANCH  44  58
BRANCH  45  68
ATOM     68  C   UNL A   1      37.189  31.213  31.735  1.00  0.00    -0.014 A 
ATOM     69  C   UNL A   1      36.677  31.619  32.985  1.00  0.00     0.010 A 
ATOM     70  C   UNL A   1      36.600  31.765  30.581  1.00  0.00     0.010 A 
ATOM     71  C   UNL A   1      35.676  32.603  33.078  1.00  0.00     0.020 A 
ATOM     72  C   UNL A   1      35.596  32.741  30.666  1.00  0.00     0.020 A 
ATOM     73  C   UNL A   1      35.161  33.178  31.915  1.00  0.00     0.054 A 
BRANCH  73  74
ATOM     74  S   UNL A   1      34.027  34.596  32.043  1.00  0.00     0.124 S 
ATOM     75  O   UNL A   1      34.899  35.652  32.547  1.00  0.00    -0.237 OA
ATOM     76  O   UNL A   1      33.565  34.761  30.667  1.00  0.00    -0.237 OA
ATOM     77  O   UNL A   1      33.005  34.135  32.983  1.00  0.00    -0.744 OA
ENDBRANCH  73  74
ENDBRANCH  45  68
BRANCH  57  78
ATOM     78  C   UNL A   1      42.780  29.154  33.768  1.00  0.00    -0.014 A 
ATOM     79  C   UNL A   1      43.095  29.501  35.096  1.00  0.00     0.010 A 
ATOM     80  C   UNL A   1      42.201  27.895  33.527  1.00  0.00     0.010 A 
ATOM     81  C   UNL A   1      42.873  28.595  36.146  1.00  0.00     0.020 A 
ATOM     82  C   UNL A   1      41.955  27.000  34.566  1.00  0.00     0.020 A 
ATOM     83  C   UNL A   1      42.308  27.345  35.870  1.00  0.00     0.054 A 
BRANCH  83  84
ATOM     84  S   UNL A   1      42.008  26.177  37.225  1.00  0.00     0.124 S 
ATOM     85  O   UNL A   1      42.133  24.883  36.560  1.00  0.00    -0.237 OA
ATOM     86  O   UNL A   1      43.067  26.503  38.177  1.00  0.00    -0.237 OA
ATOM     87  O   UNL A   1      40.657  26.509  37.678  1.00  0.00    -0.744 OA
ENDBRANCH  83  84
ENDBRANCH  57  78
ENDBRANCH  31  32
ENDBRANCH  23  26
ENDBRANCH  21  22
ENDBRANCH   1  21
TORSDOF 15
ENDMDL
