MODEL 1
REMARK VINA RESULT:      -9.9      0.000      0.000
REMARK SMILES CCN(CC(=O)NC(C)C)C(=O)N[C@H]1C=C[C@H](C(=O)NCCCCNC(=O)c2ccc(-c3c4nc(c(-c5ccc(S(=O)(=O)[O-])cc5)c5ccc([nH]5)c(-c5ccc(S(=O)(=O)[O-])cc5)c5nc(c(-c6ccc(S(=O)(=O)[O-])cc6)c6ccc3[nH]6)C=C5)C=C4)cc2)C1
REMARK SMILES IDX 21 1 20 2 18 3 19 4 17 6 14 7 15 8 88 9 16 10 13 11 11 12
REMARK SMILES IDX 12 13 3 15 2 16 1 17 4 18 5 19 6 20 7 21 8 23 9 24 10 25
REMARK SMILES IDX 22 26 23 27 24 28 25 29 26 30 27 32 28 33 29 34 87 35 30 36
REMARK SMILES IDX 86 37 31 38 32 39 33 40 80 41 34 42 85 43 79 44 81 45 35 46
REMARK SMILES IDX 84 47 78 48 77 49 36 51 66 52 47 53 65 54 48 55 51 56 64 57
REMARK SMILES IDX 82 58 49 59 50 60 63 62 83 63 52 64 37 65 38 66 46 67 39 68
REMARK SMILES IDX 45 69 40 70 41 71 42 72 43 73 44 74 67 75 68 76 76 77 69 78
REMARK SMILES IDX 75 79 70 80 71 81 72 82 73 83 74 84 53 85 54 86 62 87 55 88
REMARK SMILES IDX 61 89 56 90 57 91 58 92 59 93 60 94
REMARK H PARENT 20 5 13 14 7 22 25 31 81 50 51 61
REMARK Flexibility Score: inf
ROOT
ATOM      1  C   UNL A   1      32.108  28.220  23.540  1.00  0.00     0.116 C 
ENDROOT
BRANCH   1   2
ATOM      2  N   UNL A   1      31.020  27.261  23.510  1.00  0.00    -0.356 N 
ATOM      3  C   UNL A   1      30.965  25.910  23.436  1.00  0.00     0.227 C 
ATOM      4  O   UNL A   1      29.827  25.419  23.442  1.00  0.00    -0.274 OA
ATOM      5  H   UNL A   1      30.131  27.683  23.553  1.00  0.00     0.163 HD
BRANCH   3   6
ATOM      6  C   UNL A   1      32.186  24.964  23.340  1.00  0.00     0.103 C 
ATOM      7  C   UNL A   1      32.747  24.547  25.631  1.00  0.00     0.107 C 
ATOM      8  C   UNL A   1      33.891  25.213  24.938  1.00  0.00    -0.006 C 
ATOM      9  C   UNL A   1      32.042  23.890  24.445  1.00  0.00     0.047 C 
ATOM     10  C   UNL A   1      33.571  25.451  23.659  1.00  0.00    -0.016 C 
BRANCH   7  11
ATOM     11  N   UNL A   1      33.224  23.642  26.636  1.00  0.00    -0.332 N 
ATOM     12  C   UNL A   1      34.066  22.597  26.680  1.00  0.00     0.318 C 
ATOM     13  O   UNL A   1      34.185  22.082  27.799  1.00  0.00    -0.249 OA
ATOM     14  H   UNL A   1      32.833  23.837  27.519  1.00  0.00     0.165 HD
BRANCH  12  15
ATOM     15  N   UNL A   1      34.762  22.113  25.601  1.00  0.00    -0.316 N 
BRANCH  15  16
ATOM     16  C   UNL A   1      36.069  22.736  25.344  1.00  0.00     0.118 C 
ATOM     17  C   UNL A   1      36.488  22.703  23.879  1.00  0.00     0.027 C 
ENDBRANCH  15  16
BRANCH  15  18
ATOM     18  C   UNL A   1      34.319  21.110  24.617  1.00  0.00     0.221 C 
BRANCH  18  19
ATOM     19  C   UNL A   1      33.056  20.295  24.985  1.00  0.00     0.239 C 
ATOM     20  O   UNL A   1      32.013  20.860  25.331  1.00  0.00    -0.273 OA
ATOM     21  N   UNL A   1      33.004  18.942  24.847  1.00  0.00    -0.352 N 
ATOM     22  H   UNL A   1      32.416  18.464  25.476  1.00  0.00     0.163 HD
BRANCH  21  23
ATOM     23  C   UNL A   1      33.713  18.121  23.883  1.00  0.00     0.075 C 
ATOM     24  C   UNL A   1      34.441  16.975  24.569  1.00  0.00     0.030 C 
ATOM     25  C   UNL A   1      32.712  17.609  22.851  1.00  0.00     0.030 C 
ENDBRANCH  21  23
ENDBRANCH  18  19
ENDBRANCH  15  18
ENDBRANCH  12  15
ENDBRANCH   7  11
ENDBRANCH   3   6
ENDBRANCH   1   2
BRANCH   1  26
ATOM     26  C   UNL A   1      32.358  28.742  24.954  1.00  0.00     0.023 C 
BRANCH  26  27
ATOM     27  C   UNL A   1      33.805  28.616  25.436  1.00  0.00     0.023 C 
BRANCH  27  28
ATOM     28  C   UNL A   1      33.997  28.580  26.951  1.00  0.00     0.116 C 
BRANCH  28  29
ATOM     29  N   UNL A   1      33.829  29.880  27.582  1.00  0.00    -0.352 N 
ATOM     30  C   UNL A   1      34.703  30.597  28.365  1.00  0.00     0.251 C 
ATOM     31  H   UNL A   1      32.958  30.312  27.426  1.00  0.00     0.163 HD
ATOM     32  O   UNL A   1      34.325  31.627  28.908  1.00  0.00    -0.269 OA
BRANCH  30  33
ATOM     33  C   UNL A   1      36.086  30.109  28.577  1.00  0.00     0.039 A 
ATOM     34  C   UNL A   1      36.988  30.174  27.512  1.00  0.00     0.014 A 
ATOM     35  C   UNL A   1      36.496  29.592  29.809  1.00  0.00     0.014 A 
ATOM     36  C   UNL A   1      38.315  29.782  27.705  1.00  0.00     0.010 A 
ATOM     37  C   UNL A   1      37.837  29.276  30.021  1.00  0.00     0.010 A 
ATOM     38  C   UNL A   1      38.762  29.368  28.971  1.00  0.00    -0.014 A 
BRANCH  38  39
ATOM     39  C   UNL A   1      40.197  29.049  29.203  1.00  0.00     0.031 A 
ATOM     40  C   UNL A   1      40.746  27.690  28.859  1.00  0.00     0.074 A 
ATOM     41  C   UNL A   1      41.002  29.982  29.752  1.00  0.00     0.049 A 
ATOM     42  N   UNL A   1      41.968  27.240  28.992  1.00  0.00    -0.248 NA
ATOM     43  C   UNL A   1      39.801  26.702  28.314  1.00  0.00     0.031 C 
ATOM     44  C   UNL A   1      40.581  31.319  30.181  1.00  0.00     0.029 A 
ATOM     45  N   UNL A   1      42.344  29.951  30.042  1.00  0.00    -0.354 N 
ATOM     46  C   UNL A   1      41.939  25.925  28.542  1.00  0.00     0.074 A 
ATOM     47  C   UNL A   1      40.566  25.627  28.197  1.00  0.00     0.031 C 
ATOM     48  C   UNL A   1      41.647  31.989  30.647  1.00  0.00     0.029 A 
ATOM     49  C   UNL A   1      42.817  31.121  30.590  1.00  0.00     0.049 A 
ATOM     50  H   UNL A   1      42.913  29.167  29.875  1.00  0.00     0.167 HD
ATOM     51  C   UNL A   1      42.966  25.052  28.398  1.00  0.00     0.031 A 
ATOM     52  C   UNL A   1      44.055  31.459  31.006  1.00  0.00     0.031 A 
ATOM     53  C   UNL A   1      44.332  25.346  28.745  1.00  0.00     0.049 A 
ATOM     54  C   UNL A   1      45.172  30.462  30.856  1.00  0.00     0.074 A 
ATOM     55  C   UNL A   1      45.446  24.536  28.613  1.00  0.00     0.029 A 
ATOM     56  N   UNL A   1      44.770  26.542  29.292  1.00  0.00    -0.354 N 
ATOM     57  N   UNL A   1      45.133  29.246  30.367  1.00  0.00    -0.248 NA
ATOM     58  C   UNL A   1      46.506  30.892  31.296  1.00  0.00     0.031 C 
ATOM     59  C   UNL A   1      46.551  25.224  29.126  1.00  0.00     0.029 A 
ATOM     60  C   UNL A   1      46.136  26.486  29.517  1.00  0.00     0.049 A 
ATOM     61  H   UNL A   1      44.196  27.317  29.491  1.00  0.00     0.167 HD
ATOM     62  C   UNL A   1      46.441  28.775  30.419  1.00  0.00     0.074 A 
ATOM     63  C   UNL A   1      47.250  29.849  30.956  1.00  0.00     0.031 C 
ATOM     64  C   UNL A   1      46.929  27.563  30.056  1.00  0.00     0.031 A 
BRANCH  51  65
ATOM     65  C   UNL A   1      42.653  23.695  27.820  1.00  0.00    -0.014 A 
ATOM     66  C   UNL A   1      42.765  23.461  26.437  1.00  0.00     0.010 A 
ATOM     67  C   UNL A   1      42.307  22.627  28.666  1.00  0.00     0.010 A 
ATOM     68  C   UNL A   1      42.509  22.193  25.908  1.00  0.00     0.020 A 
ATOM     69  C   UNL A   1      42.077  21.349  28.145  1.00  0.00     0.020 A 
ATOM     70  C   UNL A   1      42.169  21.144  26.766  1.00  0.00     0.054 A 
BRANCH  70  71
ATOM     71  S   UNL A   1      41.885  19.500  26.054  1.00  0.00     0.124 S 
ATOM     72  O   UNL A   1      42.691  19.555  24.837  1.00  0.00    -0.237 OA
ATOM     73  O   UNL A   1      42.385  18.610  27.099  1.00  0.00    -0.237 OA
ATOM     74  O   UNL A   1      40.441  19.458  25.841  1.00  0.00    -0.744 OA
ENDBRANCH  70  71
ENDBRANCH  51  65
BRANCH  52  75
ATOM     75  C   UNL A   1      44.304  32.798  31.611  1.00  0.00    -0.014 A 
ATOM     76  C   UNL A   1      44.685  33.893  30.814  1.00  0.00     0.010 A 
ATOM     77  C   UNL A   1      44.182  32.978  33.001  1.00  0.00     0.010 A 
ATOM     78  C   UNL A   1      44.980  35.128  31.400  1.00  0.00     0.020 A 
ATOM     79  C   UNL A   1      44.441  34.219  33.587  1.00  0.00     0.020 A 
ATOM     80  C   UNL A   1      44.858  35.282  32.784  1.00  0.00     0.054 A 
BRANCH  80  81
ATOM     81  S   UNL A   1      45.230  36.897  33.522  1.00  0.00     0.124 S 
ATOM     82  O   UNL A   1      46.325  36.570  34.430  1.00  0.00    -0.237 OA
ATOM     83  O   UNL A   1      45.591  37.702  32.358  1.00  0.00    -0.237 OA
ATOM     84  O   UNL A   1      43.973  37.275  34.166  1.00  0.00    -0.744 OA
ENDBRANCH  80  81
ENDBRANCH  52  75
BRANCH  64  85
ATOM     85  C   UNL A   1      48.414  27.346  30.197  1.00  0.00    -0.014 A 
ATOM     86  C   UNL A   1      49.298  27.622  29.138  1.00  0.00     0.010 A 
ATOM     87  C   UNL A   1      48.934  26.884  31.420  1.00  0.00     0.010 A 
ATOM     88  C   UNL A   1      50.669  27.392  29.285  1.00  0.00     0.020 A 
ATOM     89  C   UNL A   1      50.307  26.686  31.582  1.00  0.00     0.020 A 
ATOM     90  C   UNL A   1      51.164  26.923  30.506  1.00  0.00     0.054 A 
BRANCH  90  91
ATOM     91  S   UNL A   1      52.949  26.652  30.676  1.00  0.00     0.124 S 
ATOM     92  O   UNL A   1      52.998  25.525  31.604  1.00  0.00    -0.237 OA
ATOM     93  O   UNL A   1      53.361  26.357  29.306  1.00  0.00    -0.237 OA
ATOM     94  O   UNL A   1      53.443  27.920  31.209  1.00  0.00    -0.744 OA
ENDBRANCH  90  91
ENDBRANCH  64  85
ENDBRANCH  38  39
ENDBRANCH  30  33
ENDBRANCH  28  29
ENDBRANCH  27  28
ENDBRANCH  26  27
ENDBRANCH   1  26
TORSDOF 20
ENDMDL
MODEL 2
REMARK VINA RESULT:      -9.3      3.083      8.392
REMARK SMILES CCN(CC(=O)NC(C)C)C(=O)N[C@H]1C=C[C@H](C(=O)NCCCCNC(=O)c2ccc(-c3c4nc(c(-c5ccc(S(=O)(=O)[O-])cc5)c5ccc([nH]5)c(-c5ccc(S(=O)(=O)[O-])cc5)c5nc(c(-c6ccc(S(=O)(=O)[O-])cc6)c6ccc3[nH]6)C=C5)C=C4)cc2)C1
REMARK SMILES IDX 21 1 20 2 18 3 19 4 17 6 14 7 15 8 88 9 16 10 13 11 11 12
REMARK SMILES IDX 12 13 3 15 2 16 1 17 4 18 5 19 6 20 7 21 8 23 9 24 10 25
REMARK SMILES IDX 22 26 23 27 24 28 25 29 26 30 27 32 28 33 29 34 87 35 30 36
REMARK SMILES IDX 86 37 31 38 32 39 33 40 80 41 34 42 85 43 79 44 81 45 35 46
REMARK SMILES IDX 84 47 78 48 77 49 36 51 66 52 47 53 65 54 48 55 51 56 64 57
REMARK SMILES IDX 82 58 49 59 50 60 63 62 83 63 52 64 37 65 38 66 46 67 39 68
REMARK SMILES IDX 45 69 40 70 41 71 42 72 43 73 44 74 67 75 68 76 76 77 69 78
REMARK SMILES IDX 75 79 70 80 71 81 72 82 73 83 74 84 53 85 54 86 62 87 55 88
REMARK SMILES IDX 61 89 56 90 57 91 58 92 59 93 60 94
REMARK H PARENT 20 5 13 14 7 22 25 31 81 50 51 61
REMARK Flexibility Score: inf
ROOT
ATOM      1  C   UNL A   1      31.661  28.239  23.461  1.00  0.00     0.116 C 
ENDROOT
BRANCH   1   2
ATOM      2  N   UNL A   1      30.331  27.733  23.741  1.00  0.00    -0.356 N 
ATOM      3  C   UNL A   1      29.820  26.491  23.919  1.00  0.00     0.227 C 
ATOM      4  O   UNL A   1      28.605  26.441  24.155  1.00  0.00    -0.274 OA
ATOM      5  H   UNL A   1      29.655  28.445  23.819  1.00  0.00     0.163 HD
BRANCH   3   6
ATOM      6  C   UNL A   1      30.622  25.169  23.842  1.00  0.00     0.103 C 
ATOM      7  C   UNL A   1      31.527  24.940  26.047  1.00  0.00     0.107 C 
ATOM      8  C   UNL A   1      32.634  25.038  25.049  1.00  0.00    -0.006 C 
ATOM      9  C   UNL A   1      30.399  24.402  25.168  1.00  0.00     0.047 C 
ATOM     10  C   UNL A   1      32.123  25.174  23.817  1.00  0.00    -0.016 C 
BRANCH   7  11
ATOM     11  N   UNL A   1      31.907  24.092  27.139  1.00  0.00    -0.332 N 
ATOM     12  C   UNL A   1      32.406  22.852  27.278  1.00  0.00     0.318 C 
ATOM     13  O   UNL A   1      32.584  22.500  28.450  1.00  0.00    -0.249 OA
ATOM     14  H   UNL A   1      31.765  24.530  28.010  1.00  0.00     0.165 HD
BRANCH  12  15
ATOM     15  N   UNL A   1      32.714  22.017  26.234  1.00  0.00    -0.316 N 
BRANCH  15  16
ATOM     16  C   UNL A   1      34.141  21.707  26.055  1.00  0.00     0.118 C 
ATOM     17  C   UNL A   1      35.044  22.934  26.077  1.00  0.00     0.027 C 
ENDBRANCH  15  16
BRANCH  15  18
ATOM     18  C   UNL A   1      31.801  21.469  25.216  1.00  0.00     0.221 C 
BRANCH  18  19
ATOM     19  C   UNL A   1      32.406  21.212  23.815  1.00  0.00     0.239 C 
ATOM     20  O   UNL A   1      32.853  22.143  23.135  1.00  0.00    -0.273 OA
ATOM     21  N   UNL A   1      32.569  19.956  23.317  1.00  0.00    -0.352 N 
ATOM     22  H   UNL A   1      32.518  19.867  22.338  1.00  0.00     0.163 HD
BRANCH  21  23
ATOM     23  C   UNL A   1      32.808  18.732  24.060  1.00  0.00     0.075 C 
ATOM     24  C   UNL A   1      32.350  17.514  23.271  1.00  0.00     0.030 C 
ATOM     25  C   UNL A   1      34.294  18.651  24.399  1.00  0.00     0.030 C 
ENDBRANCH  21  23
ENDBRANCH  18  19
ENDBRANCH  15  18
ENDBRANCH  12  15
ENDBRANCH   7  11
ENDBRANCH   3   6
ENDBRANCH   1   2
BRANCH   1  26
ATOM     26  C   UNL A   1      32.293  28.875  24.698  1.00  0.00     0.023 C 
BRANCH  26  27
ATOM     27  C   UNL A   1      33.739  28.451  24.969  1.00  0.00     0.023 C 
BRANCH  27  28
ATOM     28  C   UNL A   1      34.366  29.014  26.244  1.00  0.00     0.116 C 
BRANCH  28  29
ATOM     29  N   UNL A   1      33.861  30.331  26.599  1.00  0.00    -0.352 N 
ATOM     30  C   UNL A   1      34.306  31.214  27.553  1.00  0.00     0.251 C 
ATOM     31  H   UNL A   1      33.083  30.636  26.077  1.00  0.00     0.163 HD
ATOM     32  O   UNL A   1      33.663  32.232  27.783  1.00  0.00    -0.269 OA
BRANCH  30  33
ATOM     33  C   UNL A   1      35.537  30.923  28.323  1.00  0.00     0.039 A 
ATOM     34  C   UNL A   1      35.515  29.873  29.246  1.00  0.00     0.014 A 
ATOM     35  C   UNL A   1      36.704  31.671  28.144  1.00  0.00     0.014 A 
ATOM     36  C   UNL A   1      36.681  29.535  29.937  1.00  0.00     0.010 A 
ATOM     37  C   UNL A   1      37.885  31.281  28.775  1.00  0.00     0.010 A 
ATOM     38  C   UNL A   1      37.887  30.210  29.678  1.00  0.00    -0.014 A 
BRANCH  38  39
ATOM     39  C   UNL A   1      39.151  29.783  30.336  1.00  0.00     0.031 A 
ATOM     40  C   UNL A   1      39.642  30.480  31.578  1.00  0.00     0.074 A 
ATOM     41  C   UNL A   1      39.874  28.780  29.796  1.00  0.00     0.049 A 
ATOM     42  N   UNL A   1      40.719  30.241  32.283  1.00  0.00    -0.248 NA
ATOM     43  C   UNL A   1      38.833  31.602  32.083  1.00  0.00     0.031 C 
ATOM     44  C   UNL A   1      39.536  28.060  28.565  1.00  0.00     0.029 A 
ATOM     45  N   UNL A   1      41.042  28.190  30.212  1.00  0.00    -0.354 N 
ATOM     46  C   UNL A   1      40.712  31.173  33.315  1.00  0.00     0.074 A 
ATOM     47  C   UNL A   1      39.563  32.025  33.106  1.00  0.00     0.031 C 
ATOM     48  C   UNL A   1      40.455  27.106  28.345  1.00  0.00     0.029 A 
ATOM     49  C   UNL A   1      41.468  27.171  29.392  1.00  0.00     0.049 A 
ATOM     50  H   UNL A   1      41.529  28.470  31.020  1.00  0.00     0.167 HD
ATOM     51  C   UNL A   1      41.566  31.291  34.361  1.00  0.00     0.031 A 
ATOM     52  C   UNL A   1      42.556  26.379  29.469  1.00  0.00     0.031 A 
ATOM     53  C   UNL A   1      42.713  30.445  34.567  1.00  0.00     0.049 A 
ATOM     54  C   UNL A   1      43.501  26.546  30.629  1.00  0.00     0.074 A 
ATOM     55  C   UNL A   1      43.623  30.470  35.610  1.00  0.00     0.029 A 
ATOM     56  N   UNL A   1      43.107  29.423  33.718  1.00  0.00    -0.354 N 
ATOM     57  N   UNL A   1      43.438  27.393  31.628  1.00  0.00    -0.248 NA
ATOM     58  C   UNL A   1      44.653  25.636  30.681  1.00  0.00     0.031 C 
ATOM     59  C   UNL A   1      44.596  29.496  35.365  1.00  0.00     0.029 A 
ATOM     60  C   UNL A   1      44.256  28.821  34.204  1.00  0.00     0.049 A 
ATOM     61  H   UNL A   1      42.640  29.163  32.891  1.00  0.00     0.167 HD
ATOM     62  C   UNL A   1      44.529  27.101  32.441  1.00  0.00     0.074 A 
ATOM     63  C   UNL A   1      45.214  25.980  31.831  1.00  0.00     0.031 C 
ATOM     64  C   UNL A   1      44.930  27.706  33.586  1.00  0.00     0.031 A 
BRANCH  51  65
ATOM     65  C   UNL A   1      41.280  32.366  35.378  1.00  0.00    -0.014 A 
ATOM     66  C   UNL A   1      41.244  33.721  35.000  1.00  0.00     0.010 A 
ATOM     67  C   UNL A   1      40.980  32.022  36.708  1.00  0.00     0.010 A 
ATOM     68  C   UNL A   1      40.943  34.712  35.937  1.00  0.00     0.020 A 
ATOM     69  C   UNL A   1      40.650  33.008  37.644  1.00  0.00     0.020 A 
ATOM     70  C   UNL A   1      40.645  34.349  37.253  1.00  0.00     0.054 A 
BRANCH  70  71
ATOM     71  S   UNL A   1      40.216  35.656  38.436  1.00  0.00     0.124 S 
ATOM     72  O   UNL A   1      38.915  35.206  38.924  1.00  0.00    -0.237 OA
ATOM     73  O   UNL A   1      41.309  35.582  39.402  1.00  0.00    -0.237 OA
ATOM     74  O   UNL A   1      40.189  36.868  37.621  1.00  0.00    -0.744 OA
ENDBRANCH  70  71
ENDBRANCH  51  65
BRANCH  52  75
ATOM     75  C   UNL A   1      42.817  25.358  28.415  1.00  0.00    -0.014 A 
ATOM     76  C   UNL A   1      42.347  24.039  28.550  1.00  0.00     0.010 A 
ATOM     77  C   UNL A   1      43.564  25.700  27.272  1.00  0.00     0.010 A 
ATOM     78  C   UNL A   1      42.654  23.074  27.586  1.00  0.00     0.020 A 
ATOM     79  C   UNL A   1      43.843  24.748  26.289  1.00  0.00     0.020 A 
ATOM     80  C   UNL A   1      43.402  23.435  26.462  1.00  0.00     0.054 A 
BRANCH  80  81
ATOM     81  S   UNL A   1      43.777  22.170  25.216  1.00  0.00     0.124 S 
ATOM     82  O   UNL A   1      45.142  21.795  25.565  1.00  0.00    -0.237 OA
ATOM     83  O   UNL A   1      42.754  21.159  25.474  1.00  0.00    -0.237 OA
ATOM     84  O   UNL A   1      43.628  22.886  23.949  1.00  0.00    -0.744 OA
ENDBRANCH  80  81
ENDBRANCH  52  75
BRANCH  64  85
ATOM     85  C   UNL A   1      46.148  27.145  34.274  1.00  0.00    -0.014 A 
ATOM     86  C   UNL A   1      47.437  27.629  33.988  1.00  0.00     0.010 A 
ATOM     87  C   UNL A   1      45.994  26.136  35.242  1.00  0.00     0.010 A 
ATOM     88  C   UNL A   1      48.554  27.078  34.623  1.00  0.00     0.020 A 
ATOM     89  C   UNL A   1      47.104  25.606  35.902  1.00  0.00     0.020 A 
ATOM     90  C   UNL A   1      48.380  26.068  35.574  1.00  0.00     0.054 A 
BRANCH  90  91
ATOM     91  S   UNL A   1      49.845  25.384  36.397  1.00  0.00     0.124 S 
ATOM     92  O   UNL A   1      49.248  24.596  37.473  1.00  0.00    -0.237 OA
ATOM     93  O   UNL A   1      50.481  24.614  35.331  1.00  0.00    -0.237 OA
ATOM     94  O   UNL A   1      50.584  26.568  36.829  1.00  0.00    -0.744 OA
ENDBRANCH  90  91
ENDBRANCH  64  85
ENDBRANCH  38  39
ENDBRANCH  30  33
ENDBRANCH  28  29
ENDBRANCH  27  28
ENDBRANCH  26  27
ENDBRANCH   1  26
TORSDOF 20
ENDMDL
MODEL 3
REMARK VINA RESULT:      -9.0      2.991      3.931
REMARK SMILES CCN(CC(=O)NC(C)C)C(=O)N[C@H]1C=C[C@H](C(=O)NCCCCNC(=O)c2ccc(-c3c4nc(c(-c5ccc(S(=O)(=O)[O-])cc5)c5ccc([nH]5)c(-c5ccc(S(=O)(=O)[O-])cc5)c5nc(c(-c6ccc(S(=O)(=O)[O-])cc6)c6ccc3[nH]6)C=C5)C=C4)cc2)C1
REMARK SMILES IDX 21 1 20 2 18 3 19 4 17 6 14 7 15 8 88 9 16 10 13 11 11 12
REMARK SMILES IDX 12 13 3 15 2 16 1 17 4 18 5 19 6 20 7 21 8 23 9 24 10 25
REMARK SMILES IDX 22 26 23 27 24 28 25 29 26 30 27 32 28 33 29 34 87 35 30 36
REMARK SMILES IDX 86 37 31 38 32 39 33 40 80 41 34 42 85 43 79 44 81 45 35 46
REMARK SMILES IDX 84 47 78 48 77 49 36 51 66 52 47 53 65 54 48 55 51 56 64 57
REMARK SMILES IDX 82 58 49 59 50 60 63 62 83 63 52 64 37 65 38 66 46 67 39 68
REMARK SMILES IDX 45 69 40 70 41 71 42 72 43 73 44 74 67 75 68 76 76 77 69 78
REMARK SMILES IDX 75 79 70 80 71 81 72 82 73 83 74 84 53 85 54 86 62 87 55 88
REMARK SMILES IDX 61 89 56 90 57 91 58 92 59 93 60 94
REMARK H PARENT 20 5 13 14 7 22 25 31 81 50 51 61
REMARK Flexibility Score: inf
ROOT
ATOM      1  C   UNL A   1      31.635  28.908  24.259  1.00  0.00     0.116 C 
ENDROOT
BRANCH   1   2
ATOM      2  N   UNL A   1      30.390  28.178  24.114  1.00  0.00    -0.356 N 
ATOM      3  C   UNL A   1      30.077  26.941  23.658  1.00  0.00     0.227 C 
ATOM      4  O   UNL A   1      28.874  26.647  23.690  1.00  0.00    -0.274 OA
ATOM      5  H   UNL A   1      29.604  28.692  24.410  1.00  0.00     0.163 HD
BRANCH   3   6
ATOM      6  C   UNL A   1      31.086  25.903  23.109  1.00  0.00     0.103 C 
ATOM      7  C   UNL A   1      31.108  24.205  24.797  1.00  0.00     0.107 C 
ATOM      8  C   UNL A   1      32.471  24.801  24.654  1.00  0.00    -0.006 C 
ATOM      9  C   UNL A   1      30.527  24.493  23.414  1.00  0.00     0.047 C 
ATOM     10  C   UNL A   1      32.453  25.756  23.714  1.00  0.00    -0.016 C 
BRANCH   7  11
ATOM     11  N   UNL A   1      31.200  22.816  25.145  1.00  0.00    -0.332 N 
ATOM     12  C   UNL A   1      31.967  21.774  24.785  1.00  0.00     0.318 C 
ATOM     13  O   UNL A   1      31.685  20.711  25.352  1.00  0.00    -0.249 OA
ATOM     14  H   UNL A   1      30.527  22.562  25.817  1.00  0.00     0.165 HD
BRANCH  12  15
ATOM     15  N   UNL A   1      32.992  21.841  23.876  1.00  0.00    -0.316 N 
BRANCH  15  16
ATOM     16  C   UNL A   1      32.598  22.002  22.469  1.00  0.00     0.118 C 
ATOM     17  C   UNL A   1      31.803  20.826  21.915  1.00  0.00     0.027 C 
ENDBRANCH  15  16
BRANCH  15  18
ATOM     18  C   UNL A   1      34.435  21.678  24.128  1.00  0.00     0.221 C 
BRANCH  18  19
ATOM     19  C   UNL A   1      35.348  22.844  23.679  1.00  0.00     0.239 C 
ATOM     20  O   UNL A   1      35.047  23.550  22.710  1.00  0.00    -0.273 OA
ATOM     21  N   UNL A   1      36.455  23.208  24.382  1.00  0.00    -0.352 N 
ATOM     22  H   UNL A   1      37.192  23.599  23.859  1.00  0.00     0.163 HD
BRANCH  21  23
ATOM     23  C   UNL A   1      36.677  23.086  25.811  1.00  0.00     0.075 C 
ATOM     24  C   UNL A   1      37.863  23.929  26.255  1.00  0.00     0.030 C 
ATOM     25  C   UNL A   1      35.398  23.493  26.539  1.00  0.00     0.030 C 
ENDBRANCH  21  23
ENDBRANCH  18  19
ENDBRANCH  15  18
ENDBRANCH  12  15
ENDBRANCH   7  11
ENDBRANCH   3   6
ENDBRANCH   1   2
BRANCH   1  26
ATOM     26  C   UNL A   1      32.233  28.727  25.653  1.00  0.00     0.023 C 
BRANCH  26  27
ATOM     27  C   UNL A   1      33.724  28.377  25.670  1.00  0.00     0.023 C 
BRANCH  27  28
ATOM     28  C   UNL A   1      34.556  29.082  26.740  1.00  0.00     0.116 C 
BRANCH  28  29
ATOM     29  N   UNL A   1      34.166  30.467  26.952  1.00  0.00    -0.352 N 
ATOM     30  C   UNL A   1      34.704  31.413  27.792  1.00  0.00     0.251 C 
ATOM     31  H   UNL A   1      33.401  30.774  26.412  1.00  0.00     0.163 HD
ATOM     32  O   UNL A   1      34.149  32.499  27.916  1.00  0.00    -0.269 OA
BRANCH  30  33
ATOM     33  C   UNL A   1      35.928  31.111  28.568  1.00  0.00     0.039 A 
ATOM     34  C   UNL A   1      35.880  30.089  29.520  1.00  0.00     0.014 A 
ATOM     35  C   UNL A   1      37.114  31.822  28.367  1.00  0.00     0.014 A 
ATOM     36  C   UNL A   1      37.038  29.740  30.220  1.00  0.00     0.010 A 
ATOM     37  C   UNL A   1      38.285  31.420  29.007  1.00  0.00     0.010 A 
ATOM     38  C   UNL A   1      38.261  30.374  29.940  1.00  0.00    -0.014 A 
BRANCH  38  39
ATOM     39  C   UNL A   1      39.515  29.933  30.609  1.00  0.00     0.031 A 
ATOM     40  C   UNL A   1      40.304  28.770  30.068  1.00  0.00     0.074 A 
ATOM     41  C   UNL A   1      39.929  30.569  31.725  1.00  0.00     0.049 A 
ATOM     42  N   UNL A   1      41.418  28.252  30.522  1.00  0.00    -0.248 NA
ATOM     43  C   UNL A   1      39.767  28.088  28.880  1.00  0.00     0.031 C 
ATOM     44  C   UNL A   1      39.226  31.675  32.381  1.00  0.00     0.029 A 
ATOM     45  N   UNL A   1      41.042  30.379  32.505  1.00  0.00    -0.354 N 
ATOM     46  C   UNL A   1      41.716  27.193  29.672  1.00  0.00     0.074 A 
ATOM     47  C   UNL A   1      40.633  27.098  28.718  1.00  0.00     0.031 C 
ATOM     48  C   UNL A   1      39.939  32.085  33.441  1.00  0.00     0.029 A 
ATOM     49  C   UNL A   1      41.128  31.249  33.568  1.00  0.00     0.049 A 
ATOM     50  H   UNL A   1      41.716  29.685  32.323  1.00  0.00     0.167 HD
ATOM     51  C   UNL A   1      42.809  26.390  29.665  1.00  0.00     0.031 A 
ATOM     52  C   UNL A   1      42.055  31.360  34.540  1.00  0.00     0.031 A 
ATOM     53  C   UNL A   1      43.885  26.480  30.616  1.00  0.00     0.049 A 
ATOM     54  C   UNL A   1      43.246  30.441  34.521  1.00  0.00     0.074 A 
ATOM     55  C   UNL A   1      45.046  25.728  30.676  1.00  0.00     0.029 A 
ATOM     56  N   UNL A   1      43.936  27.376  31.673  1.00  0.00    -0.354 N 
ATOM     57  N   UNL A   1      43.539  29.487  33.669  1.00  0.00    -0.248 NA
ATOM     58  C   UNL A   1      44.242  30.625  35.585  1.00  0.00     0.031 C 
ATOM     59  C   UNL A   1      45.774  26.136  31.798  1.00  0.00     0.029 A 
ATOM     60  C   UNL A   1      45.100  27.186  32.399  1.00  0.00     0.049 A 
ATOM     61  H   UNL A   1      43.246  28.049  31.877  1.00  0.00     0.167 HD
ATOM     62  C   UNL A   1      44.766  28.976  34.081  1.00  0.00     0.074 A 
ATOM     63  C   UNL A   1      45.172  29.746  35.238  1.00  0.00     0.031 C 
ATOM     64  C   UNL A   1      45.490  27.959  33.551  1.00  0.00     0.031 A 
BRANCH  51  65
ATOM     65  C   UNL A   1      42.903  25.350  28.577  1.00  0.00    -0.014 A 
ATOM     66  C   UNL A   1      43.601  25.619  27.385  1.00  0.00     0.010 A 
ATOM     67  C   UNL A   1      42.349  24.072  28.768  1.00  0.00     0.010 A 
ATOM     68  C   UNL A   1      43.717  24.642  26.394  1.00  0.00     0.020 A 
ATOM     69  C   UNL A   1      42.487  23.080  27.791  1.00  0.00     0.020 A 
ATOM     70  C   UNL A   1      43.162  23.377  26.604  1.00  0.00     0.054 A 
BRANCH  70  71
ATOM     71  S   UNL A   1      43.367  22.116  25.316  1.00  0.00     0.124 S 
ATOM     72  O   UNL A   1      44.678  21.562  25.644  1.00  0.00    -0.237 OA
ATOM     73  O   UNL A   1      42.232  21.228  25.556  1.00  0.00    -0.237 OA
ATOM     74  O   UNL A   1      43.307  22.877  24.072  1.00  0.00    -0.744 OA
ENDBRANCH  70  71
ENDBRANCH  51  65
BRANCH  52  75
ATOM     75  C   UNL A   1      41.894  32.377  35.618  1.00  0.00    -0.014 A 
ATOM     76  C   UNL A   1      41.099  32.115  36.749  1.00  0.00     0.010 A 
ATOM     77  C   UNL A   1      42.524  33.630  35.504  1.00  0.00     0.010 A 
ATOM     78  C   UNL A   1      40.903  33.100  37.721  1.00  0.00     0.020 A 
ATOM     79  C   UNL A   1      42.360  34.605  36.491  1.00  0.00     0.020 A 
ATOM     80  C   UNL A   1      41.534  34.340  37.585  1.00  0.00     0.054 A 
BRANCH  80  81
ATOM     81  S   UNL A   1      41.278  35.599  38.866  1.00  0.00     0.124 S 
ATOM     82  O   UNL A   1      40.513  36.612  38.147  1.00  0.00    -0.237 OA
ATOM     83  O   UNL A   1      40.547  34.862  39.893  1.00  0.00    -0.237 OA
ATOM     84  O   UNL A   1      42.638  35.987  39.238  1.00  0.00    -0.744 OA
ENDBRANCH  80  81
ENDBRANCH  52  75
BRANCH  64  85
ATOM     85  C   UNL A   1      46.814  27.644  34.200  1.00  0.00    -0.014 A 
ATOM     86  C   UNL A   1      47.988  28.328  33.836  1.00  0.00     0.010 A 
ATOM     87  C   UNL A   1      46.877  26.666  35.209  1.00  0.00     0.010 A 
ATOM     88  C   UNL A   1      49.208  28.004  34.435  1.00  0.00     0.020 A 
ATOM     89  C   UNL A   1      48.088  26.362  35.834  1.00  0.00     0.020 A 
ATOM     90  C   UNL A   1      49.250  27.020  35.429  1.00  0.00     0.054 A 
BRANCH  90  91
ATOM     91  S   UNL A   1      50.844  26.632  36.204  1.00  0.00     0.124 S 
ATOM     92  O   UNL A   1      50.451  26.360  37.585  1.00  0.00    -0.237 OA
ATOM     93  O   UNL A   1      51.299  25.473  35.440  1.00  0.00    -0.237 OA
ATOM     94  O   UNL A   1      51.630  27.848  36.009  1.00  0.00    -0.744 OA
ENDBRANCH  90  91
ENDBRANCH  64  85
ENDBRANCH  38  39
ENDBRANCH  30  33
ENDBRANCH  28  29
ENDBRANCH  27  28
ENDBRANCH  26  27
ENDBRANCH   1  26
TORSDOF 20
ENDMDL
