MODEL 1
REMARK VINA RESULT:     -12.3      0.000      0.000
REMARK SMILES CC(C)(C)OC(=O)N[C@@H](Cc1c[nH]c2cccc(Cl)c12)C(=O)NCCCCNC(=O)c1ccc(-c2c3nc(c(-c4ccc(S(=O)(=O)[O-])cc4)c4ccc([nH]4)c(-c4ccc(S(=O)(=O)[O-])cc4)c4nc(c(-c5ccc(S(=O)(=O)[O-])cc5)c5ccc2[nH]5)C=C4)C=C3)cc1
REMARK SMILES IDX 25 1 24 2 23 3 21 4 22 5 9 7 8 8 6 9 7 10 5 12 2 13 1 14
REMARK SMILES IDX 3 15 4 16 10 17 11 18 12 19 20 20 13 21 14 22 18 23 15 25
REMARK SMILES IDX 17 26 19 27 16 28 26 29 27 30 28 31 29 32 30 34 31 35 32 36
REMARK SMILES IDX 90 37 33 38 89 39 34 40 35 41 36 42 83 43 37 44 88 45 82 46
REMARK SMILES IDX 84 47 38 48 87 49 81 50 80 51 39 53 69 54 50 55 68 56 51 57
REMARK SMILES IDX 54 58 67 59 85 60 52 61 53 62 66 64 86 65 55 66 40 67 41 68
REMARK SMILES IDX 49 69 42 70 48 71 43 72 44 73 45 74 46 75 47 76 70 77 71 78
REMARK SMILES IDX 79 79 72 80 78 81 73 82 74 83 75 84 76 85 77 86 56 87 57 88
REMARK SMILES IDX 65 89 58 90 64 91 59 92 60 93 61 94 62 95 63 96
REMARK H PARENT 23 6 8 11 13 24 28 33 84 52 54 63
REMARK Flexibility Score: inf
ROOT
ATOM      1  C   UNL A   1      38.389  23.709  26.249  1.00  0.00     0.023 C 
ENDROOT
BRANCH   1   2
ATOM      2  C   UNL A   1      36.869  23.763  26.189  1.00  0.00     0.116 C 
BRANCH   2   3
ATOM      3  N   UNL A   1      36.273  23.238  24.978  1.00  0.00    -0.354 N 
ATOM      4  C   UNL A   1      35.252  23.754  24.221  1.00  0.00     0.243 C 
ATOM      5  O   UNL A   1      35.205  23.392  23.039  1.00  0.00    -0.273 OA
ATOM      6  H   UNL A   1      36.654  22.392  24.652  1.00  0.00     0.163 HD
BRANCH   4   7
ATOM      7  C   UNL A   1      34.237  24.802  24.750  1.00  0.00     0.179 C 
BRANCH   7   8
ATOM      8  N   UNL A   1      33.626  25.554  23.656  1.00  0.00    -0.309 N 
ATOM      9  C   UNL A   1      33.169  26.831  23.653  1.00  0.00     0.408 C 
ATOM     10  O   UNL A   1      32.805  27.346  22.601  1.00  0.00    -0.225 OA
ATOM     11  H   UNL A   1      33.535  25.068  22.805  1.00  0.00     0.167 HD
BRANCH   9  12
ATOM     12  O   UNL A   1      33.117  27.405  24.876  1.00  0.00    -0.444 OA
BRANCH  12  13
ATOM     13  C   UNL A   1      31.827  27.722  25.463  1.00  0.00     0.106 C 
ATOM     14  C   UNL A   1      31.560  29.192  25.100  1.00  0.00     0.056 C 
ATOM     15  C   UNL A   1      31.871  27.610  26.994  1.00  0.00     0.056 C 
ATOM     16  C   UNL A   1      30.709  26.864  24.858  1.00  0.00     0.056 C 
ENDBRANCH  12  13
ENDBRANCH   9  12
ENDBRANCH   7   8
BRANCH   7  17
ATOM     17  C   UNL A   1      33.235  24.269  25.805  1.00  0.00     0.073 C 
BRANCH  17  18
ATOM     18  C   UNL A   1      33.211  22.783  26.047  1.00  0.00    -0.019 A 
ATOM     19  C   UNL A   1      33.630  22.183  27.224  1.00  0.00     0.087 A 
ATOM     20  C   UNL A   1      32.821  21.711  25.155  1.00  0.00     0.021 A 
ATOM     21  N   UNL A   1      33.612  20.827  27.056  1.00  0.00    -0.361 N 
ATOM     22  C   UNL A   1      33.236  20.519  25.771  1.00  0.00     0.047 A 
ATOM     23  C   UNL A   1      32.256  21.581  23.865  1.00  0.00     0.050 A 
ATOM     24  H   UNL A   1      33.836  20.168  27.752  1.00  0.00     0.166 HD
ATOM     25  C   UNL A   1      33.227  19.276  25.120  1.00  0.00     0.027 A 
ATOM     26  C   UNL A   1      32.235  20.355  23.194  1.00  0.00     0.021 A 
ATOM     27  Cl  UNL A   1      31.547  22.962  23.149  1.00  0.00    -0.084 Cl
ATOM     28  C   UNL A   1      32.745  19.220  23.811  1.00  0.00     0.004 A 
ENDBRANCH  17  18
ENDBRANCH   7  17
ENDBRANCH   4   7
ENDBRANCH   2   3
ENDBRANCH   1   2
BRANCH   1  29
ATOM     29  C   UNL A   1      39.010  22.310  26.161  1.00  0.00     0.023 C 
BRANCH  29  30
ATOM     30  C   UNL A   1      40.250  22.101  27.026  1.00  0.00     0.116 C 
BRANCH  30  31
ATOM     31  N   UNL A   1      41.485  22.027  26.256  1.00  0.00    -0.352 N 
ATOM     32  C   UNL A   1      42.233  23.072  25.757  1.00  0.00     0.251 C 
ATOM     33  H   UNL A   1      41.826  21.122  26.069  1.00  0.00     0.163 HD
ATOM     34  O   UNL A   1      43.046  22.883  24.860  1.00  0.00    -0.269 OA
BRANCH  32  35
ATOM     35  C   UNL A   1      42.066  24.418  26.338  1.00  0.00     0.039 A 
ATOM     36  C   UNL A   1      41.426  25.432  25.617  1.00  0.00     0.014 A 
ATOM     37  C   UNL A   1      42.602  24.671  27.603  1.00  0.00     0.014 A 
ATOM     38  C   UNL A   1      41.282  26.687  26.201  1.00  0.00     0.010 A 
ATOM     39  C   UNL A   1      42.396  25.888  28.211  1.00  0.00     0.010 A 
ATOM     40  C   UNL A   1      41.766  26.905  27.499  1.00  0.00    -0.014 A 
BRANCH  40  41
ATOM     41  C   UNL A   1      41.539  28.179  28.164  1.00  0.00     0.031 A 
ATOM     42  C   UNL A   1      42.604  29.196  27.965  1.00  0.00     0.074 A 
ATOM     43  C   UNL A   1      40.364  28.511  28.733  1.00  0.00     0.049 A 
ATOM     44  N   UNL A   1      43.458  29.628  28.831  1.00  0.00    -0.248 NA
ATOM     45  C   UNL A   1      42.816  29.716  26.604  1.00  0.00     0.031 C 
ATOM     46  C   UNL A   1      39.101  27.766  28.724  1.00  0.00     0.029 A 
ATOM     47  N   UNL A   1      40.031  29.666  29.366  1.00  0.00    -0.354 N 
ATOM     48  C   UNL A   1      44.187  30.625  28.187  1.00  0.00     0.074 A 
ATOM     49  C   UNL A   1      43.872  30.510  26.785  1.00  0.00     0.031 C 
ATOM     50  C   UNL A   1      38.098  28.577  29.135  1.00  0.00     0.029 A 
ATOM     51  C   UNL A   1      38.671  29.830  29.592  1.00  0.00     0.049 A 
ATOM     52  H   UNL A   1      40.701  30.332  29.643  1.00  0.00     0.167 HD
ATOM     53  C   UNL A   1      44.812  31.623  28.875  1.00  0.00     0.031 A 
ATOM     54  C   UNL A   1      38.070  30.937  30.096  1.00  0.00     0.031 A 
ATOM     55  C   UNL A   1      44.881  31.343  30.285  1.00  0.00     0.049 A 
ATOM     56  C   UNL A   1      39.116  31.680  30.844  1.00  0.00     0.074 A 
ATOM     57  C   UNL A   1      45.445  30.342  31.053  1.00  0.00     0.029 A 
ATOM     58  N   UNL A   1      43.945  31.953  31.088  1.00  0.00    -0.354 N 
ATOM     59  N   UNL A   1      39.712  31.210  31.905  1.00  0.00    -0.248 NA
ATOM     60  C   UNL A   1      39.813  32.763  30.167  1.00  0.00     0.031 C 
ATOM     61  C   UNL A   1      44.491  30.090  32.082  1.00  0.00     0.029 A 
ATOM     62  C   UNL A   1      43.434  30.990  31.922  1.00  0.00     0.049 A 
ATOM     63  H   UNL A   1      43.688  32.902  31.069  1.00  0.00     0.167 HD
ATOM     64  C   UNL A   1      41.028  31.637  31.796  1.00  0.00     0.074 A 
ATOM     65  C   UNL A   1      41.004  32.671  30.765  1.00  0.00     0.031 C 
ATOM     66  C   UNL A   1      42.052  30.930  32.357  1.00  0.00     0.031 A 
BRANCH  53  67
ATOM     67  C   UNL A   1      45.010  33.015  28.330  1.00  0.00    -0.014 A 
ATOM     68  C   UNL A   1      46.148  33.752  28.715  1.00  0.00     0.010 A 
ATOM     69  C   UNL A   1      43.986  33.720  27.664  1.00  0.00     0.010 A 
ATOM     70  C   UNL A   1      46.228  35.135  28.490  1.00  0.00     0.020 A 
ATOM     71  C   UNL A   1      44.076  35.086  27.394  1.00  0.00     0.020 A 
ATOM     72  C   UNL A   1      45.185  35.793  27.837  1.00  0.00     0.054 A 
BRANCH  72  73
ATOM     73  S   UNL A   1      45.241  37.593  27.660  1.00  0.00     0.124 S 
ATOM     74  O   UNL A   1      45.506  38.026  29.029  1.00  0.00    -0.237 OA
ATOM     75  O   UNL A   1      46.338  37.773  26.714  1.00  0.00    -0.237 OA
ATOM     76  O   UNL A   1      43.916  37.928  27.144  1.00  0.00    -0.744 OA
ENDBRANCH  72  73
ENDBRANCH  53  67
BRANCH  54  77
ATOM     77  C   UNL A   1      36.771  31.543  29.704  1.00  0.00    -0.014 A 
ATOM     78  C   UNL A   1      35.797  31.840  30.677  1.00  0.00     0.010 A 
ATOM     79  C   UNL A   1      36.603  32.104  28.422  1.00  0.00     0.010 A 
ATOM     80  C   UNL A   1      34.749  32.734  30.407  1.00  0.00     0.020 A 
ATOM     81  C   UNL A   1      35.554  32.989  28.140  1.00  0.00     0.020 A 
ATOM     82  C   UNL A   1      34.653  33.329  29.147  1.00  0.00     0.054 A 
BRANCH  82  83
ATOM     83  S   UNL A   1      33.409  34.624  28.866  1.00  0.00     0.124 S 
ATOM     84  O   UNL A   1      34.209  35.716  28.318  1.00  0.00    -0.237 OA
ATOM     85  O   UNL A   1      32.497  33.977  27.927  1.00  0.00    -0.237 OA
ATOM     86  O   UNL A   1      32.858  34.868  30.196  1.00  0.00    -0.744 OA
ENDBRANCH  82  83
ENDBRANCH  54  77
BRANCH  66  87
ATOM     87  C   UNL A   1      41.719  29.819  33.328  1.00  0.00    -0.014 A 
ATOM     88  C   UNL A   1      41.415  28.503  32.925  1.00  0.00     0.010 A 
ATOM     89  C   UNL A   1      41.928  30.071  34.695  1.00  0.00     0.010 A 
ATOM     90  C   UNL A   1      41.337  27.465  33.868  1.00  0.00     0.020 A 
ATOM     91  C   UNL A   1      41.866  29.040  35.636  1.00  0.00     0.020 A 
ATOM     92  C   UNL A   1      41.581  27.740  35.218  1.00  0.00     0.054 A 
BRANCH  92  93
ATOM     93  S   UNL A   1      41.579  26.378  36.421  1.00  0.00     0.124 S 
ATOM     94  O   UNL A   1      40.973  25.283  35.669  1.00  0.00    -0.237 OA
ATOM     95  O   UNL A   1      43.000  26.220  36.724  1.00  0.00    -0.237 OA
ATOM     96  O   UNL A   1      40.770  26.889  37.526  1.00  0.00    -0.744 OA
ENDBRANCH  92  93
ENDBRANCH  66  87
ENDBRANCH  40  41
ENDBRANCH  32  35
ENDBRANCH  30  31
ENDBRANCH  29  30
ENDBRANCH   1  29
TORSDOF 19
ENDMDL
MODEL 2
REMARK VINA RESULT:     -12.2      3.111      9.595
REMARK SMILES CC(C)(C)OC(=O)N[C@@H](Cc1c[nH]c2cccc(Cl)c12)C(=O)NCCCCNC(=O)c1ccc(-c2c3nc(c(-c4ccc(S(=O)(=O)[O-])cc4)c4ccc([nH]4)c(-c4ccc(S(=O)(=O)[O-])cc4)c4nc(c(-c5ccc(S(=O)(=O)[O-])cc5)c5ccc2[nH]5)C=C4)C=C3)cc1
REMARK SMILES IDX 25 1 24 2 23 3 21 4 22 5 9 7 8 8 6 9 7 10 5 12 2 13 1 14
REMARK SMILES IDX 3 15 4 16 10 17 11 18 12 19 20 20 13 21 14 22 18 23 15 25
REMARK SMILES IDX 17 26 19 27 16 28 26 29 27 30 28 31 29 32 30 34 31 35 32 36
REMARK SMILES IDX 90 37 33 38 89 39 34 40 35 41 36 42 83 43 37 44 88 45 82 46
REMARK SMILES IDX 84 47 38 48 87 49 81 50 80 51 39 53 69 54 50 55 68 56 51 57
REMARK SMILES IDX 54 58 67 59 85 60 52 61 53 62 66 64 86 65 55 66 40 67 41 68
REMARK SMILES IDX 49 69 42 70 48 71 43 72 44 73 45 74 46 75 47 76 70 77 71 78
REMARK SMILES IDX 79 79 72 80 78 81 73 82 74 83 75 84 76 85 77 86 56 87 57 88
REMARK SMILES IDX 65 89 58 90 64 91 59 92 60 93 61 94 62 95 63 96
REMARK H PARENT 23 6 8 11 13 24 28 33 84 52 54 63
REMARK Flexibility Score: inf
ROOT
ATOM      1  C   UNL A   1      34.941  30.082  27.270  1.00  0.00     0.023 C 
ENDROOT
BRANCH   1   2
ATOM      2  C   UNL A   1      34.234  28.753  27.037  1.00  0.00     0.116 C 
BRANCH   2   3
ATOM      3  N   UNL A   1      32.824  28.730  27.368  1.00  0.00    -0.354 N 
ATOM      4  C   UNL A   1      31.925  27.701  27.257  1.00  0.00     0.243 C 
ATOM      5  O   UNL A   1      30.924  27.763  27.982  1.00  0.00    -0.273 OA
ATOM      6  H   UNL A   1      32.460  29.573  27.722  1.00  0.00     0.163 HD
BRANCH   4   7
ATOM      7  C   UNL A   1      32.147  26.462  26.349  1.00  0.00     0.179 C 
BRANCH   7   8
ATOM      8  N   UNL A   1      31.514  25.269  26.908  1.00  0.00    -0.309 N 
ATOM      9  C   UNL A   1      31.741  23.966  26.609  1.00  0.00     0.408 C 
ATOM     10  O   UNL A   1      31.209  23.086  27.276  1.00  0.00    -0.225 OA
ATOM     11  H   UNL A   1      30.830  25.435  27.595  1.00  0.00     0.167 HD
BRANCH   9  12
ATOM     12  O   UNL A   1      32.530  23.774  25.528  1.00  0.00    -0.444 OA
BRANCH  12  13
ATOM     13  C   UNL A   1      33.843  23.176  25.698  1.00  0.00     0.106 C 
ATOM     14  C   UNL A   1      33.737  21.771  25.083  1.00  0.00     0.056 C 
ATOM     15  C   UNL A   1      34.192  23.019  27.185  1.00  0.00     0.056 C 
ATOM     16  C   UNL A   1      34.919  23.957  24.935  1.00  0.00     0.056 C 
ENDBRANCH  12  13
ENDBRANCH   9  12
ENDBRANCH   7   8
BRANCH   7  17
ATOM     17  C   UNL A   1      31.869  26.695  24.843  1.00  0.00     0.073 C 
BRANCH  17  18
ATOM     18  C   UNL A   1      30.438  26.921  24.431  1.00  0.00    -0.019 A 
ATOM     19  C   UNL A   1      29.486  25.917  24.358  1.00  0.00     0.087 A 
ATOM     20  C   UNL A   1      29.785  28.139  24.000  1.00  0.00     0.021 A 
ATOM     21  N   UNL A   1      28.343  26.435  23.816  1.00  0.00    -0.361 N 
ATOM     22  C   UNL A   1      28.538  27.754  23.484  1.00  0.00     0.047 A 
ATOM     23  C   UNL A   1      30.108  29.512  23.887  1.00  0.00     0.050 A 
ATOM     24  H   UNL A   1      27.504  25.937  23.685  1.00  0.00     0.166 HD
ATOM     25  C   UNL A   1      27.699  28.626  22.774  1.00  0.00     0.027 A 
ATOM     26  C   UNL A   1      29.291  30.401  23.185  1.00  0.00     0.021 A 
ATOM     27  Cl  UNL A   1      31.515  30.080  24.674  1.00  0.00    -0.084 Cl
ATOM     28  C   UNL A   1      28.110  29.950  22.609  1.00  0.00     0.004 A 
ENDBRANCH  17  18
ENDBRANCH   7  17
ENDBRANCH   4   7
ENDBRANCH   2   3
ENDBRANCH   1   2
BRANCH   1  29
ATOM     29  C   UNL A   1      34.081  31.198  27.872  1.00  0.00     0.023 C 
BRANCH  29  30
ATOM     30  C   UNL A   1      34.860  32.414  28.367  1.00  0.00     0.116 C 
BRANCH  30  31
ATOM     31  N   UNL A   1      34.622  32.719  29.772  1.00  0.00    -0.352 N 
ATOM     32  C   UNL A   1      35.149  32.080  30.875  1.00  0.00     0.251 C 
ATOM     33  H   UNL A   1      34.013  33.470  29.956  1.00  0.00     0.163 HD
ATOM     34  O   UNL A   1      34.624  32.206  31.975  1.00  0.00    -0.269 OA
BRANCH  32  35
ATOM     35  C   UNL A   1      36.371  31.269  30.721  1.00  0.00     0.039 A 
ATOM     36  C   UNL A   1      37.621  31.881  30.579  1.00  0.00     0.014 A 
ATOM     37  C   UNL A   1      36.249  29.878  30.676  1.00  0.00     0.014 A 
ATOM     38  C   UNL A   1      38.752  31.081  30.443  1.00  0.00     0.010 A 
ATOM     39  C   UNL A   1      37.372  29.086  30.616  1.00  0.00     0.010 A 
ATOM     40  C   UNL A   1      38.619  29.686  30.466  1.00  0.00    -0.014 A 
BRANCH  40  41
ATOM     41  C   UNL A   1      39.797  28.834  30.425  1.00  0.00     0.031 A 
ATOM     42  C   UNL A   1      40.450  28.591  31.738  1.00  0.00     0.074 A 
ATOM     43  C   UNL A   1      40.157  28.130  29.334  1.00  0.00     0.049 A 
ATOM     44  N   UNL A   1      41.584  29.046  32.154  1.00  0.00    -0.248 NA
ATOM     45  C   UNL A   1      39.696  27.840  32.754  1.00  0.00     0.031 C 
ATOM     46  C   UNL A   1      39.440  27.985  28.062  1.00  0.00     0.029 A 
ATOM     47  N   UNL A   1      41.219  27.298  29.180  1.00  0.00    -0.354 N 
ATOM     48  C   UNL A   1      41.789  28.474  33.407  1.00  0.00     0.074 A 
ATOM     49  C   UNL A   1      40.528  27.893  33.794  1.00  0.00     0.031 C 
ATOM     50  C   UNL A   1      39.976  26.961  27.358  1.00  0.00     0.029 A 
ATOM     51  C   UNL A   1      41.167  26.496  28.047  1.00  0.00     0.049 A 
ATOM     52  H   UNL A   1      41.966  27.266  29.820  1.00  0.00     0.167 HD
ATOM     53  C   UNL A   1      43.037  28.312  33.932  1.00  0.00     0.031 A 
ATOM     54  C   UNL A   1      42.036  25.506  27.725  1.00  0.00     0.031 A 
ATOM     55  C   UNL A   1      44.030  29.057  33.203  1.00  0.00     0.049 A 
ATOM     56  C   UNL A   1      43.292  25.791  28.465  1.00  0.00     0.074 A 
ATOM     57  C   UNL A   1      44.229  30.394  32.917  1.00  0.00     0.029 A 
ATOM     58  N   UNL A   1      44.785  28.358  32.289  1.00  0.00    -0.354 N 
ATOM     59  N   UNL A   1      44.025  26.849  28.254  1.00  0.00    -0.248 NA
ATOM     60  C   UNL A   1      43.510  25.126  29.740  1.00  0.00     0.031 C 
ATOM     61  C   UNL A   1      44.688  30.414  31.568  1.00  0.00     0.029 A 
ATOM     62  C   UNL A   1      44.803  29.093  31.130  1.00  0.00     0.049 A 
ATOM     63  H   UNL A   1      45.230  27.494  32.439  1.00  0.00     0.167 HD
ATOM     64  C   UNL A   1      44.486  27.221  29.509  1.00  0.00     0.074 A 
ATOM     65  C   UNL A   1      44.222  26.068  30.365  1.00  0.00     0.031 C 
ATOM     66  C   UNL A   1      44.790  28.521  29.797  1.00  0.00     0.031 A 
BRANCH  53  67
ATOM     67  C   UNL A   1      43.413  27.183  34.860  1.00  0.00    -0.014 A 
ATOM     68  C   UNL A   1      44.037  27.476  36.089  1.00  0.00     0.010 A 
ATOM     69  C   UNL A   1      43.414  25.834  34.447  1.00  0.00     0.010 A 
ATOM     70  C   UNL A   1      44.674  26.474  36.837  1.00  0.00     0.020 A 
ATOM     71  C   UNL A   1      44.004  24.823  35.206  1.00  0.00     0.020 A 
ATOM     72  C   UNL A   1      44.659  25.155  36.384  1.00  0.00     0.054 A 
BRANCH  72  73
ATOM     73  S   UNL A   1      45.585  23.892  37.291  1.00  0.00     0.124 S 
ATOM     74  O   UNL A   1      46.958  24.373  37.165  1.00  0.00    -0.237 OA
ATOM     75  O   UNL A   1      45.001  23.985  38.625  1.00  0.00    -0.237 OA
ATOM     76  O   UNL A   1      45.286  22.660  36.566  1.00  0.00    -0.744 OA
ENDBRANCH  72  73
ENDBRANCH  53  67
BRANCH  54  77
ATOM     77  C   UNL A   1      41.746  24.189  27.101  1.00  0.00    -0.014 A 
ATOM     78  C   UNL A   1      42.578  23.680  26.084  1.00  0.00     0.010 A 
ATOM     79  C   UNL A   1      40.834  23.298  27.703  1.00  0.00     0.010 A 
ATOM     80  C   UNL A   1      42.563  22.317  25.748  1.00  0.00     0.020 A 
ATOM     81  C   UNL A   1      40.805  21.939  27.366  1.00  0.00     0.020 A 
ATOM     82  C   UNL A   1      41.697  21.448  26.415  1.00  0.00     0.054 A 
BRANCH  82  83
ATOM     83  S   UNL A   1      41.818  19.660  26.107  1.00  0.00     0.124 S 
ATOM     84  O   UNL A   1      42.268  19.148  27.398  1.00  0.00    -0.237 OA
ATOM     85  O   UNL A   1      40.448  19.318  25.735  1.00  0.00    -0.237 OA
ATOM     86  O   UNL A   1      42.796  19.561  25.027  1.00  0.00    -0.744 OA
ENDBRANCH  82  83
ENDBRANCH  54  77
BRANCH  66  87
ATOM     87  C   UNL A   1      44.878  29.513  28.658  1.00  0.00    -0.014 A 
ATOM     88  C   UNL A   1      43.755  29.967  27.937  1.00  0.00     0.010 A 
ATOM     89  C   UNL A   1      46.110  30.159  28.458  1.00  0.00     0.010 A 
ATOM     90  C   UNL A   1      43.864  31.050  27.049  1.00  0.00     0.020 A 
ATOM     91  C   UNL A   1      46.221  31.246  27.586  1.00  0.00     0.020 A 
ATOM     92  C   UNL A   1      45.096  31.693  26.894  1.00  0.00     0.054 A 
BRANCH  92  93
ATOM     93  S   UNL A   1      45.211  33.156  25.822  1.00  0.00     0.124 S 
ATOM     94  O   UNL A   1      44.490  34.172  26.583  1.00  0.00    -0.237 OA
ATOM     95  O   UNL A   1      46.654  33.359  25.714  1.00  0.00    -0.237 OA
ATOM     96  O   UNL A   1      44.558  32.734  24.584  1.00  0.00    -0.744 OA
ENDBRANCH  92  93
ENDBRANCH  66  87
ENDBRANCH  40  41
ENDBRANCH  32  35
ENDBRANCH  30  31
ENDBRANCH  29  30
ENDBRANCH   1  29
TORSDOF 19
ENDMDL
MODEL 3
REMARK VINA RESULT:     -12.1      3.156      9.222
REMARK SMILES CC(C)(C)OC(=O)N[C@@H](Cc1c[nH]c2cccc(Cl)c12)C(=O)NCCCCNC(=O)c1ccc(-c2c3nc(c(-c4ccc(S(=O)(=O)[O-])cc4)c4ccc([nH]4)c(-c4ccc(S(=O)(=O)[O-])cc4)c4nc(c(-c5ccc(S(=O)(=O)[O-])cc5)c5ccc2[nH]5)C=C4)C=C3)cc1
REMARK SMILES IDX 25 1 24 2 23 3 21 4 22 5 9 7 8 8 6 9 7 10 5 12 2 13 1 14
REMARK SMILES IDX 3 15 4 16 10 17 11 18 12 19 20 20 13 21 14 22 18 23 15 25
REMARK SMILES IDX 17 26 19 27 16 28 26 29 27 30 28 31 29 32 30 34 31 35 32 36
REMARK SMILES IDX 90 37 33 38 89 39 34 40 35 41 36 42 83 43 37 44 88 45 82 46
REMARK SMILES IDX 84 47 38 48 87 49 81 50 80 51 39 53 69 54 50 55 68 56 51 57
REMARK SMILES IDX 54 58 67 59 85 60 52 61 53 62 66 64 86 65 55 66 40 67 41 68
REMARK SMILES IDX 49 69 42 70 48 71 43 72 44 73 45 74 46 75 47 76 70 77 71 78
REMARK SMILES IDX 79 79 72 80 78 81 73 82 74 83 75 84 76 85 77 86 56 87 57 88
REMARK SMILES IDX 65 89 58 90 64 91 59 92 60 93 61 94 62 95 63 96
REMARK H PARENT 23 6 8 11 13 24 28 33 84 52 54 63
REMARK Flexibility Score: inf
ROOT
ATOM      1  C   UNL A   1      35.405  30.353  27.351  1.00  0.00     0.023 C 
ENDROOT
BRANCH   1   2
ATOM      2  C   UNL A   1      34.700  29.005  27.416  1.00  0.00     0.116 C 
BRANCH   2   3
ATOM      3  N   UNL A   1      33.285  29.055  27.720  1.00  0.00    -0.354 N 
ATOM      4  C   UNL A   1      32.286  28.198  27.336  1.00  0.00     0.243 C 
ATOM      5  O   UNL A   1      31.272  28.180  28.045  1.00  0.00    -0.273 OA
ATOM      6  H   UNL A   1      33.000  29.811  28.282  1.00  0.00     0.163 HD
BRANCH   4   7
ATOM      7  C   UNL A   1      32.407  27.222  26.135  1.00  0.00     0.179 C 
BRANCH   7   8
ATOM      8  N   UNL A   1      31.095  26.874  25.594  1.00  0.00    -0.309 N 
ATOM      9  C   UNL A   1      30.256  25.877  25.972  1.00  0.00     0.408 C 
ATOM     10  O   UNL A   1      29.129  25.814  25.492  1.00  0.00    -0.225 OA
ATOM     11  H   UNL A   1      30.776  27.440  24.855  1.00  0.00     0.167 HD
BRANCH   9  12
ATOM     12  O   UNL A   1      30.798  24.995  26.841  1.00  0.00    -0.444 OA
BRANCH  12  13
ATOM     13  C   UNL A   1      30.972  23.610  26.439  1.00  0.00     0.106 C 
ATOM     14  C   UNL A   1      29.787  22.851  27.058  1.00  0.00     0.056 C 
ATOM     15  C   UNL A   1      32.268  23.023  27.018  1.00  0.00     0.056 C 
ATOM     16  C   UNL A   1      30.902  23.455  24.916  1.00  0.00     0.056 C 
ENDBRANCH  12  13
ENDBRANCH   9  12
ENDBRANCH   7   8
BRANCH   7  17
ATOM     17  C   UNL A   1      33.459  27.621  25.070  1.00  0.00     0.073 C 
BRANCH  17  18
ATOM     18  C   UNL A   1      33.345  26.980  23.711  1.00  0.00    -0.019 A 
ATOM     19  C   UNL A   1      32.854  27.627  22.589  1.00  0.00     0.087 A 
ATOM     20  C   UNL A   1      33.652  25.625  23.303  1.00  0.00     0.021 A 
ATOM     21  N   UNL A   1      32.752  26.723  21.570  1.00  0.00    -0.361 N 
ATOM     22  C   UNL A   1      33.121  25.475  22.013  1.00  0.00     0.047 A 
ATOM     23  C   UNL A   1      34.226  24.467  23.878  1.00  0.00     0.050 A 
ATOM     24  H   UNL A   1      32.458  26.934  20.655  1.00  0.00     0.166 HD
ATOM     25  C   UNL A   1      33.029  24.237  21.359  1.00  0.00     0.027 A 
ATOM     26  C   UNL A   1      34.147  23.222  23.251  1.00  0.00     0.021 A 
ATOM     27  Cl  UNL A   1      35.068  24.630  25.357  1.00  0.00    -0.084 Cl
ATOM     28  C   UNL A   1      33.526  23.108  22.013  1.00  0.00     0.004 A 
ENDBRANCH  17  18
ENDBRANCH   7  17
ENDBRANCH   4   7
ENDBRANCH   2   3
ENDBRANCH   1   2
BRANCH   1  29
ATOM     29  C   UNL A   1      34.545  31.573  27.698  1.00  0.00     0.023 C 
BRANCH  29  30
ATOM     30  C   UNL A   1      35.302  32.731  28.342  1.00  0.00     0.116 C 
BRANCH  30  31
ATOM     31  N   UNL A   1      34.891  32.996  29.715  1.00  0.00    -0.352 N 
ATOM     32  C   UNL A   1      35.222  32.282  30.847  1.00  0.00     0.251 C 
ATOM     33  H   UNL A   1      34.309  33.778  29.851  1.00  0.00     0.163 HD
ATOM     34  O   UNL A   1      34.560  32.398  31.872  1.00  0.00    -0.269 OA
BRANCH  32  35
ATOM     35  C   UNL A   1      36.403  31.398  30.822  1.00  0.00     0.039 A 
ATOM     36  C   UNL A   1      36.253  30.007  30.840  1.00  0.00     0.014 A 
ATOM     37  C   UNL A   1      37.674  31.979  30.825  1.00  0.00     0.014 A 
ATOM     38  C   UNL A   1      37.391  29.206  30.809  1.00  0.00     0.010 A 
ATOM     39  C   UNL A   1      38.795  31.190  30.719  1.00  0.00     0.010 A 
ATOM     40  C   UNL A   1      38.657  29.805  30.745  1.00  0.00    -0.014 A 
BRANCH  40  41
ATOM     41  C   UNL A   1      39.852  28.986  30.612  1.00  0.00     0.031 A 
ATOM     42  C   UNL A   1      40.616  28.773  31.868  1.00  0.00     0.074 A 
ATOM     43  C   UNL A   1      40.141  28.283  29.500  1.00  0.00     0.049 A 
ATOM     44  N   UNL A   1      41.767  29.263  32.188  1.00  0.00    -0.248 NA
ATOM     45  C   UNL A   1      39.970  28.009  32.948  1.00  0.00     0.031 C 
ATOM     46  C   UNL A   1      39.327  28.106  28.292  1.00  0.00     0.029 A 
ATOM     47  N   UNL A   1      41.210  27.480  29.264  1.00  0.00    -0.354 N 
ATOM     48  C   UNL A   1      42.090  28.708  33.423  1.00  0.00     0.074 A 
ATOM     49  C   UNL A   1      40.882  28.094  33.916  1.00  0.00     0.031 C 
ATOM     50  C   UNL A   1      39.833  27.092  27.553  1.00  0.00     0.029 A 
ATOM     51  C   UNL A   1      41.089  26.667  28.145  1.00  0.00     0.049 A 
ATOM     52  H   UNL A   1      42.008  27.475  29.842  1.00  0.00     0.167 HD
ATOM     53  C   UNL A   1      43.381  28.586  33.846  1.00  0.00     0.031 A 
ATOM     54  C   UNL A   1      41.957  25.699  27.759  1.00  0.00     0.031 A 
ATOM     55  C   UNL A   1      44.288  29.352  33.033  1.00  0.00     0.049 A 
ATOM     56  C   UNL A   1      43.261  26.026  28.392  1.00  0.00     0.074 A 
ATOM     57  C   UNL A   1      44.425  30.691  32.724  1.00  0.00     0.029 A 
ATOM     58  N   UNL A   1      44.987  28.667  32.065  1.00  0.00    -0.354 N 
ATOM     59  N   UNL A   1      43.944  27.102  28.115  1.00  0.00    -0.248 NA
ATOM     60  C   UNL A   1      43.601  25.378  29.649  1.00  0.00     0.031 C 
ATOM     61  C   UNL A   1      44.772  30.713  31.341  1.00  0.00     0.029 A 
ATOM     62  C   UNL A   1      44.888  29.391  30.903  1.00  0.00     0.049 A 
ATOM     63  H   UNL A   1      45.467  27.817  32.183  1.00  0.00     0.167 HD
ATOM     64  C   UNL A   1      44.494  27.498  29.326  1.00  0.00     0.074 A 
ATOM     65  C   UNL A   1      44.334  26.345  30.208  1.00  0.00     0.031 C 
ATOM     66  C   UNL A   1      44.783  28.809  29.579  1.00  0.00     0.031 A 
BRANCH  53  67
ATOM     67  C   UNL A   1      43.863  27.475  34.746  1.00  0.00    -0.014 A 
ATOM     68  C   UNL A   1      44.734  27.779  35.812  1.00  0.00     0.010 A 
ATOM     69  C   UNL A   1      43.702  26.112  34.419  1.00  0.00     0.010 A 
ATOM     70  C   UNL A   1      45.445  26.769  36.479  1.00  0.00     0.020 A 
ATOM     71  C   UNL A   1      44.368  25.098  35.107  1.00  0.00     0.020 A 
ATOM     72  C   UNL A   1      45.261  25.435  36.115  1.00  0.00     0.054 A 
BRANCH  72  73
ATOM     73  S   UNL A   1      46.270  24.152  36.896  1.00  0.00     0.124 S 
ATOM     74  O   UNL A   1      45.928  24.311  38.306  1.00  0.00    -0.237 OA
ATOM     75  O   UNL A   1      45.772  22.939  36.255  1.00  0.00    -0.237 OA
ATOM     76  O   UNL A   1      47.636  24.526  36.538  1.00  0.00    -0.744 OA
ENDBRANCH  72  73
ENDBRANCH  53  67
BRANCH  54  77
ATOM     77  C   UNL A   1      41.655  24.369  27.169  1.00  0.00    -0.014 A 
ATOM     78  C   UNL A   1      42.419  23.873  26.094  1.00  0.00     0.010 A 
ATOM     79  C   UNL A   1      40.817  23.460  27.847  1.00  0.00     0.010 A 
ATOM     80  C   UNL A   1      42.415  22.506  25.770  1.00  0.00     0.020 A 
ATOM     81  C   UNL A   1      40.799  22.097  27.522  1.00  0.00     0.020 A 
ATOM     82  C   UNL A   1      41.627  21.621  26.509  1.00  0.00     0.054 A 
BRANCH  82  83
ATOM     83  S   UNL A   1      41.772  19.835  26.205  1.00  0.00     0.124 S 
ATOM     84  O   UNL A   1      42.827  19.771  25.198  1.00  0.00    -0.237 OA
ATOM     85  O   UNL A   1      42.128  19.325  27.526  1.00  0.00    -0.237 OA
ATOM     86  O   UNL A   1      40.442  19.456  25.734  1.00  0.00    -0.744 OA
ENDBRANCH  82  83
ENDBRANCH  54  77
BRANCH  66  87
ATOM     87  C   UNL A   1      44.750  29.793  28.431  1.00  0.00    -0.014 A 
ATOM     88  C   UNL A   1      43.558  30.339  27.914  1.00  0.00     0.010 A 
ATOM     89  C   UNL A   1      45.975  30.335  28.009  1.00  0.00     0.010 A 
ATOM     90  C   UNL A   1      43.596  31.412  27.008  1.00  0.00     0.020 A 
ATOM     91  C   UNL A   1      46.019  31.411  27.119  1.00  0.00     0.020 A 
ATOM     92  C   UNL A   1      44.830  31.952  26.630  1.00  0.00     0.054 A 
BRANCH  92  93
ATOM     93  S   UNL A   1      44.873  33.403  25.537  1.00  0.00     0.124 S 
ATOM     94  O   UNL A   1      44.068  34.380  26.265  1.00  0.00    -0.237 OA
ATOM     95  O   UNL A   1      46.301  33.700  25.459  1.00  0.00    -0.237 OA
ATOM     96  O   UNL A   1      44.278  32.920  24.292  1.00  0.00    -0.744 OA
ENDBRANCH  92  93
ENDBRANCH  66  87
ENDBRANCH  40  41
ENDBRANCH  32  35
ENDBRANCH  30  31
ENDBRANCH  29  30
ENDBRANCH   1  29
TORSDOF 19
ENDMDL
