MODEL 1
REMARK VINA RESULT:     -11.8      0.000      0.000
REMARK SMILES O=C(NCCCCNC(=O)c1nc(NC[C@H]2c3ccccc3CSc3ccccc32)c2ccccc2n1)c1ccc(-c2c3nc(c(-c4ccc(S(=O)(=O)[O-])cc4)c4ccc([nH]4)c(-c4ccc(S(=O)(=O)[O-])cc4)c4nc(c(-c5ccc(S(=O)(=O)[O-])cc5)c5ccc2[nH]5)C=C4)C=C3)cc1
REMARK SMILES IDX 5 1 4 2 3 3 1 4 2 5 38 7 39 8 97 9 40 10 96 11 41 12 42 13
REMARK SMILES IDX 43 14 90 15 44 16 95 17 89 18 91 19 45 20 94 21 88 22 87 23
REMARK SMILES IDX 46 25 76 26 57 27 75 28 58 29 61 30 74 31 92 32 59 33 60 34
REMARK SMILES IDX 73 36 93 37 62 38 47 39 48 40 56 41 49 42 55 43 50 44 51 45
REMARK SMILES IDX 52 46 53 47 54 48 77 49 78 50 86 51 79 52 85 53 80 54 81 55
REMARK SMILES IDX 82 56 83 57 84 58 63 59 64 60 72 61 65 62 71 63 66 64 67 65
REMARK SMILES IDX 68 66 69 67 70 68 6 69 7 70 8 71 9 72 10 74 11 75 12 76
REMARK SMILES IDX 37 77 13 78 36 79 31 80 35 81 32 82 34 83 33 84 14 85 15 87
REMARK SMILES IDX 16 88 17 89 30 90 18 91 22 92 25 93 29 94 19 95 21 96 23 97
REMARK SMILES IDX 24 98 26 99 28 100 20 101 27 102
REMARK H PARENT 3 6 91 24 61 35 8 73 14 86
REMARK Flexibility Score: inf
ROOT
ATOM      1  C   UNL A   1      32.554  28.911  25.972  1.00  0.00     0.023 C 
ENDROOT
BRANCH   1   2
ATOM      2  C   UNL A   1      33.829  29.555  26.503  1.00  0.00     0.116 C 
BRANCH   2   3
ATOM      3  N   UNL A   1      33.624  30.926  26.939  1.00  0.00    -0.352 N 
ATOM      4  O   UNL A   1      33.891  32.755  28.217  1.00  0.00    -0.269 OA
ATOM      5  C   UNL A   1      34.322  31.663  27.863  1.00  0.00     0.251 C 
ATOM      6  H   UNL A   1      32.872  31.395  26.508  1.00  0.00     0.163 HD
BRANCH   5   7
ATOM      7  C   UNL A   1      35.583  31.140  28.439  1.00  0.00     0.039 A 
ATOM      8  C   UNL A   1      35.539  29.971  29.205  1.00  0.00     0.014 A 
ATOM      9  C   UNL A   1      36.794  31.815  28.266  1.00  0.00     0.014 A 
ATOM     10  C   UNL A   1      36.713  29.469  29.772  1.00  0.00     0.010 A 
ATOM     11  C   UNL A   1      37.974  31.268  28.759  1.00  0.00     0.010 A 
ATOM     12  C   UNL A   1      37.942  30.108  29.546  1.00  0.00    -0.014 A 
BRANCH  12  13
ATOM     13  C   UNL A   1      39.194  29.627  30.187  1.00  0.00     0.031 A 
ATOM     14  C   UNL A   1      39.670  30.276  31.461  1.00  0.00     0.074 A 
ATOM     15  C   UNL A   1      39.913  28.638  29.622  1.00  0.00     0.049 A 
ATOM     16  N   UNL A   1      40.759  30.042  32.146  1.00  0.00    -0.248 NA
ATOM     17  C   UNL A   1      38.825  31.342  32.028  1.00  0.00     0.031 C 
ATOM     18  C   UNL A   1      39.563  27.941  28.384  1.00  0.00     0.029 A 
ATOM     19  N   UNL A   1      41.087  28.044  30.017  1.00  0.00    -0.354 N 
ATOM     20  C   UNL A   1      40.736  30.939  33.209  1.00  0.00     0.074 A 
ATOM     21  C   UNL A   1      39.560  31.761  33.047  1.00  0.00     0.031 C 
ATOM     22  C   UNL A   1      40.481  26.991  28.140  1.00  0.00     0.029 A 
ATOM     23  C   UNL A   1      41.511  27.041  29.176  1.00  0.00     0.049 A 
ATOM     24  H   UNL A   1      41.580  28.312  30.826  1.00  0.00     0.167 HD
ATOM     25  C   UNL A   1      41.600  31.045  34.245  1.00  0.00     0.031 A 
ATOM     26  C   UNL A   1      42.602  26.249  29.229  1.00  0.00     0.031 A 
ATOM     27  C   UNL A   1      42.747  30.195  34.420  1.00  0.00     0.049 A 
ATOM     28  C   UNL A   1      43.560  26.396  30.381  1.00  0.00     0.074 A 
ATOM     29  C   UNL A   1      43.650  30.189  35.467  1.00  0.00     0.029 A 
ATOM     30  N   UNL A   1      43.144  29.200  33.540  1.00  0.00    -0.354 N 
ATOM     31  N   UNL A   1      43.495  27.216  31.403  1.00  0.00    -0.248 NA
ATOM     32  C   UNL A   1      44.731  25.507  30.397  1.00  0.00     0.031 C 
ATOM     33  C   UNL A   1      44.632  29.237  35.188  1.00  0.00     0.029 A 
ATOM     34  C   UNL A   1      44.297  28.594  34.005  1.00  0.00     0.049 A 
ATOM     35  H   UNL A   1      42.675  28.961  32.708  1.00  0.00     0.167 HD
ATOM     36  C   UNL A   1      44.602  26.929  32.193  1.00  0.00     0.074 A 
ATOM     37  C   UNL A   1      45.312  25.847  31.542  1.00  0.00     0.031 C 
ATOM     38  C   UNL A   1      44.994  27.512  33.353  1.00  0.00     0.031 A 
BRANCH  25  39
ATOM     39  C   UNL A   1      41.334  32.094  35.293  1.00  0.00    -0.014 A 
ATOM     40  C   UNL A   1      40.330  31.883  36.256  1.00  0.00     0.010 A 
ATOM     41  C   UNL A   1      41.993  33.336  35.256  1.00  0.00     0.010 A 
ATOM     42  C   UNL A   1      39.964  32.903  37.137  1.00  0.00     0.020 A 
ATOM     43  C   UNL A   1      41.654  34.349  36.157  1.00  0.00     0.020 A 
ATOM     44  C   UNL A   1      40.622  34.135  37.074  1.00  0.00     0.054 A 
BRANCH  44  45
ATOM     45  S   UNL A   1      40.110  35.460  38.201  1.00  0.00     0.124 S 
ATOM     46  O   UNL A   1      41.320  35.684  38.984  1.00  0.00    -0.237 OA
ATOM     47  O   UNL A   1      39.743  36.537  37.282  1.00  0.00    -0.237 OA
ATOM     48  O   UNL A   1      38.989  34.872  38.933  1.00  0.00    -0.744 OA
ENDBRANCH  44  45
ENDBRANCH  25  39
BRANCH  26  49
ATOM     49  C   UNL A   1      42.804  25.218  28.171  1.00  0.00    -0.014 A 
ATOM     50  C   UNL A   1      42.249  23.931  28.312  1.00  0.00     0.010 A 
ATOM     51  C   UNL A   1      43.626  25.487  27.062  1.00  0.00     0.010 A 
ATOM     52  C   UNL A   1      42.561  22.919  27.400  1.00  0.00     0.020 A 
ATOM     53  C   UNL A   1      43.914  24.485  26.130  1.00  0.00     0.020 A 
ATOM     54  C   UNL A   1      43.406  23.199  26.323  1.00  0.00     0.054 A 
BRANCH  54  55
ATOM     55  S   UNL A   1      43.850  21.851  25.191  1.00  0.00     0.124 S 
ATOM     56  O   UNL A   1      42.816  20.863  25.485  1.00  0.00    -0.237 OA
ATOM     57  O   UNL A   1      43.755  22.490  23.882  1.00  0.00    -0.237 OA
ATOM     58  O   UNL A   1      45.202  21.486  25.608  1.00  0.00    -0.744 OA
ENDBRANCH  54  55
ENDBRANCH  26  49
BRANCH  38  59
ATOM     59  C   UNL A   1      46.249  27.013  34.023  1.00  0.00    -0.014 A 
ATOM     60  C   UNL A   1      46.159  26.018  35.015  1.00  0.00     0.010 A 
ATOM     61  C   UNL A   1      47.486  27.638  33.791  1.00  0.00     0.010 A 
ATOM     62  C   UNL A   1      47.269  25.693  35.798  1.00  0.00     0.020 A 
ATOM     63  C   UNL A   1      48.607  27.293  34.550  1.00  0.00     0.020 A 
ATOM     64  C   UNL A   1      48.484  26.344  35.569  1.00  0.00     0.054 A 
BRANCH  64  65
ATOM     65  S   UNL A   1      49.899  25.950  36.633  1.00  0.00     0.124 S 
ATOM     66  O   UNL A   1      49.773  26.944  37.694  1.00  0.00    -0.237 OA
ATOM     67  O   UNL A   1      49.630  24.570  37.027  1.00  0.00    -0.237 OA
ATOM     68  O   UNL A   1      51.051  26.123  35.749  1.00  0.00    -0.744 OA
ENDBRANCH  64  65
ENDBRANCH  38  59
ENDBRANCH  12  13
ENDBRANCH   5   7
ENDBRANCH   2   3
ENDBRANCH   1   2
BRANCH   1  69
ATOM     69  C   UNL A   1      32.125  29.377  24.583  1.00  0.00     0.023 C 
BRANCH  69  70
ATOM     70  C   UNL A   1      30.751  28.889  24.135  1.00  0.00     0.116 C 
BRANCH  70  71
ATOM     71  N   UNL A   1      30.802  28.227  22.841  1.00  0.00    -0.349 N 
ATOM     72  C   UNL A   1      31.299  26.972  22.534  1.00  0.00     0.289 C 
ATOM     73  H   UNL A   1      30.436  28.738  22.084  1.00  0.00     0.163 HD
ATOM     74  O   UNL A   1      31.420  26.655  21.351  1.00  0.00    -0.266 OA
BRANCH  72  75
ATOM     75  C   UNL A   1      31.684  26.026  23.635  1.00  0.00     0.220 A 
ATOM     76  N   UNL A   1      32.970  26.037  24.028  1.00  0.00    -0.206 NA
ATOM     77  N   UNL A   1      30.696  25.278  24.159  1.00  0.00    -0.224 NA
ATOM     78  C   UNL A   1      33.281  25.251  25.061  1.00  0.00     0.138 A 
ATOM     79  C   UNL A   1      31.007  24.537  25.214  1.00  0.00     0.077 A 
ATOM     80  C   UNL A   1      32.307  24.470  25.729  1.00  0.00     0.043 A 
ATOM     81  C   UNL A   1      29.988  23.827  25.837  1.00  0.00     0.029 A 
ATOM     82  C   UNL A   1      32.539  23.659  26.871  1.00  0.00     0.014 A 
ATOM     83  C   UNL A   1      30.219  23.052  26.974  1.00  0.00     0.002 A 
ATOM     84  C   UNL A   1      31.501  22.967  27.493  1.00  0.00     0.001 A 
BRANCH  78  85
ATOM     85  N   UNL A   1      34.600  25.193  25.478  1.00  0.00    -0.368 N 
ATOM     86  H   UNL A   1      34.868  25.815  26.192  1.00  0.00     0.162 HD
BRANCH  85  87
ATOM     87  C   UNL A   1      35.635  24.297  24.957  1.00  0.00     0.127 C 
BRANCH  87  88
ATOM     88  C   UNL A   1      35.356  22.721  24.973  1.00  0.00     0.070 C 
ATOM     89  C   UNL A   1      34.256  22.323  23.959  1.00  0.00    -0.035 A 
ATOM     90  C   UNL A   1      36.534  21.721  25.149  1.00  0.00    -0.025 A 
ATOM     91  C   UNL A   1      34.023  23.034  22.770  1.00  0.00     0.005 A 
ATOM     92  C   UNL A   1      33.394  21.236  24.232  1.00  0.00    -0.034 A 
ATOM     93  C   UNL A   1      36.477  20.316  24.978  1.00  0.00     0.011 A 
ATOM     94  C   UNL A   1      37.774  22.210  25.618  1.00  0.00     0.005 A 
ATOM     95  C   UNL A   1      32.963  22.718  21.912  1.00  0.00     0.000 A 
ATOM     96  C   UNL A   1      32.334  20.916  23.356  1.00  0.00     0.005 A 
ATOM     97  C   UNL A   1      33.685  20.296  25.362  1.00  0.00     0.110 C 
ATOM     98  S   UNL A   1      35.049  19.227  24.850  1.00  0.00    -0.121 SA
ATOM     99  C   UNL A   1      37.670  19.549  25.012  1.00  0.00     0.015 A 
ATOM    100  C   UNL A   1      38.943  21.444  25.669  1.00  0.00     0.000 A 
ATOM    101  C   UNL A   1      32.114  21.663  22.208  1.00  0.00     0.000 A 
ATOM    102  C   UNL A   1      38.900  20.113  25.318  1.00  0.00     0.001 A 
ENDBRANCH  87  88
ENDBRANCH  85  87
ENDBRANCH  78  85
ENDBRANCH  72  75
ENDBRANCH  70  71
ENDBRANCH  69  70
ENDBRANCH   1  69
TORSDOF 17
ENDMDL
MODEL 2
REMARK VINA RESULT:     -11.6      4.779     10.870
REMARK SMILES O=C(NCCCCNC(=O)c1nc(NC[C@H]2c3ccccc3CSc3ccccc32)c2ccccc2n1)c1ccc(-c2c3nc(c(-c4ccc(S(=O)(=O)[O-])cc4)c4ccc([nH]4)c(-c4ccc(S(=O)(=O)[O-])cc4)c4nc(c(-c5ccc(S(=O)(=O)[O-])cc5)c5ccc2[nH]5)C=C4)C=C3)cc1
REMARK SMILES IDX 5 1 4 2 3 3 1 4 2 5 38 7 39 8 97 9 40 10 96 11 41 12 42 13
REMARK SMILES IDX 43 14 90 15 44 16 95 17 89 18 91 19 45 20 94 21 88 22 87 23
REMARK SMILES IDX 46 25 76 26 57 27 75 28 58 29 61 30 74 31 92 32 59 33 60 34
REMARK SMILES IDX 73 36 93 37 62 38 47 39 48 40 56 41 49 42 55 43 50 44 51 45
REMARK SMILES IDX 52 46 53 47 54 48 77 49 78 50 86 51 79 52 85 53 80 54 81 55
REMARK SMILES IDX 82 56 83 57 84 58 63 59 64 60 72 61 65 62 71 63 66 64 67 65
REMARK SMILES IDX 68 66 69 67 70 68 6 69 7 70 8 71 9 72 10 74 11 75 12 76
REMARK SMILES IDX 37 77 13 78 36 79 31 80 35 81 32 82 34 83 33 84 14 85 15 87
REMARK SMILES IDX 16 88 17 89 30 90 18 91 22 92 25 93 29 94 19 95 21 96 23 97
REMARK SMILES IDX 24 98 26 99 28 100 20 101 27 102
REMARK H PARENT 3 6 91 24 61 35 8 73 14 86
REMARK Flexibility Score: inf
ROOT
ATOM      1  C   UNL A   1      39.392  22.985  27.127  1.00  0.00     0.023 C 
ENDROOT
BRANCH   1   2
ATOM      2  C   UNL A   1      39.297  24.415  26.611  1.00  0.00     0.116 C 
BRANCH   2   3
ATOM      3  N   UNL A   1      40.414  24.775  25.753  1.00  0.00    -0.352 N 
ATOM      4  O   UNL A   1      42.047  26.072  24.913  1.00  0.00    -0.269 OA
ATOM      5  C   UNL A   1      41.265  25.849  25.832  1.00  0.00     0.251 C 
ATOM      6  H   UNL A   1      40.584  24.158  25.004  1.00  0.00     0.163 HD
BRANCH   5   7
ATOM      7  C   UNL A   1      41.235  26.742  27.014  1.00  0.00     0.039 A 
ATOM      8  C   UNL A   1      40.814  26.222  28.241  1.00  0.00     0.014 A 
ATOM      9  C   UNL A   1      41.577  28.094  26.910  1.00  0.00     0.014 A 
ATOM     10  C   UNL A   1      40.761  27.050  29.365  1.00  0.00     0.010 A 
ATOM     11  C   UNL A   1      41.606  28.895  28.047  1.00  0.00     0.010 A 
ATOM     12  C   UNL A   1      41.166  28.392  29.280  1.00  0.00    -0.014 A 
BRANCH  12  13
ATOM     13  C   UNL A   1      41.063  29.307  30.446  1.00  0.00     0.031 A 
ATOM     14  C   UNL A   1      39.935  30.303  30.508  1.00  0.00     0.074 A 
ATOM     15  C   UNL A   1      41.984  29.266  31.428  1.00  0.00     0.049 A 
ATOM     16  N   UNL A   1      39.697  31.223  31.407  1.00  0.00    -0.248 NA
ATOM     17  C   UNL A   1      38.958  30.281  29.405  1.00  0.00     0.031 C 
ATOM     18  C   UNL A   1      43.129  28.355  31.475  1.00  0.00     0.029 A 
ATOM     19  N   UNL A   1      42.102  30.007  32.579  1.00  0.00    -0.354 N 
ATOM     20  C   UNL A   1      38.560  31.893  30.970  1.00  0.00     0.074 A 
ATOM     21  C   UNL A   1      38.189  31.318  29.698  1.00  0.00     0.031 C 
ATOM     22  C   UNL A   1      43.811  28.567  32.613  1.00  0.00     0.029 A 
ATOM     23  C   UNL A   1      43.183  29.658  33.354  1.00  0.00     0.049 A 
ATOM     24  H   UNL A   1      41.472  30.722  32.825  1.00  0.00     0.167 HD
ATOM     25  C   UNL A   1      37.868  32.877  31.589  1.00  0.00     0.031 A 
ATOM     26  C   UNL A   1      43.623  30.156  34.529  1.00  0.00     0.031 A 
ATOM     27  C   UNL A   1      38.221  33.417  32.875  1.00  0.00     0.049 A 
ATOM     28  C   UNL A   1      42.847  31.263  35.192  1.00  0.00     0.074 A 
ATOM     29  C   UNL A   1      37.549  34.376  33.610  1.00  0.00     0.029 A 
ATOM     30  N   UNL A   1      39.329  33.042  33.620  1.00  0.00    -0.354 N 
ATOM     31  N   UNL A   1      41.746  31.850  34.788  1.00  0.00    -0.248 NA
ATOM     32  C   UNL A   1      43.363  31.768  36.473  1.00  0.00     0.031 C 
ATOM     33  C   UNL A   1      38.286  34.631  34.767  1.00  0.00     0.029 A 
ATOM     34  C   UNL A   1      39.376  33.773  34.792  1.00  0.00     0.049 A 
ATOM     35  H   UNL A   1      39.984  32.356  33.353  1.00  0.00     0.167 HD
ATOM     36  C   UNL A   1      41.425  32.778  35.772  1.00  0.00     0.074 A 
ATOM     37  C   UNL A   1      42.438  32.664  36.802  1.00  0.00     0.031 C 
ATOM     38  C   UNL A   1      40.385  33.648  35.816  1.00  0.00     0.031 A 
BRANCH  25  39
ATOM     39  C   UNL A   1      36.639  33.424  30.910  1.00  0.00    -0.014 A 
ATOM     40  C   UNL A   1      36.762  34.110  29.688  1.00  0.00     0.010 A 
ATOM     41  C   UNL A   1      35.381  33.366  31.536  1.00  0.00     0.010 A 
ATOM     42  C   UNL A   1      35.661  34.757  29.121  1.00  0.00     0.020 A 
ATOM     43  C   UNL A   1      34.269  33.983  30.956  1.00  0.00     0.020 A 
ATOM     44  C   UNL A   1      34.422  34.698  29.766  1.00  0.00     0.054 A 
BRANCH  44  45
ATOM     45  S   UNL A   1      33.012  35.574  29.036  1.00  0.00     0.124 S 
ATOM     46  O   UNL A   1      32.269  36.000  30.217  1.00  0.00    -0.237 OA
ATOM     47  O   UNL A   1      33.659  36.642  28.276  1.00  0.00    -0.237 OA
ATOM     48  O   UNL A   1      32.360  34.551  28.220  1.00  0.00    -0.744 OA
ENDBRANCH  44  45
ENDBRANCH  25  39
BRANCH  26  49
ATOM     49  C   UNL A   1      44.836  29.564  35.162  1.00  0.00    -0.014 A 
ATOM     50  C   UNL A   1      46.121  29.888  34.685  1.00  0.00     0.010 A 
ATOM     51  C   UNL A   1      44.711  28.608  36.184  1.00  0.00     0.010 A 
ATOM     52  C   UNL A   1      47.249  29.223  35.174  1.00  0.00     0.020 A 
ATOM     53  C   UNL A   1      45.841  27.963  36.698  1.00  0.00     0.020 A 
ATOM     54  C   UNL A   1      47.099  28.252  36.167  1.00  0.00     0.054 A 
BRANCH  54  55
ATOM     55  S   UNL A   1      48.570  27.355  36.736  1.00  0.00     0.124 S 
ATOM     56  O   UNL A   1      48.312  26.009  36.232  1.00  0.00    -0.237 OA
ATOM     57  O   UNL A   1      49.657  28.074  36.079  1.00  0.00    -0.237 OA
ATOM     58  O   UNL A   1      48.519  27.499  38.189  1.00  0.00    -0.744 OA
ENDBRANCH  54  55
ENDBRANCH  26  49
BRANCH  38  59
ATOM     59  C   UNL A   1      40.259  34.561  37.008  1.00  0.00    -0.014 A 
ATOM     60  C   UNL A   1      39.432  34.190  38.084  1.00  0.00     0.010 A 
ATOM     61  C   UNL A   1      40.823  35.849  36.991  1.00  0.00     0.010 A 
ATOM     62  C   UNL A   1      39.128  35.105  39.096  1.00  0.00     0.020 A 
ATOM     63  C   UNL A   1      40.549  36.756  38.017  1.00  0.00     0.020 A 
ATOM     64  C   UNL A   1      39.679  36.388  39.048  1.00  0.00     0.054 A 
BRANCH  64  65
ATOM     65  S   UNL A   1      39.228  37.580  40.339  1.00  0.00     0.124 S 
ATOM     66  O   UNL A   1      38.660  36.717  41.370  1.00  0.00    -0.237 OA
ATOM     67  O   UNL A   1      40.511  38.196  40.669  1.00  0.00    -0.237 OA
ATOM     68  O   UNL A   1      38.276  38.465  39.670  1.00  0.00    -0.744 OA
ENDBRANCH  64  65
ENDBRANCH  38  59
ENDBRANCH  12  13
ENDBRANCH   5   7
ENDBRANCH   2   3
ENDBRANCH   1   2
BRANCH   1  69
ATOM     69  C   UNL A   1      38.803  21.924  26.202  1.00  0.00     0.023 C 
BRANCH  69  70
ATOM     70  C   UNL A   1      39.829  21.064  25.470  1.00  0.00     0.116 C 
BRANCH  70  71
ATOM     71  N   UNL A   1      40.452  20.088  26.351  1.00  0.00    -0.349 N 
ATOM     72  C   UNL A   1      41.765  20.032  26.785  1.00  0.00     0.289 C 
ATOM     73  H   UNL A   1      39.862  19.372  26.680  1.00  0.00     0.163 HD
ATOM     74  O   UNL A   1      42.149  19.028  27.384  1.00  0.00    -0.266 OA
BRANCH  72  75
ATOM     75  C   UNL A   1      42.694  21.182  26.519  1.00  0.00     0.220 A 
ATOM     76  N   UNL A   1      42.640  22.220  27.372  1.00  0.00    -0.206 NA
ATOM     77  N   UNL A   1      43.527  21.052  25.470  1.00  0.00    -0.224 NA
ATOM     78  C   UNL A   1      43.526  23.197  27.172  1.00  0.00     0.138 A 
ATOM     79  C   UNL A   1      44.433  22.007  25.310  1.00  0.00     0.077 A 
ATOM     80  C   UNL A   1      44.492  23.135  26.137  1.00  0.00     0.043 A 
ATOM     81  C   UNL A   1      45.369  21.856  24.294  1.00  0.00     0.029 A 
ATOM     82  C   UNL A   1      45.507  24.097  25.895  1.00  0.00     0.014 A 
ATOM     83  C   UNL A   1      46.380  22.792  24.079  1.00  0.00     0.002 A 
ATOM     84  C   UNL A   1      46.449  23.920  24.883  1.00  0.00     0.001 A 
BRANCH  78  85
ATOM     85  N   UNL A   1      43.486  24.309  27.996  1.00  0.00    -0.368 N 
ATOM     86  H   UNL A   1      43.272  25.170  27.570  1.00  0.00     0.162 HD
BRANCH  85  87
ATOM     87  C   UNL A   1      43.732  24.327  29.439  1.00  0.00     0.127 C 
BRANCH  87  88
ATOM     88  C   UNL A   1      45.110  24.948  29.969  1.00  0.00     0.070 C 
ATOM     89  C   UNL A   1      45.611  26.094  29.058  1.00  0.00    -0.035 A 
ATOM     90  C   UNL A   1      45.355  25.115  31.496  1.00  0.00    -0.025 A 
ATOM     91  C   UNL A   1      44.743  26.918  28.324  1.00  0.00     0.005 A 
ATOM     92  C   UNL A   1      46.997  26.317  28.889  1.00  0.00    -0.034 A 
ATOM     93  C   UNL A   1      46.418  25.827  32.104  1.00  0.00     0.011 A 
ATOM     94  C   UNL A   1      44.513  24.425  32.398  1.00  0.00     0.005 A 
ATOM     95  C   UNL A   1      45.216  27.887  27.431  1.00  0.00     0.000 A 
ATOM     96  C   UNL A   1      47.468  27.303  27.996  1.00  0.00     0.005 A 
ATOM     97  C   UNL A   1      47.994  25.632  29.775  1.00  0.00     0.110 C 
ATOM     98  S   UNL A   1      47.947  26.449  31.387  1.00  0.00    -0.121 SA
ATOM     99  C   UNL A   1      46.421  26.033  33.507  1.00  0.00     0.015 A 
ATOM    100  C   UNL A   1      44.534  24.617  33.783  1.00  0.00     0.000 A 
ATOM    101  C   UNL A   1      46.580  28.075  27.262  1.00  0.00     0.000 A 
ATOM    102  C   UNL A   1      45.467  25.465  34.338  1.00  0.00     0.001 A 
ENDBRANCH  87  88
ENDBRANCH  85  87
ENDBRANCH  78  85
ENDBRANCH  72  75
ENDBRANCH  70  71
ENDBRANCH  69  70
ENDBRANCH   1  69
TORSDOF 17
ENDMDL
MODEL 3
REMARK VINA RESULT:     -11.4      3.085      9.144
REMARK SMILES O=C(NCCCCNC(=O)c1nc(NC[C@H]2c3ccccc3CSc3ccccc32)c2ccccc2n1)c1ccc(-c2c3nc(c(-c4ccc(S(=O)(=O)[O-])cc4)c4ccc([nH]4)c(-c4ccc(S(=O)(=O)[O-])cc4)c4nc(c(-c5ccc(S(=O)(=O)[O-])cc5)c5ccc2[nH]5)C=C4)C=C3)cc1
REMARK SMILES IDX 5 1 4 2 3 3 1 4 2 5 38 7 39 8 97 9 40 10 96 11 41 12 42 13
REMARK SMILES IDX 43 14 90 15 44 16 95 17 89 18 91 19 45 20 94 21 88 22 87 23
REMARK SMILES IDX 46 25 76 26 57 27 75 28 58 29 61 30 74 31 92 32 59 33 60 34
REMARK SMILES IDX 73 36 93 37 62 38 47 39 48 40 56 41 49 42 55 43 50 44 51 45
REMARK SMILES IDX 52 46 53 47 54 48 77 49 78 50 86 51 79 52 85 53 80 54 81 55
REMARK SMILES IDX 82 56 83 57 84 58 63 59 64 60 72 61 65 62 71 63 66 64 67 65
REMARK SMILES IDX 68 66 69 67 70 68 6 69 7 70 8 71 9 72 10 74 11 75 12 76
REMARK SMILES IDX 37 77 13 78 36 79 31 80 35 81 32 82 34 83 33 84 14 85 15 87
REMARK SMILES IDX 16 88 17 89 30 90 18 91 22 92 25 93 29 94 19 95 21 96 23 97
REMARK SMILES IDX 24 98 26 99 28 100 20 101 27 102
REMARK H PARENT 3 6 91 24 61 35 8 73 14 86
REMARK Flexibility Score: inf
ROOT
ATOM      1  C   UNL A   1      39.874  25.383  26.845  1.00  0.00     0.023 C 
ENDROOT
BRANCH   1   2
ATOM      2  C   UNL A   1      40.800  25.938  25.770  1.00  0.00     0.116 C 
BRANCH   2   3
ATOM      3  N   UNL A   1      42.148  25.405  25.864  1.00  0.00    -0.352 N 
ATOM      4  O   UNL A   1      44.277  25.268  26.573  1.00  0.00    -0.269 OA
ATOM      5  C   UNL A   1      43.146  25.704  26.759  1.00  0.00     0.251 C 
ATOM      6  H   UNL A   1      42.381  24.729  25.186  1.00  0.00     0.163 HD
BRANCH   5   7
ATOM      7  C   UNL A   1      42.863  26.557  27.937  1.00  0.00     0.039 A 
ATOM      8  C   UNL A   1      42.306  25.969  29.076  1.00  0.00     0.014 A 
ATOM      9  C   UNL A   1      43.102  27.934  27.909  1.00  0.00     0.014 A 
ATOM     10  C   UNL A   1      42.015  26.757  30.192  1.00  0.00     0.010 A 
ATOM     11  C   UNL A   1      42.891  28.701  29.051  1.00  0.00     0.010 A 
ATOM     12  C   UNL A   1      42.314  28.129  30.193  1.00  0.00    -0.014 A 
BRANCH  12  13
ATOM     13  C   UNL A   1      41.959  28.998  31.344  1.00  0.00     0.031 A 
ATOM     14  C   UNL A   1      40.753  29.896  31.250  1.00  0.00     0.074 A 
ATOM     15  C   UNL A   1      42.724  29.005  32.454  1.00  0.00     0.049 A 
ATOM     16  N   UNL A   1      40.306  30.767  32.118  1.00  0.00    -0.248 NA
ATOM     17  C   UNL A   1      39.958  29.825  30.012  1.00  0.00     0.031 C 
ATOM     18  C   UNL A   1      43.922  28.191  32.659  1.00  0.00     0.029 A 
ATOM     19  N   UNL A   1      42.604  29.720  33.621  1.00  0.00    -0.354 N 
ATOM     20  C   UNL A   1      39.194  31.353  31.525  1.00  0.00     0.074 A 
ATOM     21  C   UNL A   1      39.067  30.786  30.202  1.00  0.00     0.031 C 
ATOM     22  C   UNL A   1      44.406  28.425  33.890  1.00  0.00     0.029 A 
ATOM     23  C   UNL A   1      43.583  29.439  34.545  1.00  0.00     0.049 A 
ATOM     24  H   UNL A   1      41.885  30.374  33.780  1.00  0.00     0.167 HD
ATOM     25  C   UNL A   1      38.335  32.258  32.048  1.00  0.00     0.031 A 
ATOM     26  C   UNL A   1      43.798  29.938  35.781  1.00  0.00     0.031 A 
ATOM     27  C   UNL A   1      38.444  32.788  33.381  1.00  0.00     0.049 A 
ATOM     28  C   UNL A   1      42.840  30.957  36.336  1.00  0.00     0.074 A 
ATOM     29  C   UNL A   1      37.590  33.667  34.020  1.00  0.00     0.029 A 
ATOM     30  N   UNL A   1      39.456  32.484  34.278  1.00  0.00    -0.354 N 
ATOM     31  N   UNL A   1      41.765  31.463  35.780  1.00  0.00    -0.248 NA
ATOM     32  C   UNL A   1      43.113  31.466  37.689  1.00  0.00     0.031 C 
ATOM     33  C   UNL A   1      38.121  33.949  35.280  1.00  0.00     0.029 A 
ATOM     34  C   UNL A   1      39.264  33.183  35.456  1.00  0.00     0.049 A 
ATOM     35  H   UNL A   1      40.200  31.863  34.103  1.00  0.00     0.167 HD
ATOM     36  C   UNL A   1      41.222  32.333  36.719  1.00  0.00     0.074 A 
ATOM     37  C   UNL A   1      42.076  32.273  37.888  1.00  0.00     0.031 C 
ATOM     38  C   UNL A   1      40.117  33.112  36.618  1.00  0.00     0.031 A 
BRANCH  25  39
ATOM     39  C   UNL A   1      37.178  32.721  31.199  1.00  0.00    -0.014 A 
ATOM     40  C   UNL A   1      35.961  32.016  31.230  1.00  0.00     0.010 A 
ATOM     41  C   UNL A   1      37.331  33.779  30.285  1.00  0.00     0.010 A 
ATOM     42  C   UNL A   1      34.933  32.334  30.340  1.00  0.00     0.020 A 
ATOM     43  C   UNL A   1      36.293  34.123  29.415  1.00  0.00     0.020 A 
ATOM     44  C   UNL A   1      35.110  33.380  29.430  1.00  0.00     0.054 A 
BRANCH  44  45
ATOM     45  S   UNL A   1      33.778  33.756  28.258  1.00  0.00     0.124 S 
ATOM     46  O   UNL A   1      33.407  32.429  27.778  1.00  0.00    -0.237 OA
ATOM     47  O   UNL A   1      32.789  34.423  29.101  1.00  0.00    -0.237 OA
ATOM     48  O   UNL A   1      34.425  34.621  27.272  1.00  0.00    -0.744 OA
ENDBRANCH  44  45
ENDBRANCH  25  39
BRANCH  26  49
ATOM     49  C   UNL A   1      44.949  29.430  36.580  1.00  0.00    -0.014 A 
ATOM     50  C   UNL A   1      44.792  28.324  37.438  1.00  0.00     0.010 A 
ATOM     51  C   UNL A   1      46.184  30.103  36.556  1.00  0.00     0.010 A 
ATOM     52  C   UNL A   1      45.824  27.941  38.298  1.00  0.00     0.020 A 
ATOM     53  C   UNL A   1      47.230  29.701  37.394  1.00  0.00     0.020 A 
ATOM     54  C   UNL A   1      47.031  28.643  38.283  1.00  0.00     0.054 A 
BRANCH  54  55
ATOM     55  S   UNL A   1      48.331  28.169  39.458  1.00  0.00     0.124 S 
ATOM     56  O   UNL A   1      49.467  27.940  38.569  1.00  0.00    -0.237 OA
ATOM     57  O   UNL A   1      48.431  29.346  40.315  1.00  0.00    -0.237 OA
ATOM     58  O   UNL A   1      47.790  26.975  40.103  1.00  0.00    -0.744 OA
ENDBRANCH  54  55
ENDBRANCH  26  49
BRANCH  38  59
ATOM     59  C   UNL A   1      39.736  33.978  37.792  1.00  0.00    -0.014 A 
ATOM     60  C   UNL A   1      40.247  35.285  37.887  1.00  0.00     0.010 A 
ATOM     61  C   UNL A   1      39.011  33.446  38.873  1.00  0.00     0.010 A 
ATOM     62  C   UNL A   1      40.087  36.028  39.060  1.00  0.00     0.020 A 
ATOM     63  C   UNL A   1      38.820  34.197  40.035  1.00  0.00     0.020 A 
ATOM     64  C   UNL A   1      39.385  35.472  40.133  1.00  0.00     0.054 A 
BRANCH  64  65
ATOM     65  S   UNL A   1      39.236  36.428  41.667  1.00  0.00     0.124 S 
ATOM     66  O   UNL A   1      40.545  36.229  42.282  1.00  0.00    -0.237 OA
ATOM     67  O   UNL A   1      38.968  37.778  41.179  1.00  0.00    -0.237 OA
ATOM     68  O   UNL A   1      38.117  35.792  42.360  1.00  0.00    -0.744 OA
ENDBRANCH  64  65
ENDBRANCH  38  59
ENDBRANCH  12  13
ENDBRANCH   5   7
ENDBRANCH   2   3
ENDBRANCH   1   2
BRANCH   1  69
ATOM     69  C   UNL A   1      39.879  23.862  26.981  1.00  0.00     0.023 C 
BRANCH  69  70
ATOM     70  C   UNL A   1      38.758  23.144  26.236  1.00  0.00     0.116 C 
BRANCH  70  71
ATOM     71  N   UNL A   1      39.155  21.813  25.804  1.00  0.00    -0.349 N 
ATOM     72  C   UNL A   1      38.364  20.806  25.277  1.00  0.00     0.289 C 
ATOM     73  H   UNL A   1      40.111  21.599  25.900  1.00  0.00     0.163 HD
ATOM     74  O   UNL A   1      38.849  19.683  25.137  1.00  0.00    -0.266 OA
BRANCH  72  75
ATOM     75  C   UNL A   1      36.941  21.092  24.892  1.00  0.00     0.220 A 
ATOM     76  N   UNL A   1      36.704  22.246  24.244  1.00  0.00    -0.206 NA
ATOM     77  N   UNL A   1      36.033  20.145  25.195  1.00  0.00    -0.224 NA
ATOM     78  C   UNL A   1      35.450  22.450  23.836  1.00  0.00     0.138 A 
ATOM     79  C   UNL A   1      34.801  20.338  24.744  1.00  0.00     0.077 A 
ATOM     80  C   UNL A   1      34.428  21.492  24.045  1.00  0.00     0.043 A 
ATOM     81  C   UNL A   1      33.864  19.335  24.958  1.00  0.00     0.029 A 
ATOM     82  C   UNL A   1      33.088  21.600  23.590  1.00  0.00     0.014 A 
ATOM     83  C   UNL A   1      32.556  19.438  24.485  1.00  0.00     0.002 A 
ATOM     84  C   UNL A   1      32.165  20.577  23.798  1.00  0.00     0.001 A 
BRANCH  78  85
ATOM     85  N   UNL A   1      35.144  23.642  23.202  1.00  0.00    -0.368 N 
ATOM     86  H   UNL A   1      35.063  23.616  22.222  1.00  0.00     0.162 HD
BRANCH  85  87
ATOM     87  C   UNL A   1      34.929  24.938  23.850  1.00  0.00     0.127 C 
BRANCH  87  88
ATOM     88  C   UNL A   1      33.507  25.224  24.528  1.00  0.00     0.070 C 
ATOM     89  C   UNL A   1      33.244  24.283  25.728  1.00  0.00    -0.035 A 
ATOM     90  C   UNL A   1      32.985  26.683  24.662  1.00  0.00    -0.025 A 
ATOM     91  C   UNL A   1      34.275  23.760  26.526  1.00  0.00     0.005 A 
ATOM     92  C   UNL A   1      31.928  23.865  26.032  1.00  0.00    -0.034 A 
ATOM     93  C   UNL A   1      31.861  27.109  25.412  1.00  0.00     0.011 A 
ATOM     94  C   UNL A   1      33.606  27.698  23.898  1.00  0.00     0.005 A 
ATOM     95  C   UNL A   1      34.027  22.835  27.546  1.00  0.00     0.000 A 
ATOM     96  C   UNL A   1      31.684  22.941  27.070  1.00  0.00     0.005 A 
ATOM     97  C   UNL A   1      30.749  24.520  25.377  1.00  0.00     0.110 C 
ATOM     98  S   UNL A   1      30.528  26.144  26.139  1.00  0.00    -0.121 SA
ATOM     99  C   UNL A   1      31.602  28.494  25.574  1.00  0.00     0.015 A 
ATOM    100  C   UNL A   1      33.331  29.061  24.048  1.00  0.00     0.000 A 
ATOM    101  C   UNL A   1      32.731  22.419  27.815  1.00  0.00     0.000 A 
ATOM    102  C   UNL A   1      32.353  29.465  24.928  1.00  0.00     0.001 A 
ENDBRANCH  87  88
ENDBRANCH  85  87
ENDBRANCH  78  85
ENDBRANCH  72  75
ENDBRANCH  70  71
ENDBRANCH  69  70
ENDBRANCH   1  69
TORSDOF 17
ENDMDL
