MODEL 1
REMARK VINA RESULT:     -12.3      0.000      0.000
REMARK SMILES O=C(NCCCCNC(=O)c1ccc(-c2c3nc(c(-c4ccc(S(=O)(=O)[O-])cc4)c4ccc([nH]4)c(-c4ccc(S(=O)(=O)[O-])cc4)c4nc(c(-c5ccc(S(=O)(=O)[O-])cc5)c5ccc2[nH]5)C=C4)C=C3)cc1)C1=Cc2cc(Cl)cc(C#Cc3ccccc3)c2O[C@@H]1C(F)(F)F
REMARK SMILES IDX 6 1 5 2 4 3 3 4 1 5 2 6 71 8 72 9 89 10 73 11 88 12 74 13
REMARK SMILES IDX 87 14 75 15 78 16 76 17 77 18 90 19 91 20 92 21 93 22 79 23
REMARK SMILES IDX 80 24 81 25 82 26 86 27 83 28 85 29 84 30 7 31 8 32 9 33
REMARK SMILES IDX 10 35 11 36 12 37 70 38 13 39 69 40 14 41 15 42 16 43 63 44
REMARK SMILES IDX 17 45 68 46 62 47 64 48 18 49 67 50 61 51 60 52 19 54 49 55
REMARK SMILES IDX 30 56 48 57 31 58 34 59 47 60 65 61 32 62 33 63 46 65 66 66
REMARK SMILES IDX 35 67 20 68 21 69 29 70 22 71 28 72 23 73 24 74 25 75 26 76
REMARK SMILES IDX 27 77 50 78 51 79 59 80 52 81 58 82 53 83 54 84 55 85 56 86
REMARK SMILES IDX 57 87 36 88 37 89 45 90 38 91 44 92 39 93 40 94 41 95 42 96
REMARK SMILES IDX 43 97
REMARK H PARENT 3 7 8 34 64 53 34 64
REMARK Flexibility Score: inf
ROOT
ATOM      1  C   UNL A   1      39.600  21.805  26.776  1.00  0.00     0.023 C 
ENDROOT
BRANCH   1   2
ATOM      2  C   UNL A   1      38.946  21.774  25.405  1.00  0.00     0.023 C 
BRANCH   2   3
ATOM      3  C   UNL A   1      37.437  21.594  25.419  1.00  0.00     0.116 C 
BRANCH   3   4
ATOM      4  N   UNL A   1      36.734  22.217  26.523  1.00  0.00    -0.352 N 
ATOM      5  O   UNL A   1      34.952  22.910  27.706  1.00  0.00    -0.270 OA
ATOM      6  C   UNL A   1      35.424  22.602  26.611  1.00  0.00     0.251 C 
ATOM      7  H   UNL A   1      37.278  22.387  27.326  1.00  0.00     0.163 HD
BRANCH   6   8
ATOM      8  C   UNL A   1      34.502  22.575  25.435  1.00  0.00     0.067 C 
ATOM      9  C   UNL A   1      33.352  21.878  25.428  1.00  0.00     0.025 C 
ATOM     10  C   UNL A   1      34.570  23.844  24.619  1.00  0.00     0.314 C 
ATOM     11  C   UNL A   1      32.158  22.769  25.483  1.00  0.00     0.020 A 
ATOM     12  O   UNL A   1      33.492  24.750  24.983  1.00  0.00    -0.474 OA
ATOM     13  C   UNL A   1      30.976  22.206  25.984  1.00  0.00     0.032 A 
ATOM     14  C   UNL A   1      32.335  24.171  25.459  1.00  0.00     0.143 A 
ATOM     15  C   UNL A   1      30.022  23.035  26.566  1.00  0.00     0.043 A 
ATOM     16  C   UNL A   1      31.386  24.989  26.097  1.00  0.00     0.069 A 
ATOM     17  Cl  UNL A   1      28.666  22.332  27.357  1.00  0.00    -0.084 Cl
ATOM     18  C   UNL A   1      30.231  24.410  26.645  1.00  0.00     0.041 A 
BRANCH  10  19
ATOM     19  C   UNL A   1      34.616  23.523  23.113  1.00  0.00     0.429 C 
ATOM     20  F   UNL A   1      34.394  24.621  22.356  1.00  0.00    -0.167 F 
ATOM     21  F   UNL A   1      35.829  23.035  22.749  1.00  0.00    -0.167 F 
ATOM     22  F   UNL A   1      33.701  22.592  22.748  1.00  0.00    -0.167 F 
ENDBRANCH  10  19
BRANCH  16  23
ATOM     23  C   UNL A   1      31.650  26.356  26.441  1.00  0.00    -0.058 C 
ATOM     24  C   UNL A   1      32.072  27.460  26.697  1.00  0.00    -0.062 C 
BRANCH  24  25
ATOM     25  C   UNL A   1      32.709  28.709  26.986  1.00  0.00     0.025 A 
ATOM     26  C   UNL A   1      31.988  29.904  26.951  1.00  0.00     0.017 A 
ATOM     27  C   UNL A   1      34.078  28.742  27.280  1.00  0.00     0.017 A 
ATOM     28  C   UNL A   1      32.630  31.120  27.212  1.00  0.00     0.001 A 
ATOM     29  C   UNL A   1      34.721  29.958  27.526  1.00  0.00     0.001 A 
ATOM     30  C   UNL A   1      33.995  31.147  27.495  1.00  0.00     0.000 A 
ENDBRANCH  24  25
ENDBRANCH  16  23
ENDBRANCH   6   8
ENDBRANCH   3   4
ENDBRANCH   2   3
ENDBRANCH   1   2
BRANCH   1  31
ATOM     31  C   UNL A   1      40.262  23.121  27.179  1.00  0.00     0.116 C 
BRANCH  31  32
ATOM     32  N   UNL A   1      40.620  24.003  26.075  1.00  0.00    -0.352 N 
ATOM     33  C   UNL A   1      40.986  25.333  26.137  1.00  0.00     0.251 C 
ATOM     34  H   UNL A   1      40.599  23.602  25.176  1.00  0.00     0.163 HD
ATOM     35  O   UNL A   1      41.267  25.954  25.118  1.00  0.00    -0.269 OA
BRANCH  33  36
ATOM     36  C   UNL A   1      40.989  26.014  27.452  1.00  0.00     0.039 A 
ATOM     37  C   UNL A   1      42.130  26.709  27.856  1.00  0.00     0.014 A 
ATOM     38  C   UNL A   1      39.824  26.059  28.222  1.00  0.00     0.014 A 
ATOM     39  C   UNL A   1      42.065  27.539  28.978  1.00  0.00     0.010 A 
ATOM     40  C   UNL A   1      39.738  26.940  29.291  1.00  0.00     0.010 A 
ATOM     41  C   UNL A   1      40.851  27.702  29.668  1.00  0.00    -0.014 A 
BRANCH  41  42
ATOM     42  C   UNL A   1      40.704  28.699  30.756  1.00  0.00     0.031 A 
ATOM     43  C   UNL A   1      41.536  28.578  32.001  1.00  0.00     0.074 A 
ATOM     44  C   UNL A   1      39.757  29.654  30.654  1.00  0.00     0.049 A 
ATOM     45  N   UNL A   1      41.515  29.318  33.079  1.00  0.00    -0.248 NA
ATOM     46  C   UNL A   1      42.502  27.468  32.053  1.00  0.00     0.031 C 
ATOM     47  C   UNL A   1      38.845  29.826  29.518  1.00  0.00     0.029 A 
ATOM     48  N   UNL A   1      39.393  30.653  31.521  1.00  0.00    -0.354 N 
ATOM     49  C   UNL A   1      42.460  28.765  33.933  1.00  0.00     0.074 A 
ATOM     50  C   UNL A   1      42.994  27.592  33.277  1.00  0.00     0.031 C 
ATOM     51  C   UNL A   1      38.048  30.882  29.748  1.00  0.00     0.029 A 
ATOM     52  C   UNL A   1      38.361  31.438  31.060  1.00  0.00     0.049 A 
ATOM     53  H   UNL A   1      39.830  30.796  32.391  1.00  0.00     0.167 HD
ATOM     54  C   UNL A   1      42.865  29.212  35.145  1.00  0.00     0.031 A 
ATOM     55  C   UNL A   1      37.734  32.484  31.634  1.00  0.00     0.031 A 
ATOM     56  C   UNL A   1      42.325  30.378  35.792  1.00  0.00     0.049 A 
ATOM     57  C   UNL A   1      38.191  32.946  32.992  1.00  0.00     0.074 A 
ATOM     58  C   UNL A   1      42.699  30.942  36.998  1.00  0.00     0.029 A 
ATOM     59  N   UNL A   1      41.294  31.156  35.287  1.00  0.00    -0.354 N 
ATOM     60  N   UNL A   1      39.147  32.461  33.749  1.00  0.00    -0.248 NA
ATOM     61  C   UNL A   1      37.499  34.107  33.567  1.00  0.00     0.031 C 
ATOM     62  C   UNL A   1      41.855  32.028  37.251  1.00  0.00     0.029 A 
ATOM     63  C   UNL A   1      41.002  32.183  36.168  1.00  0.00     0.049 A 
ATOM     64  H   UNL A   1      40.837  31.002  34.428  1.00  0.00     0.167 HD
ATOM     65  C   UNL A   1      39.193  33.279  34.872  1.00  0.00     0.074 A 
ATOM     66  C   UNL A   1      38.182  34.299  34.687  1.00  0.00     0.031 C 
ATOM     67  C   UNL A   1      39.997  33.194  35.961  1.00  0.00     0.031 A 
BRANCH  54  68
ATOM     68  C   UNL A   1      43.954  28.444  35.848  1.00  0.00    -0.014 A 
ATOM     69  C   UNL A   1      43.641  27.486  36.831  1.00  0.00     0.010 A 
ATOM     70  C   UNL A   1      45.298  28.629  35.479  1.00  0.00     0.010 A 
ATOM     71  C   UNL A   1      44.654  26.746  37.447  1.00  0.00     0.020 A 
ATOM     72  C   UNL A   1      46.311  27.870  36.071  1.00  0.00     0.020 A 
ATOM     73  C   UNL A   1      45.982  26.940  37.060  1.00  0.00     0.054 A 
BRANCH  73  74
ATOM     74  S   UNL A   1      47.268  25.926  37.840  1.00  0.00     0.124 S 
ATOM     75  O   UNL A   1      47.180  24.687  37.072  1.00  0.00    -0.237 OA
ATOM     76  O   UNL A   1      48.474  26.719  37.619  1.00  0.00    -0.237 OA
ATOM     77  O   UNL A   1      46.835  25.827  39.232  1.00  0.00    -0.744 OA
ENDBRANCH  73  74
ENDBRANCH  54  68
BRANCH  55  78
ATOM     78  C   UNL A   1      36.616  33.173  30.930  1.00  0.00    -0.014 A 
ATOM     79  C   UNL A   1      36.868  34.012  29.829  1.00  0.00     0.010 A 
ATOM     80  C   UNL A   1      35.290  33.009  31.371  1.00  0.00     0.010 A 
ATOM     81  C   UNL A   1      35.822  34.704  29.209  1.00  0.00     0.020 A 
ATOM     82  C   UNL A   1      34.237  33.673  30.732  1.00  0.00     0.020 A 
ATOM     83  C   UNL A   1      34.513  34.531  29.667  1.00  0.00     0.054 A 
BRANCH  83  84
ATOM     84  S   UNL A   1      33.170  35.427  28.837  1.00  0.00     0.124 S 
ATOM     85  O   UNL A   1      33.907  36.342  27.972  1.00  0.00    -0.237 OA
ATOM     86  O   UNL A   1      32.449  34.354  28.158  1.00  0.00    -0.237 OA
ATOM     87  O   UNL A   1      32.446  36.053  29.940  1.00  0.00    -0.744 OA
ENDBRANCH  83  84
ENDBRANCH  55  78
BRANCH  67  88
ATOM     88  C   UNL A   1      39.852  34.260  37.014  1.00  0.00    -0.014 A 
ATOM     89  C   UNL A   1      40.481  35.511  36.883  1.00  0.00     0.010 A 
ATOM     90  C   UNL A   1      39.024  34.023  38.127  1.00  0.00     0.010 A 
ATOM     91  C   UNL A   1      40.312  36.492  37.863  1.00  0.00     0.020 A 
ATOM     92  C   UNL A   1      38.824  35.013  39.091  1.00  0.00     0.020 A 
ATOM     93  C   UNL A   1      39.482  36.237  38.960  1.00  0.00     0.054 A 
BRANCH  93  94
ATOM     94  S   UNL A   1      39.245  37.545  40.193  1.00  0.00     0.124 S 
ATOM     95  O   UNL A   1      38.209  38.365  39.571  1.00  0.00    -0.237 OA
ATOM     96  O   UNL A   1      38.828  36.796  41.377  1.00  0.00    -0.237 OA
ATOM     97  O   UNL A   1      40.560  38.172  40.292  1.00  0.00    -0.744 OA
ENDBRANCH  93  94
ENDBRANCH  67  88
ENDBRANCH  41  42
ENDBRANCH  33  36
ENDBRANCH  31  32
ENDBRANCH   1  31
TORSDOF 17
ENDMDL
MODEL 2
REMARK VINA RESULT:     -12.0      5.371     12.302
REMARK SMILES O=C(NCCCCNC(=O)c1ccc(-c2c3nc(c(-c4ccc(S(=O)(=O)[O-])cc4)c4ccc([nH]4)c(-c4ccc(S(=O)(=O)[O-])cc4)c4nc(c(-c5ccc(S(=O)(=O)[O-])cc5)c5ccc2[nH]5)C=C4)C=C3)cc1)C1=Cc2cc(Cl)cc(C#Cc3ccccc3)c2O[C@@H]1C(F)(F)F
REMARK SMILES IDX 6 1 5 2 4 3 3 4 1 5 2 6 71 8 72 9 89 10 73 11 88 12 74 13
REMARK SMILES IDX 87 14 75 15 78 16 76 17 77 18 90 19 91 20 92 21 93 22 79 23
REMARK SMILES IDX 80 24 81 25 82 26 86 27 83 28 85 29 84 30 7 31 8 32 9 33
REMARK SMILES IDX 10 35 11 36 12 37 70 38 13 39 69 40 14 41 15 42 16 43 63 44
REMARK SMILES IDX 17 45 68 46 62 47 64 48 18 49 67 50 61 51 60 52 19 54 49 55
REMARK SMILES IDX 30 56 48 57 31 58 34 59 47 60 65 61 32 62 33 63 46 65 66 66
REMARK SMILES IDX 35 67 20 68 21 69 29 70 22 71 28 72 23 73 24 74 25 75 26 76
REMARK SMILES IDX 27 77 50 78 51 79 59 80 52 81 58 82 53 83 54 84 55 85 56 86
REMARK SMILES IDX 57 87 36 88 37 89 45 90 38 91 44 92 39 93 40 94 41 95 42 96
REMARK SMILES IDX 43 97
REMARK H PARENT 3 7 8 34 64 53 34 64
REMARK Flexibility Score: inf
ROOT
ATOM      1  C   UNL A   1      34.256  32.838  29.105  1.00  0.00     0.023 C 
ENDROOT
BRANCH   1   2
ATOM      2  C   UNL A   1      35.214  33.957  29.475  1.00  0.00     0.023 C 
BRANCH   2   3
ATOM      3  C   UNL A   1      36.646  33.757  29.004  1.00  0.00     0.116 C 
BRANCH   3   4
ATOM      4  N   UNL A   1      37.667  34.454  29.762  1.00  0.00    -0.352 N 
ATOM      5  O   UNL A   1      39.066  34.825  31.482  1.00  0.00    -0.270 OA
ATOM      6  C   UNL A   1      38.029  34.303  31.073  1.00  0.00     0.251 C 
ATOM      7  H   UNL A   1      38.173  35.133  29.260  1.00  0.00     0.163 HD
BRANCH   6   8
ATOM      8  C   UNL A   1      37.257  33.443  32.021  1.00  0.00     0.067 C 
ATOM      9  C   UNL A   1      37.344  32.101  32.021  1.00  0.00     0.025 C 
ATOM     10  C   UNL A   1      36.975  34.138  33.331  1.00  0.00     0.314 C 
ATOM     11  C   UNL A   1      38.074  31.588  33.216  1.00  0.00     0.020 A 
ATOM     12  O   UNL A   1      37.947  33.750  34.341  1.00  0.00    -0.474 OA
ATOM     13  C   UNL A   1      38.667  30.324  33.096  1.00  0.00     0.032 A 
ATOM     14  C   UNL A   1      38.506  32.496  34.209  1.00  0.00     0.143 A 
ATOM     15  C   UNL A   1      39.767  30.012  33.888  1.00  0.00     0.043 A 
ATOM     16  C   UNL A   1      39.649  32.186  34.966  1.00  0.00     0.069 A 
ATOM     17  Cl  UNL A   1      40.619  28.544  33.607  1.00  0.00    -0.084 Cl
ATOM     18  C   UNL A   1      40.271  30.938  34.799  1.00  0.00     0.041 A 
BRANCH  10  19
ATOM     19  C   UNL A   1      35.516  33.907  33.768  1.00  0.00     0.429 C 
ATOM     20  F   UNL A   1      35.439  33.204  34.920  1.00  0.00    -0.167 F 
ATOM     21  F   UNL A   1      34.873  35.084  33.984  1.00  0.00    -0.167 F 
ATOM     22  F   UNL A   1      34.790  33.237  32.840  1.00  0.00    -0.167 F 
ENDBRANCH  10  19
BRANCH  16  23
ATOM     23  C   UNL A   1      40.367  33.171  35.722  1.00  0.00    -0.058 C 
ATOM     24  C   UNL A   1      40.784  34.077  36.404  1.00  0.00    -0.062 C 
BRANCH  24  25
ATOM     25  C   UNL A   1      41.137  35.199  37.222  1.00  0.00     0.025 A 
ATOM     26  C   UNL A   1      40.184  35.821  38.030  1.00  0.00     0.017 A 
ATOM     27  C   UNL A   1      42.444  35.698  37.193  1.00  0.00     0.017 A 
ATOM     28  C   UNL A   1      40.537  36.931  38.805  1.00  0.00     0.001 A 
ATOM     29  C   UNL A   1      42.793  36.816  37.957  1.00  0.00     0.001 A 
ATOM     30  C   UNL A   1      41.839  37.430  38.765  1.00  0.00     0.000 A 
ENDBRANCH  24  25
ENDBRANCH  16  23
ENDBRANCH   6   8
ENDBRANCH   3   4
ENDBRANCH   2   3
ENDBRANCH   1   2
BRANCH   1  31
ATOM     31  C   UNL A   1      34.363  32.301  27.680  1.00  0.00     0.116 C 
BRANCH  31  32
ATOM     32  N   UNL A   1      33.826  30.960  27.476  1.00  0.00    -0.352 N 
ATOM     33  C   UNL A   1      34.450  29.752  27.711  1.00  0.00     0.251 C 
ATOM     34  H   UNL A   1      32.906  30.911  27.129  1.00  0.00     0.163 HD
ATOM     35  O   UNL A   1      33.870  28.693  27.495  1.00  0.00    -0.269 OA
BRANCH  33  36
ATOM     36  C   UNL A   1      35.853  29.751  28.184  1.00  0.00     0.039 A 
ATOM     37  C   UNL A   1      36.122  29.432  29.517  1.00  0.00     0.014 A 
ATOM     38  C   UNL A   1      36.900  29.951  27.280  1.00  0.00     0.014 A 
ATOM     39  C   UNL A   1      37.443  29.205  29.913  1.00  0.00     0.010 A 
ATOM     40  C   UNL A   1      38.202  29.653  27.657  1.00  0.00     0.010 A 
ATOM     41  C   UNL A   1      38.483  29.259  28.970  1.00  0.00    -0.014 A 
BRANCH  41  42
ATOM     42  C   UNL A   1      39.869  28.861  29.320  1.00  0.00     0.031 A 
ATOM     43  C   UNL A   1      40.787  29.846  29.985  1.00  0.00     0.074 A 
ATOM     44  C   UNL A   1      40.319  27.643  28.954  1.00  0.00     0.049 A 
ATOM     45  N   UNL A   1      42.043  29.704  30.321  1.00  0.00    -0.248 NA
ATOM     46  C   UNL A   1      40.230  31.175  30.293  1.00  0.00     0.031 C 
ATOM     47  C   UNL A   1      39.534  26.627  28.244  1.00  0.00     0.029 A 
ATOM     48  N   UNL A   1      41.548  27.055  29.116  1.00  0.00    -0.354 N 
ATOM     49  C   UNL A   1      42.424  30.918  30.877  1.00  0.00     0.074 A 
ATOM     50  C   UNL A   1      41.288  31.808  30.779  1.00  0.00     0.031 C 
ATOM     51  C   UNL A   1      40.294  25.535  28.057  1.00  0.00     0.029 A 
ATOM     52  C   UNL A   1      41.626  25.784  28.594  1.00  0.00     0.049 A 
ATOM     53  H   UNL A   1      42.302  27.500  29.564  1.00  0.00     0.167 HD
ATOM     54  C   UNL A   1      43.608  31.251  31.443  1.00  0.00     0.031 A 
ATOM     55  C   UNL A   1      42.659  24.919  28.550  1.00  0.00     0.031 A 
ATOM     56  C   UNL A   1      44.734  30.359  31.532  1.00  0.00     0.049 A 
ATOM     57  C   UNL A   1      43.971  25.325  29.168  1.00  0.00     0.074 A 
ATOM     58  C   UNL A   1      45.962  30.584  32.127  1.00  0.00     0.029 A 
ATOM     59  N   UNL A   1      44.770  29.077  31.008  1.00  0.00    -0.354 N 
ATOM     60  N   UNL A   1      44.287  26.449  29.767  1.00  0.00    -0.248 NA
ATOM     61  C   UNL A   1      45.060  24.340  29.122  1.00  0.00     0.031 C 
ATOM     62  C   UNL A   1      46.761  29.458  31.914  1.00  0.00     0.029 A 
ATOM     63  C   UNL A   1      46.007  28.504  31.247  1.00  0.00     0.049 A 
ATOM     64  H   UNL A   1      44.025  28.637  30.537  1.00  0.00     0.167 HD
ATOM     65  C   UNL A   1      45.599  26.293  30.198  1.00  0.00     0.074 A 
ATOM     66  C   UNL A   1      46.011  24.960  29.809  1.00  0.00     0.031 C 
ATOM     67  C   UNL A   1      46.394  27.172  30.857  1.00  0.00     0.031 A 
BRANCH  54  68
ATOM     68  C   UNL A   1      43.744  32.635  32.021  1.00  0.00    -0.014 A 
ATOM     69  C   UNL A   1      44.014  33.740  31.192  1.00  0.00     0.010 A 
ATOM     70  C   UNL A   1      43.532  32.848  33.395  1.00  0.00     0.010 A 
ATOM     71  C   UNL A   1      44.095  35.027  31.730  1.00  0.00     0.020 A 
ATOM     72  C   UNL A   1      43.583  34.138  33.932  1.00  0.00     0.020 A 
ATOM     73  C   UNL A   1      43.874  35.218  33.096  1.00  0.00     0.054 A 
BRANCH  73  74
ATOM     74  S   UNL A   1      43.933  36.907  33.754  1.00  0.00     0.124 S 
ATOM     75  O   UNL A   1      42.542  37.126  34.143  1.00  0.00    -0.237 OA
ATOM     76  O   UNL A   1      44.882  36.785  34.857  1.00  0.00    -0.237 OA
ATOM     77  O   UNL A   1      44.395  37.706  32.621  1.00  0.00    -0.744 OA
ENDBRANCH  73  74
ENDBRANCH  54  68
BRANCH  55  78
ATOM     78  C   UNL A   1      42.500  23.584  27.907  1.00  0.00    -0.014 A 
ATOM     79  C   UNL A   1      41.964  22.500  28.626  1.00  0.00     0.010 A 
ATOM     80  C   UNL A   1      42.902  23.383  26.574  1.00  0.00     0.010 A 
ATOM     81  C   UNL A   1      41.871  21.234  28.038  1.00  0.00     0.020 A 
ATOM     82  C   UNL A   1      42.780  22.127  25.971  1.00  0.00     0.020 A 
ATOM     83  C   UNL A   1      42.282  21.056  26.715  1.00  0.00     0.054 A 
BRANCH  83  84
ATOM     84  S   UNL A   1      42.139  19.408  25.968  1.00  0.00     0.124 S 
ATOM     85  O   UNL A   1      42.702  18.554  27.008  1.00  0.00    -0.237 OA
ATOM     86  O   UNL A   1      40.699  19.283  25.756  1.00  0.00    -0.237 OA
ATOM     87  O   UNL A   1      42.933  19.517  24.747  1.00  0.00    -0.744 OA
ENDBRANCH  83  84
ENDBRANCH  55  78
BRANCH  67  88
ATOM     88  C   UNL A   1      47.773  26.705  31.242  1.00  0.00    -0.014 A 
ATOM     89  C   UNL A   1      48.027  26.125  32.498  1.00  0.00     0.010 A 
ATOM     90  C   UNL A   1      48.820  26.798  30.306  1.00  0.00     0.010 A 
ATOM     91  C   UNL A   1      49.310  25.679  32.822  1.00  0.00     0.020 A 
ATOM     92  C   UNL A   1      50.096  26.321  30.613  1.00  0.00     0.020 A 
ATOM     93  C   UNL A   1      50.336  25.778  31.877  1.00  0.00     0.054 A 
BRANCH  93  94
ATOM     94  S   UNL A   1      51.981  25.148  32.308  1.00  0.00     0.124 S 
ATOM     95  O   UNL A   1      51.791  23.704  32.204  1.00  0.00    -0.237 OA
ATOM     96  O   UNL A   1      52.831  25.746  31.281  1.00  0.00    -0.237 OA
ATOM     97  O   UNL A   1      52.201  25.652  33.662  1.00  0.00    -0.744 OA
ENDBRANCH  93  94
ENDBRANCH  67  88
ENDBRANCH  41  42
ENDBRANCH  33  36
ENDBRANCH  31  32
ENDBRANCH   1  31
TORSDOF 17
ENDMDL
MODEL 3
REMARK VINA RESULT:     -12.0      6.164      8.225
REMARK SMILES O=C(NCCCCNC(=O)c1ccc(-c2c3nc(c(-c4ccc(S(=O)(=O)[O-])cc4)c4ccc([nH]4)c(-c4ccc(S(=O)(=O)[O-])cc4)c4nc(c(-c5ccc(S(=O)(=O)[O-])cc5)c5ccc2[nH]5)C=C4)C=C3)cc1)C1=Cc2cc(Cl)cc(C#Cc3ccccc3)c2O[C@@H]1C(F)(F)F
REMARK SMILES IDX 6 1 5 2 4 3 3 4 1 5 2 6 71 8 72 9 89 10 73 11 88 12 74 13
REMARK SMILES IDX 87 14 75 15 78 16 76 17 77 18 90 19 91 20 92 21 93 22 79 23
REMARK SMILES IDX 80 24 81 25 82 26 86 27 83 28 85 29 84 30 7 31 8 32 9 33
REMARK SMILES IDX 10 35 11 36 12 37 70 38 13 39 69 40 14 41 15 42 16 43 63 44
REMARK SMILES IDX 17 45 68 46 62 47 64 48 18 49 67 50 61 51 60 52 19 54 49 55
REMARK SMILES IDX 30 56 48 57 31 58 34 59 47 60 65 61 32 62 33 63 46 65 66 66
REMARK SMILES IDX 35 67 20 68 21 69 29 70 22 71 28 72 23 73 24 74 25 75 26 76
REMARK SMILES IDX 27 77 50 78 51 79 59 80 52 81 58 82 53 83 54 84 55 85 56 86
REMARK SMILES IDX 57 87 36 88 37 89 45 90 38 91 44 92 39 93 40 94 41 95 42 96
REMARK SMILES IDX 43 97
REMARK H PARENT 3 7 8 34 64 53 34 64
REMARK Flexibility Score: inf
ROOT
ATOM      1  C   UNL A   1      37.143  22.212  25.495  1.00  0.00     0.023 C 
ENDROOT
BRANCH   1   2
ATOM      2  C   UNL A   1      36.667  23.120  24.373  1.00  0.00     0.023 C 
BRANCH   2   3
ATOM      3  C   UNL A   1      35.183  23.023  24.057  1.00  0.00     0.116 C 
BRANCH   3   4
ATOM      4  N   UNL A   1      34.643  24.077  23.219  1.00  0.00    -0.352 N 
ATOM      5  O   UNL A   1      33.657  26.043  22.758  1.00  0.00    -0.270 OA
ATOM      6  C   UNL A   1      33.831  25.125  23.558  1.00  0.00     0.251 C 
ATOM      7  H   UNL A   1      34.899  24.031  22.269  1.00  0.00     0.163 HD
BRANCH   6   8
ATOM      8  C   UNL A   1      33.212  25.250  24.913  1.00  0.00     0.067 C 
ATOM      9  C   UNL A   1      33.810  25.896  25.929  1.00  0.00     0.025 C 
ATOM     10  C   UNL A   1      31.703  25.250  24.860  1.00  0.00     0.314 C 
ATOM     11  C   UNL A   1      33.134  27.187  26.247  1.00  0.00     0.020 A 
ATOM     12  O   UNL A   1      31.185  26.609  24.897  1.00  0.00    -0.474 OA
ATOM     13  C   UNL A   1      33.909  28.160  26.891  1.00  0.00     0.032 A 
ATOM     14  C   UNL A   1      31.959  27.546  25.549  1.00  0.00     0.143 A 
ATOM     15  C   UNL A   1      33.575  29.503  26.741  1.00  0.00     0.043 A 
ATOM     16  C   UNL A   1      31.665  28.907  25.364  1.00  0.00     0.069 A 
ATOM     17  Cl  UNL A   1      34.633  30.709  27.362  1.00  0.00    -0.084 Cl
ATOM     18  C   UNL A   1      32.479  29.879  25.967  1.00  0.00     0.041 A 
BRANCH  10  19
ATOM     19  C   UNL A   1      31.119  24.344  25.960  1.00  0.00     0.429 C 
ATOM     20  F   UNL A   1      31.885  24.344  27.074  1.00  0.00    -0.167 F 
ATOM     21  F   UNL A   1      29.882  24.758  26.337  1.00  0.00    -0.167 F 
ATOM     22  F   UNL A   1      30.989  23.054  25.563  1.00  0.00    -0.167 F 
ENDBRANCH  10  19
BRANCH  16  23
ATOM     23  C   UNL A   1      30.723  29.370  24.385  1.00  0.00    -0.058 C 
ATOM     24  C   UNL A   1      30.016  29.946  23.593  1.00  0.00    -0.062 C 
BRANCH  24  25
ATOM     25  C   UNL A   1      29.243  30.757  22.700  1.00  0.00     0.025 A 
ATOM     26  C   UNL A   1      28.769  30.239  21.494  1.00  0.00     0.017 A 
ATOM     27  C   UNL A   1      28.979  32.093  23.024  1.00  0.00     0.017 A 
ATOM     28  C   UNL A   1      28.036  31.050  20.620  1.00  0.00     0.001 A 
ATOM     29  C   UNL A   1      28.259  32.907  22.144  1.00  0.00     0.001 A 
ATOM     30  C   UNL A   1      27.784  32.383  20.944  1.00  0.00     0.000 A 
ENDBRANCH  24  25
ENDBRANCH  16  23
ENDBRANCH   6   8
ENDBRANCH   3   4
ENDBRANCH   2   3
ENDBRANCH   1   2
BRANCH   1  31
ATOM     31  C   UNL A   1      38.642  22.222  25.781  1.00  0.00     0.116 C 
BRANCH  31  32
ATOM     32  N   UNL A   1      39.258  20.909  25.930  1.00  0.00    -0.352 N 
ATOM     33  C   UNL A   1      40.547  20.617  26.329  1.00  0.00     0.251 C 
ATOM     34  H   UNL A   1      38.685  20.136  25.722  1.00  0.00     0.163 HD
ATOM     35  O   UNL A   1      40.930  19.455  26.413  1.00  0.00    -0.269 OA
BRANCH  33  36
ATOM     36  C   UNL A   1      41.479  21.733  26.608  1.00  0.00     0.039 A 
ATOM     37  C   UNL A   1      42.031  22.443  25.540  1.00  0.00     0.014 A 
ATOM     38  C   UNL A   1      41.708  22.145  27.924  1.00  0.00     0.014 A 
ATOM     39  C   UNL A   1      42.722  23.631  25.792  1.00  0.00     0.010 A 
ATOM     40  C   UNL A   1      42.329  23.362  28.168  1.00  0.00     0.010 A 
ATOM     41  C   UNL A   1      42.825  24.125  27.104  1.00  0.00    -0.014 A 
BRANCH  41  42
ATOM     42  C   UNL A   1      43.404  25.461  27.387  1.00  0.00     0.031 A 
ATOM     43  C   UNL A   1      44.867  25.709  27.154  1.00  0.00     0.074 A 
ATOM     44  C   UNL A   1      42.625  26.416  27.937  1.00  0.00     0.049 A 
ATOM     45  N   UNL A   1      45.565  26.789  27.389  1.00  0.00    -0.248 NA
ATOM     46  C   UNL A   1      45.655  24.591  26.609  1.00  0.00     0.031 C 
ATOM     47  C   UNL A   1      41.204  26.264  28.267  1.00  0.00     0.029 A 
ATOM     48  N   UNL A   1      42.918  27.698  28.327  1.00  0.00    -0.354 N 
ATOM     49  C   UNL A   1      46.869  26.483  27.022  1.00  0.00     0.074 A 
ATOM     50  C   UNL A   1      46.880  25.097  26.607  1.00  0.00     0.031 C 
ATOM     51  C   UNL A   1      40.747  27.416  28.784  1.00  0.00     0.029 A 
ATOM     52  C   UNL A   1      41.845  28.373  28.860  1.00  0.00     0.049 A 
ATOM     53  H   UNL A   1      43.812  28.097  28.233  1.00  0.00     0.167 HD
ATOM     54  C   UNL A   1      47.954  27.292  27.007  1.00  0.00     0.031 A 
ATOM     55  C   UNL A   1      41.757  29.622  29.360  1.00  0.00     0.031 A 
ATOM     56  C   UNL A   1      47.933  28.668  27.426  1.00  0.00     0.049 A 
ATOM     57  C   UNL A   1      42.985  30.494  29.351  1.00  0.00     0.074 A 
ATOM     58  C   UNL A   1      48.967  29.587  27.406  1.00  0.00     0.029 A 
ATOM     59  N   UNL A   1      46.825  29.321  27.944  1.00  0.00    -0.354 N 
ATOM     60  N   UNL A   1      44.192  30.212  28.919  1.00  0.00    -0.248 NA
ATOM     61  C   UNL A   1      42.837  31.856  29.878  1.00  0.00     0.031 C 
ATOM     62  C   UNL A   1      48.499  30.780  27.965  1.00  0.00     0.029 A 
ATOM     63  C   UNL A   1      47.155  30.626  28.268  1.00  0.00     0.049 A 
ATOM     64  H   UNL A   1      45.935  28.917  28.062  1.00  0.00     0.167 HD
ATOM     65  C   UNL A   1      44.937  31.373  29.091  1.00  0.00     0.074 A 
ATOM     66  C   UNL A   1      44.041  32.364  29.648  1.00  0.00     0.031 C 
ATOM     67  C   UNL A   1      46.245  31.600  28.815  1.00  0.00     0.031 A 
BRANCH  54  68
ATOM     68  C   UNL A   1      49.254  26.714  26.512  1.00  0.00    -0.014 A 
ATOM     69  C   UNL A   1      49.669  26.910  25.181  1.00  0.00     0.010 A 
ATOM     70  C   UNL A   1      50.103  26.028  27.397  1.00  0.00     0.010 A 
ATOM     71  C   UNL A   1      50.896  26.410  24.740  1.00  0.00     0.020 A 
ATOM     72  C   UNL A   1      51.345  25.552  26.969  1.00  0.00     0.020 A 
ATOM     73  C   UNL A   1      51.729  25.737  25.639  1.00  0.00     0.054 A 
BRANCH  73  74
ATOM     74  S   UNL A   1      53.340  25.147  25.049  1.00  0.00     0.124 S 
ATOM     75  O   UNL A   1      53.226  23.706  25.260  1.00  0.00    -0.237 OA
ATOM     76  O   UNL A   1      53.345  25.580  23.654  1.00  0.00    -0.237 OA
ATOM     77  O   UNL A   1      54.298  25.828  25.916  1.00  0.00    -0.744 OA
ENDBRANCH  73  74
ENDBRANCH  54  68
BRANCH  55  78
ATOM     78  C   UNL A   1      40.465  30.130  29.902  1.00  0.00    -0.014 A 
ATOM     79  C   UNL A   1      39.468  30.622  29.041  1.00  0.00     0.010 A 
ATOM     80  C   UNL A   1      40.233  30.144  31.290  1.00  0.00     0.010 A 
ATOM     81  C   UNL A   1      38.281  31.153  29.558  1.00  0.00     0.020 A 
ATOM     82  C   UNL A   1      39.034  30.643  31.809  1.00  0.00     0.020 A 
ATOM     83  C   UNL A   1      38.074  31.162  30.939  1.00  0.00     0.054 A 
BRANCH  83  84
ATOM     84  S   UNL A   1      36.520  31.843  31.587  1.00  0.00     0.124 S 
ATOM     85  O   UNL A   1      36.320  31.045  32.792  1.00  0.00    -0.237 OA
ATOM     86  O   UNL A   1      36.859  33.247  31.805  1.00  0.00    -0.237 OA
ATOM     87  O   UNL A   1      35.566  31.600  30.507  1.00  0.00    -0.744 OA
ENDBRANCH  83  84
ENDBRANCH  55  78
BRANCH  67  88
ATOM     88  C   UNL A   1      46.775  32.987  29.065  1.00  0.00    -0.014 A 
ATOM     89  C   UNL A   1      47.382  33.332  30.285  1.00  0.00     0.010 A 
ATOM     90  C   UNL A   1      46.716  33.944  28.035  1.00  0.00     0.010 A 
ATOM     91  C   UNL A   1      47.888  34.619  30.483  1.00  0.00     0.020 A 
ATOM     92  C   UNL A   1      47.251  35.221  28.215  1.00  0.00     0.020 A 
ATOM     93  C   UNL A   1      47.821  35.555  29.445  1.00  0.00     0.054 A 
BRANCH  93  94
ATOM     94  S   UNL A   1      48.526  37.203  29.713  1.00  0.00     0.124 S 
ATOM     95  O   UNL A   1      47.458  38.074  29.231  1.00  0.00    -0.237 OA
ATOM     96  O   UNL A   1      48.750  37.224  31.157  1.00  0.00    -0.237 OA
ATOM     97  O   UNL A   1      49.741  37.198  28.901  1.00  0.00    -0.744 OA
ENDBRANCH  93  94
ENDBRANCH  67  88
ENDBRANCH  41  42
ENDBRANCH  33  36
ENDBRANCH  31  32
ENDBRANCH   1  31
TORSDOF 17
ENDMDL
