MODEL 1
REMARK VINA RESULT:     -12.8      0.000      0.000
REMARK SMILES Cc1ccc(C)c(-n2nc(C)c(/C=C(/C#N)C(=O)NCCCCNC(=O)c3ccc(-c4c5nc(c(-c6ccc(S(=O)(=O)[O-])cc6)c6ccc([nH]6)c(-c6ccc(S(=O)(=O)[O-])cc6)c6nc(c(-c7ccc(S(=O)(=O)[O-])cc7)c7ccc4[nH]7)C=C6)C=C5)cc3)c2Cl)c1
REMARK SMILES IDX 22 1 21 2 20 3 19 4 17 5 18 6 14 8 13 9 12 10 8 11 9 12
REMARK SMILES IDX 87 13 10 14 88 15 11 16 7 17 1 18 2 19 3 20 89 21 4 22 5 23
REMARK SMILES IDX 6 24 15 25 16 26 23 27 24 28 25 29 26 31 27 32 28 33 86 34
REMARK SMILES IDX 29 35 85 36 30 37 31 38 32 39 79 40 33 41 84 42 78 43 80 44
REMARK SMILES IDX 34 45 83 46 77 47 76 48 35 50 65 51 46 52 64 53 47 54 50 55
REMARK SMILES IDX 63 56 81 57 48 58 49 59 62 61 82 62 51 63 36 64 37 65 45 66
REMARK SMILES IDX 38 67 44 68 39 69 40 70 41 71 42 72 43 73 66 74 67 75 75 76
REMARK SMILES IDX 68 77 74 78 69 79 70 80 71 81 72 82 73 83 52 84 53 85 61 86
REMARK SMILES IDX 54 87 60 88 55 89 56 90 57 91 58 92 59 93
REMARK H PARENT 19 7 24 30 80 49 50 60
REMARK Flexibility Score: inf
ROOT
ATOM      1  C   UNL A   1      37.797  21.366  25.357  1.00  0.00     0.023 C 
ENDROOT
BRANCH   1   2
ATOM      2  C   UNL A   1      37.025  22.270  24.373  1.00  0.00     0.023 C 
BRANCH   2   3
ATOM      3  C   UNL A   1      35.487  22.192  24.450  1.00  0.00     0.116 C 
BRANCH   3   4
ATOM      4  N   UNL A   1      35.065  21.658  25.737  1.00  0.00    -0.351 N 
ATOM      5  C   UNL A   1      33.852  21.258  26.220  1.00  0.00     0.261 C 
ATOM      6  O   UNL A   1      33.706  21.308  27.442  1.00  0.00    -0.268 OA
ATOM      7  H   UNL A   1      35.799  21.567  26.387  1.00  0.00     0.163 HD
BRANCH   5   8
ATOM      8  C   UNL A   1      32.745  20.788  25.319  1.00  0.00     0.117 C 
ATOM      9  C   UNL A   1      31.659  21.540  25.055  1.00  0.00     0.038 C 
BRANCH   9  10
ATOM     10  C   UNL A   1      31.327  22.860  25.541  1.00  0.00     0.036 A 
ATOM     11  N   UNL A   1      31.414  25.087  25.780  1.00  0.00    -0.221 N 
ATOM     12  N   UNL A   1      30.679  24.646  26.827  1.00  0.00    -0.171 NA
ATOM     13  C   UNL A   1      31.882  24.018  25.038  1.00  0.00     0.140 A 
ATOM     14  C   UNL A   1      30.461  23.348  26.569  1.00  0.00     0.069 A 
ATOM     15  Cl  UNL A   1      33.091  24.232  23.841  1.00  0.00    -0.061 Cl
ATOM     16  C   UNL A   1      29.417  22.671  27.383  1.00  0.00     0.069 C 
BRANCH  11  17
ATOM     17  C   UNL A   1      31.613  26.478  25.571  1.00  0.00     0.069 A 
ATOM     18  C   UNL A   1      34.178  29.059  26.714  1.00  0.00     0.044 C 
ATOM     19  C   UNL A   1      32.985  28.438  26.051  1.00  0.00    -0.049 A 
ATOM     20  C   UNL A   1      32.163  29.199  25.218  1.00  0.00     0.004 A 
ATOM     21  C   UNL A   1      32.702  27.079  26.226  1.00  0.00     0.032 A 
ATOM     22  C   UNL A   1      31.091  28.604  24.549  1.00  0.00     0.006 A 
ATOM     23  C   UNL A   1      30.796  27.237  24.708  1.00  0.00    -0.025 A 
ATOM     24  C   UNL A   1      29.613  26.701  23.950  1.00  0.00     0.047 C 
ENDBRANCH  11  17
ENDBRANCH   9  10
BRANCH   8  25
ATOM     25  C   UNL A   1      33.116  19.524  24.559  1.00  0.00     0.105 C 
ATOM     26  N   UNL A   1      33.423  18.476  23.928  1.00  0.00    -0.192 NA
ENDBRANCH   8  25
ENDBRANCH   5   8
ENDBRANCH   3   4
ENDBRANCH   2   3
ENDBRANCH   1   2
BRANCH   1  27
ATOM     27  C   UNL A   1      38.982  21.981  26.122  1.00  0.00     0.116 C 
BRANCH  27  28
ATOM     28  N   UNL A   1      40.252  21.253  25.950  1.00  0.00    -0.352 N 
ATOM     29  C   UNL A   1      41.608  21.589  26.030  1.00  0.00     0.251 C 
ATOM     30  H   UNL A   1      40.112  20.304  25.728  1.00  0.00     0.163 HD
ATOM     31  O   UNL A   1      42.429  20.834  25.573  1.00  0.00    -0.269 OA
BRANCH  29  32
ATOM     32  C   UNL A   1      42.057  22.843  26.692  1.00  0.00     0.039 A 
ATOM     33  C   UNL A   1      43.066  22.925  27.658  1.00  0.00     0.014 A 
ATOM     34  C   UNL A   1      41.359  23.983  26.430  1.00  0.00     0.014 A 
ATOM     35  C   UNL A   1      43.198  24.114  28.407  1.00  0.00     0.010 A 
ATOM     36  C   UNL A   1      41.834  25.191  26.810  1.00  0.00     0.010 A 
ATOM     37  C   UNL A   1      42.495  25.247  28.006  1.00  0.00    -0.014 A 
BRANCH  37  38
ATOM     38  C   UNL A   1      42.338  26.504  28.731  1.00  0.00     0.031 A 
ATOM     39  C   UNL A   1      43.380  27.522  28.460  1.00  0.00     0.074 A 
ATOM     40  C   UNL A   1      41.135  26.942  29.173  1.00  0.00     0.049 A 
ATOM     41  N   UNL A   1      44.411  27.811  29.181  1.00  0.00    -0.248 NA
ATOM     42  C   UNL A   1      43.378  28.159  27.130  1.00  0.00     0.031 C 
ATOM     43  C   UNL A   1      39.812  26.322  29.017  1.00  0.00     0.029 A 
ATOM     44  N   UNL A   1      40.834  28.143  29.747  1.00  0.00    -0.354 N 
ATOM     45  C   UNL A   1      45.068  28.812  28.474  1.00  0.00     0.074 A 
ATOM     46  C   UNL A   1      44.587  28.714  27.122  1.00  0.00     0.031 C 
ATOM     47  C   UNL A   1      38.850  27.231  29.311  1.00  0.00     0.029 A 
ATOM     48  C   UNL A   1      39.481  28.451  29.791  1.00  0.00     0.049 A 
ATOM     49  H   UNL A   1      41.526  28.746  30.104  1.00  0.00     0.167 HD
ATOM     50  C   UNL A   1      45.695  29.858  29.084  1.00  0.00     0.031 A 
ATOM     51  C   UNL A   1      38.939  29.647  30.142  1.00  0.00     0.031 A 
ATOM     52  C   UNL A   1      45.702  29.697  30.520  1.00  0.00     0.049 A 
ATOM     53  C   UNL A   1      39.998  30.430  30.834  1.00  0.00     0.074 A 
ATOM     54  C   UNL A   1      46.146  28.727  31.396  1.00  0.00     0.029 A 
ATOM     55  N   UNL A   1      44.802  30.465  31.228  1.00  0.00    -0.354 N 
ATOM     56  N   UNL A   1      40.519  30.097  31.982  1.00  0.00    -0.248 NA
ATOM     57  C   UNL A   1      40.780  31.376  30.052  1.00  0.00     0.031 C 
ATOM     58  C   UNL A   1      45.162  28.679  32.427  1.00  0.00     0.029 A 
ATOM     59  C   UNL A   1      44.200  29.656  32.157  1.00  0.00     0.049 A 
ATOM     60  H   UNL A   1      44.622  31.423  31.090  1.00  0.00     0.167 HD
ATOM     61  C   UNL A   1      41.857  30.459  31.891  1.00  0.00     0.074 A 
ATOM     62  C   UNL A   1      41.930  31.342  30.732  1.00  0.00     0.031 C 
ATOM     63  C   UNL A   1      42.820  29.782  32.585  1.00  0.00     0.031 A 
BRANCH  50  64
ATOM     64  C   UNL A   1      45.927  31.213  28.447  1.00  0.00    -0.014 A 
ATOM     65  C   UNL A   1      44.807  32.027  28.182  1.00  0.00     0.010 A 
ATOM     66  C   UNL A   1      47.152  31.630  27.887  1.00  0.00     0.010 A 
ATOM     67  C   UNL A   1      44.891  33.131  27.322  1.00  0.00     0.020 A 
ATOM     68  C   UNL A   1      47.261  32.758  27.072  1.00  0.00     0.020 A 
ATOM     69  C   UNL A   1      46.118  33.472  26.756  1.00  0.00     0.054 A 
BRANCH  69  70
ATOM     70  S   UNL A   1      46.200  34.799  25.532  1.00  0.00     0.124 S 
ATOM     71  O   UNL A   1      47.608  34.758  25.149  1.00  0.00    -0.237 OA
ATOM     72  O   UNL A   1      45.251  34.347  24.518  1.00  0.00    -0.237 OA
ATOM     73  O   UNL A   1      45.787  35.982  26.284  1.00  0.00    -0.744 OA
ENDBRANCH  69  70
ENDBRANCH  50  64
BRANCH  51  74
ATOM     74  C   UNL A   1      37.659  30.263  29.706  1.00  0.00    -0.014 A 
ATOM     75  C   UNL A   1      36.732  30.758  30.645  1.00  0.00     0.010 A 
ATOM     76  C   UNL A   1      37.459  30.602  28.353  1.00  0.00     0.010 A 
ATOM     77  C   UNL A   1      35.673  31.597  30.253  1.00  0.00     0.020 A 
ATOM     78  C   UNL A   1      36.402  31.429  27.955  1.00  0.00     0.020 A 
ATOM     79  C   UNL A   1      35.522  31.936  28.907  1.00  0.00     0.054 A 
BRANCH  79  80
ATOM     80  S   UNL A   1      34.262  33.152  28.411  1.00  0.00     0.124 S 
ATOM     81  O   UNL A   1      35.032  34.060  27.566  1.00  0.00    -0.237 OA
ATOM     82  O   UNL A   1      33.272  32.328  27.725  1.00  0.00    -0.237 OA
ATOM     83  O   UNL A   1      33.822  33.710  29.687  1.00  0.00    -0.744 OA
ENDBRANCH  79  80
ENDBRANCH  51  74
BRANCH  63  84
ATOM     84  C   UNL A   1      42.395  28.876  33.718  1.00  0.00    -0.014 A 
ATOM     85  C   UNL A   1      41.840  27.597  33.522  1.00  0.00     0.010 A 
ATOM     86  C   UNL A   1      42.746  29.262  35.024  1.00  0.00     0.010 A 
ATOM     87  C   UNL A   1      41.640  26.730  34.606  1.00  0.00     0.020 A 
ATOM     88  C   UNL A   1      42.564  28.397  36.105  1.00  0.00     0.020 A 
ATOM     89  C   UNL A   1      42.011  27.134  35.892  1.00  0.00     0.054 A 
BRANCH  89  90
ATOM     90  S   UNL A   1      41.844  25.970  37.275  1.00  0.00     0.124 S 
ATOM     91  O   UNL A   1      42.105  24.684  36.638  1.00  0.00    -0.237 OA
ATOM     92  O   UNL A   1      42.869  26.428  38.210  1.00  0.00    -0.237 OA
ATOM     93  O   UNL A   1      40.469  26.169  37.732  1.00  0.00    -0.744 OA
ENDBRANCH  89  90
ENDBRANCH  63  84
ENDBRANCH  37  38
ENDBRANCH  29  32
ENDBRANCH  27  28
ENDBRANCH   1  27
TORSDOF 17
ENDMDL
MODEL 2
REMARK VINA RESULT:     -12.6      2.660      9.463
REMARK SMILES Cc1ccc(C)c(-n2nc(C)c(/C=C(/C#N)C(=O)NCCCCNC(=O)c3ccc(-c4c5nc(c(-c6ccc(S(=O)(=O)[O-])cc6)c6ccc([nH]6)c(-c6ccc(S(=O)(=O)[O-])cc6)c6nc(c(-c7ccc(S(=O)(=O)[O-])cc7)c7ccc4[nH]7)C=C6)C=C5)cc3)c2Cl)c1
REMARK SMILES IDX 22 1 21 2 20 3 19 4 17 5 18 6 14 8 13 9 12 10 8 11 9 12
REMARK SMILES IDX 87 13 10 14 88 15 11 16 7 17 1 18 2 19 3 20 89 21 4 22 5 23
REMARK SMILES IDX 6 24 15 25 16 26 23 27 24 28 25 29 26 31 27 32 28 33 86 34
REMARK SMILES IDX 29 35 85 36 30 37 31 38 32 39 79 40 33 41 84 42 78 43 80 44
REMARK SMILES IDX 34 45 83 46 77 47 76 48 35 50 65 51 46 52 64 53 47 54 50 55
REMARK SMILES IDX 63 56 81 57 48 58 49 59 62 61 82 62 51 63 36 64 37 65 45 66
REMARK SMILES IDX 38 67 44 68 39 69 40 70 41 71 42 72 43 73 66 74 67 75 75 76
REMARK SMILES IDX 68 77 74 78 69 79 70 80 71 81 72 82 73 83 52 84 53 85 61 86
REMARK SMILES IDX 54 87 60 88 55 89 56 90 57 91 58 92 59 93
REMARK H PARENT 19 7 24 30 80 49 50 60
REMARK Flexibility Score: inf
ROOT
ATOM      1  C   UNL A   1      32.449  30.130  27.260  1.00  0.00     0.023 C 
ENDROOT
BRANCH   1   2
ATOM      2  C   UNL A   1      33.162  28.798  26.949  1.00  0.00     0.023 C 
BRANCH   2   3
ATOM      3  C   UNL A   1      32.643  28.026  25.719  1.00  0.00     0.116 C 
BRANCH   3   4
ATOM      4  N   UNL A   1      33.105  28.652  24.489  1.00  0.00    -0.351 N 
ATOM      5  C   UNL A   1      32.690  28.559  23.191  1.00  0.00     0.261 C 
ATOM      6  O   UNL A   1      33.531  28.809  22.328  1.00  0.00    -0.268 OA
ATOM      7  H   UNL A   1      33.866  29.262  24.618  1.00  0.00     0.163 HD
BRANCH   5   8
ATOM      8  C   UNL A   1      31.286  28.168  22.824  1.00  0.00     0.117 C 
ATOM      9  C   UNL A   1      30.956  26.913  22.464  1.00  0.00     0.038 C 
BRANCH   9  10
ATOM     10  C   UNL A   1      31.804  25.747  22.347  1.00  0.00     0.036 A 
ATOM     11  N   UNL A   1      32.963  23.931  22.964  1.00  0.00    -0.221 N 
ATOM     12  N   UNL A   1      33.413  24.236  21.725  1.00  0.00    -0.171 NA
ATOM     13  C   UNL A   1      32.050  24.879  23.390  1.00  0.00     0.140 A 
ATOM     14  C   UNL A   1      32.580  25.190  21.284  1.00  0.00     0.069 A 
ATOM     15  Cl  UNL A   1      31.540  24.945  25.026  1.00  0.00    -0.061 Cl
ATOM     16  C   UNL A   1      32.631  25.502  19.831  1.00  0.00     0.069 C 
BRANCH  11  17
ATOM     17  C   UNL A   1      33.434  22.773  23.640  1.00  0.00     0.069 A 
ATOM     18  C   UNL A   1      32.413  19.101  23.774  1.00  0.00     0.044 C 
ATOM     19  C   UNL A   1      33.141  20.384  24.040  1.00  0.00    -0.049 A 
ATOM     20  C   UNL A   1      34.268  20.400  24.865  1.00  0.00     0.004 A 
ATOM     21  C   UNL A   1      32.728  21.575  23.434  1.00  0.00     0.032 A 
ATOM     22  C   UNL A   1      34.985  21.583  25.059  1.00  0.00     0.006 A 
ATOM     23  C   UNL A   1      34.587  22.788  24.451  1.00  0.00    -0.025 A 
ATOM     24  C   UNL A   1      35.423  24.005  24.736  1.00  0.00     0.047 C 
ENDBRANCH  11  17
ENDBRANCH   9  10
BRANCH   8  25
ATOM     25  C   UNL A   1      30.276  29.255  23.159  1.00  0.00     0.105 C 
ATOM     26  N   UNL A   1      29.439  30.156  23.436  1.00  0.00    -0.192 NA
ENDBRANCH   8  25
ENDBRANCH   5   8
ENDBRANCH   3   4
ENDBRANCH   2   3
ENDBRANCH   1   2
BRANCH   1  27
ATOM     27  C   UNL A   1      33.253  31.433  27.101  1.00  0.00     0.116 C 
BRANCH  27  28
ATOM     28  N   UNL A   1      33.577  32.099  28.375  1.00  0.00    -0.352 N 
ATOM     29  C   UNL A   1      34.618  32.012  29.305  1.00  0.00     0.251 C 
ATOM     30  H   UNL A   1      32.899  32.766  28.631  1.00  0.00     0.163 HD
ATOM     31  O   UNL A   1      34.475  32.501  30.397  1.00  0.00    -0.269 OA
BRANCH  29  32
ATOM     32  C   UNL A   1      35.908  31.355  28.963  1.00  0.00     0.039 A 
ATOM     33  C   UNL A   1      36.037  30.061  28.445  1.00  0.00     0.014 A 
ATOM     34  C   UNL A   1      37.058  32.009  29.283  1.00  0.00     0.014 A 
ATOM     35  C   UNL A   1      37.313  29.456  28.433  1.00  0.00     0.010 A 
ATOM     36  C   UNL A   1      38.253  31.588  28.809  1.00  0.00     0.010 A 
ATOM     37  C   UNL A   1      38.433  30.236  28.702  1.00  0.00    -0.014 A 
BRANCH  37  38
ATOM     38  C   UNL A   1      39.803  29.785  28.926  1.00  0.00     0.031 A 
ATOM     39  C   UNL A   1      40.174  29.579  30.345  1.00  0.00     0.074 A 
ATOM     40  C   UNL A   1      40.506  29.103  27.990  1.00  0.00     0.049 A 
ATOM     41  N   UNL A   1      40.839  30.374  31.114  1.00  0.00    -0.248 NA
ATOM     42  C   UNL A   1      39.564  28.435  31.048  1.00  0.00     0.031 C 
ATOM     43  C   UNL A   1      40.083  28.669  26.651  1.00  0.00     0.029 A 
ATOM     44  N   UNL A   1      41.735  28.523  28.115  1.00  0.00    -0.354 N 
ATOM     45  C   UNL A   1      40.892  29.721  32.340  1.00  0.00     0.074 A 
ATOM     46  C   UNL A   1      39.829  28.753  32.312  1.00  0.00     0.031 C 
ATOM     47  C   UNL A   1      40.957  27.746  26.179  1.00  0.00     0.029 A 
ATOM     48  C   UNL A   1      42.060  27.613  27.118  1.00  0.00     0.049 A 
ATOM     49  H   UNL A   1      42.345  28.734  28.859  1.00  0.00     0.167 HD
ATOM     50  C   UNL A   1      41.984  29.767  33.156  1.00  0.00     0.031 A 
ATOM     51  C   UNL A   1      43.132  26.778  27.109  1.00  0.00     0.031 A 
ATOM     52  C   UNL A   1      42.980  30.681  32.644  1.00  0.00     0.049 A 
ATOM     53  C   UNL A   1      44.089  27.269  28.138  1.00  0.00     0.074 A 
ATOM     54  C   UNL A   1      42.998  32.017  32.296  1.00  0.00     0.029 A 
ATOM     55  N   UNL A   1      44.076  30.112  32.030  1.00  0.00    -0.354 N 
ATOM     56  N   UNL A   1      44.717  28.409  28.063  1.00  0.00    -0.248 NA
ATOM     57  C   UNL A   1      44.041  26.676  29.466  1.00  0.00     0.031 C 
ATOM     58  C   UNL A   1      43.826  32.087  31.136  1.00  0.00     0.029 A 
ATOM     59  C   UNL A   1      44.312  30.804  30.870  1.00  0.00     0.049 A 
ATOM     60  H   UNL A   1      44.595  29.346  32.364  1.00  0.00     0.167 HD
ATOM     61  C   UNL A   1      44.786  28.871  29.371  1.00  0.00     0.074 A 
ATOM     62  C   UNL A   1      44.458  27.714  30.197  1.00  0.00     0.031 C 
ATOM     63  C   UNL A   1      44.817  30.209  29.647  1.00  0.00     0.031 A 
BRANCH  50  64
ATOM     64  C   UNL A   1      42.347  28.701  34.169  1.00  0.00    -0.014 A 
ATOM     65  C   UNL A   1      43.088  27.585  33.729  1.00  0.00     0.010 A 
ATOM     66  C   UNL A   1      41.806  28.622  35.469  1.00  0.00     0.010 A 
ATOM     67  C   UNL A   1      43.190  26.422  34.505  1.00  0.00     0.020 A 
ATOM     68  C   UNL A   1      41.945  27.490  36.273  1.00  0.00     0.020 A 
ATOM     69  C   UNL A   1      42.595  26.378  35.765  1.00  0.00     0.054 A 
BRANCH  69  70
ATOM     70  S   UNL A   1      42.595  24.833  36.700  1.00  0.00     0.124 S 
ATOM     71  O   UNL A   1      43.801  24.980  37.510  1.00  0.00    -0.237 OA
ATOM     72  O   UNL A   1      41.329  24.907  37.425  1.00  0.00    -0.237 OA
ATOM     73  O   UNL A   1      42.657  23.806  35.662  1.00  0.00    -0.744 OA
ENDBRANCH  69  70
ENDBRANCH  50  64
BRANCH  51  74
ATOM     74  C   UNL A   1      43.282  25.449  26.462  1.00  0.00    -0.014 A 
ATOM     75  C   UNL A   1      44.069  25.287  25.305  1.00  0.00     0.010 A 
ATOM     76  C   UNL A   1      42.862  24.282  27.131  1.00  0.00     0.010 A 
ATOM     77  C   UNL A   1      44.459  24.010  24.859  1.00  0.00     0.020 A 
ATOM     78  C   UNL A   1      43.237  23.008  26.688  1.00  0.00     0.020 A 
ATOM     79  C   UNL A   1      44.047  22.878  25.563  1.00  0.00     0.054 A 
BRANCH  79  80
ATOM     80  S   UNL A   1      44.681  21.237  25.097  1.00  0.00     0.124 S 
ATOM     81  O   UNL A   1      44.586  21.276  23.640  1.00  0.00    -0.237 OA
ATOM     82  O   UNL A   1      46.032  21.244  25.648  1.00  0.00    -0.237 OA
ATOM     83  O   UNL A   1      43.752  20.324  25.758  1.00  0.00    -0.744 OA
ENDBRANCH  79  80
ENDBRANCH  51  74
BRANCH  63  84
ATOM     84  C   UNL A   1      45.134  31.172  28.527  1.00  0.00    -0.014 A 
ATOM     85  C   UNL A   1      44.214  31.520  27.519  1.00  0.00     0.010 A 
ATOM     86  C   UNL A   1      46.341  31.889  28.609  1.00  0.00     0.010 A 
ATOM     87  C   UNL A   1      44.498  32.556  26.616  1.00  0.00     0.020 A 
ATOM     88  C   UNL A   1      46.623  32.933  27.724  1.00  0.00     0.020 A 
ATOM     89  C   UNL A   1      45.700  33.262  26.731  1.00  0.00     0.054 A 
BRANCH  89  90
ATOM     90  S   UNL A   1      46.017  34.667  25.627  1.00  0.00     0.124 S 
ATOM     91  O   UNL A   1      47.445  34.541  25.358  1.00  0.00    -0.237 OA
ATOM     92  O   UNL A   1      45.136  34.394  24.493  1.00  0.00    -0.237 OA
ATOM     93  O   UNL A   1      45.637  35.831  26.428  1.00  0.00    -0.744 OA
ENDBRANCH  89  90
ENDBRANCH  63  84
ENDBRANCH  37  38
ENDBRANCH  29  32
ENDBRANCH  27  28
ENDBRANCH   1  27
TORSDOF 17
ENDMDL
MODEL 3
REMARK VINA RESULT:     -12.5      2.480      9.173
REMARK SMILES Cc1ccc(C)c(-n2nc(C)c(/C=C(/C#N)C(=O)NCCCCNC(=O)c3ccc(-c4c5nc(c(-c6ccc(S(=O)(=O)[O-])cc6)c6ccc([nH]6)c(-c6ccc(S(=O)(=O)[O-])cc6)c6nc(c(-c7ccc(S(=O)(=O)[O-])cc7)c7ccc4[nH]7)C=C6)C=C5)cc3)c2Cl)c1
REMARK SMILES IDX 22 1 21 2 20 3 19 4 17 5 18 6 14 8 13 9 12 10 8 11 9 12
REMARK SMILES IDX 87 13 10 14 88 15 11 16 7 17 1 18 2 19 3 20 89 21 4 22 5 23
REMARK SMILES IDX 6 24 15 25 16 26 23 27 24 28 25 29 26 31 27 32 28 33 86 34
REMARK SMILES IDX 29 35 85 36 30 37 31 38 32 39 79 40 33 41 84 42 78 43 80 44
REMARK SMILES IDX 34 45 83 46 77 47 76 48 35 50 65 51 46 52 64 53 47 54 50 55
REMARK SMILES IDX 63 56 81 57 48 58 49 59 62 61 82 62 51 63 36 64 37 65 45 66
REMARK SMILES IDX 38 67 44 68 39 69 40 70 41 71 42 72 43 73 66 74 67 75 75 76
REMARK SMILES IDX 68 77 74 78 69 79 70 80 71 81 72 82 73 83 52 84 53 85 61 86
REMARK SMILES IDX 54 87 60 88 55 89 56 90 57 91 58 92 59 93
REMARK H PARENT 19 7 24 30 80 49 50 60
REMARK Flexibility Score: inf
ROOT
ATOM      1  C   UNL A   1      32.450  28.593  27.392  1.00  0.00     0.023 C 
ENDROOT
BRANCH   1   2
ATOM      2  C   UNL A   1      31.687  27.544  26.557  1.00  0.00     0.023 C 
BRANCH   2   3
ATOM      3  C   UNL A   1      32.462  26.254  26.223  1.00  0.00     0.116 C 
BRANCH   3   4
ATOM      4  N   UNL A   1      33.114  26.370  24.926  1.00  0.00    -0.351 N 
ATOM      5  C   UNL A   1      32.775  25.934  23.678  1.00  0.00     0.261 C 
ATOM      6  O   UNL A   1      33.703  25.755  22.889  1.00  0.00    -0.268 OA
ATOM      7  H   UNL A   1      33.967  26.859  24.956  1.00  0.00     0.163 HD
BRANCH   5   8
ATOM      8  C   UNL A   1      31.349  25.675  23.278  1.00  0.00     0.117 C 
ATOM      9  C   UNL A   1      30.711  24.528  23.578  1.00  0.00     0.038 C 
BRANCH   9  10
ATOM     10  C   UNL A   1      31.207  23.369  24.287  1.00  0.00     0.036 A 
ATOM     11  N   UNL A   1      32.337  21.471  24.665  1.00  0.00    -0.221 N 
ATOM     12  N   UNL A   1      31.442  21.558  25.676  1.00  0.00    -0.171 NA
ATOM     13  C   UNL A   1      32.156  22.511  23.771  1.00  0.00     0.140 A 
ATOM     14  C   UNL A   1      30.914  22.786  25.559  1.00  0.00     0.069 A 
ATOM     15  Cl  UNL A   1      32.919  22.504  22.236  1.00  0.00    -0.061 Cl
ATOM     16  C   UNL A   1      30.128  23.288  26.716  1.00  0.00     0.069 C 
BRANCH  11  17
ATOM     17  C   UNL A   1      33.284  20.412  24.626  1.00  0.00     0.069 A 
ATOM     18  C   UNL A   1      33.257  16.783  23.457  1.00  0.00     0.044 C 
ATOM     19  C   UNL A   1      33.721  18.086  24.033  1.00  0.00    -0.049 A 
ATOM     20  C   UNL A   1      35.047  18.246  24.443  1.00  0.00     0.004 A 
ATOM     21  C   UNL A   1      32.845  19.172  24.131  1.00  0.00     0.032 A 
ATOM     22  C   UNL A   1      35.494  19.482  24.918  1.00  0.00     0.006 A 
ATOM     23  C   UNL A   1      34.627  20.586  25.016  1.00  0.00    -0.025 A 
ATOM     24  C   UNL A   1      35.210  21.865  25.551  1.00  0.00     0.047 C 
ENDBRANCH  11  17
ENDBRANCH   9  10
BRANCH   8  25
ATOM     25  C   UNL A   1      30.660  26.926  22.754  1.00  0.00     0.105 C 
ATOM     26  N   UNL A   1      30.088  27.962  22.319  1.00  0.00    -0.192 NA
ENDBRANCH   8  25
ENDBRANCH   5   8
ENDBRANCH   3   4
ENDBRANCH   2   3
ENDBRANCH   1   2
BRANCH   1  27
ATOM     27  C   UNL A   1      33.796  29.106  26.850  1.00  0.00     0.116 C 
BRANCH  27  28
ATOM     28  N   UNL A   1      33.938  30.572  26.881  1.00  0.00    -0.352 N 
ATOM     29  C   UNL A   1      34.736  31.478  27.589  1.00  0.00     0.251 C 
ATOM     30  H   UNL A   1      33.327  31.021  26.253  1.00  0.00     0.163 HD
ATOM     31  O   UNL A   1      34.438  32.646  27.594  1.00  0.00    -0.269 OA
BRANCH  29  32
ATOM     32  C   UNL A   1      35.957  31.033  28.310  1.00  0.00     0.039 A 
ATOM     33  C   UNL A   1      36.473  31.634  29.464  1.00  0.00     0.014 A 
ATOM     34  C   UNL A   1      36.700  30.039  27.747  1.00  0.00     0.014 A 
ATOM     35  C   UNL A   1      37.780  31.299  29.881  1.00  0.00     0.010 A 
ATOM     36  C   UNL A   1      37.687  29.431  28.442  1.00  0.00     0.010 A 
ATOM     37  C   UNL A   1      38.421  30.215  29.290  1.00  0.00    -0.014 A 
BRANCH  37  38
ATOM     38  C   UNL A   1      39.819  29.818  29.430  1.00  0.00     0.031 A 
ATOM     39  C   UNL A   1      40.229  29.430  30.800  1.00  0.00     0.074 A 
ATOM     40  C   UNL A   1      40.540  29.322  28.396  1.00  0.00     0.049 A 
ATOM     41  N   UNL A   1      40.863  30.143  31.669  1.00  0.00    -0.248 NA
ATOM     42  C   UNL A   1      39.698  28.162  31.334  1.00  0.00     0.031 C 
ATOM     43  C   UNL A   1      40.116  29.062  27.014  1.00  0.00     0.029 A 
ATOM     44  N   UNL A   1      41.802  28.802  28.422  1.00  0.00    -0.354 N 
ATOM     45  C   UNL A   1      40.977  29.323  32.785  1.00  0.00     0.074 A 
ATOM     46  C   UNL A   1      39.969  28.308  32.629  1.00  0.00     0.031 C 
ATOM     47  C   UNL A   1      41.031  28.271  26.402  1.00  0.00     0.029 A 
ATOM     48  C   UNL A   1      42.159  28.068  27.298  1.00  0.00     0.049 A 
ATOM     49  H   UNL A   1      42.414  28.939  29.181  1.00  0.00     0.167 HD
ATOM     50  C   UNL A   1      42.080  29.314  33.587  1.00  0.00     0.031 A 
ATOM     51  C   UNL A   1      43.275  27.307  27.155  1.00  0.00     0.031 A 
ATOM     52  C   UNL A   1      43.013  30.349  33.203  1.00  0.00     0.049 A 
ATOM     53  C   UNL A   1      44.223  27.699  28.234  1.00  0.00     0.074 A 
ATOM     54  C   UNL A   1      42.949  31.720  33.054  1.00  0.00     0.029 A 
ATOM     55  N   UNL A   1      44.126  29.941  32.500  1.00  0.00    -0.354 N 
ATOM     56  N   UNL A   1      44.785  28.873  28.319  1.00  0.00    -0.248 NA
ATOM     57  C   UNL A   1      44.235  26.918  29.461  1.00  0.00     0.031 C 
ATOM     58  C   UNL A   1      43.748  32.006  31.907  1.00  0.00     0.029 A 
ATOM     59  C   UNL A   1      44.300  30.807  31.451  1.00  0.00     0.049 A 
ATOM     60  H   UNL A   1      44.695  29.167  32.712  1.00  0.00     0.167 HD
ATOM     61  C   UNL A   1      44.853  29.144  29.680  1.00  0.00     0.074 A 
ATOM     62  C   UNL A   1      44.608  27.861  30.332  1.00  0.00     0.031 C 
ATOM     63  C   UNL A   1      44.814  30.427  30.148  1.00  0.00     0.031 A 
BRANCH  50  64
ATOM     64  C   UNL A   1      42.523  28.135  34.429  1.00  0.00    -0.014 A 
ATOM     65  C   UNL A   1      42.766  28.348  35.802  1.00  0.00     0.010 A 
ATOM     66  C   UNL A   1      42.934  26.892  33.905  1.00  0.00     0.010 A 
ATOM     67  C   UNL A   1      43.471  27.414  36.574  1.00  0.00     0.020 A 
ATOM     68  C   UNL A   1      43.589  25.931  34.676  1.00  0.00     0.020 A 
ATOM     69  C   UNL A   1      43.897  26.221  35.994  1.00  0.00     0.054 A 
BRANCH  69  70
ATOM     70  S   UNL A   1      44.935  25.086  36.943  1.00  0.00     0.124 S 
ATOM     71  O   UNL A   1      45.034  23.949  36.034  1.00  0.00    -0.237 OA
ATOM     72  O   UNL A   1      46.158  25.862  37.127  1.00  0.00    -0.237 OA
ATOM     73  O   UNL A   1      44.159  24.852  38.160  1.00  0.00    -0.744 OA
ENDBRANCH  69  70
ENDBRANCH  50  64
BRANCH  51  74
ATOM     74  C   UNL A   1      43.488  26.097  26.320  1.00  0.00    -0.014 A 
ATOM     75  C   UNL A   1      44.677  25.919  25.585  1.00  0.00     0.010 A 
ATOM     76  C   UNL A   1      42.629  24.988  26.446  1.00  0.00     0.010 A 
ATOM     77  C   UNL A   1      45.016  24.668  25.037  1.00  0.00     0.020 A 
ATOM     78  C   UNL A   1      42.955  23.743  25.895  1.00  0.00     0.020 A 
ATOM     79  C   UNL A   1      44.154  23.584  25.206  1.00  0.00     0.054 A 
BRANCH  79  80
ATOM     80  S   UNL A   1      44.659  21.926  24.650  1.00  0.00     0.124 S 
ATOM     81  O   UNL A   1      44.633  22.072  23.197  1.00  0.00    -0.237 OA
ATOM     82  O   UNL A   1      45.979  21.771  25.252  1.00  0.00    -0.237 OA
ATOM     83  O   UNL A   1      43.623  21.061  25.208  1.00  0.00    -0.744 OA
ENDBRANCH  79  80
ENDBRANCH  51  74
BRANCH  63  84
ATOM     84  C   UNL A   1      45.053  31.559  29.177  1.00  0.00    -0.014 A 
ATOM     85  C   UNL A   1      46.289  32.221  29.046  1.00  0.00     0.010 A 
ATOM     86  C   UNL A   1      44.043  31.833  28.238  1.00  0.00     0.010 A 
ATOM     87  C   UNL A   1      46.505  33.134  28.003  1.00  0.00     0.020 A 
ATOM     88  C   UNL A   1      44.257  32.728  27.187  1.00  0.00     0.020 A 
ATOM     89  C   UNL A   1      45.488  33.376  27.074  1.00  0.00     0.054 A 
BRANCH  89  90
ATOM     90  S   UNL A   1      45.808  34.479  25.669  1.00  0.00     0.124 S 
ATOM     91  O   UNL A   1      45.431  35.785  26.201  1.00  0.00    -0.237 OA
ATOM     92  O   UNL A   1      47.236  34.288  25.425  1.00  0.00    -0.237 OA
ATOM     93  O   UNL A   1      44.935  33.963  24.616  1.00  0.00    -0.744 OA
ENDBRANCH  89  90
ENDBRANCH  63  84
ENDBRANCH  37  38
ENDBRANCH  29  32
ENDBRANCH  27  28
ENDBRANCH   1  27
TORSDOF 17
ENDMDL
