MODEL 1
REMARK VINA RESULT:      -8.4      0.000      0.000
REMARK SMILES O=C(CCC(=O)Nc1cc(Cl)cc(Cl)c1)NCCCCNC(=O)c1ccc(-c2c3nc(c(-c4ccc(S(=O)(=O)[O-])cc4)c4ccc([nH]4)c(-c4ccc(S(=O)(=O)[O-])cc4)c4nc(c(-c5ccc(S(=O)(=O)[O-])cc5)c5ccc2[nH]5)C=C4)C=C3)cc1
REMARK SMILES IDX 18 1 17 2 16 3 1 4 2 5 3 7 4 8 5 9 6 10 7 11 8 13 9 14 15 15
REMARK SMILES IDX 10 16 13 17 11 18 12 19 14 20 19 21 20 22 21 23 22 24 23 26
REMARK SMILES IDX 24 27 25 28 83 29 26 30 82 31 27 32 28 33 29 34 76 35 30 36
REMARK SMILES IDX 81 37 75 38 77 39 31 40 80 41 74 42 73 43 32 45 62 46 43 47
REMARK SMILES IDX 61 48 44 49 47 50 60 51 78 52 45 53 46 54 59 56 79 57 48 58
REMARK SMILES IDX 33 59 34 60 42 61 35 62 41 63 36 64 37 65 38 66 39 67 40 68
REMARK SMILES IDX 63 69 64 70 72 71 65 72 71 73 66 74 67 75 68 76 69 77 70 78
REMARK SMILES IDX 49 79 50 80 58 81 51 82 57 83 52 84 53 85 54 86 55 87 56 88
REMARK H PARENT 16 6 7 12 21 25 77 44 47 55
REMARK Flexibility Score: inf
ROOT
ATOM      1  C   UNL A   1      34.382  33.818  31.551  1.00  0.00     0.023 C 
ENDROOT
BRANCH   1   2
ATOM      2  C   UNL A   1      34.560  33.679  33.059  1.00  0.00     0.116 C 
BRANCH   2   3
ATOM      3  N   UNL A   1      35.743  32.939  33.456  1.00  0.00    -0.356 N 
ATOM      4  O   UNL A   1      37.132  34.766  33.633  1.00  0.00    -0.275 OA
ATOM      5  C   UNL A   1      36.917  33.570  33.805  1.00  0.00     0.220 C 
ATOM      6  H   UNL A   1      35.706  31.955  33.476  1.00  0.00     0.163 HD
BRANCH   5   7
ATOM      7  C   UNL A   1      37.898  32.691  34.546  1.00  0.00     0.110 C 
BRANCH   7   8
ATOM      8  C   UNL A   1      39.311  32.823  33.980  1.00  0.00     0.110 C 
BRANCH   8   9
ATOM      9  C   UNL A   1      40.363  32.640  35.042  1.00  0.00     0.224 C 
ATOM     10  O   UNL A   1      40.601  33.576  35.815  1.00  0.00    -0.275 OA
ATOM     11  N   UNL A   1      41.119  31.522  35.204  1.00  0.00    -0.326 N 
ATOM     12  H   UNL A   1      41.596  31.522  36.065  1.00  0.00     0.169 HD
BRANCH  11  13
ATOM     13  C   UNL A   1      41.393  30.362  34.453  1.00  0.00     0.044 A 
ATOM     14  C   UNL A   1      42.619  29.705  34.366  1.00  0.00     0.046 A 
ATOM     15  C   UNL A   1      40.283  29.765  33.832  1.00  0.00     0.046 A 
ATOM     16  C   UNL A   1      42.717  28.456  33.739  1.00  0.00     0.044 A 
ATOM     17  C   UNL A   1      40.392  28.524  33.200  1.00  0.00     0.044 A 
ATOM     18  Cl  UNL A   1      44.229  27.631  33.718  1.00  0.00    -0.084 Cl
ATOM     19  C   UNL A   1      41.606  27.854  33.164  1.00  0.00     0.041 A 
ATOM     20  Cl  UNL A   1      39.000  27.798  32.499  1.00  0.00    -0.084 Cl
ENDBRANCH  11  13
ENDBRANCH   8   9
ENDBRANCH   7   8
ENDBRANCH   5   7
ENDBRANCH   2   3
ENDBRANCH   1   2
BRANCH   1  21
ATOM     21  C   UNL A   1      34.771  32.591  30.724  1.00  0.00     0.023 C 
BRANCH  21  22
ATOM     22  C   UNL A   1      34.796  32.790  29.211  1.00  0.00     0.116 C 
BRANCH  22  23
ATOM     23  N   UNL A   1      34.021  31.790  28.490  1.00  0.00    -0.352 N 
ATOM     24  C   UNL A   1      34.410  30.575  27.974  1.00  0.00     0.251 C 
ATOM     25  H   UNL A   1      33.073  32.018  28.351  1.00  0.00     0.163 HD
ATOM     26  O   UNL A   1      33.637  29.948  27.250  1.00  0.00    -0.269 OA
BRANCH  24  27
ATOM     27  C   UNL A   1      35.760  30.030  28.253  1.00  0.00     0.039 A 
ATOM     28  C   UNL A   1      36.741  30.109  27.259  1.00  0.00     0.014 A 
ATOM     29  C   UNL A   1      36.063  29.435  29.478  1.00  0.00     0.014 A 
ATOM     30  C   UNL A   1      38.044  29.678  27.530  1.00  0.00     0.010 A 
ATOM     31  C   UNL A   1      37.380  29.080  29.774  1.00  0.00     0.010 A 
ATOM     32  C   UNL A   1      38.389  29.205  28.807  1.00  0.00    -0.014 A 
BRANCH  32  33
ATOM     33  C   UNL A   1      39.796  28.865  29.156  1.00  0.00     0.031 A 
ATOM     34  C   UNL A   1      40.696  29.890  29.796  1.00  0.00     0.074 A 
ATOM     35  C   UNL A   1      40.291  27.653  28.832  1.00  0.00     0.049 A 
ATOM     36  N   UNL A   1      41.966  29.797  30.102  1.00  0.00    -0.248 NA
ATOM     37  C   UNL A   1      40.098  31.197  30.111  1.00  0.00     0.031 C 
ATOM     38  C   UNL A   1      39.543  26.580  28.170  1.00  0.00     0.029 A 
ATOM     39  N   UNL A   1      41.545  27.120  29.004  1.00  0.00    -0.354 N 
ATOM     40  C   UNL A   1      42.321  31.032  30.632  1.00  0.00     0.074 A 
ATOM     41  C   UNL A   1      41.146  31.875  30.558  1.00  0.00     0.031 C 
ATOM     42  C   UNL A   1      40.344  25.515  28.014  1.00  0.00     0.029 A 
ATOM     43  C   UNL A   1      41.673  25.838  28.522  1.00  0.00     0.049 A 
ATOM     44  H   UNL A   1      42.284  27.610  29.433  1.00  0.00     0.167 HD
ATOM     45  C   UNL A   1      43.510  31.427  31.151  1.00  0.00     0.031 A 
ATOM     46  C   UNL A   1      42.740  25.016  28.477  1.00  0.00     0.031 A 
ATOM     47  C   UNL A   1      44.677  30.589  31.230  1.00  0.00     0.049 A 
ATOM     48  C   UNL A   1      44.054  25.480  29.046  1.00  0.00     0.074 A 
ATOM     49  C   UNL A   1      45.912  30.884  31.782  1.00  0.00     0.029 A 
ATOM     50  N   UNL A   1      44.760  29.293  30.741  1.00  0.00    -0.354 N 
ATOM     51  N   UNL A   1      44.351  26.632  29.597  1.00  0.00    -0.248 NA
ATOM     52  C   UNL A   1      45.173  24.528  28.996  1.00  0.00     0.031 C 
ATOM     53  C   UNL A   1      46.756  29.788  31.581  1.00  0.00     0.029 A 
ATOM     54  C   UNL A   1      46.030  28.785  30.960  1.00  0.00     0.049 A 
ATOM     55  H   UNL A   1      44.024  28.806  30.304  1.00  0.00     0.167 HD
ATOM     56  C   UNL A   1      45.683  26.534  29.986  1.00  0.00     0.074 A 
ATOM     57  C   UNL A   1      46.129  25.205  29.619  1.00  0.00     0.031 C 
ATOM     58  C   UNL A   1      46.465  27.461  30.592  1.00  0.00     0.031 A 
BRANCH  45  59
ATOM     59  C   UNL A   1      43.606  32.836  31.675  1.00  0.00    -0.014 A 
ATOM     60  C   UNL A   1      43.369  33.123  33.033  1.00  0.00     0.010 A 
ATOM     61  C   UNL A   1      43.981  33.883  30.813  1.00  0.00     0.010 A 
ATOM     62  C   UNL A   1      43.459  34.434  33.506  1.00  0.00     0.020 A 
ATOM     63  C   UNL A   1      44.102  35.192  31.289  1.00  0.00     0.020 A 
ATOM     64  C   UNL A   1      43.821  35.461  32.631  1.00  0.00     0.054 A 
BRANCH  64  65
ATOM     65  S   UNL A   1      43.947  37.151  33.278  1.00  0.00     0.124 S 
ATOM     66  O   UNL A   1      45.263  37.132  33.913  1.00  0.00    -0.237 OA
ATOM     67  O   UNL A   1      43.844  37.965  32.070  1.00  0.00    -0.237 OA
ATOM     68  O   UNL A   1      42.814  37.257  34.196  1.00  0.00    -0.744 OA
ENDBRANCH  64  65
ENDBRANCH  45  59
BRANCH  46  69
ATOM     69  C   UNL A   1      42.608  23.659  27.876  1.00  0.00    -0.014 A 
ATOM     70  C   UNL A   1      42.103  22.587  28.631  1.00  0.00     0.010 A 
ATOM     71  C   UNL A   1      42.979  23.436  26.537  1.00  0.00     0.010 A 
ATOM     72  C   UNL A   1      41.988  21.313  28.066  1.00  0.00     0.020 A 
ATOM     73  C   UNL A   1      42.838  22.171  25.959  1.00  0.00     0.020 A 
ATOM     74  C   UNL A   1      42.354  21.114  26.732  1.00  0.00     0.054 A 
BRANCH  74  75
ATOM     75  S   UNL A   1      42.147  19.465  26.004  1.00  0.00     0.124 S 
ATOM     76  O   UNL A   1      42.637  18.598  27.071  1.00  0.00    -0.237 OA
ATOM     77  O   UNL A   1      40.709  19.410  25.752  1.00  0.00    -0.237 OA
ATOM     78  O   UNL A   1      42.979  19.515  24.804  1.00  0.00    -0.744 OA
ENDBRANCH  74  75
ENDBRANCH  46  69
BRANCH  58  79
ATOM     79  C   UNL A   1      47.877  27.064  30.934  1.00  0.00    -0.014 A 
ATOM     80  C   UNL A   1      48.928  27.233  30.015  1.00  0.00     0.010 A 
ATOM     81  C   UNL A   1      48.164  26.564  32.217  1.00  0.00     0.010 A 
ATOM     82  C   UNL A   1      50.235  26.881  30.365  1.00  0.00     0.020 A 
ATOM     83  C   UNL A   1      49.473  26.238  32.580  1.00  0.00     0.020 A 
ATOM     84  C   UNL A   1      50.499  26.385  31.645  1.00  0.00     0.054 A 
BRANCH  84  85
ATOM     85  S   UNL A   1      52.210  25.979  32.088  1.00  0.00     0.124 S 
ATOM     86  O   UNL A   1      52.356  26.646  33.380  1.00  0.00    -0.237 OA
ATOM     87  O   UNL A   1      52.192  24.519  32.134  1.00  0.00    -0.237 OA
ATOM     88  O   UNL A   1      52.998  26.552  30.999  1.00  0.00    -0.744 OA
ENDBRANCH  84  85
ENDBRANCH  58  79
ENDBRANCH  32  33
ENDBRANCH  24  27
ENDBRANCH  22  23
ENDBRANCH  21  22
ENDBRANCH   1  21
TORSDOF 17
ENDMDL
MODEL 2
REMARK VINA RESULT:      -8.4      4.815      7.330
REMARK SMILES O=C(CCC(=O)Nc1cc(Cl)cc(Cl)c1)NCCCCNC(=O)c1ccc(-c2c3nc(c(-c4ccc(S(=O)(=O)[O-])cc4)c4ccc([nH]4)c(-c4ccc(S(=O)(=O)[O-])cc4)c4nc(c(-c5ccc(S(=O)(=O)[O-])cc5)c5ccc2[nH]5)C=C4)C=C3)cc1
REMARK SMILES IDX 18 1 17 2 16 3 1 4 2 5 3 7 4 8 5 9 6 10 7 11 8 13 9 14 15 15
REMARK SMILES IDX 10 16 13 17 11 18 12 19 14 20 19 21 20 22 21 23 22 24 23 26
REMARK SMILES IDX 24 27 25 28 83 29 26 30 82 31 27 32 28 33 29 34 76 35 30 36
REMARK SMILES IDX 81 37 75 38 77 39 31 40 80 41 74 42 73 43 32 45 62 46 43 47
REMARK SMILES IDX 61 48 44 49 47 50 60 51 78 52 45 53 46 54 59 56 79 57 48 58
REMARK SMILES IDX 33 59 34 60 42 61 35 62 41 63 36 64 37 65 38 66 39 67 40 68
REMARK SMILES IDX 63 69 64 70 72 71 65 72 71 73 66 74 67 75 68 76 69 77 70 78
REMARK SMILES IDX 49 79 50 80 58 81 51 82 57 83 52 84 53 85 54 86 55 87 56 88
REMARK H PARENT 16 6 7 12 21 25 77 44 47 55
REMARK Flexibility Score: inf
ROOT
ATOM      1  C   UNL A   1      33.355  29.114  27.209  1.00  0.00     0.023 C 
ENDROOT
BRANCH   1   2
ATOM      2  C   UNL A   1      32.671  29.072  25.847  1.00  0.00     0.116 C 
BRANCH   2   3
ATOM      3  N   UNL A   1      31.565  28.136  25.762  1.00  0.00    -0.356 N 
ATOM      4  O   UNL A   1      32.823  26.325  25.103  1.00  0.00    -0.275 OA
ATOM      5  C   UNL A   1      31.758  26.800  25.486  1.00  0.00     0.220 C 
ATOM      6  H   UNL A   1      30.649  28.466  25.908  1.00  0.00     0.163 HD
BRANCH   5   7
ATOM      7  C   UNL A   1      30.573  25.921  25.812  1.00  0.00     0.110 C 
BRANCH   7   8
ATOM      8  C   UNL A   1      30.767  24.499  25.288  1.00  0.00     0.110 C 
BRANCH   8   9
ATOM      9  C   UNL A   1      30.576  23.468  26.371  1.00  0.00     0.224 C 
ATOM     10  O   UNL A   1      29.778  23.705  27.286  1.00  0.00    -0.275 OA
ATOM     11  N   UNL A   1      31.250  22.291  26.451  1.00  0.00    -0.326 N 
ATOM     12  H   UNL A   1      30.842  21.678  27.105  1.00  0.00     0.169 HD
BRANCH  11  13
ATOM     13  C   UNL A   1      32.383  21.723  25.837  1.00  0.00     0.044 A 
ATOM     14  C   UNL A   1      33.711  22.080  26.063  1.00  0.00     0.046 A 
ATOM     15  C   UNL A   1      32.132  20.620  25.004  1.00  0.00     0.046 A 
ATOM     16  C   UNL A   1      34.757  21.313  25.533  1.00  0.00     0.044 A 
ATOM     17  C   UNL A   1      33.182  19.867  24.472  1.00  0.00     0.044 A 
ATOM     18  Cl  UNL A   1      36.387  21.731  25.897  1.00  0.00    -0.084 Cl
ATOM     19  C   UNL A   1      34.500  20.199  24.746  1.00  0.00     0.041 A 
ATOM     20  Cl  UNL A   1      32.837  18.489  23.502  1.00  0.00    -0.084 Cl
ENDBRANCH  11  13
ENDBRANCH   8   9
ENDBRANCH   7   8
ENDBRANCH   5   7
ENDBRANCH   2   3
ENDBRANCH   1   2
BRANCH   1  21
ATOM     21  C   UNL A   1      34.885  29.128  27.181  1.00  0.00     0.023 C 
BRANCH  21  22
ATOM     22  C   UNL A   1      35.551  30.308  27.882  1.00  0.00     0.116 C 
BRANCH  22  23
ATOM     23  N   UNL A   1      35.470  30.229  29.334  1.00  0.00    -0.352 N 
ATOM     24  C   UNL A   1      36.439  29.905  30.256  1.00  0.00     0.251 C 
ATOM     25  H   UNL A   1      34.586  30.438  29.714  1.00  0.00     0.163 HD
ATOM     26  O   UNL A   1      36.122  29.732  31.433  1.00  0.00    -0.269 OA
BRANCH  24  27
ATOM     27  C   UNL A   1      37.851  29.729  29.843  1.00  0.00     0.039 A 
ATOM     28  C   UNL A   1      38.835  29.603  30.829  1.00  0.00     0.014 A 
ATOM     29  C   UNL A   1      38.214  29.694  28.495  1.00  0.00     0.014 A 
ATOM     30  C   UNL A   1      40.161  29.351  30.462  1.00  0.00     0.010 A 
ATOM     31  C   UNL A   1      39.520  29.364  28.133  1.00  0.00     0.010 A 
ATOM     32  C   UNL A   1      40.509  29.180  29.112  1.00  0.00    -0.014 A 
BRANCH  32  33
ATOM     33  C   UNL A   1      41.886  28.781  28.709  1.00  0.00     0.031 A 
ATOM     34  C   UNL A   1      42.984  29.808  28.612  1.00  0.00     0.074 A 
ATOM     35  C   UNL A   1      42.135  27.504  28.356  1.00  0.00     0.049 A 
ATOM     36  N   UNL A   1      44.221  29.658  28.208  1.00  0.00    -0.248 NA
ATOM     37  C   UNL A   1      42.642  31.187  28.998  1.00  0.00     0.031 C 
ATOM     38  C   UNL A   1      41.154  26.415  28.360  1.00  0.00     0.029 A 
ATOM     39  N   UNL A   1      43.289  26.903  27.914  1.00  0.00    -0.354 N 
ATOM     40  C   UNL A   1      44.799  30.921  28.278  1.00  0.00     0.074 A 
ATOM     41  C   UNL A   1      43.764  31.834  28.714  1.00  0.00     0.031 C 
ATOM     42  C   UNL A   1      41.751  25.281  27.964  1.00  0.00     0.029 A 
ATOM     43  C   UNL A   1      43.144  25.564  27.635  1.00  0.00     0.049 A 
ATOM     44  H   UNL A   1      44.141  27.386  27.807  1.00  0.00     0.167 HD
ATOM     45  C   UNL A   1      46.079  31.287  28.023  1.00  0.00     0.031 A 
ATOM     46  C   UNL A   1      44.025  24.663  27.154  1.00  0.00     0.031 A 
ATOM     47  C   UNL A   1      47.111  30.379  27.594  1.00  0.00     0.049 A 
ATOM     48  C   UNL A   1      45.437  25.095  26.863  1.00  0.00     0.074 A 
ATOM     49  C   UNL A   1      48.448  30.648  27.356  1.00  0.00     0.029 A 
ATOM     50  N   UNL A   1      46.924  29.029  27.336  1.00  0.00    -0.354 N 
ATOM     51  N   UNL A   1      45.979  26.282  26.995  1.00  0.00    -0.248 NA
ATOM     52  C   UNL A   1      46.359  24.063  26.370  1.00  0.00     0.031 C 
ATOM     53  C   UNL A   1      49.059  29.474  26.905  1.00  0.00     0.029 A 
ATOM     54  C   UNL A   1      48.117  28.458  26.921  1.00  0.00     0.049 A 
ATOM     55  H   UNL A   1      46.072  28.548  27.434  1.00  0.00     0.167 HD
ATOM     56  C   UNL A   1      47.311  26.133  26.627  1.00  0.00     0.074 A 
ATOM     57  C   UNL A   1      47.497  24.738  26.283  1.00  0.00     0.031 C 
ATOM     58  C   UNL A   1      48.292  27.068  26.580  1.00  0.00     0.031 A 
BRANCH  45  59
ATOM     59  C   UNL A   1      46.436  32.740  28.199  1.00  0.00    -0.014 A 
ATOM     60  C   UNL A   1      46.908  33.227  29.433  1.00  0.00     0.010 A 
ATOM     61  C   UNL A   1      46.340  33.625  27.109  1.00  0.00     0.010 A 
ATOM     62  C   UNL A   1      47.232  34.577  29.584  1.00  0.00     0.020 A 
ATOM     63  C   UNL A   1      46.693  34.970  27.248  1.00  0.00     0.020 A 
ATOM     64  C   UNL A   1      47.120  35.441  28.492  1.00  0.00     0.054 A 
BRANCH  64  65
ATOM     65  S   UNL A   1      47.565  37.186  28.715  1.00  0.00     0.124 S 
ATOM     66  O   UNL A   1      49.016  37.148  28.551  1.00  0.00    -0.237 OA
ATOM     67  O   UNL A   1      46.829  37.844  27.639  1.00  0.00    -0.237 OA
ATOM     68  O   UNL A   1      47.098  37.494  30.065  1.00  0.00    -0.744 OA
ENDBRANCH  64  65
ENDBRANCH  45  59
BRANCH  46  69
ATOM     69  C   UNL A   1      43.598  23.255  26.925  1.00  0.00    -0.014 A 
ATOM     70  C   UNL A   1      43.159  22.456  27.995  1.00  0.00     0.010 A 
ATOM     71  C   UNL A   1      43.617  22.709  25.628  1.00  0.00     0.010 A 
ATOM     72  C   UNL A   1      42.766  21.132  27.777  1.00  0.00     0.020 A 
ATOM     73  C   UNL A   1      43.197  21.395  25.401  1.00  0.00     0.020 A 
ATOM     74  C   UNL A   1      42.785  20.611  26.480  1.00  0.00     0.054 A 
BRANCH  74  75
ATOM     75  S   UNL A   1      42.221  18.907  26.213  1.00  0.00     0.124 S 
ATOM     76  O   UNL A   1      40.868  19.111  25.705  1.00  0.00    -0.237 OA
ATOM     77  O   UNL A   1      43.192  18.401  25.246  1.00  0.00    -0.237 OA
ATOM     78  O   UNL A   1      42.308  18.307  27.543  1.00  0.00    -0.744 OA
ENDBRANCH  74  75
ENDBRANCH  46  69
BRANCH  58  79
ATOM     79  C   UNL A   1      49.670  26.612  26.176  1.00  0.00    -0.014 A 
ATOM     80  C   UNL A   1      50.160  26.827  24.876  1.00  0.00     0.010 A 
ATOM     81  C   UNL A   1      50.506  26.006  27.132  1.00  0.00     0.010 A 
ATOM     82  C   UNL A   1      51.452  26.417  24.531  1.00  0.00     0.020 A 
ATOM     83  C   UNL A   1      51.808  25.622  26.799  1.00  0.00     0.020 A 
ATOM     84  C   UNL A   1      52.267  25.817  25.495  1.00  0.00     0.054 A 
BRANCH  84  85
ATOM     85  S   UNL A   1      53.954  25.336  25.035  1.00  0.00     0.124 S 
ATOM     86  O   UNL A   1      54.173  26.117  23.820  1.00  0.00    -0.237 OA
ATOM     87  O   UNL A   1      54.735  25.752  26.198  1.00  0.00    -0.237 OA
ATOM     88  O   UNL A   1      53.863  23.891  24.838  1.00  0.00    -0.744 OA
ENDBRANCH  84  85
ENDBRANCH  58  79
ENDBRANCH  32  33
ENDBRANCH  24  27
ENDBRANCH  22  23
ENDBRANCH  21  22
ENDBRANCH   1  21
TORSDOF 17
ENDMDL
MODEL 3
REMARK VINA RESULT:      -8.3      3.956      7.048
REMARK SMILES O=C(CCC(=O)Nc1cc(Cl)cc(Cl)c1)NCCCCNC(=O)c1ccc(-c2c3nc(c(-c4ccc(S(=O)(=O)[O-])cc4)c4ccc([nH]4)c(-c4ccc(S(=O)(=O)[O-])cc4)c4nc(c(-c5ccc(S(=O)(=O)[O-])cc5)c5ccc2[nH]5)C=C4)C=C3)cc1
REMARK SMILES IDX 18 1 17 2 16 3 1 4 2 5 3 7 4 8 5 9 6 10 7 11 8 13 9 14 15 15
REMARK SMILES IDX 10 16 13 17 11 18 12 19 14 20 19 21 20 22 21 23 22 24 23 26
REMARK SMILES IDX 24 27 25 28 83 29 26 30 82 31 27 32 28 33 29 34 76 35 30 36
REMARK SMILES IDX 81 37 75 38 77 39 31 40 80 41 74 42 73 43 32 45 62 46 43 47
REMARK SMILES IDX 61 48 44 49 47 50 60 51 78 52 45 53 46 54 59 56 79 57 48 58
REMARK SMILES IDX 33 59 34 60 42 61 35 62 41 63 36 64 37 65 38 66 39 67 40 68
REMARK SMILES IDX 63 69 64 70 72 71 65 72 71 73 66 74 67 75 68 76 69 77 70 78
REMARK SMILES IDX 49 79 50 80 58 81 51 82 57 83 52 84 53 85 54 86 55 87 56 88
REMARK H PARENT 16 6 7 12 21 25 77 44 47 55
REMARK Flexibility Score: inf
ROOT
ATOM      1  C   UNL A   1      31.583  27.855  27.251  1.00  0.00     0.023 C 
ENDROOT
BRANCH   1   2
ATOM      2  C   UNL A   1      30.940  26.602  26.667  1.00  0.00     0.116 C 
BRANCH   2   3
ATOM      3  N   UNL A   1      31.877  25.540  26.353  1.00  0.00    -0.356 N 
ATOM      4  O   UNL A   1      30.667  23.844  27.330  1.00  0.00    -0.275 OA
ATOM      5  C   UNL A   1      31.606  24.219  26.635  1.00  0.00     0.220 C 
ATOM      6  H   UNL A   1      32.733  25.770  25.925  1.00  0.00     0.163 HD
BRANCH   5   7
ATOM      7  C   UNL A   1      32.493  23.234  25.909  1.00  0.00     0.110 C 
BRANCH   7   8
ATOM      8  C   UNL A   1      31.686  22.325  24.983  1.00  0.00     0.110 C 
BRANCH   8   9
ATOM      9  C   UNL A   1      32.242  22.311  23.582  1.00  0.00     0.224 C 
ATOM     10  O   UNL A   1      32.894  21.329  23.209  1.00  0.00    -0.275 OA
ATOM     11  N   UNL A   1      32.119  23.326  22.687  1.00  0.00    -0.326 N 
ATOM     12  H   UNL A   1      32.369  23.045  21.777  1.00  0.00     0.169 HD
BRANCH  11  13
ATOM     13  C   UNL A   1      31.724  24.678  22.729  1.00  0.00     0.044 A 
ATOM     14  C   UNL A   1      30.452  25.157  23.040  1.00  0.00     0.046 A 
ATOM     15  C   UNL A   1      32.753  25.616  22.545  1.00  0.00     0.046 A 
ATOM     16  C   UNL A   1      30.234  26.527  23.233  1.00  0.00     0.044 A 
ATOM     17  C   UNL A   1      32.523  26.982  22.730  1.00  0.00     0.044 A 
ATOM     18  Cl  UNL A   1      28.671  27.082  23.697  1.00  0.00    -0.084 Cl
ATOM     19  C   UNL A   1      31.266  27.444  23.091  1.00  0.00     0.041 A 
ATOM     20  Cl  UNL A   1      33.820  28.097  22.552  1.00  0.00    -0.084 Cl
ENDBRANCH  11  13
ENDBRANCH   8   9
ENDBRANCH   7   8
ENDBRANCH   5   7
ENDBRANCH   2   3
ENDBRANCH   1   2
BRANCH   1  21
ATOM     21  C   UNL A   1      32.510  28.624  26.306  1.00  0.00     0.023 C 
BRANCH  21  22
ATOM     22  C   UNL A   1      33.848  29.060  26.898  1.00  0.00     0.116 C 
BRANCH  22  23
ATOM     23  N   UNL A   1      33.779  30.343  27.581  1.00  0.00    -0.352 N 
ATOM     24  C   UNL A   1      34.687  30.947  28.419  1.00  0.00     0.251 C 
ATOM     25  H   UNL A   1      32.954  30.858  27.418  1.00  0.00     0.163 HD
ATOM     26  O   UNL A   1      34.364  31.967  29.030  1.00  0.00    -0.269 OA
BRANCH  24  27
ATOM     27  C   UNL A   1      36.035  30.368  28.621  1.00  0.00     0.039 A 
ATOM     28  C   UNL A   1      36.958  30.416  27.571  1.00  0.00     0.014 A 
ATOM     29  C   UNL A   1      36.395  29.771  29.831  1.00  0.00     0.014 A 
ATOM     30  C   UNL A   1      38.263  29.953  27.768  1.00  0.00     0.010 A 
ATOM     31  C   UNL A   1      37.717  29.383  30.051  1.00  0.00     0.010 A 
ATOM     32  C   UNL A   1      38.670  29.476  29.025  1.00  0.00    -0.014 A 
BRANCH  32  33
ATOM     33  C   UNL A   1      40.086  29.101  29.293  1.00  0.00     0.031 A 
ATOM     34  C   UNL A   1      41.049  30.104  29.874  1.00  0.00     0.074 A 
ATOM     35  C   UNL A   1      40.530  27.876  28.945  1.00  0.00     0.049 A 
ATOM     36  N   UNL A   1      42.331  29.979  30.106  1.00  0.00    -0.248 NA
ATOM     37  C   UNL A   1      40.503  31.427  30.219  1.00  0.00     0.031 C 
ATOM     38  C   UNL A   1      39.717  26.821  28.333  1.00  0.00     0.029 A 
ATOM     39  N   UNL A   1      41.778  27.311  29.046  1.00  0.00    -0.354 N 
ATOM     40  C   UNL A   1      42.749  31.206  30.609  1.00  0.00     0.074 A 
ATOM     41  C   UNL A   1      41.594  32.078  30.600  1.00  0.00     0.031 C 
ATOM     42  C   UNL A   1      40.480  25.735  28.136  1.00  0.00     0.029 A 
ATOM     43  C   UNL A   1      41.845  26.025  28.563  1.00  0.00     0.049 A 
ATOM     44  H   UNL A   1      42.553  27.783  29.429  1.00  0.00     0.167 HD
ATOM     45  C   UNL A   1      43.975  31.571  31.056  1.00  0.00     0.031 A 
ATOM     46  C   UNL A   1      42.886  25.175  28.459  1.00  0.00     0.031 A 
ATOM     47  C   UNL A   1      45.123  30.703  31.070  1.00  0.00     0.049 A 
ATOM     48  C   UNL A   1      44.242  25.606  28.948  1.00  0.00     0.074 A 
ATOM     49  C   UNL A   1      46.395  30.968  31.547  1.00  0.00     0.029 A 
ATOM     50  N   UNL A   1      45.144  29.405  30.583  1.00  0.00    -0.354 N 
ATOM     51  N   UNL A   1      44.601  26.752  29.477  1.00  0.00    -0.248 NA
ATOM     52  C   UNL A   1      45.331  24.626  28.837  1.00  0.00     0.031 C 
ATOM     53  C   UNL A   1      47.198  29.850  31.303  1.00  0.00     0.029 A 
ATOM     54  C   UNL A   1      46.411  28.864  30.729  1.00  0.00     0.049 A 
ATOM     55  H   UNL A   1      44.372  28.936  30.192  1.00  0.00     0.167 HD
ATOM     56  C   UNL A   1      45.950  26.620  29.787  1.00  0.00     0.074 A 
ATOM     57  C   UNL A   1      46.339  25.279  29.401  1.00  0.00     0.031 C 
ATOM     58  C   UNL A   1      46.789  27.528  30.342  1.00  0.00     0.031 A 
BRANCH  45  59
ATOM     59  C   UNL A   1      44.139  32.979  31.568  1.00  0.00    -0.014 A 
ATOM     60  C   UNL A   1      44.499  34.028  30.702  1.00  0.00     0.010 A 
ATOM     61  C   UNL A   1      43.889  33.268  32.922  1.00  0.00     0.010 A 
ATOM     62  C   UNL A   1      44.650  35.329  31.189  1.00  0.00     0.020 A 
ATOM     63  C   UNL A   1      44.010  34.573  33.407  1.00  0.00     0.020 A 
ATOM     64  C   UNL A   1      44.408  35.593  32.540  1.00  0.00     0.054 A 
BRANCH  64  65
ATOM     65  S   UNL A   1      44.596  37.294  33.140  1.00  0.00     0.124 S 
ATOM     66  O   UNL A   1      43.277  37.560  33.706  1.00  0.00    -0.237 OA
ATOM     67  O   UNL A   1      45.683  37.174  34.109  1.00  0.00    -0.237 OA
ATOM     68  O   UNL A   1      44.921  38.054  31.934  1.00  0.00    -0.744 OA
ENDBRANCH  64  65
ENDBRANCH  45  59
BRANCH  46  69
ATOM     69  C   UNL A   1      42.684  23.820  27.873  1.00  0.00    -0.014 A 
ATOM     70  C   UNL A   1      42.840  23.606  26.493  1.00  0.00     0.010 A 
ATOM     71  C   UNL A   1      42.345  22.732  28.698  1.00  0.00     0.010 A 
ATOM     72  C   UNL A   1      42.642  22.335  25.945  1.00  0.00     0.020 A 
ATOM     73  C   UNL A   1      42.175  21.454  28.160  1.00  0.00     0.020 A 
ATOM     74  C   UNL A   1      42.314  21.265  26.783  1.00  0.00     0.054 A 
BRANCH  74  75
ATOM     75  S   UNL A   1      42.114  19.614  26.058  1.00  0.00     0.124 S 
ATOM     76  O   UNL A   1      42.524  18.747  27.158  1.00  0.00    -0.237 OA
ATOM     77  O   UNL A   1      40.692  19.586  25.725  1.00  0.00    -0.237 OA
ATOM     78  O   UNL A   1      43.015  19.636  24.907  1.00  0.00    -0.744 OA
ENDBRANCH  74  75
ENDBRANCH  46  69
BRANCH  58  79
ATOM     79  C   UNL A   1      48.209  27.096  30.602  1.00  0.00    -0.014 A 
ATOM     80  C   UNL A   1      49.253  27.448  29.730  1.00  0.00     0.010 A 
ATOM     81  C   UNL A   1      48.508  26.370  31.771  1.00  0.00     0.010 A 
ATOM     82  C   UNL A   1      50.567  27.056  30.006  1.00  0.00     0.020 A 
ATOM     83  C   UNL A   1      49.823  26.003  32.065  1.00  0.00     0.020 A 
ATOM     84  C   UNL A   1      50.843  26.336  31.172  1.00  0.00     0.054 A 
BRANCH  84  85
ATOM     85  S   UNL A   1      52.562  25.880  31.530  1.00  0.00     0.124 S 
ATOM     86  O   UNL A   1      52.408  24.547  32.109  1.00  0.00    -0.237 OA
ATOM     87  O   UNL A   1      53.187  25.923  30.210  1.00  0.00    -0.237 OA
ATOM     88  O   UNL A   1      53.010  26.914  32.459  1.00  0.00    -0.744 OA
ENDBRANCH  84  85
ENDBRANCH  58  79
ENDBRANCH  32  33
ENDBRANCH  24  27
ENDBRANCH  22  23
ENDBRANCH  21  22
ENDBRANCH   1  21
TORSDOF 17
ENDMDL
