MODEL 1
REMARK VINA RESULT:     -13.2      0.000      0.000
REMARK SMILES Cc1cc(N2CCCC2)nc2sc3c(=O)n(CC(=O)NCCCCNC(=O)c4ccc(-c5c6nc(c(-c7ccc(S(=O)(=O)[O-])cc7)c7ccc([nH]7)c(-c7ccc(S(=O)(=O)[O-])cc7)c7nc(c(-c8ccc(S(=O)(=O)[O-])cc8)c8ccc5[nH]8)C=C7)C=C6)cc4)cnc3c12
REMARK SMILES IDX 23 1 22 2 21 3 20 4 18 5 19 6 17 8 16 9 1 10 2 11 3 12 91 13
REMARK SMILES IDX 4 14 11 15 90 16 10 17 12 18 13 19 89 20 14 21 88 22 15 23
REMARK SMILES IDX 5 24 6 25 9 26 7 27 8 28 24 29 25 30 26 31 27 33 28 34 29 35
REMARK SMILES IDX 87 36 30 37 86 38 31 39 32 40 33 41 80 42 34 43 85 44 79 45
REMARK SMILES IDX 81 46 35 47 84 48 78 49 77 50 36 52 66 53 47 54 65 55 48 56
REMARK SMILES IDX 51 57 64 58 82 59 49 60 50 61 63 63 83 64 52 65 37 66 38 67
REMARK SMILES IDX 46 68 39 69 45 70 40 71 41 72 42 73 43 74 44 75 67 76 68 77
REMARK SMILES IDX 76 78 69 79 75 80 70 81 71 82 72 83 73 84 74 85 53 86 54 87
REMARK SMILES IDX 62 88 55 89 61 90 56 91 57 92 58 93 59 94 60 95
REMARK H PARENT 20 7 25 32 81 51 51 62
REMARK Flexibility Score: inf
ROOT
ATOM      1  C   UNL A   1      36.692  22.529  25.531  1.00  0.00     0.023 C 
ENDROOT
BRANCH   1   2
ATOM      2  C   UNL A   1      36.209  21.403  24.594  1.00  0.00     0.023 C 
BRANCH   2   3
ATOM      3  C   UNL A   1      35.729  20.143  25.316  1.00  0.00     0.116 C 
BRANCH   3   4
ATOM      4  N   UNL A   1      34.373  19.805  24.928  1.00  0.00    -0.355 N 
ATOM      5  C   UNL A   1      33.189  20.342  25.328  1.00  0.00     0.240 C 
ATOM      6  O   UNL A   1      32.148  19.855  24.879  1.00  0.00    -0.273 OA
ATOM      7  H   UNL A   1      34.298  19.075  24.273  1.00  0.00     0.163 HD
BRANCH   5   8
ATOM      8  C   UNL A   1      33.124  21.535  26.283  1.00  0.00     0.226 C 
BRANCH   8   9
ATOM      9  N   UNL A   1      32.692  22.760  25.629  1.00  0.00    -0.288 N 
ATOM     10  C   UNL A   1      32.321  26.053  21.220  1.00  0.00     0.045 C 
ATOM     11  C   UNL A   1      31.559  26.700  22.339  1.00  0.00    -0.035 A 
ATOM     12  C   UNL A   1      30.868  27.900  22.111  1.00  0.00     0.051 A 
ATOM     13  C   UNL A   1      31.505  26.183  23.652  1.00  0.00     0.041 A 
ATOM     14  C   UNL A   1      30.210  28.572  23.140  1.00  0.00     0.130 A 
ATOM     15  C   UNL A   1      30.820  26.940  24.603  1.00  0.00     0.128 A 
ATOM     16  C   UNL A   1      32.022  25.004  24.266  1.00  0.00     0.098 A 
ATOM     17  N   UNL A   1      30.215  28.128  24.406  1.00  0.00    -0.220 NA
ATOM     18  S   UNL A   1      30.798  26.206  26.149  1.00  0.00    -0.108 S 
ATOM     19  C   UNL A   1      31.680  24.878  25.583  1.00  0.00     0.121 A 
ATOM     20  N   UNL A   1      32.791  24.037  23.600  1.00  0.00    -0.236 NA
ATOM     21  C   UNL A   1      32.038  23.739  26.371  1.00  0.00     0.271 A 
ATOM     22  C   UNL A   1      33.072  22.995  24.317  1.00  0.00     0.203 A 
ATOM     23  O   UNL A   1      31.812  23.624  27.579  1.00  0.00    -0.268 OA
BRANCH  14  24
ATOM     24  N   UNL A   1      29.581  29.761  22.887  1.00  0.00    -0.357 N 
ATOM     25  C   UNL A   1      29.368  30.819  23.851  1.00  0.00     0.118 C 
ATOM     26  C   UNL A   1      28.765  29.903  21.695  1.00  0.00     0.118 C 
ATOM     27  C   UNL A   1      27.981  31.327  23.481  1.00  0.00     0.023 C 
ATOM     28  C   UNL A   1      27.947  31.170  21.964  1.00  0.00     0.023 C 
ENDBRANCH  14  24
ENDBRANCH   8   9
ENDBRANCH   5   8
ENDBRANCH   3   4
ENDBRANCH   2   3
ENDBRANCH   1   2
BRANCH   1  29
ATOM     29  C   UNL A   1      38.212  22.758  25.568  1.00  0.00     0.116 C 
BRANCH  29  30
ATOM     30  N   UNL A   1      38.841  21.860  26.516  1.00  0.00    -0.352 N 
ATOM     31  C   UNL A   1      40.018  21.972  27.203  1.00  0.00     0.251 C 
ATOM     32  H   UNL A   1      38.337  21.034  26.697  1.00  0.00     0.163 HD
ATOM     33  O   UNL A   1      40.532  20.945  27.644  1.00  0.00    -0.269 OA
BRANCH  31  34
ATOM     34  C   UNL A   1      40.668  23.275  27.456  1.00  0.00     0.039 A 
ATOM     35  C   UNL A   1      39.961  24.210  28.220  1.00  0.00     0.014 A 
ATOM     36  C   UNL A   1      41.844  23.655  26.803  1.00  0.00     0.014 A 
ATOM     37  C   UNL A   1      40.426  25.519  28.328  1.00  0.00     0.010 A 
ATOM     38  C   UNL A   1      42.306  24.974  26.910  1.00  0.00     0.010 A 
ATOM     39  C   UNL A   1      41.594  25.919  27.661  1.00  0.00    -0.014 A 
BRANCH  39  40
ATOM     40  C   UNL A   1      42.031  27.326  27.810  1.00  0.00     0.031 A 
ATOM     41  C   UNL A   1      40.973  28.378  27.728  1.00  0.00     0.074 A 
ATOM     42  C   UNL A   1      43.180  27.625  28.460  1.00  0.00     0.049 A 
ATOM     43  N   UNL A   1      40.198  28.675  28.732  1.00  0.00    -0.248 NA
ATOM     44  C   UNL A   1      40.560  28.996  26.468  1.00  0.00     0.031 C 
ATOM     45  C   UNL A   1      43.725  26.809  29.557  1.00  0.00     0.029 A 
ATOM     46  N   UNL A   1      43.961  28.757  28.469  1.00  0.00    -0.354 N 
ATOM     47  C   UNL A   1      39.188  29.491  28.252  1.00  0.00     0.074 A 
ATOM     48  C   UNL A   1      39.456  29.665  26.841  1.00  0.00     0.031 C 
ATOM     49  C   UNL A   1      44.625  27.543  30.241  1.00  0.00     0.029 A 
ATOM     50  C   UNL A   1      44.843  28.809  29.550  1.00  0.00     0.049 A 
ATOM     51  H   UNL A   1      43.904  29.460  27.782  1.00  0.00     0.167 HD
ATOM     52  C   UNL A   1      38.190  29.974  29.042  1.00  0.00     0.031 A 
ATOM     53  C   UNL A   1      45.278  29.951  30.150  1.00  0.00     0.031 A 
ATOM     54  C   UNL A   1      38.279  29.611  30.425  1.00  0.00     0.049 A 
ATOM     55  C   UNL A   1      43.997  30.426  30.801  1.00  0.00     0.074 A 
ATOM     56  C   UNL A   1      37.759  28.647  31.260  1.00  0.00     0.029 A 
ATOM     57  N   UNL A   1      39.148  30.321  31.219  1.00  0.00    -0.354 N 
ATOM     58  N   UNL A   1      43.454  29.955  31.892  1.00  0.00    -0.248 NA
ATOM     59  C   UNL A   1      43.098  31.234  29.971  1.00  0.00     0.031 C 
ATOM     60  C   UNL A   1      38.691  28.538  32.340  1.00  0.00     0.029 A 
ATOM     61  C   UNL A   1      39.734  29.424  32.073  1.00  0.00     0.049 A 
ATOM     62  H   UNL A   1      39.316  31.291  31.182  1.00  0.00     0.167 HD
ATOM     63  C   UNL A   1      42.080  30.144  31.734  1.00  0.00     0.074 A 
ATOM     64  C   UNL A   1      41.932  30.940  30.530  1.00  0.00     0.031 C 
ATOM     65  C   UNL A   1      41.124  29.507  32.471  1.00  0.00     0.031 A 
BRANCH  52  66
ATOM     66  C   UNL A   1      37.150  30.937  28.611  1.00  0.00    -0.014 A 
ATOM     67  C   UNL A   1      37.398  32.307  28.806  1.00  0.00     0.010 A 
ATOM     68  C   UNL A   1      35.862  30.516  28.251  1.00  0.00     0.010 A 
ATOM     69  C   UNL A   1      36.365  33.239  28.696  1.00  0.00     0.020 A 
ATOM     70  C   UNL A   1      34.823  31.451  28.128  1.00  0.00     0.020 A 
ATOM     71  C   UNL A   1      35.079  32.803  28.373  1.00  0.00     0.054 A 
BRANCH  71  72
ATOM     72  S   UNL A   1      33.739  34.028  28.366  1.00  0.00     0.124 S 
ATOM     73  O   UNL A   1      33.476  34.215  29.790  1.00  0.00    -0.237 OA
ATOM     74  O   UNL A   1      34.364  35.160  27.686  1.00  0.00    -0.237 OA
ATOM     75  O   UNL A   1      32.670  33.367  27.620  1.00  0.00    -0.744 OA
ENDBRANCH  71  72
ENDBRANCH  52  66
BRANCH  53  76
ATOM     76  C   UNL A   1      46.117  30.858  29.290  1.00  0.00    -0.014 A 
ATOM     77  C   UNL A   1      46.261  30.543  27.920  1.00  0.00     0.010 A 
ATOM     78  C   UNL A   1      46.768  32.013  29.758  1.00  0.00     0.010 A 
ATOM     79  C   UNL A   1      46.881  31.424  27.028  1.00  0.00     0.020 A 
ATOM     80  C   UNL A   1      47.371  32.916  28.868  1.00  0.00     0.020 A 
ATOM     81  C   UNL A   1      47.387  32.632  27.502  1.00  0.00     0.054 A 
BRANCH  81  82
ATOM     82  S   UNL A   1      48.009  33.838  26.300  1.00  0.00     0.124 S 
ATOM     83  O   UNL A   1      49.090  33.104  25.647  1.00  0.00    -0.237 OA
ATOM     84  O   UNL A   1      46.826  34.080  25.478  1.00  0.00    -0.237 OA
ATOM     85  O   UNL A   1      48.432  34.965  27.128  1.00  0.00    -0.744 OA
ENDBRANCH  81  82
ENDBRANCH  53  76
BRANCH  65  86
ATOM     86  C   UNL A   1      41.579  28.683  33.632  1.00  0.00    -0.014 A 
ATOM     87  C   UNL A   1      41.390  29.161  34.937  1.00  0.00     0.010 A 
ATOM     88  C   UNL A   1      42.052  27.370  33.443  1.00  0.00     0.010 A 
ATOM     89  C   UNL A   1      41.599  28.320  36.032  1.00  0.00     0.020 A 
ATOM     90  C   UNL A   1      42.252  26.521  34.535  1.00  0.00     0.020 A 
ATOM     91  C   UNL A   1      41.999  26.996  35.823  1.00  0.00     0.054 A 
BRANCH  91  92
ATOM     92  S   UNL A   1      42.117  25.895  37.258  1.00  0.00     0.124 S 
ATOM     93  O   UNL A   1      43.084  26.581  38.111  1.00  0.00    -0.237 OA
ATOM     94  O   UNL A   1      40.743  25.880  37.754  1.00  0.00    -0.237 OA
ATOM     95  O   UNL A   1      42.582  24.629  36.692  1.00  0.00    -0.744 OA
ENDBRANCH  91  92
ENDBRANCH  65  86
ENDBRANCH  39  40
ENDBRANCH  31  34
ENDBRANCH  29  30
ENDBRANCH   1  29
TORSDOF 16
ENDMDL
MODEL 2
REMARK VINA RESULT:     -12.5      2.891      9.347
REMARK SMILES Cc1cc(N2CCCC2)nc2sc3c(=O)n(CC(=O)NCCCCNC(=O)c4ccc(-c5c6nc(c(-c7ccc(S(=O)(=O)[O-])cc7)c7ccc([nH]7)c(-c7ccc(S(=O)(=O)[O-])cc7)c7nc(c(-c8ccc(S(=O)(=O)[O-])cc8)c8ccc5[nH]8)C=C7)C=C6)cc4)cnc3c12
REMARK SMILES IDX 23 1 22 2 21 3 20 4 18 5 19 6 17 8 16 9 1 10 2 11 3 12 91 13
REMARK SMILES IDX 4 14 11 15 90 16 10 17 12 18 13 19 89 20 14 21 88 22 15 23
REMARK SMILES IDX 5 24 6 25 9 26 7 27 8 28 24 29 25 30 26 31 27 33 28 34 29 35
REMARK SMILES IDX 87 36 30 37 86 38 31 39 32 40 33 41 80 42 34 43 85 44 79 45
REMARK SMILES IDX 81 46 35 47 84 48 78 49 77 50 36 52 66 53 47 54 65 55 48 56
REMARK SMILES IDX 51 57 64 58 82 59 49 60 50 61 63 63 83 64 52 65 37 66 38 67
REMARK SMILES IDX 46 68 39 69 45 70 40 71 41 72 42 73 43 74 44 75 67 76 68 77
REMARK SMILES IDX 76 78 69 79 75 80 70 81 71 82 72 83 73 84 74 85 53 86 54 87
REMARK SMILES IDX 62 88 55 89 61 90 56 91 57 92 58 93 59 94 60 95
REMARK H PARENT 20 7 25 32 81 51 51 62
REMARK Flexibility Score: inf
ROOT
ATOM      1  C   UNL A   1      33.114  31.411  27.405  1.00  0.00     0.023 C 
ENDROOT
BRANCH   1   2
ATOM      2  C   UNL A   1      32.753  29.973  26.983  1.00  0.00     0.023 C 
BRANCH   2   3
ATOM      3  C   UNL A   1      32.103  29.863  25.603  1.00  0.00     0.116 C 
BRANCH   3   4
ATOM      4  N   UNL A   1      33.103  29.669  24.570  1.00  0.00    -0.355 N 
ATOM      5  C   UNL A   1      33.136  28.782  23.540  1.00  0.00     0.240 C 
ATOM      6  O   UNL A   1      34.125  28.784  22.802  1.00  0.00    -0.273 OA
ATOM      7  H   UNL A   1      33.877  30.274  24.624  1.00  0.00     0.163 HD
BRANCH   5   8
ATOM      8  C   UNL A   1      31.979  27.821  23.263  1.00  0.00     0.226 C 
BRANCH   8   9
ATOM      9  N   UNL A   1      32.262  26.458  23.685  1.00  0.00    -0.288 N 
ATOM     10  C   UNL A   1      33.080  22.641  27.582  1.00  0.00     0.045 C 
ATOM     11  C   UNL A   1      33.124  21.951  26.250  1.00  0.00    -0.035 A 
ATOM     12  C   UNL A   1      33.282  20.558  26.190  1.00  0.00     0.051 A 
ATOM     13  C   UNL A   1      33.038  22.628  25.013  1.00  0.00     0.041 A 
ATOM     14  C   UNL A   1      33.402  19.888  24.974  1.00  0.00     0.130 A 
ATOM     15  C   UNL A   1      33.174  21.857  23.859  1.00  0.00     0.128 A 
ATOM     16  C   UNL A   1      32.839  23.994  24.653  1.00  0.00     0.098 A 
ATOM     17  N   UNL A   1      33.396  20.530  23.796  1.00  0.00    -0.220 NA
ATOM     18  S   UNL A   1      33.027  22.777  22.423  1.00  0.00    -0.108 S 
ATOM     19  C   UNL A   1      32.774  24.199  23.303  1.00  0.00     0.121 A 
ATOM     20  N   UNL A   1      32.699  25.044  25.574  1.00  0.00    -0.236 NA
ATOM     21  C   UNL A   1      32.514  25.482  22.726  1.00  0.00     0.271 A 
ATOM     22  C   UNL A   1      32.425  26.190  25.035  1.00  0.00     0.203 A 
ATOM     23  O   UNL A   1      32.521  25.720  21.515  1.00  0.00    -0.268 OA
BRANCH  14  24
ATOM     24  N   UNL A   1      33.595  18.532  24.957  1.00  0.00    -0.357 N 
ATOM     25  C   UNL A   1      34.655  17.845  24.250  1.00  0.00     0.118 C 
ATOM     26  C   UNL A   1      32.524  17.649  25.379  1.00  0.00     0.118 C 
ATOM     27  C   UNL A   1      33.953  16.592  23.743  1.00  0.00     0.023 C 
ATOM     28  C   UNL A   1      32.961  16.276  24.858  1.00  0.00     0.023 C 
ENDBRANCH  14  24
ENDBRANCH   8   9
ENDBRANCH   5   8
ENDBRANCH   3   4
ENDBRANCH   2   3
ENDBRANCH   1   2
BRANCH   1  29
ATOM     29  C   UNL A   1      34.598  31.660  27.722  1.00  0.00     0.116 C 
BRANCH  29  30
ATOM     30  N   UNL A   1      34.851  33.076  27.901  1.00  0.00    -0.352 N 
ATOM     31  C   UNL A   1      35.574  33.738  28.855  1.00  0.00     0.251 C 
ATOM     32  H   UNL A   1      34.436  33.657  27.224  1.00  0.00     0.163 HD
ATOM     33  O   UNL A   1      35.340  34.933  29.035  1.00  0.00    -0.269 OA
BRANCH  31  34
ATOM     34  C   UNL A   1      36.636  33.080  29.644  1.00  0.00     0.039 A 
ATOM     35  C   UNL A   1      37.827  32.760  28.981  1.00  0.00     0.014 A 
ATOM     36  C   UNL A   1      36.411  32.605  30.939  1.00  0.00     0.014 A 
ATOM     37  C   UNL A   1      38.785  31.967  29.609  1.00  0.00     0.010 A 
ATOM     38  C   UNL A   1      37.374  31.804  31.565  1.00  0.00     0.010 A 
ATOM     39  C   UNL A   1      38.562  31.467  30.901  1.00  0.00    -0.014 A 
BRANCH  39  40
ATOM     40  C   UNL A   1      39.616  30.623  31.510  1.00  0.00     0.031 A 
ATOM     41  C   UNL A   1      39.728  29.216  31.018  1.00  0.00     0.074 A 
ATOM     42  C   UNL A   1      40.703  31.188  32.085  1.00  0.00     0.049 A 
ATOM     43  N   UNL A   1      40.337  28.906  29.910  1.00  0.00    -0.248 NA
ATOM     44  C   UNL A   1      38.977  28.106  31.603  1.00  0.00     0.031 C 
ATOM     45  C   UNL A   1      41.274  32.471  31.646  1.00  0.00     0.029 A 
ATOM     46  N   UNL A   1      41.633  30.694  32.969  1.00  0.00    -0.354 N 
ATOM     47  C   UNL A   1      40.043  27.583  29.628  1.00  0.00     0.074 A 
ATOM     48  C   UNL A   1      39.197  27.127  30.709  1.00  0.00     0.031 C 
ATOM     49  C   UNL A   1      42.532  32.573  32.122  1.00  0.00     0.029 A 
ATOM     50  C   UNL A   1      42.801  31.457  33.021  1.00  0.00     0.049 A 
ATOM     51  H   UNL A   1      41.490  29.885  33.511  1.00  0.00     0.167 HD
ATOM     52  C   UNL A   1      40.511  26.941  28.523  1.00  0.00     0.031 A 
ATOM     53  C   UNL A   1      44.043  30.968  33.296  1.00  0.00     0.031 A 
ATOM     54  C   UNL A   1      41.370  27.722  27.684  1.00  0.00     0.049 A 
ATOM     55  C   UNL A   1      44.294  30.142  32.053  1.00  0.00     0.074 A 
ATOM     56  C   UNL A   1      41.257  28.490  26.545  1.00  0.00     0.029 A 
ATOM     57  N   UNL A   1      42.683  27.862  28.064  1.00  0.00    -0.354 N 
ATOM     58  N   UNL A   1      44.634  30.590  30.873  1.00  0.00    -0.248 NA
ATOM     59  C   UNL A   1      43.779  28.770  32.061  1.00  0.00     0.031 C 
ATOM     60  C   UNL A   1      42.355  29.406  26.595  1.00  0.00     0.029 A 
ATOM     61  C   UNL A   1      43.046  29.153  27.780  1.00  0.00     0.049 A 
ATOM     62  H   UNL A   1      43.254  27.168  28.465  1.00  0.00     0.167 HD
ATOM     63  C   UNL A   1      44.094  29.681  29.962  1.00  0.00     0.074 A 
ATOM     64  C   UNL A   1      43.584  28.584  30.762  1.00  0.00     0.031 C 
ATOM     65  C   UNL A   1      43.920  29.932  28.632  1.00  0.00     0.031 A 
BRANCH  52  66
ATOM     66  C   UNL A   1      40.324  25.502  28.228  1.00  0.00    -0.014 A 
ATOM     67  C   UNL A   1      41.374  24.621  28.540  1.00  0.00     0.010 A 
ATOM     68  C   UNL A   1      39.254  25.045  27.443  1.00  0.00     0.010 A 
ATOM     69  C   UNL A   1      41.386  23.321  28.034  1.00  0.00     0.020 A 
ATOM     70  C   UNL A   1      39.257  23.735  26.942  1.00  0.00     0.020 A 
ATOM     71  C   UNL A   1      40.334  22.890  27.223  1.00  0.00     0.054 A 
BRANCH  71  72
ATOM     72  S   UNL A   1      40.450  21.238  26.481  1.00  0.00     0.124 S 
ATOM     73  O   UNL A   1      39.172  21.116  25.784  1.00  0.00    -0.237 OA
ATOM     74  O   UNL A   1      41.626  21.369  25.625  1.00  0.00    -0.237 OA
ATOM     75  O   UNL A   1      40.614  20.352  27.632  1.00  0.00    -0.744 OA
ENDBRANCH  71  72
ENDBRANCH  52  66
BRANCH  53  76
ATOM     76  C   UNL A   1      44.228  30.403  34.678  1.00  0.00    -0.014 A 
ATOM     77  C   UNL A   1      44.919  29.177  34.816  1.00  0.00     0.010 A 
ATOM     78  C   UNL A   1      43.764  31.018  35.854  1.00  0.00     0.010 A 
ATOM     79  C   UNL A   1      45.275  28.676  36.072  1.00  0.00     0.020 A 
ATOM     80  C   UNL A   1      44.138  30.537  37.118  1.00  0.00     0.020 A 
ATOM     81  C   UNL A   1      44.927  29.390  37.216  1.00  0.00     0.054 A 
BRANCH  81  82
ATOM     82  S   UNL A   1      45.566  28.824  38.815  1.00  0.00     0.124 S 
ATOM     83  O   UNL A   1      44.740  29.564  39.766  1.00  0.00    -0.237 OA
ATOM     84  O   UNL A   1      45.314  27.386  38.747  1.00  0.00    -0.237 OA
ATOM     85  O   UNL A   1      46.975  29.210  38.780  1.00  0.00    -0.744 OA
ENDBRANCH  81  82
ENDBRANCH  53  76
BRANCH  65  86
ATOM     86  C   UNL A   1      44.502  31.196  28.084  1.00  0.00    -0.014 A 
ATOM     87  C   UNL A   1      45.845  31.224  27.684  1.00  0.00     0.010 A 
ATOM     88  C   UNL A   1      43.682  32.311  27.821  1.00  0.00     0.010 A 
ATOM     89  C   UNL A   1      46.344  32.315  26.968  1.00  0.00     0.020 A 
ATOM     90  C   UNL A   1      44.174  33.400  27.096  1.00  0.00     0.020 A 
ATOM     91  C   UNL A   1      45.497  33.382  26.651  1.00  0.00     0.054 A 
BRANCH  91  92
ATOM     92  S   UNL A   1      46.139  34.709  25.597  1.00  0.00     0.124 S 
ATOM     93  O   UNL A   1      47.530  34.312  25.392  1.00  0.00    -0.237 OA
ATOM     94  O   UNL A   1      45.281  34.613  24.418  1.00  0.00    -0.237 OA
ATOM     95  O   UNL A   1      45.953  35.917  26.399  1.00  0.00    -0.744 OA
ENDBRANCH  91  92
ENDBRANCH  65  86
ENDBRANCH  39  40
ENDBRANCH  31  34
ENDBRANCH  29  30
ENDBRANCH   1  29
TORSDOF 16
ENDMDL
MODEL 3
REMARK VINA RESULT:     -12.5      1.660      2.209
REMARK SMILES Cc1cc(N2CCCC2)nc2sc3c(=O)n(CC(=O)NCCCCNC(=O)c4ccc(-c5c6nc(c(-c7ccc(S(=O)(=O)[O-])cc7)c7ccc([nH]7)c(-c7ccc(S(=O)(=O)[O-])cc7)c7nc(c(-c8ccc(S(=O)(=O)[O-])cc8)c8ccc5[nH]8)C=C7)C=C6)cc4)cnc3c12
REMARK SMILES IDX 23 1 22 2 21 3 20 4 18 5 19 6 17 8 16 9 1 10 2 11 3 12 91 13
REMARK SMILES IDX 4 14 11 15 90 16 10 17 12 18 13 19 89 20 14 21 88 22 15 23
REMARK SMILES IDX 5 24 6 25 9 26 7 27 8 28 24 29 25 30 26 31 27 33 28 34 29 35
REMARK SMILES IDX 87 36 30 37 86 38 31 39 32 40 33 41 80 42 34 43 85 44 79 45
REMARK SMILES IDX 81 46 35 47 84 48 78 49 77 50 36 52 66 53 47 54 65 55 48 56
REMARK SMILES IDX 51 57 64 58 82 59 49 60 50 61 63 63 83 64 52 65 37 66 38 67
REMARK SMILES IDX 46 68 39 69 45 70 40 71 41 72 42 73 43 74 44 75 67 76 68 77
REMARK SMILES IDX 76 78 69 79 75 80 70 81 71 82 72 83 73 84 74 85 53 86 54 87
REMARK SMILES IDX 62 88 55 89 61 90 56 91 57 92 58 93 59 94 60 95
REMARK H PARENT 20 7 25 32 81 51 51 62
REMARK Flexibility Score: inf
ROOT
ATOM      1  C   UNL A   1      36.517  22.613  25.666  1.00  0.00     0.023 C 
ENDROOT
BRANCH   1   2
ATOM      2  C   UNL A   1      35.577  21.463  26.081  1.00  0.00     0.023 C 
BRANCH   2   3
ATOM      3  C   UNL A   1      35.548  20.287  25.103  1.00  0.00     0.116 C 
BRANCH   3   4
ATOM      4  N   UNL A   1      34.403  19.432  25.351  1.00  0.00    -0.355 N 
ATOM      5  C   UNL A   1      33.190  19.394  24.737  1.00  0.00     0.240 C 
ATOM      6  O   UNL A   1      32.351  18.591  25.154  1.00  0.00    -0.273 OA
ATOM      7  H   UNL A   1      34.522  18.778  26.076  1.00  0.00     0.163 HD
BRANCH   5   8
ATOM      8  C   UNL A   1      32.861  20.289  23.540  1.00  0.00     0.226 C 
BRANCH   8   9
ATOM      9  N   UNL A   1      32.573  21.663  23.924  1.00  0.00    -0.288 N 
ATOM     10  C   UNL A   1      29.527  25.450  26.531  1.00  0.00     0.045 C 
ATOM     11  C   UNL A   1      30.702  26.152  25.917  1.00  0.00    -0.035 A 
ATOM     12  C   UNL A   1      30.883  27.528  26.130  1.00  0.00     0.051 A 
ATOM     13  C   UNL A   1      31.657  25.512  25.097  1.00  0.00     0.041 A 
ATOM     14  C   UNL A   1      31.919  28.232  25.519  1.00  0.00     0.130 A 
ATOM     15  C   UNL A   1      32.650  26.315  24.536  1.00  0.00     0.128 A 
ATOM     16  C   UNL A   1      31.848  24.160  24.683  1.00  0.00     0.098 A 
ATOM     17  N   UNL A   1      32.788  27.648  24.680  1.00  0.00    -0.220 NA
ATOM     18  S   UNL A   1      33.764  25.430  23.584  1.00  0.00    -0.108 S 
ATOM     19  C   UNL A   1      32.959  23.978  23.907  1.00  0.00     0.121 A 
ATOM     20  N   UNL A   1      31.005  23.096  25.040  1.00  0.00    -0.236 NA
ATOM     21  C   UNL A   1      33.374  22.692  23.439  1.00  0.00     0.271 A 
ATOM     22  C   UNL A   1      31.418  21.934  24.640  1.00  0.00     0.203 A 
ATOM     23  O   UNL A   1      34.326  22.497  22.678  1.00  0.00    -0.268 OA
BRANCH  14  24
ATOM     24  N   UNL A   1      32.040  29.581  25.719  1.00  0.00    -0.357 N 
ATOM     25  C   UNL A   1      32.991  30.215  26.608  1.00  0.00     0.118 C 
ATOM     26  C   UNL A   1      30.970  30.468  25.300  1.00  0.00     0.118 C 
ATOM     27  C   UNL A   1      32.180  31.366  27.189  1.00  0.00     0.023 C 
ATOM     28  C   UNL A   1      31.284  31.781  26.026  1.00  0.00     0.023 C 
ENDBRANCH  14  24
ENDBRANCH   8   9
ENDBRANCH   5   8
ENDBRANCH   3   4
ENDBRANCH   2   3
ENDBRANCH   1   2
BRANCH   1  29
ATOM     29  C   UNL A   1      37.920  22.191  25.198  1.00  0.00     0.116 C 
BRANCH  29  30
ATOM     30  N   UNL A   1      38.692  21.667  26.307  1.00  0.00    -0.352 N 
ATOM     31  C   UNL A   1      39.686  22.241  27.050  1.00  0.00     0.251 C 
ATOM     32  H   UNL A   1      38.463  20.747  26.570  1.00  0.00     0.163 HD
ATOM     33  O   UNL A   1      40.449  21.500  27.670  1.00  0.00    -0.269 OA
BRANCH  31  34
ATOM     34  C   UNL A   1      39.853  23.706  27.156  1.00  0.00     0.039 A 
ATOM     35  C   UNL A   1      40.832  24.303  26.355  1.00  0.00     0.014 A 
ATOM     36  C   UNL A   1      39.216  24.453  28.151  1.00  0.00     0.014 A 
ATOM     37  C   UNL A   1      41.175  25.639  26.549  1.00  0.00     0.010 A 
ATOM     38  C   UNL A   1      39.567  25.795  28.347  1.00  0.00     0.010 A 
ATOM     39  C   UNL A   1      40.558  26.395  27.558  1.00  0.00    -0.014 A 
BRANCH  39  40
ATOM     40  C   UNL A   1      40.973  27.808  27.718  1.00  0.00     0.031 A 
ATOM     41  C   UNL A   1      39.887  28.815  27.918  1.00  0.00     0.074 A 
ATOM     42  C   UNL A   1      42.218  28.115  28.150  1.00  0.00     0.049 A 
ATOM     43  N   UNL A   1      39.316  29.013  29.073  1.00  0.00    -0.248 NA
ATOM     44  C   UNL A   1      39.214  29.492  26.810  1.00  0.00     0.031 C 
ATOM     45  C   UNL A   1      42.993  27.256  29.059  1.00  0.00     0.029 A 
ATOM     46  N   UNL A   1      42.949  29.278  28.086  1.00  0.00    -0.354 N 
ATOM     47  C   UNL A   1      38.207  29.812  28.858  1.00  0.00     0.074 A 
ATOM     48  C   UNL A   1      38.186  30.087  27.438  1.00  0.00     0.031 C 
ATOM     49  C   UNL A   1      43.988  27.985  29.605  1.00  0.00     0.029 A 
ATOM     50  C   UNL A   1      44.025  29.300  28.975  1.00  0.00     0.049 A 
ATOM     51  H   UNL A   1      42.736  30.019  27.475  1.00  0.00     0.167 HD
ATOM     52  C   UNL A   1      37.371  30.200  29.859  1.00  0.00     0.031 A 
ATOM     53  C   UNL A   1      44.535  30.420  29.558  1.00  0.00     0.031 A 
ATOM     54  C   UNL A   1      37.743  29.755  31.169  1.00  0.00     0.049 A 
ATOM     55  C   UNL A   1      43.394  30.796  30.479  1.00  0.00     0.074 A 
ATOM     56  C   UNL A   1      37.428  28.717  32.020  1.00  0.00     0.029 A 
ATOM     57  N   UNL A   1      38.729  30.451  31.827  1.00  0.00    -0.354 N 
ATOM     58  N   UNL A   1      43.092  30.233  31.619  1.00  0.00    -0.248 NA
ATOM     59  C   UNL A   1      42.324  31.614  29.900  1.00  0.00     0.031 C 
ATOM     60  C   UNL A   1      38.558  28.581  32.886  1.00  0.00     0.029 A 
ATOM     61  C   UNL A   1      39.500  29.528  32.484  1.00  0.00     0.049 A 
ATOM     62  H   UNL A   1      38.856  31.427  31.826  1.00  0.00     0.167 HD
ATOM     63  C   UNL A   1      41.709  30.371  31.746  1.00  0.00     0.074 A 
ATOM     64  C   UNL A   1      41.302  31.234  30.653  1.00  0.00     0.031 C 
ATOM     65  C   UNL A   1      40.938  29.647  32.608  1.00  0.00     0.031 A 
BRANCH  52  66
ATOM     66  C   UNL A   1      36.237  31.142  29.709  1.00  0.00    -0.014 A 
ATOM     67  C   UNL A   1      35.992  31.683  28.435  1.00  0.00     0.010 A 
ATOM     68  C   UNL A   1      35.575  31.679  30.823  1.00  0.00     0.010 A 
ATOM     69  C   UNL A   1      35.142  32.778  28.280  1.00  0.00     0.020 A 
ATOM     70  C   UNL A   1      34.710  32.772  30.669  1.00  0.00     0.020 A 
ATOM     71  C   UNL A   1      34.517  33.327  29.401  1.00  0.00     0.054 A 
BRANCH  71  72
ATOM     72  S   UNL A   1      33.521  34.827  29.174  1.00  0.00     0.124 S 
ATOM     73  O   UNL A   1      33.033  35.088  30.526  1.00  0.00    -0.237 OA
ATOM     74  O   UNL A   1      34.508  35.776  28.665  1.00  0.00    -0.237 OA
ATOM     75  O   UNL A   1      32.497  34.420  28.214  1.00  0.00    -0.744 OA
ENDBRANCH  71  72
ENDBRANCH  52  66
BRANCH  53  76
ATOM     76  C   UNL A   1      45.159  31.416  28.618  1.00  0.00    -0.014 A 
ATOM     77  C   UNL A   1      45.679  32.615  29.156  1.00  0.00     0.010 A 
ATOM     78  C   UNL A   1      45.268  31.232  27.228  1.00  0.00     0.010 A 
ATOM     79  C   UNL A   1      46.420  33.507  28.374  1.00  0.00     0.020 A 
ATOM     80  C   UNL A   1      46.031  32.108  26.440  1.00  0.00     0.020 A 
ATOM     81  C   UNL A   1      46.635  33.219  27.028  1.00  0.00     0.054 A 
BRANCH  81  82
ATOM     82  S   UNL A   1      47.757  34.286  26.085  1.00  0.00     0.124 S 
ATOM     83  O   UNL A   1      46.889  34.807  25.033  1.00  0.00    -0.237 OA
ATOM     84  O   UNL A   1      48.171  35.255  27.098  1.00  0.00    -0.237 OA
ATOM     85  O   UNL A   1      48.805  33.373  25.635  1.00  0.00    -0.744 OA
ENDBRANCH  81  82
ENDBRANCH  53  76
BRANCH  65  86
ATOM     86  C   UNL A   1      41.639  28.772  33.597  1.00  0.00    -0.014 A 
ATOM     87  C   UNL A   1      41.573  29.081  34.963  1.00  0.00     0.010 A 
ATOM     88  C   UNL A   1      42.231  27.560  33.194  1.00  0.00     0.010 A 
ATOM     89  C   UNL A   1      42.025  28.164  35.915  1.00  0.00     0.020 A 
ATOM     90  C   UNL A   1      42.675  26.634  34.143  1.00  0.00     0.020 A 
ATOM     91  C   UNL A   1      42.544  26.933  35.500  1.00  0.00     0.054 A 
BRANCH  91  92
ATOM     92  S   UNL A   1      42.984  25.712  36.765  1.00  0.00     0.124 S 
ATOM     93  O   UNL A   1      42.613  26.388  38.006  1.00  0.00    -0.237 OA
ATOM     94  O   UNL A   1      42.148  24.571  36.400  1.00  0.00    -0.237 OA
ATOM     95  O   UNL A   1      44.420  25.511  36.577  1.00  0.00    -0.744 OA
ENDBRANCH  91  92
ENDBRANCH  65  86
ENDBRANCH  39  40
ENDBRANCH  31  34
ENDBRANCH  29  30
ENDBRANCH   1  29
TORSDOF 16
ENDMDL
