MODEL 1
REMARK VINA RESULT:     -13.2      0.000      0.000
REMARK SMILES O=C(NCCCCNC(=O)[C@H]1[C@H]2CC[C@H](CC2)[C@@H]1C(=O)Nc1sc2c(c1C(=O)N1CCCCC1)CCCC2)c1ccc(-c2c3nc(c(-c4ccc(S(=O)(=O)[O-])cc4)c4ccc([nH]4)c(-c4ccc(S(=O)(=O)[O-])cc4)c4nc(c(-c5ccc(S(=O)(=O)[O-])cc5)c5ccc2[nH]5)C=C4)C=C3)cc1
REMARK SMILES IDX 5 1 4 2 3 3 1 4 2 5 39 7 40 8 98 9 41 10 97 11 42 12 43 13
REMARK SMILES IDX 44 14 91 15 45 16 96 17 90 18 92 19 46 20 95 21 89 22 88 23
REMARK SMILES IDX 47 25 77 26 58 27 76 28 59 29 62 30 75 31 93 32 60 33 61 34
REMARK SMILES IDX 74 36 94 37 63 38 48 39 49 40 57 41 50 42 56 43 51 44 52 45
REMARK SMILES IDX 53 46 54 47 55 48 78 49 79 50 87 51 80 52 86 53 81 54 82 55
REMARK SMILES IDX 83 56 84 57 85 58 64 59 65 60 73 61 66 62 72 63 67 64 68 65
REMARK SMILES IDX 69 66 70 67 71 68 6 69 7 70 8 71 9 72 10 74 11 75 12 76
REMARK SMILES IDX 18 77 13 78 17 79 15 80 14 81 16 82 19 83 20 84 21 85 22 87
REMARK SMILES IDX 23 88 26 89 24 90 25 91 38 92 35 93 37 94 36 95 27 96 28 97
REMARK SMILES IDX 29 98 30 99 34 100 31 101 33 102 32 103
REMARK H PARENT 3 6 92 24 62 35 8 73 21 86
REMARK Flexibility Score: inf
ROOT
ATOM      1  C   UNL A   1      31.632  31.940  27.012  1.00  0.00     0.023 C 
ENDROOT
BRANCH   1   2
ATOM      2  C   UNL A   1      32.942  32.635  27.366  1.00  0.00     0.116 C 
BRANCH   2   3
ATOM      3  N   UNL A   1      32.755  34.031  27.729  1.00  0.00    -0.352 N 
ATOM      4  O   UNL A   1      32.983  35.880  29.000  1.00  0.00    -0.269 OA
ATOM      5  C   UNL A   1      33.367  34.745  28.730  1.00  0.00     0.251 C 
ATOM      6  H   UNL A   1      32.105  34.530  27.185  1.00  0.00     0.163 HD
BRANCH   5   7
ATOM      7  C   UNL A   1      34.474  34.132  29.493  1.00  0.00     0.039 A 
ATOM      8  C   UNL A   1      34.211  33.321  30.600  1.00  0.00     0.014 A 
ATOM      9  C   UNL A   1      35.790  34.368  29.087  1.00  0.00     0.014 A 
ATOM     10  C   UNL A   1      35.266  32.834  31.366  1.00  0.00     0.010 A 
ATOM     11  C   UNL A   1      36.847  33.821  29.818  1.00  0.00     0.010 A 
ATOM     12  C   UNL A   1      36.595  33.064  30.972  1.00  0.00    -0.014 A 
BRANCH  12  13
ATOM     13  C   UNL A   1      37.703  32.427  31.725  1.00  0.00     0.031 A 
ATOM     14  C   UNL A   1      38.121  32.934  33.077  1.00  0.00     0.074 A 
ATOM     15  C   UNL A   1      38.339  31.380  31.163  1.00  0.00     0.049 A 
ATOM     16  N   UNL A   1      39.081  32.499  33.853  1.00  0.00    -0.248 NA
ATOM     17  C   UNL A   1      37.375  34.076  33.627  1.00  0.00     0.031 C 
ATOM     18  C   UNL A   1      38.026  30.811  29.849  1.00  0.00     0.029 A 
ATOM     19  N   UNL A   1      39.375  30.608  31.620  1.00  0.00    -0.354 N 
ATOM     20  C   UNL A   1      39.072  33.326  34.971  1.00  0.00     0.074 A 
ATOM     21  C   UNL A   1      38.019  34.297  34.768  1.00  0.00     0.031 C 
ATOM     22  C   UNL A   1      38.833  29.765  29.618  1.00  0.00     0.029 A 
ATOM     23  C   UNL A   1      39.760  29.628  30.735  1.00  0.00     0.049 A 
ATOM     24  H   UNL A   1      39.802  30.740  32.497  1.00  0.00     0.167 HD
ATOM     25  C   UNL A   1      39.873  33.275  36.063  1.00  0.00     0.031 A 
ATOM     26  C   UNL A   1      40.765  28.734  30.797  1.00  0.00     0.031 A 
ATOM     27  C   UNL A   1      40.916  32.301  36.257  1.00  0.00     0.049 A 
ATOM     28  C   UNL A   1      41.655  28.725  32.005  1.00  0.00     0.074 A 
ATOM     29  C   UNL A   1      41.739  32.131  37.357  1.00  0.00     0.029 A 
ATOM     30  N   UNL A   1      41.289  31.340  35.328  1.00  0.00    -0.354 N 
ATOM     31  N   UNL A   1      41.590  29.475  33.078  1.00  0.00    -0.248 NA
ATOM     32  C   UNL A   1      42.756  27.752  32.009  1.00  0.00     0.031 C 
ATOM     33  C   UNL A   1      42.647  31.106  37.069  1.00  0.00     0.029 A 
ATOM     34  C   UNL A   1      42.355  30.602  35.813  1.00  0.00     0.049 A 
ATOM     35  H   UNL A   1      40.859  31.204  34.453  1.00  0.00     0.167 HD
ATOM     36  C   UNL A   1      42.636  29.058  33.892  1.00  0.00     0.074 A 
ATOM     37  C   UNL A   1      43.303  27.976  33.197  1.00  0.00     0.031 C 
ATOM     38  C   UNL A   1      43.013  29.533  35.104  1.00  0.00     0.031 A 
BRANCH  25  39
ATOM     39  C   UNL A   1      39.679  34.321  37.130  1.00  0.00    -0.014 A 
ATOM     40  C   UNL A   1      38.913  34.061  38.279  1.00  0.00     0.010 A 
ATOM     41  C   UNL A   1      40.339  35.559  37.014  1.00  0.00     0.010 A 
ATOM     42  C   UNL A   1      38.787  35.030  39.280  1.00  0.00     0.020 A 
ATOM     43  C   UNL A   1      40.234  36.522  38.022  1.00  0.00     0.020 A 
ATOM     44  C   UNL A   1      39.447  36.256  39.143  1.00  0.00     0.054 A 
BRANCH  44  45
ATOM     45  S   UNL A   1      39.294  37.481  40.474  1.00  0.00     0.124 S 
ATOM     46  O   UNL A   1      38.267  38.374  39.943  1.00  0.00    -0.237 OA
ATOM     47  O   UNL A   1      38.888  36.667  41.616  1.00  0.00    -0.237 OA
ATOM     48  O   UNL A   1      40.633  38.059  40.569  1.00  0.00    -0.744 OA
ENDBRANCH  44  45
ENDBRANCH  25  39
BRANCH  26  49
ATOM     49  C   UNL A   1      40.997  27.808  29.658  1.00  0.00    -0.014 A 
ATOM     50  C   UNL A   1      41.982  28.085  28.696  1.00  0.00     0.010 A 
ATOM     51  C   UNL A   1      40.243  26.624  29.547  1.00  0.00     0.010 A 
ATOM     52  C   UNL A   1      42.200  27.200  27.635  1.00  0.00     0.020 A 
ATOM     53  C   UNL A   1      40.478  25.724  28.506  1.00  0.00     0.020 A 
ATOM     54  C   UNL A   1      41.446  26.025  27.547  1.00  0.00     0.054 A 
BRANCH  54  55
ATOM     55  S   UNL A   1      41.778  24.867  26.191  1.00  0.00     0.124 S 
ATOM     56  O   UNL A   1      40.607  23.997  26.244  1.00  0.00    -0.237 OA
ATOM     57  O   UNL A   1      41.857  25.752  25.031  1.00  0.00    -0.237 OA
ATOM     58  O   UNL A   1      43.042  24.244  26.576  1.00  0.00    -0.744 OA
ENDBRANCH  54  55
ENDBRANCH  26  49
BRANCH  38  59
ATOM     59  C   UNL A   1      44.195  28.878  35.762  1.00  0.00    -0.014 A 
ATOM     60  C   UNL A   1      45.484  29.424  35.643  1.00  0.00     0.010 A 
ATOM     61  C   UNL A   1      44.003  27.732  36.556  1.00  0.00     0.010 A 
ATOM     62  C   UNL A   1      46.566  28.825  36.291  1.00  0.00     0.020 A 
ATOM     63  C   UNL A   1      45.079  27.145  37.226  1.00  0.00     0.020 A 
ATOM     64  C   UNL A   1      46.357  27.689  37.080  1.00  0.00     0.054 A 
BRANCH  64  65
ATOM     65  S   UNL A   1      47.768  26.963  37.958  1.00  0.00     0.124 S 
ATOM     66  O   UNL A   1      48.894  27.689  37.376  1.00  0.00    -0.237 OA
ATOM     67  O   UNL A   1      47.473  27.277  39.355  1.00  0.00    -0.237 OA
ATOM     68  O   UNL A   1      47.697  25.544  37.616  1.00  0.00    -0.744 OA
ENDBRANCH  64  65
ENDBRANCH  38  59
ENDBRANCH  12  13
ENDBRANCH   5   7
ENDBRANCH   2   3
ENDBRANCH   1   2
BRANCH   1  69
ATOM     69  C   UNL A   1      31.777  30.653  26.192  1.00  0.00     0.023 C 
BRANCH  69  70
ATOM     70  C   UNL A   1      31.916  29.383  27.028  1.00  0.00     0.116 C 
BRANCH  70  71
ATOM     71  N   UNL A   1      33.072  28.608  26.616  1.00  0.00    -0.356 N 
ATOM     72  C   UNL A   1      33.157  27.378  26.045  1.00  0.00     0.224 C 
ATOM     73  H   UNL A   1      33.939  29.047  26.777  1.00  0.00     0.163 HD
ATOM     74  O   UNL A   1      34.283  26.893  25.923  1.00  0.00    -0.275 OA
BRANCH  72  75
ATOM     75  C   UNL A   1      31.897  26.644  25.598  1.00  0.00     0.094 C 
ATOM     76  C   UNL A   1      31.199  27.380  24.419  1.00  0.00     0.002 C 
ATOM     77  C   UNL A   1      32.219  25.163  25.211  1.00  0.00     0.094 C 
ATOM     78  C   UNL A   1      32.013  27.319  23.114  1.00  0.00     0.005 C 
ATOM     79  C   UNL A   1      29.871  26.643  24.157  1.00  0.00     0.005 C 
ATOM     80  C   UNL A   1      31.677  24.918  23.770  1.00  0.00     0.002 C 
ATOM     81  C   UNL A   1      32.403  25.874  22.808  1.00  0.00     0.005 C 
ATOM     82  C   UNL A   1      30.163  25.205  23.713  1.00  0.00     0.005 C 
BRANCH  77  83
ATOM     83  C   UNL A   1      31.617  24.157  26.215  1.00  0.00     0.229 C 
ATOM     84  O   UNL A   1      30.545  24.393  26.784  1.00  0.00    -0.274 OA
ATOM     85  N   UNL A   1      32.173  22.931  26.454  1.00  0.00    -0.317 N 
ATOM     86  H   UNL A   1      31.567  22.300  26.905  1.00  0.00     0.170 HD
BRANCH  85  87
ATOM     87  C   UNL A   1      33.423  22.412  26.180  1.00  0.00     0.108 A 
ATOM     88  S   UNL A   1      34.810  23.242  26.689  1.00  0.00    -0.122 S 
ATOM     89  C   UNL A   1      33.703  21.178  25.592  1.00  0.00     0.078 A 
ATOM     90  C   UNL A   1      35.829  22.121  25.941  1.00  0.00     0.011 A 
ATOM     91  C   UNL A   1      35.144  21.028  25.438  1.00  0.00    -0.019 A 
ATOM     92  C   UNL A   1      37.312  22.328  25.893  1.00  0.00     0.047 C 
ATOM     93  C   UNL A   1      35.896  19.907  24.780  1.00  0.00     0.037 C 
ATOM     94  C   UNL A   1      37.935  21.424  24.824  1.00  0.00     0.006 C 
ATOM     95  C   UNL A   1      37.418  19.992  24.959  1.00  0.00     0.005 C 
BRANCH  89  96
ATOM     96  C   UNL A   1      32.605  20.300  25.129  1.00  0.00     0.257 C 
ATOM     97  O   UNL A   1      31.475  20.734  24.901  1.00  0.00    -0.269 OA
ATOM     98  N   UNL A   1      32.932  18.982  24.826  1.00  0.00    -0.339 N 
ATOM     99  C   UNL A   1      32.604  18.533  23.481  1.00  0.00     0.120 C 
ATOM    100  C   UNL A   1      32.708  17.966  25.846  1.00  0.00     0.120 C 
ATOM    101  C   UNL A   1      33.465  17.334  23.101  1.00  0.00     0.022 C 
ATOM    102  C   UNL A   1      33.533  16.711  25.557  1.00  0.00     0.022 C 
ATOM    103  C   UNL A   1      33.331  16.208  24.127  1.00  0.00     0.004 C 
ENDBRANCH  89  96
ENDBRANCH  85  87
ENDBRANCH  77  83
ENDBRANCH  72  75
ENDBRANCH  70  71
ENDBRANCH  69  70
ENDBRANCH   1  69
TORSDOF 17
ENDMDL
MODEL 2
REMARK VINA RESULT:     -12.8      5.703      7.733
REMARK SMILES O=C(NCCCCNC(=O)[C@H]1[C@H]2CC[C@H](CC2)[C@@H]1C(=O)Nc1sc2c(c1C(=O)N1CCCCC1)CCCC2)c1ccc(-c2c3nc(c(-c4ccc(S(=O)(=O)[O-])cc4)c4ccc([nH]4)c(-c4ccc(S(=O)(=O)[O-])cc4)c4nc(c(-c5ccc(S(=O)(=O)[O-])cc5)c5ccc2[nH]5)C=C4)C=C3)cc1
REMARK SMILES IDX 5 1 4 2 3 3 1 4 2 5 39 7 40 8 98 9 41 10 97 11 42 12 43 13
REMARK SMILES IDX 44 14 91 15 45 16 96 17 90 18 92 19 46 20 95 21 89 22 88 23
REMARK SMILES IDX 47 25 77 26 58 27 76 28 59 29 62 30 75 31 93 32 60 33 61 34
REMARK SMILES IDX 74 36 94 37 63 38 48 39 49 40 57 41 50 42 56 43 51 44 52 45
REMARK SMILES IDX 53 46 54 47 55 48 78 49 79 50 87 51 80 52 86 53 81 54 82 55
REMARK SMILES IDX 83 56 84 57 85 58 64 59 65 60 73 61 66 62 72 63 67 64 68 65
REMARK SMILES IDX 69 66 70 67 71 68 6 69 7 70 8 71 9 72 10 74 11 75 12 76
REMARK SMILES IDX 18 77 13 78 17 79 15 80 14 81 16 82 19 83 20 84 21 85 22 87
REMARK SMILES IDX 23 88 26 89 24 90 25 91 38 92 35 93 37 94 36 95 27 96 28 97
REMARK SMILES IDX 29 98 30 99 34 100 31 101 33 102 32 103
REMARK H PARENT 3 6 92 24 62 35 8 73 21 86
REMARK Flexibility Score: inf
ROOT
ATOM      1  C   UNL A   1      34.328  30.800  27.267  1.00  0.00     0.023 C 
ENDROOT
BRANCH   1   2
ATOM      2  C   UNL A   1      35.462  30.130  28.033  1.00  0.00     0.116 C 
BRANCH   2   3
ATOM      3  N   UNL A   1      35.388  30.370  29.466  1.00  0.00    -0.352 N 
ATOM      4  O   UNL A   1      36.092  30.303  31.608  1.00  0.00    -0.269 OA
ATOM      5  C   UNL A   1      36.365  30.196  30.415  1.00  0.00     0.251 C 
ATOM      6  H   UNL A   1      34.524  30.702  29.799  1.00  0.00     0.163 HD
BRANCH   5   7
ATOM      7  C   UNL A   1      37.741  29.860  29.993  1.00  0.00     0.039 A 
ATOM      8  C   UNL A   1      38.681  29.411  30.925  1.00  0.00     0.014 A 
ATOM      9  C   UNL A   1      38.089  29.989  28.646  1.00  0.00     0.014 A 
ATOM     10  C   UNL A   1      39.997  29.195  30.530  1.00  0.00     0.010 A 
ATOM     11  C   UNL A   1      39.395  29.705  28.239  1.00  0.00     0.010 A 
ATOM     12  C   UNL A   1      40.363  29.322  29.179  1.00  0.00    -0.014 A 
BRANCH  12  13
ATOM     13  C   UNL A   1      41.738  28.959  28.756  1.00  0.00     0.031 A 
ATOM     14  C   UNL A   1      42.834  29.986  28.699  1.00  0.00     0.074 A 
ATOM     15  C   UNL A   1      41.984  27.680  28.410  1.00  0.00     0.049 A 
ATOM     16  N   UNL A   1      44.081  29.833  28.331  1.00  0.00    -0.248 NA
ATOM     17  C   UNL A   1      42.490  31.360  29.096  1.00  0.00     0.031 C 
ATOM     18  C   UNL A   1      40.992  26.600  28.416  1.00  0.00     0.029 A 
ATOM     19  N   UNL A   1      43.137  27.068  27.991  1.00  0.00    -0.354 N 
ATOM     20  C   UNL A   1      44.665  31.090  28.429  1.00  0.00     0.074 A 
ATOM     21  C   UNL A   1      43.633  31.999  28.879  1.00  0.00     0.031 C 
ATOM     22  C   UNL A   1      41.585  25.455  28.045  1.00  0.00     0.029 A 
ATOM     23  C   UNL A   1      42.978  25.729  27.717  1.00  0.00     0.049 A 
ATOM     24  H   UNL A   1      43.995  27.540  27.897  1.00  0.00     0.167 HD
ATOM     25  C   UNL A   1      45.945  31.448  28.166  1.00  0.00     0.031 A 
ATOM     26  C   UNL A   1      43.846  24.825  27.227  1.00  0.00     0.031 A 
ATOM     27  C   UNL A   1      46.966  30.533  27.722  1.00  0.00     0.049 A 
ATOM     28  C   UNL A   1      45.249  25.259  26.914  1.00  0.00     0.074 A 
ATOM     29  C   UNL A   1      48.306  30.789  27.488  1.00  0.00     0.029 A 
ATOM     30  N   UNL A   1      46.760  29.191  27.434  1.00  0.00    -0.354 N 
ATOM     31  N   UNL A   1      45.797  26.439  27.073  1.00  0.00    -0.248 NA
ATOM     32  C   UNL A   1      46.147  24.242  26.352  1.00  0.00     0.031 C 
ATOM     33  C   UNL A   1      48.897  29.617  27.004  1.00  0.00     0.029 A 
ATOM     34  C   UNL A   1      47.938  28.617  26.988  1.00  0.00     0.049 A 
ATOM     35  H   UNL A   1      45.902  28.718  27.534  1.00  0.00     0.167 HD
ATOM     36  C   UNL A   1      47.110  26.305  26.639  1.00  0.00     0.074 A 
ATOM     37  C   UNL A   1      47.279  24.924  26.234  1.00  0.00     0.031 C 
ATOM     38  C   UNL A   1      48.087  27.243  26.579  1.00  0.00     0.031 A 
BRANCH  25  39
ATOM     39  C   UNL A   1      46.320  32.899  28.319  1.00  0.00    -0.014 A 
ATOM     40  C   UNL A   1      46.121  33.820  27.278  1.00  0.00     0.010 A 
ATOM     41  C   UNL A   1      46.809  33.361  29.556  1.00  0.00     0.010 A 
ATOM     42  C   UNL A   1      46.430  35.173  27.460  1.00  0.00     0.020 A 
ATOM     43  C   UNL A   1      47.099  34.714  29.749  1.00  0.00     0.020 A 
ATOM     44  C   UNL A   1      46.920  35.610  28.694  1.00  0.00     0.054 A 
BRANCH  44  45
ATOM     45  S   UNL A   1      47.281  37.375  28.913  1.00  0.00     0.124 S 
ATOM     46  O   UNL A   1      47.493  37.461  30.356  1.00  0.00    -0.237 OA
ATOM     47  O   UNL A   1      48.474  37.564  28.091  1.00  0.00    -0.237 OA
ATOM     48  O   UNL A   1      46.076  38.040  28.420  1.00  0.00    -0.744 OA
ENDBRANCH  44  45
ENDBRANCH  25  39
BRANCH  26  49
ATOM     49  C   UNL A   1      43.392  23.434  26.969  1.00  0.00    -0.014 A 
ATOM     50  C   UNL A   1      43.255  22.954  25.656  1.00  0.00     0.010 A 
ATOM     51  C   UNL A   1      43.119  22.570  28.047  1.00  0.00     0.010 A 
ATOM     52  C   UNL A   1      42.837  21.639  25.426  1.00  0.00     0.020 A 
ATOM     53  C   UNL A   1      42.731  21.248  27.821  1.00  0.00     0.020 A 
ATOM     54  C   UNL A   1      42.578  20.795  26.510  1.00  0.00     0.054 A 
BRANCH  54  55
ATOM     55  S   UNL A   1      42.086  19.078  26.190  1.00  0.00     0.124 S 
ATOM     56  O   UNL A   1      42.315  18.452  27.488  1.00  0.00    -0.237 OA
ATOM     57  O   UNL A   1      40.687  19.218  25.793  1.00  0.00    -0.237 OA
ATOM     58  O   UNL A   1      42.989  18.658  25.121  1.00  0.00    -0.744 OA
ENDBRANCH  54  55
ENDBRANCH  26  49
BRANCH  38  59
ATOM     59  C   UNL A   1      49.430  26.805  26.065  1.00  0.00    -0.014 A 
ATOM     60  C   UNL A   1      49.837  27.111  24.755  1.00  0.00     0.010 A 
ATOM     61  C   UNL A   1      50.316  26.128  26.922  1.00  0.00     0.010 A 
ATOM     62  C   UNL A   1      51.103  26.730  24.304  1.00  0.00     0.020 A 
ATOM     63  C   UNL A   1      51.592  25.767  26.482  1.00  0.00     0.020 A 
ATOM     64  C   UNL A   1      51.973  26.061  25.171  1.00  0.00     0.054 A 
BRANCH  64  65
ATOM     65  S   UNL A   1      53.633  25.628  24.580  1.00  0.00     0.124 S 
ATOM     66  O   UNL A   1      53.573  26.037  23.179  1.00  0.00    -0.237 OA
ATOM     67  O   UNL A   1      54.500  26.439  25.434  1.00  0.00    -0.237 OA
ATOM     68  O   UNL A   1      53.716  24.187  24.807  1.00  0.00    -0.744 OA
ENDBRANCH  64  65
ENDBRANCH  38  59
ENDBRANCH  12  13
ENDBRANCH   5   7
ENDBRANCH   2   3
ENDBRANCH   1   2
BRANCH   1  69
ATOM     69  C   UNL A   1      33.195  29.866  26.827  1.00  0.00     0.023 C 
BRANCH  69  70
ATOM     70  C   UNL A   1      33.431  28.391  27.147  1.00  0.00     0.116 C 
BRANCH  70  71
ATOM     71  N   UNL A   1      34.058  27.707  26.031  1.00  0.00    -0.356 N 
ATOM     72  C   UNL A   1      33.566  26.775  25.173  1.00  0.00     0.224 C 
ATOM     73  H   UNL A   1      34.996  27.960  25.868  1.00  0.00     0.163 HD
ATOM     74  O   UNL A   1      34.364  26.253  24.394  1.00  0.00    -0.275 OA
BRANCH  72  75
ATOM     75  C   UNL A   1      32.089  26.397  25.206  1.00  0.00     0.094 C 
ATOM     76  C   UNL A   1      31.249  27.308  24.265  1.00  0.00     0.002 C 
ATOM     77  C   UNL A   1      31.888  24.890  24.840  1.00  0.00     0.094 C 
ATOM     78  C   UNL A   1      31.548  27.061  22.776  1.00  0.00     0.005 C 
ATOM     79  C   UNL A   1      29.770  26.941  24.495  1.00  0.00     0.005 C 
ATOM     80  C   UNL A   1      30.860  24.816  23.669  1.00  0.00     0.002 C 
ATOM     81  C   UNL A   1      31.445  25.569  22.462  1.00  0.00     0.005 C 
ATOM     82  C   UNL A   1      29.533  25.484  24.081  1.00  0.00     0.005 C 
BRANCH  77  83
ATOM     83  C   UNL A   1      31.419  24.056  26.051  1.00  0.00     0.229 C 
ATOM     84  O   UNL A   1      30.377  24.342  26.653  1.00  0.00    -0.274 OA
ATOM     85  N   UNL A   1      32.061  22.920  26.457  1.00  0.00    -0.317 N 
ATOM     86  H   UNL A   1      31.527  22.354  27.060  1.00  0.00     0.170 HD
BRANCH  85  87
ATOM     87  C   UNL A   1      33.317  22.416  26.180  1.00  0.00     0.108 A 
ATOM     88  S   UNL A   1      34.695  23.287  26.644  1.00  0.00    -0.122 S 
ATOM     89  C   UNL A   1      33.612  21.171  25.624  1.00  0.00     0.078 A 
ATOM     90  C   UNL A   1      35.724  22.165  25.914  1.00  0.00     0.011 A 
ATOM     91  C   UNL A   1      35.054  21.044  25.453  1.00  0.00    -0.019 A 
ATOM     92  C   UNL A   1      37.202  22.398  25.838  1.00  0.00     0.047 C 
ATOM     93  C   UNL A   1      35.818  19.919  24.817  1.00  0.00     0.037 C 
ATOM     94  C   UNL A   1      37.828  21.475  24.787  1.00  0.00     0.006 C 
ATOM     95  C   UNL A   1      37.340  20.038  24.971  1.00  0.00     0.005 C 
BRANCH  89  96
ATOM     96  C   UNL A   1      32.525  20.259  25.204  1.00  0.00     0.257 C 
ATOM     97  O   UNL A   1      31.364  20.648  25.066  1.00  0.00    -0.269 OA
ATOM     98  N   UNL A   1      32.889  18.968  24.831  1.00  0.00    -0.339 N 
ATOM     99  C   UNL A   1      32.490  18.549  23.496  1.00  0.00     0.120 C 
ATOM    100  C   UNL A   1      32.779  17.910  25.827  1.00  0.00     0.120 C 
ATOM    101  C   UNL A   1      33.376  17.405  23.016  1.00  0.00     0.022 C 
ATOM    102  C   UNL A   1      33.637  16.705  25.438  1.00  0.00     0.022 C 
ATOM    103  C   UNL A   1      33.361  16.241  24.007  1.00  0.00     0.004 C 
ENDBRANCH  89  96
ENDBRANCH  85  87
ENDBRANCH  77  83
ENDBRANCH  72  75
ENDBRANCH  70  71
ENDBRANCH  69  70
ENDBRANCH   1  69
TORSDOF 17
ENDMDL
MODEL 3
REMARK VINA RESULT:     -12.7      0.427      7.714
REMARK SMILES O=C(NCCCCNC(=O)[C@H]1[C@H]2CC[C@H](CC2)[C@@H]1C(=O)Nc1sc2c(c1C(=O)N1CCCCC1)CCCC2)c1ccc(-c2c3nc(c(-c4ccc(S(=O)(=O)[O-])cc4)c4ccc([nH]4)c(-c4ccc(S(=O)(=O)[O-])cc4)c4nc(c(-c5ccc(S(=O)(=O)[O-])cc5)c5ccc2[nH]5)C=C4)C=C3)cc1
REMARK SMILES IDX 5 1 4 2 3 3 1 4 2 5 39 7 40 8 98 9 41 10 97 11 42 12 43 13
REMARK SMILES IDX 44 14 91 15 45 16 96 17 90 18 92 19 46 20 95 21 89 22 88 23
REMARK SMILES IDX 47 25 77 26 58 27 76 28 59 29 62 30 75 31 93 32 60 33 61 34
REMARK SMILES IDX 74 36 94 37 63 38 48 39 49 40 57 41 50 42 56 43 51 44 52 45
REMARK SMILES IDX 53 46 54 47 55 48 78 49 79 50 87 51 80 52 86 53 81 54 82 55
REMARK SMILES IDX 83 56 84 57 85 58 64 59 65 60 73 61 66 62 72 63 67 64 68 65
REMARK SMILES IDX 69 66 70 67 71 68 6 69 7 70 8 71 9 72 10 74 11 75 12 76
REMARK SMILES IDX 18 77 13 78 17 79 15 80 14 81 16 82 19 83 20 84 21 85 22 87
REMARK SMILES IDX 23 88 26 89 24 90 25 91 38 92 35 93 37 94 36 95 27 96 28 97
REMARK SMILES IDX 29 98 30 99 34 100 31 101 33 102 32 103
REMARK H PARENT 3 6 92 24 62 35 8 73 21 86
REMARK Flexibility Score: inf
ROOT
ATOM      1  C   UNL A   1      31.755  31.811  26.645  1.00  0.00     0.023 C 
ENDROOT
BRANCH   1   2
ATOM      2  C   UNL A   1      32.978  32.429  27.312  1.00  0.00     0.116 C 
BRANCH   2   3
ATOM      3  N   UNL A   1      32.792  33.837  27.626  1.00  0.00    -0.352 N 
ATOM      4  O   UNL A   1      33.049  35.737  28.814  1.00  0.00    -0.269 OA
ATOM      5  C   UNL A   1      33.433  34.595  28.575  1.00  0.00     0.251 C 
ATOM      6  H   UNL A   1      32.119  34.310  27.085  1.00  0.00     0.163 HD
BRANCH   5   7
ATOM      7  C   UNL A   1      34.571  34.020  29.323  1.00  0.00     0.039 A 
ATOM      8  C   UNL A   1      34.351  33.146  30.391  1.00  0.00     0.014 A 
ATOM      9  C   UNL A   1      35.872  34.357  28.942  1.00  0.00     0.014 A 
ATOM     10  C   UNL A   1      35.428  32.694  31.146  1.00  0.00     0.010 A 
ATOM     11  C   UNL A   1      36.956  33.846  29.660  1.00  0.00     0.010 A 
ATOM     12  C   UNL A   1      36.743  33.024  30.777  1.00  0.00    -0.014 A 
BRANCH  12  13
ATOM     13  C   UNL A   1      37.883  32.425  31.514  1.00  0.00     0.031 A 
ATOM     14  C   UNL A   1      38.672  31.284  30.936  1.00  0.00     0.074 A 
ATOM     15  C   UNL A   1      38.194  32.924  32.726  1.00  0.00     0.049 A 
ATOM     16  N   UNL A   1      39.682  30.638  31.462  1.00  0.00    -0.248 NA
ATOM     17  C   UNL A   1      38.277  30.797  29.606  1.00  0.00     0.031 C 
ATOM     18  C   UNL A   1      37.489  34.025  33.390  1.00  0.00     0.029 A 
ATOM     19  N   UNL A   1      39.179  32.579  33.615  1.00  0.00    -0.354 N 
ATOM     20  C   UNL A   1      40.029  29.656  30.542  1.00  0.00     0.074 A 
ATOM     21  C   UNL A   1      39.114  29.782  29.428  1.00  0.00     0.031 C 
ATOM     22  C   UNL A   1      38.079  34.281  34.567  1.00  0.00     0.029 A 
ATOM     23  C   UNL A   1      39.163  33.326  34.769  1.00  0.00     0.049 A 
ATOM     24  H   UNL A   1      39.836  31.866  33.443  1.00  0.00     0.167 HD
ATOM     25  C   UNL A   1      41.020  28.736  30.624  1.00  0.00     0.031 A 
ATOM     26  C   UNL A   1      39.914  33.238  35.882  1.00  0.00     0.031 A 
ATOM     27  C   UNL A   1      41.929  28.623  31.736  1.00  0.00     0.049 A 
ATOM     28  C   UNL A   1      40.983  32.187  35.957  1.00  0.00     0.074 A 
ATOM     29  C   UNL A   1      43.004  27.763  31.883  1.00  0.00     0.029 A 
ATOM     30  N   UNL A   1      41.865  29.383  32.895  1.00  0.00    -0.354 N 
ATOM     31  N   UNL A   1      41.335  31.309  35.049  1.00  0.00    -0.248 NA
ATOM     32  C   UNL A   1      41.753  32.112  37.205  1.00  0.00     0.031 C 
ATOM     33  C   UNL A   1      43.553  27.963  33.154  1.00  0.00     0.029 A 
ATOM     34  C   UNL A   1      42.855  28.984  33.777  1.00  0.00     0.049 A 
ATOM     35  H   UNL A   1      41.211  30.099  33.065  1.00  0.00     0.167 HD
ATOM     36  C   UNL A   1      42.375  30.582  35.613  1.00  0.00     0.074 A 
ATOM     37  C   UNL A   1      42.610  31.138  36.930  1.00  0.00     0.031 C 
ATOM     38  C   UNL A   1      43.070  29.543  35.088  1.00  0.00     0.031 A 
BRANCH  25  39
ATOM     39  C   UNL A   1      41.165  27.750  29.493  1.00  0.00    -0.014 A 
ATOM     40  C   UNL A   1      42.188  27.876  28.540  1.00  0.00     0.010 A 
ATOM     41  C   UNL A   1      40.306  26.637  29.432  1.00  0.00     0.010 A 
ATOM     42  C   UNL A   1      42.333  26.921  27.527  1.00  0.00     0.020 A 
ATOM     43  C   UNL A   1      40.460  25.669  28.435  1.00  0.00     0.020 A 
ATOM     44  C   UNL A   1      41.466  25.825  27.480  1.00  0.00     0.054 A 
BRANCH  44  45
ATOM     45  S   UNL A   1      41.699  24.584  26.177  1.00  0.00     0.124 S 
ATOM     46  O   UNL A   1      40.403  23.909  26.170  1.00  0.00    -0.237 OA
ATOM     47  O   UNL A   1      41.986  25.402  25.001  1.00  0.00    -0.237 OA
ATOM     48  O   UNL A   1      42.818  23.778  26.660  1.00  0.00    -0.744 OA
ENDBRANCH  44  45
ENDBRANCH  25  39
BRANCH  26  49
ATOM     49  C   UNL A   1      39.646  34.150  37.025  1.00  0.00    -0.014 A 
ATOM     50  C   UNL A   1      38.804  33.755  38.078  1.00  0.00     0.010 A 
ATOM     51  C   UNL A   1      40.258  35.417  37.075  1.00  0.00     0.010 A 
ATOM     52  C   UNL A   1      38.568  34.617  39.154  1.00  0.00     0.020 A 
ATOM     53  C   UNL A   1      40.049  36.268  38.161  1.00  0.00     0.020 A 
ATOM     54  C   UNL A   1      39.192  35.868  39.188  1.00  0.00     0.054 A 
BRANCH  54  55
ATOM     55  S   UNL A   1      38.912  36.951  40.616  1.00  0.00     0.124 S 
ATOM     56  O   UNL A   1      38.168  36.077  41.517  1.00  0.00    -0.237 OA
ATOM     57  O   UNL A   1      40.272  37.282  41.035  1.00  0.00    -0.237 OA
ATOM     58  O   UNL A   1      38.154  38.067  40.055  1.00  0.00    -0.744 OA
ENDBRANCH  54  55
ENDBRANCH  26  49
BRANCH  38  59
ATOM     59  C   UNL A   1      44.159  28.947  35.935  1.00  0.00    -0.014 A 
ATOM     60  C   UNL A   1      43.901  27.853  36.780  1.00  0.00     0.010 A 
ATOM     61  C   UNL A   1      45.469  29.452  35.842  1.00  0.00     0.010 A 
ATOM     62  C   UNL A   1      44.932  27.286  37.533  1.00  0.00     0.020 A 
ATOM     63  C   UNL A   1      46.507  28.871  36.575  1.00  0.00     0.020 A 
ATOM     64  C   UNL A   1      46.229  27.798  37.425  1.00  0.00     0.054 A 
BRANCH  64  65
ATOM     65  S   UNL A   1      47.562  27.008  38.368  1.00  0.00     0.124 S 
ATOM     66  O   UNL A   1      46.919  25.780  38.832  1.00  0.00    -0.237 OA
ATOM     67  O   UNL A   1      48.606  26.828  37.361  1.00  0.00    -0.237 OA
ATOM     68  O   UNL A   1      47.872  27.982  39.412  1.00  0.00    -0.744 OA
ENDBRANCH  64  65
ENDBRANCH  38  59
ENDBRANCH  12  13
ENDBRANCH   5   7
ENDBRANCH   2   3
ENDBRANCH   1   2
BRANCH   1  69
ATOM     69  C   UNL A   1      31.691  30.280  26.690  1.00  0.00     0.023 C 
BRANCH  69  70
ATOM     70  C   UNL A   1      31.940  29.597  25.347  1.00  0.00     0.116 C 
BRANCH  70  71
ATOM     71  N   UNL A   1      33.038  28.652  25.436  1.00  0.00    -0.356 N 
ATOM     72  C   UNL A   1      33.043  27.293  25.426  1.00  0.00     0.224 C 
ATOM     73  H   UNL A   1      33.929  29.065  25.517  1.00  0.00     0.163 HD
ATOM     74  O   UNL A   1      34.115  26.734  25.658  1.00  0.00    -0.275 OA
BRANCH  72  75
ATOM     75  C   UNL A   1      31.758  26.518  25.154  1.00  0.00     0.094 C 
ATOM     76  C   UNL A   1      30.979  27.115  23.947  1.00  0.00     0.002 C 
ATOM     77  C   UNL A   1      32.057  25.000  24.922  1.00  0.00     0.094 C 
ATOM     78  C   UNL A   1      31.704  26.899  22.607  1.00  0.00     0.005 C 
ATOM     79  C   UNL A   1      29.639  26.358  23.863  1.00  0.00     0.005 C 
ATOM     80  C   UNL A   1      31.420  24.591  23.559  1.00  0.00     0.002 C 
ATOM     81  C   UNL A   1      32.076  25.426  22.446  1.00  0.00     0.005 C 
ATOM     82  C   UNL A   1      29.904  24.878  23.571  1.00  0.00     0.005 C 
BRANCH  77  83
ATOM     83  C   UNL A   1      31.528  24.122  26.075  1.00  0.00     0.229 C 
ATOM     84  O   UNL A   1      30.476  24.407  26.659  1.00  0.00    -0.274 OA
ATOM     85  N   UNL A   1      32.126  22.949  26.442  1.00  0.00    -0.317 N 
ATOM     86  H   UNL A   1      31.559  22.370  26.999  1.00  0.00     0.170 HD
BRANCH  85  87
ATOM     87  C   UNL A   1      33.376  22.424  26.179  1.00  0.00     0.108 A 
ATOM     88  S   UNL A   1      34.764  23.261  26.677  1.00  0.00    -0.122 S 
ATOM     89  C   UNL A   1      33.656  21.182  25.609  1.00  0.00     0.078 A 
ATOM     90  C   UNL A   1      35.783  22.128  25.948  1.00  0.00     0.011 A 
ATOM     91  C   UNL A   1      35.098  21.028  25.460  1.00  0.00    -0.019 A 
ATOM     92  C   UNL A   1      37.266  22.332  25.900  1.00  0.00     0.047 C 
ATOM     93  C   UNL A   1      35.849  19.897  24.820  1.00  0.00     0.037 C 
ATOM     94  C   UNL A   1      37.890  21.412  24.845  1.00  0.00     0.006 C 
ATOM     95  C   UNL A   1      37.371  19.983  25.000  1.00  0.00     0.005 C 
BRANCH  89  96
ATOM     96  C   UNL A   1      32.558  20.298  25.158  1.00  0.00     0.257 C 
ATOM     97  O   UNL A   1      31.409  20.713  25.003  1.00  0.00    -0.269 OA
ATOM     98  N   UNL A   1      32.901  19.003  24.779  1.00  0.00    -0.339 N 
ATOM     99  C   UNL A   1      32.520  18.607  23.431  1.00  0.00     0.120 C 
ATOM    100  C   UNL A   1      32.750  17.937  25.761  1.00  0.00     0.120 C 
ATOM    101  C   UNL A   1      33.390  17.449  22.956  1.00  0.00     0.022 C 
ATOM    102  C   UNL A   1      33.589  16.718  25.376  1.00  0.00     0.022 C 
ATOM    103  C   UNL A   1      33.331  16.275  23.934  1.00  0.00     0.004 C 
ENDBRANCH  89  96
ENDBRANCH  85  87
ENDBRANCH  77  83
ENDBRANCH  72  75
ENDBRANCH  70  71
ENDBRANCH  69  70
ENDBRANCH   1  69
TORSDOF 17
ENDMDL
