MODEL 1
REMARK VINA RESULT:     -12.9      0.000      0.000
REMARK SMILES O=C(NCCCCNC(=O)c1ccc(-c2c3nc(c(-c4ccc(S(=O)(=O)[O-])cc4)c4ccc([nH]4)c(-c4ccc(S(=O)(=O)[O-])cc4)c4nc(c(-c5ccc(S(=O)(=O)[O-])cc5)c5ccc2[nH]5)C=C4)C=C3)cc1)C1=Cc2cc(Cl)cc(-c3ccc(O)cc3)c2O[C@@H]1C(F)(F)F
REMARK SMILES IDX 6 1 5 2 4 3 3 4 1 5 2 6 71 8 72 9 88 10 73 11 87 12 74 13
REMARK SMILES IDX 86 14 75 15 78 16 76 17 77 18 89 19 90 20 91 21 92 22 79 23
REMARK SMILES IDX 80 24 85 25 81 26 84 27 82 28 83 29 7 31 8 32 9 33 10 35
REMARK SMILES IDX 11 36 12 37 70 38 13 39 69 40 14 41 15 42 16 43 63 44 17 45
REMARK SMILES IDX 68 46 62 47 64 48 18 49 67 50 61 51 60 52 19 54 49 55 30 56
REMARK SMILES IDX 48 57 31 58 34 59 47 60 65 61 32 62 33 63 46 65 66 66 35 67
REMARK SMILES IDX 20 68 21 69 29 70 22 71 28 72 23 73 24 74 25 75 26 76 27 77
REMARK SMILES IDX 50 78 51 79 59 80 52 81 58 82 53 83 54 84 55 85 56 86 57 87
REMARK SMILES IDX 36 88 37 89 45 90 38 91 44 92 39 93 40 94 41 95 42 96 43 97
REMARK H PARENT 3 7 83 30 8 34 64 53 34 64
REMARK Flexibility Score: inf
ROOT
ATOM      1  C   UNL A   1      31.865  28.252  26.986  1.00  0.00     0.023 C 
ENDROOT
BRANCH   1   2
ATOM      2  C   UNL A   1      31.766  27.183  25.900  1.00  0.00     0.023 C 
BRANCH   2   3
ATOM      3  C   UNL A   1      30.683  26.129  26.100  1.00  0.00     0.116 C 
BRANCH   3   4
ATOM      4  N   UNL A   1      31.112  24.948  26.834  1.00  0.00    -0.352 N 
ATOM      5  O   UNL A   1      32.440  23.246  27.449  1.00  0.00    -0.270 OA
ATOM      6  C   UNL A   1      32.120  24.060  26.582  1.00  0.00     0.251 C 
ATOM      7  H   UNL A   1      30.589  24.758  27.647  1.00  0.00     0.163 HD
BRANCH   6   8
ATOM      8  C   UNL A   1      32.920  24.084  25.323  1.00  0.00     0.067 C 
ATOM      9  C   UNL A   1      34.238  24.343  25.322  1.00  0.00     0.025 C 
ATOM     10  C   UNL A   1      32.372  23.159  24.267  1.00  0.00     0.314 C 
ATOM     11  C   UNL A   1      35.051  23.143  24.988  1.00  0.00     0.019 A 
ATOM     12  O   UNL A   1      33.082  21.894  24.277  1.00  0.00    -0.475 OA
ATOM     13  C   UNL A   1      36.393  23.157  25.380  1.00  0.00     0.032 A 
ATOM     14  C   UNL A   1      34.406  21.928  24.661  1.00  0.00     0.135 A 
ATOM     15  C   UNL A   1      37.063  21.952  25.536  1.00  0.00     0.042 A 
ATOM     16  C   UNL A   1      35.062  20.700  24.885  1.00  0.00     0.026 A 
ATOM     17  Cl  UNL A   1      38.663  21.952  26.168  1.00  0.00    -0.084 Cl
ATOM     18  C   UNL A   1      36.407  20.741  25.310  1.00  0.00     0.033 A 
BRANCH  10  19
ATOM     19  C   UNL A   1      32.363  23.827  22.879  1.00  0.00     0.429 C 
ATOM     20  F   UNL A   1      31.168  24.404  22.608  1.00  0.00    -0.167 F 
ATOM     21  F   UNL A   1      33.298  24.805  22.793  1.00  0.00    -0.167 F 
ATOM     22  F   UNL A   1      32.620  22.955  21.874  1.00  0.00    -0.167 F 
ENDBRANCH  10  19
BRANCH  16  23
ATOM     23  C   UNL A   1      34.352  19.399  24.885  1.00  0.00    -0.014 A 
ATOM     24  C   UNL A   1      34.944  18.283  24.258  1.00  0.00     0.012 A 
ATOM     25  C   UNL A   1      33.103  19.210  25.498  1.00  0.00     0.012 A 
ATOM     26  C   UNL A   1      34.313  17.041  24.227  1.00  0.00     0.047 A 
ATOM     27  C   UNL A   1      32.467  17.960  25.472  1.00  0.00     0.047 A 
ATOM     28  C   UNL A   1      33.077  16.889  24.832  1.00  0.00     0.115 A 
BRANCH  28  29
ATOM     29  O   UNL A   1      32.501  15.657  24.767  1.00  0.00    -0.508 OA
ATOM     30  H   UNL A   1      32.462  15.116  25.530  1.00  0.00     0.293 HD
ENDBRANCH  28  29
ENDBRANCH  16  23
ENDBRANCH   6   8
ENDBRANCH   3   4
ENDBRANCH   2   3
ENDBRANCH   1   2
BRANCH   1  31
ATOM     31  C   UNL A   1      33.265  28.761  27.328  1.00  0.00     0.116 C 
BRANCH  31  32
ATOM     32  N   UNL A   1      33.334  30.150  27.754  1.00  0.00    -0.352 N 
ATOM     33  C   UNL A   1      34.416  30.851  28.250  1.00  0.00     0.251 C 
ATOM     34  H   UNL A   1      32.494  30.659  27.681  1.00  0.00     0.163 HD
ATOM     35  O   UNL A   1      34.284  32.026  28.565  1.00  0.00    -0.269 OA
BRANCH  33  36
ATOM     36  C   UNL A   1      35.723  30.172  28.436  1.00  0.00     0.039 A 
ATOM     37  C   UNL A   1      36.623  30.150  27.367  1.00  0.00     0.014 A 
ATOM     38  C   UNL A   1      36.082  29.597  29.658  1.00  0.00     0.014 A 
ATOM     39  C   UNL A   1      37.914  29.650  27.556  1.00  0.00     0.010 A 
ATOM     40  C   UNL A   1      37.384  29.143  29.864  1.00  0.00     0.010 A 
ATOM     41  C   UNL A   1      38.319  29.192  28.823  1.00  0.00    -0.014 A 
BRANCH  41  42
ATOM     42  C   UNL A   1      39.744  28.886  29.096  1.00  0.00     0.031 A 
ATOM     43  C   UNL A   1      40.658  29.899  29.719  1.00  0.00     0.074 A 
ATOM     44  C   UNL A   1      40.226  27.691  28.699  1.00  0.00     0.049 A 
ATOM     45  N   UNL A   1      41.903  29.759  30.096  1.00  0.00    -0.248 NA
ATOM     46  C   UNL A   1      40.114  31.250  29.926  1.00  0.00     0.031 C 
ATOM     47  C   UNL A   1      39.451  26.658  28.003  1.00  0.00     0.029 A 
ATOM     48  N   UNL A   1      41.474  27.138  28.826  1.00  0.00    -0.354 N 
ATOM     49  C   UNL A   1      42.294  30.998  30.586  1.00  0.00     0.074 A 
ATOM     50  C   UNL A   1      41.169  31.892  30.412  1.00  0.00     0.031 C 
ATOM     51  C   UNL A   1      40.230  25.583  27.806  1.00  0.00     0.029 A 
ATOM     52  C   UNL A   1      41.559  25.855  28.341  1.00  0.00     0.049 A 
ATOM     53  H   UNL A   1      42.237  27.615  29.228  1.00  0.00     0.167 HD
ATOM     54  C   UNL A   1      43.479  31.352  31.143  1.00  0.00     0.031 A 
ATOM     55  C   UNL A   1      42.586  24.984  28.346  1.00  0.00     0.031 A 
ATOM     56  C   UNL A   1      44.600  30.457  31.289  1.00  0.00     0.049 A 
ATOM     57  C   UNL A   1      43.879  25.391  28.991  1.00  0.00     0.074 A 
ATOM     58  C   UNL A   1      45.817  30.690  31.907  1.00  0.00     0.029 A 
ATOM     59  N   UNL A   1      44.648  29.161  30.793  1.00  0.00    -0.354 N 
ATOM     60  N   UNL A   1      44.193  26.530  29.562  1.00  0.00    -0.248 NA
ATOM     61  C   UNL A   1      44.947  24.383  29.016  1.00  0.00     0.031 C 
ATOM     62  C   UNL A   1      46.620  29.557  31.733  1.00  0.00     0.029 A 
ATOM     63  C   UNL A   1      45.883  28.594  31.063  1.00  0.00     0.049 A 
ATOM     64  H   UNL A   1      43.912  28.711  30.319  1.00  0.00     0.167 HD
ATOM     65  C   UNL A   1      45.488  26.366  30.041  1.00  0.00     0.074 A 
ATOM     66  C   UNL A   1      45.886  25.012  29.708  1.00  0.00     0.031 C 
ATOM     67  C   UNL A   1      46.274  27.253  30.702  1.00  0.00     0.031 A 
BRANCH  54  68
ATOM     68  C   UNL A   1      43.625  32.775  31.622  1.00  0.00    -0.014 A 
ATOM     69  C   UNL A   1      44.190  33.768  30.799  1.00  0.00     0.010 A 
ATOM     70  C   UNL A   1      43.161  33.135  32.901  1.00  0.00     0.010 A 
ATOM     71  C   UNL A   1      44.335  35.078  31.265  1.00  0.00     0.020 A 
ATOM     72  C   UNL A   1      43.277  34.451  33.359  1.00  0.00     0.020 A 
ATOM     73  C   UNL A   1      43.883  35.411  32.545  1.00  0.00     0.054 A 
BRANCH  73  74
ATOM     74  S   UNL A   1      44.078  37.120  33.120  1.00  0.00     0.124 S 
ATOM     75  O   UNL A   1      43.917  37.876  31.880  1.00  0.00    -0.237 OA
ATOM     76  O   UNL A   1      42.990  37.261  34.085  1.00  0.00    -0.237 OA
ATOM     77  O   UNL A   1      45.421  37.143  33.694  1.00  0.00    -0.744 OA
ENDBRANCH  73  74
ENDBRANCH  54  68
BRANCH  55  78
ATOM     78  C   UNL A   1      42.400  23.619  27.784  1.00  0.00    -0.014 A 
ATOM     79  C   UNL A   1      42.593  23.387  26.410  1.00  0.00     0.010 A 
ATOM     80  C   UNL A   1      42.064  22.538  28.620  1.00  0.00     0.010 A 
ATOM     81  C   UNL A   1      42.440  22.103  25.880  1.00  0.00     0.020 A 
ATOM     82  C   UNL A   1      41.938  21.248  28.097  1.00  0.00     0.020 A 
ATOM     83  C   UNL A   1      42.118  21.041  26.728  1.00  0.00     0.054 A 
BRANCH  83  84
ATOM     84  S   UNL A   1      41.991  19.371  26.027  1.00  0.00     0.124 S 
ATOM     85  O   UNL A   1      40.566  19.274  25.729  1.00  0.00    -0.237 OA
ATOM     86  O   UNL A   1      42.876  19.448  24.868  1.00  0.00    -0.237 OA
ATOM     87  O   UNL A   1      42.466  18.511  27.107  1.00  0.00    -0.744 OA
ENDBRANCH  83  84
ENDBRANCH  55  78
BRANCH  67  88
ATOM     88  C   UNL A   1      47.638  26.768  31.122  1.00  0.00    -0.014 A 
ATOM     89  C   UNL A   1      48.757  26.914  30.282  1.00  0.00     0.010 A 
ATOM     90  C   UNL A   1      47.798  26.148  32.374  1.00  0.00     0.010 A 
ATOM     91  C   UNL A   1      49.996  26.389  30.659  1.00  0.00     0.020 A 
ATOM     92  C   UNL A   1      49.042  25.651  32.768  1.00  0.00     0.020 A 
ATOM     93  C   UNL A   1      50.128  25.752  31.896  1.00  0.00     0.054 A 
BRANCH  93  94
ATOM     94  S   UNL A   1      51.741  25.067  32.359  1.00  0.00     0.124 S 
ATOM     95  O   UNL A   1      51.503  23.630  32.248  1.00  0.00    -0.237 OA
ATOM     96  O   UNL A   1      52.636  25.636  31.354  1.00  0.00    -0.237 OA
ATOM     97  O   UNL A   1      51.948  25.560  33.719  1.00  0.00    -0.744 OA
ENDBRANCH  93  94
ENDBRANCH  67  88
ENDBRANCH  41  42
ENDBRANCH  33  36
ENDBRANCH  31  32
ENDBRANCH   1  31
TORSDOF 17
ENDMDL
MODEL 2
REMARK VINA RESULT:     -12.9      0.842      7.999
REMARK SMILES O=C(NCCCCNC(=O)c1ccc(-c2c3nc(c(-c4ccc(S(=O)(=O)[O-])cc4)c4ccc([nH]4)c(-c4ccc(S(=O)(=O)[O-])cc4)c4nc(c(-c5ccc(S(=O)(=O)[O-])cc5)c5ccc2[nH]5)C=C4)C=C3)cc1)C1=Cc2cc(Cl)cc(-c3ccc(O)cc3)c2O[C@@H]1C(F)(F)F
REMARK SMILES IDX 6 1 5 2 4 3 3 4 1 5 2 6 71 8 72 9 88 10 73 11 87 12 74 13
REMARK SMILES IDX 86 14 75 15 78 16 76 17 77 18 89 19 90 20 91 21 92 22 79 23
REMARK SMILES IDX 80 24 85 25 81 26 84 27 82 28 83 29 7 31 8 32 9 33 10 35
REMARK SMILES IDX 11 36 12 37 70 38 13 39 69 40 14 41 15 42 16 43 63 44 17 45
REMARK SMILES IDX 68 46 62 47 64 48 18 49 67 50 61 51 60 52 19 54 49 55 30 56
REMARK SMILES IDX 48 57 31 58 34 59 47 60 65 61 32 62 33 63 46 65 66 66 35 67
REMARK SMILES IDX 20 68 21 69 29 70 22 71 28 72 23 73 24 74 25 75 26 76 27 77
REMARK SMILES IDX 50 78 51 79 59 80 52 81 58 82 53 83 54 84 55 85 56 86 57 87
REMARK SMILES IDX 36 88 37 89 45 90 38 91 44 92 39 93 40 94 41 95 42 96 43 97
REMARK H PARENT 3 7 83 30 8 34 64 53 34 64
REMARK Flexibility Score: inf
ROOT
ATOM      1  C   UNL A   1      31.986  27.962  27.248  1.00  0.00     0.023 C 
ENDROOT
BRANCH   1   2
ATOM      2  C   UNL A   1      31.469  27.540  25.875  1.00  0.00     0.023 C 
BRANCH   2   3
ATOM      3  C   UNL A   1      30.599  26.289  25.846  1.00  0.00     0.116 C 
BRANCH   3   4
ATOM      4  N   UNL A   1      31.090  25.188  26.660  1.00  0.00    -0.352 N 
ATOM      5  O   UNL A   1      32.523  23.632  27.414  1.00  0.00    -0.270 OA
ATOM      6  C   UNL A   1      32.173  24.370  26.492  1.00  0.00     0.251 C 
ATOM      7  H   UNL A   1      30.554  25.000  27.464  1.00  0.00     0.163 HD
BRANCH   6   8
ATOM      8  C   UNL A   1      33.016  24.391  25.261  1.00  0.00     0.067 C 
ATOM      9  C   UNL A   1      34.334  24.647  25.304  1.00  0.00     0.025 C 
ATOM     10  C   UNL A   1      32.501  23.465  24.188  1.00  0.00     0.314 C 
ATOM     11  C   UNL A   1      35.154  23.445  24.999  1.00  0.00     0.019 A 
ATOM     12  O   UNL A   1      33.208  22.199  24.224  1.00  0.00    -0.475 OA
ATOM     13  C   UNL A   1      36.482  23.457  25.437  1.00  0.00     0.032 A 
ATOM     14  C   UNL A   1      34.518  22.230  24.653  1.00  0.00     0.135 A 
ATOM     15  C   UNL A   1      37.144  22.250  25.617  1.00  0.00     0.042 A 
ATOM     16  C   UNL A   1      35.163  21.001  24.900  1.00  0.00     0.026 A 
ATOM     17  Cl  UNL A   1      38.722  22.247  26.303  1.00  0.00    -0.084 Cl
ATOM     18  C   UNL A   1      36.493  21.040  25.371  1.00  0.00     0.033 A 
BRANCH  10  19
ATOM     19  C   UNL A   1      32.541  24.131  22.799  1.00  0.00     0.429 C 
ATOM     20  F   UNL A   1      33.047  23.299  21.859  1.00  0.00    -0.167 F 
ATOM     21  F   UNL A   1      31.300  24.484  22.382  1.00  0.00    -0.167 F 
ATOM     22  F   UNL A   1      33.292  25.259  22.779  1.00  0.00    -0.167 F 
ENDBRANCH  10  19
BRANCH  16  23
ATOM     23  C   UNL A   1      34.451  19.701  24.878  1.00  0.00    -0.014 A 
ATOM     24  C   UNL A   1      35.091  18.567  24.337  1.00  0.00     0.012 A 
ATOM     25  C   UNL A   1      33.154  19.532  25.388  1.00  0.00     0.012 A 
ATOM     26  C   UNL A   1      34.459  17.325  24.289  1.00  0.00     0.047 A 
ATOM     27  C   UNL A   1      32.517  18.284  25.345  1.00  0.00     0.047 A 
ATOM     28  C   UNL A   1      33.176  17.193  24.791  1.00  0.00     0.115 A 
BRANCH  28  29
ATOM     29  O   UNL A   1      32.603  15.961  24.713  1.00  0.00    -0.508 OA
ATOM     30  H   UNL A   1      32.659  15.370  25.438  1.00  0.00     0.293 HD
ENDBRANCH  28  29
ENDBRANCH  16  23
ENDBRANCH   6   8
ENDBRANCH   3   4
ENDBRANCH   2   3
ENDBRANCH   1   2
BRANCH   1  31
ATOM     31  C   UNL A   1      33.373  28.603  27.296  1.00  0.00     0.116 C 
BRANCH  31  32
ATOM     32  N   UNL A   1      33.401  29.991  27.733  1.00  0.00    -0.352 N 
ATOM     33  C   UNL A   1      34.467  30.724  28.216  1.00  0.00     0.251 C 
ATOM     34  H   UNL A   1      32.543  30.471  27.678  1.00  0.00     0.163 HD
ATOM     35  O   UNL A   1      34.300  31.891  28.543  1.00  0.00    -0.269 OA
BRANCH  33  36
ATOM     36  C   UNL A   1      35.799  30.089  28.376  1.00  0.00     0.039 A 
ATOM     37  C   UNL A   1      36.677  30.097  27.288  1.00  0.00     0.014 A 
ATOM     38  C   UNL A   1      36.202  29.527  29.591  1.00  0.00     0.014 A 
ATOM     39  C   UNL A   1      37.988  29.640  27.451  1.00  0.00     0.010 A 
ATOM     40  C   UNL A   1      37.522  29.117  29.769  1.00  0.00     0.010 A 
ATOM     41  C   UNL A   1      38.434  29.197  28.709  1.00  0.00    -0.014 A 
BRANCH  41  42
ATOM     42  C   UNL A   1      39.873  28.938  28.953  1.00  0.00     0.031 A 
ATOM     43  C   UNL A   1      40.502  27.619  28.613  1.00  0.00     0.074 A 
ATOM     44  C   UNL A   1      40.598  29.898  29.564  1.00  0.00     0.049 A 
ATOM     45  N   UNL A   1      41.760  27.266  28.688  1.00  0.00    -0.248 NA
ATOM     46  C   UNL A   1      39.602  26.551  28.150  1.00  0.00     0.031 C 
ATOM     47  C   UNL A   1      40.073  31.188  30.021  1.00  0.00     0.029 A 
ATOM     48  N   UNL A   1      41.926  29.943  29.901  1.00  0.00    -0.354 N 
ATOM     49  C   UNL A   1      41.807  25.939  28.282  1.00  0.00     0.074 A 
ATOM     50  C   UNL A   1      40.444  25.535  28.009  1.00  0.00     0.031 C 
ATOM     51  C   UNL A   1      41.077  31.913  30.537  1.00  0.00     0.029 A 
ATOM     52  C   UNL A   1      42.309  31.136  30.467  1.00  0.00     0.049 A 
ATOM     53  H   UNL A   1      42.546  29.192  29.752  1.00  0.00     0.167 HD
ATOM     54  C   UNL A   1      42.891  25.136  28.137  1.00  0.00     0.031 A 
ATOM     55  C   UNL A   1      43.521  31.566  30.863  1.00  0.00     0.031 A 
ATOM     56  C   UNL A   1      44.241  25.545  28.435  1.00  0.00     0.049 A 
ATOM     57  C   UNL A   1      44.709  30.669  30.669  1.00  0.00     0.074 A 
ATOM     58  C   UNL A   1      45.418  24.839  28.252  1.00  0.00     0.029 A 
ATOM     59  N   UNL A   1      44.593  26.764  28.999  1.00  0.00    -0.354 N 
ATOM     60  N   UNL A   1      44.754  29.458  30.167  1.00  0.00    -0.248 NA
ATOM     61  C   UNL A   1      46.014  31.210  31.070  1.00  0.00     0.031 C 
ATOM     62  C   UNL A   1      46.473  25.607  28.757  1.00  0.00     0.029 A 
ATOM     63  C   UNL A   1      45.963  26.818  29.199  1.00  0.00     0.049 A 
ATOM     64  H   UNL A   1      43.961  27.485  29.224  1.00  0.00     0.167 HD
ATOM     65  C   UNL A   1      46.098  29.101  30.165  1.00  0.00     0.074 A 
ATOM     66  C   UNL A   1      46.830  30.234  30.697  1.00  0.00     0.031 C 
ATOM     67  C   UNL A   1      46.675  27.943  29.754  1.00  0.00     0.031 A 
BRANCH  54  68
ATOM     68  C   UNL A   1      42.654  23.730  27.647  1.00  0.00    -0.014 A 
ATOM     69  C   UNL A   1      42.364  22.684  28.543  1.00  0.00     0.010 A 
ATOM     70  C   UNL A   1      42.689  23.453  26.268  1.00  0.00     0.010 A 
ATOM     71  C   UNL A   1      42.165  21.381  28.075  1.00  0.00     0.020 A 
ATOM     72  C   UNL A   1      42.462  22.157  25.793  1.00  0.00     0.020 A 
ATOM     73  C   UNL A   1      42.221  21.125  26.702  1.00  0.00     0.054 A 
BRANCH  73  74
ATOM     74  S   UNL A   1      41.953  19.428  26.122  1.00  0.00     0.124 S 
ATOM     75  O   UNL A   1      42.874  19.346  24.991  1.00  0.00    -0.237 OA
ATOM     76  O   UNL A   1      42.319  18.627  27.288  1.00  0.00    -0.237 OA
ATOM     77  O   UNL A   1      40.534  19.400  25.773  1.00  0.00    -0.744 OA
ENDBRANCH  73  74
ENDBRANCH  54  68
BRANCH  55  78
ATOM     78  C   UNL A   1      43.674  32.940  31.414  1.00  0.00    -0.014 A 
ATOM     79  C   UNL A   1      43.922  34.024  30.552  1.00  0.00     0.010 A 
ATOM     80  C   UNL A   1      43.537  33.180  32.793  1.00  0.00     0.010 A 
ATOM     81  C   UNL A   1      44.045  35.320  31.061  1.00  0.00     0.020 A 
ATOM     82  C   UNL A   1      43.633  34.480  33.302  1.00  0.00     0.020 A 
ATOM     83  C   UNL A   1      43.895  35.539  32.432  1.00  0.00     0.054 A 
BRANCH  83  84
ATOM     84  S   UNL A   1      43.994  37.240  33.060  1.00  0.00     0.124 S 
ATOM     85  O   UNL A   1      45.288  37.241  33.733  1.00  0.00    -0.237 OA
ATOM     86  O   UNL A   1      43.915  38.033  31.836  1.00  0.00    -0.237 OA
ATOM     87  O   UNL A   1      42.830  37.347  33.936  1.00  0.00    -0.744 OA
ENDBRANCH  83  84
ENDBRANCH  55  78
BRANCH  67  88
ATOM     88  C   UNL A   1      48.176  27.863  29.851  1.00  0.00    -0.014 A 
ATOM     89  C   UNL A   1      49.001  28.286  28.793  1.00  0.00     0.010 A 
ATOM     90  C   UNL A   1      48.770  27.348  31.017  1.00  0.00     0.010 A 
ATOM     91  C   UNL A   1      50.388  28.132  28.873  1.00  0.00     0.020 A 
ATOM     92  C   UNL A   1      50.157  27.223  31.115  1.00  0.00     0.020 A 
ATOM     93  C   UNL A   1      50.956  27.592  30.030  1.00  0.00     0.054 A 
BRANCH  93  94
ATOM     94  S   UNL A   1      52.756  27.389  30.109  1.00  0.00     0.124 S 
ATOM     95  O   UNL A   1      53.213  28.774  30.193  1.00  0.00    -0.237 OA
ATOM     96  O   UNL A   1      52.940  26.592  31.319  1.00  0.00    -0.237 OA
ATOM     97  O   UNL A   1      53.081  26.701  28.862  1.00  0.00    -0.744 OA
ENDBRANCH  93  94
ENDBRANCH  67  88
ENDBRANCH  41  42
ENDBRANCH  33  36
ENDBRANCH  31  32
ENDBRANCH   1  31
TORSDOF 17
ENDMDL
MODEL 3
REMARK VINA RESULT:     -12.1      1.926      2.841
REMARK SMILES O=C(NCCCCNC(=O)c1ccc(-c2c3nc(c(-c4ccc(S(=O)(=O)[O-])cc4)c4ccc([nH]4)c(-c4ccc(S(=O)(=O)[O-])cc4)c4nc(c(-c5ccc(S(=O)(=O)[O-])cc5)c5ccc2[nH]5)C=C4)C=C3)cc1)C1=Cc2cc(Cl)cc(-c3ccc(O)cc3)c2O[C@@H]1C(F)(F)F
REMARK SMILES IDX 6 1 5 2 4 3 3 4 1 5 2 6 71 8 72 9 88 10 73 11 87 12 74 13
REMARK SMILES IDX 86 14 75 15 78 16 76 17 77 18 89 19 90 20 91 21 92 22 79 23
REMARK SMILES IDX 80 24 85 25 81 26 84 27 82 28 83 29 7 31 8 32 9 33 10 35
REMARK SMILES IDX 11 36 12 37 70 38 13 39 69 40 14 41 15 42 16 43 63 44 17 45
REMARK SMILES IDX 68 46 62 47 64 48 18 49 67 50 61 51 60 52 19 54 49 55 30 56
REMARK SMILES IDX 48 57 31 58 34 59 47 60 65 61 32 62 33 63 46 65 66 66 35 67
REMARK SMILES IDX 20 68 21 69 29 70 22 71 28 72 23 73 24 74 25 75 26 76 27 77
REMARK SMILES IDX 50 78 51 79 59 80 52 81 58 82 53 83 54 84 55 85 56 86 57 87
REMARK SMILES IDX 36 88 37 89 45 90 38 91 44 92 39 93 40 94 41 95 42 96 43 97
REMARK H PARENT 3 7 83 30 8 34 64 53 34 64
REMARK Flexibility Score: inf
ROOT
ATOM      1  C   UNL A   1      32.864  29.241  25.162  1.00  0.00     0.023 C 
ENDROOT
BRANCH   1   2
ATOM      2  C   UNL A   1      33.347  28.958  23.742  1.00  0.00     0.023 C 
BRANCH   2   3
ATOM      3  C   UNL A   1      32.317  28.350  22.797  1.00  0.00     0.116 C 
BRANCH   3   4
ATOM      4  N   UNL A   1      32.822  27.269  21.962  1.00  0.00    -0.352 N 
ATOM      5  O   UNL A   1      32.998  25.195  21.121  1.00  0.00    -0.270 OA
ATOM      6  C   UNL A   1      32.650  25.916  22.057  1.00  0.00     0.251 C 
ATOM      7  H   UNL A   1      33.379  27.561  21.205  1.00  0.00     0.163 HD
BRANCH   6   8
ATOM      8  C   UNL A   1      31.973  25.269  23.218  1.00  0.00     0.067 C 
ATOM      9  C   UNL A   1      31.285  24.122  23.093  1.00  0.00     0.025 C 
ATOM     10  C   UNL A   1      32.670  25.546  24.526  1.00  0.00     0.314 C 
ATOM     11  C   UNL A   1      31.969  22.976  23.750  1.00  0.00     0.019 A 
ATOM     12  O   UNL A   1      33.550  24.449  24.879  1.00  0.00    -0.475 OA
ATOM     13  C   UNL A   1      31.608  21.694  23.325  1.00  0.00     0.032 A 
ATOM     14  C   UNL A   1      33.175  23.191  24.457  1.00  0.00     0.135 A 
ATOM     15  C   UNL A   1      32.494  20.643  23.522  1.00  0.00     0.042 A 
ATOM     16  C   UNL A   1      34.106  22.141  24.597  1.00  0.00     0.026 A 
ATOM     17  Cl  UNL A   1      32.128  19.097  22.864  1.00  0.00    -0.084 Cl
ATOM     18  C   UNL A   1      33.730  20.863  24.132  1.00  0.00     0.033 A 
BRANCH  10  19
ATOM     19  C   UNL A   1      31.663  25.886  25.642  1.00  0.00     0.429 C 
ATOM     20  F   UNL A   1      30.675  26.697  25.195  1.00  0.00    -0.167 F 
ATOM     21  F   UNL A   1      31.064  24.771  26.127  1.00  0.00    -0.167 F 
ATOM     22  F   UNL A   1      32.240  26.509  26.699  1.00  0.00    -0.167 F 
ENDBRANCH  10  19
BRANCH  16  23
ATOM     23  C   UNL A   1      35.509  22.363  25.022  1.00  0.00    -0.014 A 
ATOM     24  C   UNL A   1      36.495  21.412  24.687  1.00  0.00     0.012 A 
ATOM     25  C   UNL A   1      35.919  23.496  25.742  1.00  0.00     0.012 A 
ATOM     26  C   UNL A   1      37.826  21.574  25.069  1.00  0.00     0.047 A 
ATOM     27  C   UNL A   1      37.258  23.664  26.124  1.00  0.00     0.047 A 
ATOM     28  C   UNL A   1      38.197  22.698  25.787  1.00  0.00     0.115 A 
BRANCH  28  29
ATOM     29  O   UNL A   1      39.507  22.803  26.141  1.00  0.00    -0.508 OA
ATOM     30  H   UNL A   1      40.072  22.059  26.077  1.00  0.00     0.293 HD
ENDBRANCH  28  29
ENDBRANCH  16  23
ENDBRANCH   6   8
ENDBRANCH   3   4
ENDBRANCH   2   3
ENDBRANCH   1   2
BRANCH   1  31
ATOM     31  C   UNL A   1      33.935  29.350  26.246  1.00  0.00     0.116 C 
BRANCH  31  32
ATOM     32  N   UNL A   1      33.791  30.479  27.152  1.00  0.00    -0.352 N 
ATOM     33  C   UNL A   1      34.672  30.937  28.111  1.00  0.00     0.251 C 
ATOM     34  H   UNL A   1      32.949  30.984  27.070  1.00  0.00     0.163 HD
ATOM     35  O   UNL A   1      34.375  31.910  28.791  1.00  0.00    -0.269 OA
BRANCH  33  36
ATOM     36  C   UNL A   1      35.955  30.229  28.345  1.00  0.00     0.039 A 
ATOM     37  C   UNL A   1      36.923  30.248  27.337  1.00  0.00     0.014 A 
ATOM     38  C   UNL A   1      36.227  29.586  29.557  1.00  0.00     0.014 A 
ATOM     39  C   UNL A   1      38.193  29.718  27.582  1.00  0.00     0.010 A 
ATOM     40  C   UNL A   1      37.507  29.102  29.821  1.00  0.00     0.010 A 
ATOM     41  C   UNL A   1      38.509  29.190  28.846  1.00  0.00    -0.014 A 
BRANCH  41  42
ATOM     42  C   UNL A   1      39.909  28.847  29.194  1.00  0.00     0.031 A 
ATOM     43  C   UNL A   1      40.801  29.822  29.903  1.00  0.00     0.074 A 
ATOM     44  C   UNL A   1      40.393  27.656  28.788  1.00  0.00     0.049 A 
ATOM     45  N   UNL A   1      42.019  29.645  30.349  1.00  0.00    -0.248 NA
ATOM     46  C   UNL A   1      40.270  31.176  30.121  1.00  0.00     0.031 C 
ATOM     47  C   UNL A   1      39.644  26.661  28.013  1.00  0.00     0.029 A 
ATOM     48  N   UNL A   1      41.621  27.075  28.971  1.00  0.00    -0.354 N 
ATOM     49  C   UNL A   1      42.401  30.861  30.902  1.00  0.00     0.074 A 
ATOM     50  C   UNL A   1      41.305  31.781  30.690  1.00  0.00     0.031 C 
ATOM     51  C   UNL A   1      40.414  25.578  27.828  1.00  0.00     0.029 A 
ATOM     52  C   UNL A   1      41.713  25.807  28.449  1.00  0.00     0.049 A 
ATOM     53  H   UNL A   1      42.366  27.525  29.432  1.00  0.00     0.167 HD
ATOM     54  C   UNL A   1      43.557  31.174  31.540  1.00  0.00     0.031 A 
ATOM     55  C   UNL A   1      42.722  24.916  28.488  1.00  0.00     0.031 A 
ATOM     56  C   UNL A   1      44.651  30.253  31.723  1.00  0.00     0.049 A 
ATOM     57  C   UNL A   1      43.981  25.277  29.222  1.00  0.00     0.074 A 
ATOM     58  C   UNL A   1      45.832  30.443  32.420  1.00  0.00     0.029 A 
ATOM     59  N   UNL A   1      44.706  28.973  31.188  1.00  0.00    -0.354 N 
ATOM     60  N   UNL A   1      44.280  26.391  29.847  1.00  0.00    -0.248 NA
ATOM     61  C   UNL A   1      45.027  24.249  29.277  1.00  0.00     0.031 C 
ATOM     62  C   UNL A   1      46.624  29.300  32.257  1.00  0.00     0.029 A 
ATOM     63  C   UNL A   1      45.912  28.373  31.513  1.00  0.00     0.049 A 
ATOM     64  H   UNL A   1      43.992  28.552  30.657  1.00  0.00     0.167 HD
ATOM     65  C   UNL A   1      45.540  26.187  30.397  1.00  0.00     0.074 A 
ATOM     66  C   UNL A   1      45.934  24.837  30.045  1.00  0.00     0.031 C 
ATOM     67  C   UNL A   1      46.301  27.037  31.132  1.00  0.00     0.031 A 
BRANCH  54  68
ATOM     68  C   UNL A   1      43.698  32.578  32.073  1.00  0.00    -0.014 A 
ATOM     69  C   UNL A   1      44.257  33.604  31.288  1.00  0.00     0.010 A 
ATOM     70  C   UNL A   1      43.236  32.887  33.366  1.00  0.00     0.010 A 
ATOM     71  C   UNL A   1      44.398  34.896  31.803  1.00  0.00     0.020 A 
ATOM     72  C   UNL A   1      43.348  34.185  33.874  1.00  0.00     0.020 A 
ATOM     73  C   UNL A   1      43.949  35.177  33.096  1.00  0.00     0.054 A 
BRANCH  73  74
ATOM     74  S   UNL A   1      44.138  36.864  33.736  1.00  0.00     0.124 S 
ATOM     75  O   UNL A   1      45.587  36.963  33.900  1.00  0.00    -0.237 OA
ATOM     76  O   UNL A   1      43.571  37.680  32.665  1.00  0.00    -0.237 OA
ATOM     77  O   UNL A   1      43.370  36.852  34.979  1.00  0.00    -0.744 OA
ENDBRANCH  73  74
ENDBRANCH  54  68
BRANCH  55  78
ATOM     78  C   UNL A   1      42.546  23.573  27.871  1.00  0.00    -0.014 A 
ATOM     79  C   UNL A   1      42.971  23.340  26.551  1.00  0.00     0.010 A 
ATOM     80  C   UNL A   1      41.987  22.513  28.608  1.00  0.00     0.010 A 
ATOM     81  C   UNL A   1      42.828  22.075  25.974  1.00  0.00     0.020 A 
ATOM     82  C   UNL A   1      41.868  21.240  28.042  1.00  0.00     0.020 A 
ATOM     83  C   UNL A   1      42.281  21.032  26.725  1.00  0.00     0.054 A 
BRANCH  83  84
ATOM     84  S   UNL A   1      42.167  19.383  25.976  1.00  0.00     0.124 S 
ATOM     85  O   UNL A   1      40.736  19.264  25.718  1.00  0.00    -0.237 OA
ATOM     86  O   UNL A   1      43.015  19.515  24.794  1.00  0.00    -0.237 OA
ATOM     87  O   UNL A   1      42.693  18.500  27.013  1.00  0.00    -0.744 OA
ENDBRANCH  83  84
ENDBRANCH  55  78
BRANCH  67  88
ATOM     88  C   UNL A   1      47.628  26.513  31.617  1.00  0.00    -0.014 A 
ATOM     89  C   UNL A   1      48.784  26.602  30.821  1.00  0.00     0.010 A 
ATOM     90  C   UNL A   1      47.715  25.913  32.886  1.00  0.00     0.010 A 
ATOM     91  C   UNL A   1      49.988  26.041  31.258  1.00  0.00     0.020 A 
ATOM     92  C   UNL A   1      48.923  25.380  33.340  1.00  0.00     0.020 A 
ATOM     93  C   UNL A   1      50.046  25.424  32.511  1.00  0.00     0.054 A 
BRANCH  93  94
ATOM     94  S   UNL A   1      51.613  24.692  33.053  1.00  0.00     0.124 S 
ATOM     95  O   UNL A   1      52.581  25.702  32.632  1.00  0.00    -0.237 OA
ATOM     96  O   UNL A   1      51.428  24.563  34.497  1.00  0.00    -0.237 OA
ATOM     97  O   UNL A   1      51.675  23.428  32.324  1.00  0.00    -0.744 OA
ENDBRANCH  93  94
ENDBRANCH  67  88
ENDBRANCH  41  42
ENDBRANCH  33  36
ENDBRANCH  31  32
ENDBRANCH   1  31
TORSDOF 17
ENDMDL
