MODEL 1
REMARK VINA RESULT:     -13.6      0.000      0.000
REMARK SMILES Cc1ccc(C)c(-c2cc(C(=O)NCCCCNC(=O)c3ccc(-c4c5nc(c(-c6ccc(S(=O)(=O)[O-])cc6)c6ccc([nH]6)c(-c6ccc(S(=O)(=O)[O-])cc6)c6nc(c(-c7ccc(S(=O)(=O)[O-])cc7)c7ccc4[nH]7)C=C6)C=C5)cc3)c3cc(C)ccc3n2)c1
REMARK SMILES IDX 16 1 15 2 14 3 13 4 11 5 12 6 10 8 8 9 9 10 88 11 87 12
REMARK SMILES IDX 81 13 86 14 82 15 85 16 83 17 84 18 7 19 1 20 2 21 3 22
REMARK SMILES IDX 89 23 4 24 5 25 6 26 17 27 18 28 19 29 20 31 21 32 22 33
REMARK SMILES IDX 80 34 23 35 79 36 24 37 25 38 26 39 73 40 27 41 78 42 72 43
REMARK SMILES IDX 74 44 28 45 77 46 71 47 70 48 29 50 59 51 40 52 58 53 41 54
REMARK SMILES IDX 44 55 57 56 75 57 42 58 43 59 56 61 76 62 45 63 30 64 31 65
REMARK SMILES IDX 39 66 32 67 38 68 33 69 34 70 35 71 36 72 37 73 60 74 61 75
REMARK SMILES IDX 69 76 62 77 68 78 63 79 64 80 65 81 66 82 67 83 46 84 47 85
REMARK SMILES IDX 55 86 48 87 54 88 49 89 50 90 51 91 52 92 53 93
REMARK H PARENT 13 7 18 30 74 49 44 60
REMARK Flexibility Score: inf
ROOT
ATOM      1  C   UNL A   1      32.974  28.813  25.665  1.00  0.00     0.023 C 
ENDROOT
BRANCH   1   2
ATOM      2  C   UNL A   1      33.660  28.584  24.312  1.00  0.00     0.023 C 
BRANCH   2   3
ATOM      3  C   UNL A   1      32.924  28.804  22.995  1.00  0.00     0.116 C 
BRANCH   3   4
ATOM      4  N   UNL A   1      33.164  27.901  21.879  1.00  0.00    -0.352 N 
ATOM      5  C   UNL A   1      33.151  26.510  21.821  1.00  0.00     0.252 C 
ATOM      6  O   UNL A   1      33.309  25.990  20.715  1.00  0.00    -0.269 OA
ATOM      7  H   UNL A   1      33.370  28.348  21.026  1.00  0.00     0.163 HD
BRANCH   5   8
ATOM      8  C   UNL A   1      33.069  25.608  23.022  1.00  0.00     0.051 A 
ATOM      9  C   UNL A   1      34.292  24.254  24.591  1.00  0.00     0.072 A 
ATOM     10  C   UNL A   1      34.254  24.948  23.389  1.00  0.00     0.043 A 
ATOM     11  N   UNL A   1      33.269  24.311  25.476  1.00  0.00    -0.248 NA
ATOM     12  C   UNL A   1      32.118  24.886  25.100  1.00  0.00     0.072 A 
ATOM     13  C   UNL A   1      31.922  25.430  23.820  1.00  0.00     0.013 A 
ATOM     14  C   UNL A   1      31.083  24.968  26.021  1.00  0.00     0.029 A 
ATOM     15  C   UNL A   1      30.611  25.780  23.439  1.00  0.00     0.014 A 
ATOM     16  C   UNL A   1      29.852  25.542  25.695  1.00  0.00     0.005 A 
ATOM     17  C   UNL A   1      29.597  25.932  24.385  1.00  0.00    -0.050 A 
ATOM     18  C   UNL A   1      28.334  26.649  24.010  1.00  0.00     0.044 C 
BRANCH   9  19
ATOM     19  C   UNL A   1      35.415  23.383  24.990  1.00  0.00     0.003 A 
ATOM     20  C   UNL A   1      38.911  23.754  26.534  1.00  0.00     0.044 C 
ATOM     21  C   UNL A   1      37.668  23.148  25.952  1.00  0.00    -0.050 A 
ATOM     22  C   UNL A   1      37.587  21.762  25.805  1.00  0.00     0.004 A 
ATOM     23  C   UNL A   1      36.584  23.945  25.547  1.00  0.00     0.014 A 
ATOM     24  C   UNL A   1      36.445  21.183  25.258  1.00  0.00     0.004 A 
ATOM     25  C   UNL A   1      35.360  21.975  24.841  1.00  0.00    -0.042 A 
ATOM     26  C   UNL A   1      34.176  21.250  24.252  1.00  0.00     0.045 C 
ENDBRANCH   9  19
ENDBRANCH   5   8
ENDBRANCH   3   4
ENDBRANCH   2   3
ENDBRANCH   1   2
BRANCH   1  27
ATOM     27  C   UNL A   1      33.779  29.281  26.877  1.00  0.00     0.116 C 
BRANCH  27  28
ATOM     28  N   UNL A   1      33.642  30.700  27.226  1.00  0.00    -0.352 N 
ATOM     29  C   UNL A   1      34.436  31.492  28.057  1.00  0.00     0.251 C 
ATOM     30  H   UNL A   1      32.878  31.162  26.812  1.00  0.00     0.163 HD
ATOM     31  O   UNL A   1      33.957  32.482  28.591  1.00  0.00    -0.269 OA
BRANCH  29  32
ATOM     32  C   UNL A   1      35.861  31.143  28.277  1.00  0.00     0.039 A 
ATOM     33  C   UNL A   1      36.782  31.997  28.893  1.00  0.00     0.014 A 
ATOM     34  C   UNL A   1      36.286  29.906  27.827  1.00  0.00     0.014 A 
ATOM     35  C   UNL A   1      38.094  31.546  29.091  1.00  0.00     0.010 A 
ATOM     36  C   UNL A   1      37.467  29.373  28.244  1.00  0.00     0.010 A 
ATOM     37  C   UNL A   1      38.421  30.221  28.766  1.00  0.00    -0.014 A 
BRANCH  37  38
ATOM     38  C   UNL A   1      39.724  29.625  29.009  1.00  0.00     0.031 A 
ATOM     39  C   UNL A   1      40.029  29.402  30.436  1.00  0.00     0.074 A 
ATOM     40  C   UNL A   1      40.470  29.033  28.050  1.00  0.00     0.049 A 
ATOM     41  N   UNL A   1      40.778  30.128  31.193  1.00  0.00    -0.248 NA
ATOM     42  C   UNL A   1      39.276  28.360  31.150  1.00  0.00     0.031 C 
ATOM     43  C   UNL A   1      40.129  28.793  26.640  1.00  0.00     0.029 A 
ATOM     44  N   UNL A   1      41.668  28.402  28.176  1.00  0.00    -0.354 N 
ATOM     45  C   UNL A   1      40.804  29.474  32.416  1.00  0.00     0.074 A 
ATOM     46  C   UNL A   1      39.681  28.570  32.404  1.00  0.00     0.031 C 
ATOM     47  C   UNL A   1      40.988  27.892  26.112  1.00  0.00     0.029 A 
ATOM     48  C   UNL A   1      42.037  27.629  27.080  1.00  0.00     0.049 A 
ATOM     49  H   UNL A   1      42.230  28.484  28.981  1.00  0.00     0.167 HD
ATOM     50  C   UNL A   1      41.911  29.508  33.212  1.00  0.00     0.031 A 
ATOM     51  C   UNL A   1      43.120  26.819  26.990  1.00  0.00     0.031 A 
ATOM     52  C   UNL A   1      42.884  30.453  32.713  1.00  0.00     0.049 A 
ATOM     53  C   UNL A   1      44.077  27.266  28.035  1.00  0.00     0.074 A 
ATOM     54  C   UNL A   1      42.875  31.804  32.421  1.00  0.00     0.029 A 
ATOM     55  N   UNL A   1      43.966  29.925  32.042  1.00  0.00    -0.354 N 
ATOM     56  N   UNL A   1      44.684  28.419  28.013  1.00  0.00    -0.248 NA
ATOM     57  C   UNL A   1      44.045  26.606  29.330  1.00  0.00     0.031 C 
ATOM     58  C   UNL A   1      43.664  31.934  31.241  1.00  0.00     0.029 A 
ATOM     59  C   UNL A   1      44.180  30.677  30.916  1.00  0.00     0.049 A 
ATOM     60  H   UNL A   1      44.493  29.142  32.323  1.00  0.00     0.167 HD
ATOM     61  C   UNL A   1      44.722  28.826  29.338  1.00  0.00     0.074 A 
ATOM     62  C   UNL A   1      44.425  27.622  30.110  1.00  0.00     0.031 C 
ATOM     63  C   UNL A   1      44.709  30.152  29.670  1.00  0.00     0.031 A 
BRANCH  50  64
ATOM     64  C   UNL A   1      42.300  28.411  34.174  1.00  0.00    -0.014 A 
ATOM     65  C   UNL A   1      42.511  28.749  35.526  1.00  0.00     0.010 A 
ATOM     66  C   UNL A   1      42.709  27.125  33.769  1.00  0.00     0.010 A 
ATOM     67  C   UNL A   1      43.162  27.874  36.403  1.00  0.00     0.020 A 
ATOM     68  C   UNL A   1      43.316  26.224  34.647  1.00  0.00     0.020 A 
ATOM     69  C   UNL A   1      43.572  26.620  35.951  1.00  0.00     0.054 A 
BRANCH  69  70
ATOM     70  S   UNL A   1      44.492  25.532  37.063  1.00  0.00     0.124 S 
ATOM     71  O   UNL A   1      43.850  25.806  38.345  1.00  0.00    -0.237 OA
ATOM     72  O   UNL A   1      44.233  24.215  36.491  1.00  0.00    -0.237 OA
ATOM     73  O   UNL A   1      45.870  26.003  36.937  1.00  0.00    -0.744 OA
ENDBRANCH  69  70
ENDBRANCH  50  64
BRANCH  51  74
ATOM     74  C   UNL A   1      43.302  25.555  26.234  1.00  0.00    -0.014 A 
ATOM     75  C   UNL A   1      44.396  25.398  25.362  1.00  0.00     0.010 A 
ATOM     76  C   UNL A   1      42.575  24.401  26.586  1.00  0.00     0.010 A 
ATOM     77  C   UNL A   1      44.805  24.124  24.933  1.00  0.00     0.020 A 
ATOM     78  C   UNL A   1      42.970  23.127  26.153  1.00  0.00     0.020 A 
ATOM     79  C   UNL A   1      44.104  22.993  25.354  1.00  0.00     0.054 A 
BRANCH  79  80
ATOM     80  S   UNL A   1      44.766  21.343  24.973  1.00  0.00     0.124 S 
ATOM     81  O   UNL A   1      44.642  21.283  23.520  1.00  0.00    -0.237 OA
ATOM     82  O   UNL A   1      46.132  21.422  25.485  1.00  0.00    -0.237 OA
ATOM     83  O   UNL A   1      43.886  20.438  25.710  1.00  0.00    -0.744 OA
ENDBRANCH  79  80
ENDBRANCH  51  74
BRANCH  63  84
ATOM     84  C   UNL A   1      45.049  31.172  28.606  1.00  0.00    -0.014 A 
ATOM     85  C   UNL A   1      44.124  31.707  27.688  1.00  0.00     0.010 A 
ATOM     86  C   UNL A   1      46.349  31.713  28.634  1.00  0.00     0.010 A 
ATOM     87  C   UNL A   1      44.499  32.737  26.811  1.00  0.00     0.020 A 
ATOM     88  C   UNL A   1      46.722  32.752  27.780  1.00  0.00     0.020 A 
ATOM     89  C   UNL A   1      45.798  33.253  26.864  1.00  0.00     0.054 A 
BRANCH  89  90
ATOM     90  S   UNL A   1      46.265  34.620  25.765  1.00  0.00     0.124 S 
ATOM     91  O   UNL A   1      45.404  34.404  24.605  1.00  0.00    -0.237 OA
ATOM     92  O   UNL A   1      45.958  35.802  26.566  1.00  0.00    -0.237 OA
ATOM     93  O   UNL A   1      47.691  34.403  25.523  1.00  0.00    -0.744 OA
ENDBRANCH  89  90
ENDBRANCH  63  84
ENDBRANCH  37  38
ENDBRANCH  29  32
ENDBRANCH  27  28
ENDBRANCH   1  27
TORSDOF 15
ENDMDL
MODEL 2
REMARK VINA RESULT:     -13.4      1.754      2.699
REMARK SMILES Cc1ccc(C)c(-c2cc(C(=O)NCCCCNC(=O)c3ccc(-c4c5nc(c(-c6ccc(S(=O)(=O)[O-])cc6)c6ccc([nH]6)c(-c6ccc(S(=O)(=O)[O-])cc6)c6nc(c(-c7ccc(S(=O)(=O)[O-])cc7)c7ccc4[nH]7)C=C6)C=C5)cc3)c3cc(C)ccc3n2)c1
REMARK SMILES IDX 16 1 15 2 14 3 13 4 11 5 12 6 10 8 8 9 9 10 88 11 87 12
REMARK SMILES IDX 81 13 86 14 82 15 85 16 83 17 84 18 7 19 1 20 2 21 3 22
REMARK SMILES IDX 89 23 4 24 5 25 6 26 17 27 18 28 19 29 20 31 21 32 22 33
REMARK SMILES IDX 80 34 23 35 79 36 24 37 25 38 26 39 73 40 27 41 78 42 72 43
REMARK SMILES IDX 74 44 28 45 77 46 71 47 70 48 29 50 59 51 40 52 58 53 41 54
REMARK SMILES IDX 44 55 57 56 75 57 42 58 43 59 56 61 76 62 45 63 30 64 31 65
REMARK SMILES IDX 39 66 32 67 38 68 33 69 34 70 35 71 36 72 37 73 60 74 61 75
REMARK SMILES IDX 69 76 62 77 68 78 63 79 64 80 65 81 66 82 67 83 46 84 47 85
REMARK SMILES IDX 55 86 48 87 54 88 49 89 50 90 51 91 52 92 53 93
REMARK H PARENT 13 7 18 30 74 49 44 60
REMARK Flexibility Score: inf
ROOT
ATOM      1  C   UNL A   1      34.454  31.610  27.705  1.00  0.00     0.023 C 
ENDROOT
BRANCH   1   2
ATOM      2  C   UNL A   1      35.217  30.300  27.471  1.00  0.00     0.023 C 
BRANCH   2   3
ATOM      3  C   UNL A   1      34.489  28.976  27.265  1.00  0.00     0.116 C 
BRANCH   3   4
ATOM      4  N   UNL A   1      33.141  28.810  27.784  1.00  0.00    -0.352 N 
ATOM      5  C   UNL A   1      32.083  28.029  27.326  1.00  0.00     0.252 C 
ATOM      6  O   UNL A   1      31.058  28.008  28.010  1.00  0.00    -0.269 OA
ATOM      7  H   UNL A   1      32.944  29.338  28.592  1.00  0.00     0.163 HD
BRANCH   5   8
ATOM      8  C   UNL A   1      32.069  27.304  26.008  1.00  0.00     0.051 A 
ATOM      9  C   UNL A   1      32.541  25.244  24.855  1.00  0.00     0.072 A 
ATOM     10  C   UNL A   1      32.683  26.040  25.984  1.00  0.00     0.043 A 
ATOM     11  N   UNL A   1      31.718  25.594  23.840  1.00  0.00    -0.248 NA
ATOM     12  C   UNL A   1      31.184  26.824  23.833  1.00  0.00     0.072 A 
ATOM     13  C   UNL A   1      31.445  27.772  24.835  1.00  0.00     0.013 A 
ATOM     14  C   UNL A   1      30.317  27.167  22.805  1.00  0.00     0.029 A 
ATOM     15  C   UNL A   1      31.045  29.106  24.611  1.00  0.00     0.014 A 
ATOM     16  C   UNL A   1      29.733  28.434  22.727  1.00  0.00     0.005 A 
ATOM     17  C   UNL A   1      30.116  29.427  23.622  1.00  0.00    -0.050 A 
ATOM     18  C   UNL A   1      29.441  30.767  23.645  1.00  0.00     0.044 C 
BRANCH   9  19
ATOM     19  C   UNL A   1      33.284  23.985  24.651  1.00  0.00     0.003 A 
ATOM     20  C   UNL A   1      36.679  22.863  23.251  1.00  0.00     0.044 C 
ATOM     21  C   UNL A   1      35.315  22.832  23.876  1.00  0.00    -0.050 A 
ATOM     22  C   UNL A   1      34.770  21.607  24.267  1.00  0.00     0.004 A 
ATOM     23  C   UNL A   1      34.571  24.008  24.073  1.00  0.00     0.014 A 
ATOM     24  C   UNL A   1      33.502  21.558  24.839  1.00  0.00     0.004 A 
ATOM     25  C   UNL A   1      32.748  22.730  25.031  1.00  0.00    -0.042 A 
ATOM     26  C   UNL A   1      31.381  22.566  25.649  1.00  0.00     0.045 C 
ENDBRANCH   9  19
ENDBRANCH   5   8
ENDBRANCH   3   4
ENDBRANCH   2   3
ENDBRANCH   1   2
BRANCH   1  27
ATOM     27  C   UNL A   1      35.130  32.792  28.399  1.00  0.00     0.116 C 
BRANCH  27  28
ATOM     28  N   UNL A   1      34.776  32.993  29.809  1.00  0.00    -0.352 N 
ATOM     29  C   UNL A   1      35.133  32.243  30.931  1.00  0.00     0.251 C 
ATOM     30  H   UNL A   1      34.203  33.772  29.991  1.00  0.00     0.163 HD
ATOM     31  O   UNL A   1      34.421  32.260  31.924  1.00  0.00    -0.269 OA
BRANCH  29  32
ATOM     32  C   UNL A   1      36.382  31.443  30.923  1.00  0.00     0.039 A 
ATOM     33  C   UNL A   1      36.408  30.048  30.816  1.00  0.00     0.014 A 
ATOM     34  C   UNL A   1      37.576  32.131  31.045  1.00  0.00     0.014 A 
ATOM     35  C   UNL A   1      37.649  29.397  30.774  1.00  0.00     0.010 A 
ATOM     36  C   UNL A   1      38.763  31.539  30.745  1.00  0.00     0.010 A 
ATOM     37  C   UNL A   1      38.824  30.162  30.731  1.00  0.00    -0.014 A 
BRANCH  37  38
ATOM     38  C   UNL A   1      40.156  29.594  30.598  1.00  0.00     0.031 A 
ATOM     39  C   UNL A   1      40.834  29.338  31.884  1.00  0.00     0.074 A 
ATOM     40  C   UNL A   1      40.629  29.050  29.455  1.00  0.00     0.049 A 
ATOM     41  N   UNL A   1      41.745  30.061  32.440  1.00  0.00    -0.248 NA
ATOM     42  C   UNL A   1      40.317  28.255  32.735  1.00  0.00     0.031 C 
ATOM     43  C   UNL A   1      39.929  28.843  28.178  1.00  0.00     0.029 A 
ATOM     44  N   UNL A   1      41.828  28.448  29.235  1.00  0.00    -0.354 N 
ATOM     45  C   UNL A   1      42.108  29.372  33.588  1.00  0.00     0.074 A 
ATOM     46  C   UNL A   1      41.038  28.439  33.843  1.00  0.00     0.031 C 
ATOM     47  C   UNL A   1      40.632  27.981  27.409  1.00  0.00     0.029 A 
ATOM     48  C   UNL A   1      41.906  27.718  28.054  1.00  0.00     0.049 A 
ATOM     49  H   UNL A   1      42.583  28.522  29.864  1.00  0.00     0.167 HD
ATOM     50  C   UNL A   1      43.385  29.412  34.061  1.00  0.00     0.031 A 
ATOM     51  C   UNL A   1      42.940  26.940  27.651  1.00  0.00     0.031 A 
ATOM     52  C   UNL A   1      44.174  30.397  33.355  1.00  0.00     0.049 A 
ATOM     53  C   UNL A   1      44.132  27.381  28.419  1.00  0.00     0.074 A 
ATOM     54  C   UNL A   1      44.063  31.755  33.124  1.00  0.00     0.029 A 
ATOM     55  N   UNL A   1      45.047  29.918  32.403  1.00  0.00    -0.354 N 
ATOM     56  N   UNL A   1      44.692  28.550  28.277  1.00  0.00    -0.248 NA
ATOM     57  C   UNL A   1      44.458  26.682  29.652  1.00  0.00     0.031 C 
ATOM     58  C   UNL A   1      44.507  31.941  31.782  1.00  0.00     0.029 A 
ATOM     59  C   UNL A   1      44.940  30.707  31.287  1.00  0.00     0.049 A 
ATOM     60  H   UNL A   1      45.643  29.141  32.505  1.00  0.00     0.167 HD
ATOM     61  C   UNL A   1      45.074  28.919  29.558  1.00  0.00     0.074 A 
ATOM     62  C   UNL A   1      45.015  27.685  30.337  1.00  0.00     0.031 C 
ATOM     63  C   UNL A   1      45.127  30.234  29.928  1.00  0.00     0.031 A 
BRANCH  50  64
ATOM     64  C   UNL A   1      44.037  28.298  34.846  1.00  0.00    -0.014 A 
ATOM     65  C   UNL A   1      44.592  27.214  34.135  1.00  0.00     0.010 A 
ATOM     66  C   UNL A   1      43.910  28.146  36.241  1.00  0.00     0.010 A 
ATOM     67  C   UNL A   1      44.929  26.017  34.779  1.00  0.00     0.020 A 
ATOM     68  C   UNL A   1      44.288  26.975  36.901  1.00  0.00     0.020 A 
ATOM     69  C   UNL A   1      44.762  25.904  36.159  1.00  0.00     0.054 A 
BRANCH  69  70
ATOM     70  S   UNL A   1      45.115  24.327  36.969  1.00  0.00     0.124 S 
ATOM     71  O   UNL A   1      44.597  24.562  38.313  1.00  0.00    -0.237 OA
ATOM     72  O   UNL A   1      44.358  23.384  36.152  1.00  0.00    -0.237 OA
ATOM     73  O   UNL A   1      46.568  24.209  36.866  1.00  0.00    -0.744 OA
ENDBRANCH  69  70
ENDBRANCH  50  64
BRANCH  51  74
ATOM     74  C   UNL A   1      42.935  25.704  26.830  1.00  0.00    -0.014 A 
ATOM     75  C   UNL A   1      43.613  25.666  25.596  1.00  0.00     0.010 A 
ATOM     76  C   UNL A   1      42.520  24.477  27.385  1.00  0.00     0.010 A 
ATOM     77  C   UNL A   1      43.946  24.444  24.988  1.00  0.00     0.020 A 
ATOM     78  C   UNL A   1      42.838  23.254  26.778  1.00  0.00     0.020 A 
ATOM     79  C   UNL A   1      43.578  23.243  25.598  1.00  0.00     0.054 A 
BRANCH  79  80
ATOM     80  S   UNL A   1      44.199  21.675  24.919  1.00  0.00     0.124 S 
ATOM     81  O   UNL A   1      45.451  21.492  25.649  1.00  0.00    -0.237 OA
ATOM     82  O   UNL A   1      43.131  20.737  25.256  1.00  0.00    -0.237 OA
ATOM     83  O   UNL A   1      44.347  21.950  23.491  1.00  0.00    -0.744 OA
ENDBRANCH  79  80
ENDBRANCH  51  74
BRANCH  63  84
ATOM     84  C   UNL A   1      45.152  31.293  28.848  1.00  0.00    -0.014 A 
ATOM     85  C   UNL A   1      46.325  31.793  28.248  1.00  0.00     0.010 A 
ATOM     86  C   UNL A   1      43.910  31.697  28.323  1.00  0.00     0.010 A 
ATOM     87  C   UNL A   1      46.251  32.689  27.170  1.00  0.00     0.020 A 
ATOM     88  C   UNL A   1      43.831  32.571  27.238  1.00  0.00     0.020 A 
ATOM     89  C   UNL A   1      45.002  33.073  26.671  1.00  0.00     0.054 A 
BRANCH  89  90
ATOM     90  S   UNL A   1      44.910  34.190  25.244  1.00  0.00     0.124 S 
ATOM     91  O   UNL A   1      43.991  35.225  25.709  1.00  0.00    -0.237 OA
ATOM     92  O   UNL A   1      46.297  34.612  25.070  1.00  0.00    -0.237 OA
ATOM     93  O   UNL A   1      44.392  33.343  24.170  1.00  0.00    -0.744 OA
ENDBRANCH  89  90
ENDBRANCH  63  84
ENDBRANCH  37  38
ENDBRANCH  29  32
ENDBRANCH  27  28
ENDBRANCH   1  27
TORSDOF 15
ENDMDL
MODEL 3
REMARK VINA RESULT:     -13.3      2.491      9.270
REMARK SMILES Cc1ccc(C)c(-c2cc(C(=O)NCCCCNC(=O)c3ccc(-c4c5nc(c(-c6ccc(S(=O)(=O)[O-])cc6)c6ccc([nH]6)c(-c6ccc(S(=O)(=O)[O-])cc6)c6nc(c(-c7ccc(S(=O)(=O)[O-])cc7)c7ccc4[nH]7)C=C6)C=C5)cc3)c3cc(C)ccc3n2)c1
REMARK SMILES IDX 16 1 15 2 14 3 13 4 11 5 12 6 10 8 8 9 9 10 88 11 87 12
REMARK SMILES IDX 81 13 86 14 82 15 85 16 83 17 84 18 7 19 1 20 2 21 3 22
REMARK SMILES IDX 89 23 4 24 5 25 6 26 17 27 18 28 19 29 20 31 21 32 22 33
REMARK SMILES IDX 80 34 23 35 79 36 24 37 25 38 26 39 73 40 27 41 78 42 72 43
REMARK SMILES IDX 74 44 28 45 77 46 71 47 70 48 29 50 59 51 40 52 58 53 41 54
REMARK SMILES IDX 44 55 57 56 75 57 42 58 43 59 56 61 76 62 45 63 30 64 31 65
REMARK SMILES IDX 39 66 32 67 38 68 33 69 34 70 35 71 36 72 37 73 60 74 61 75
REMARK SMILES IDX 69 76 62 77 68 78 63 79 64 80 65 81 66 82 67 83 46 84 47 85
REMARK SMILES IDX 55 86 48 87 54 88 49 89 50 90 51 91 52 92 53 93
REMARK H PARENT 13 7 18 30 74 49 44 60
REMARK Flexibility Score: inf
ROOT
ATOM      1  C   UNL A   1      40.062  21.864  26.603  1.00  0.00     0.023 C 
ENDROOT
BRANCH   1   2
ATOM      2  C   UNL A   1      39.212  23.141  26.626  1.00  0.00     0.023 C 
BRANCH   2   3
ATOM      3  C   UNL A   1      37.818  23.185  26.008  1.00  0.00     0.116 C 
BRANCH   3   4
ATOM      4  N   UNL A   1      37.664  23.016  24.572  1.00  0.00    -0.352 N 
ATOM      5  C   UNL A   1      36.537  23.130  23.762  1.00  0.00     0.252 C 
ATOM      6  O   UNL A   1      36.702  23.016  22.546  1.00  0.00    -0.269 OA
ATOM      7  H   UNL A   1      38.493  22.783  24.094  1.00  0.00     0.163 HD
BRANCH   5   8
ATOM      8  C   UNL A   1      35.131  23.271  24.276  1.00  0.00     0.051 A 
ATOM      9  C   UNL A   1      33.295  24.772  24.688  1.00  0.00     0.072 A 
ATOM     10  C   UNL A   1      34.640  24.582  24.400  1.00  0.00     0.043 A 
ATOM     11  N   UNL A   1      32.422  23.737  24.717  1.00  0.00    -0.248 NA
ATOM     12  C   UNL A   1      32.899  22.486  24.661  1.00  0.00     0.072 A 
ATOM     13  C   UNL A   1      34.271  22.197  24.581  1.00  0.00     0.013 A 
ATOM     14  C   UNL A   1      31.998  21.430  24.661  1.00  0.00     0.029 A 
ATOM     15  C   UNL A   1      34.685  20.865  24.782  1.00  0.00     0.014 A 
ATOM     16  C   UNL A   1      32.424  20.099  24.617  1.00  0.00     0.005 A 
ATOM     17  C   UNL A   1      33.780  19.805  24.704  1.00  0.00    -0.050 A 
ATOM     18  C   UNL A   1      34.291  18.403  24.556  1.00  0.00     0.044 C 
BRANCH   9  19
ATOM     19  C   UNL A   1      32.713  26.089  25.015  1.00  0.00     0.003 A 
ATOM     20  C   UNL A   1      33.355  28.968  27.472  1.00  0.00     0.044 C 
ATOM     21  C   UNL A   1      32.758  28.141  26.372  1.00  0.00    -0.050 A 
ATOM     22  C   UNL A   1      31.662  28.635  25.661  1.00  0.00     0.004 A 
ATOM     23  C   UNL A   1      33.274  26.876  26.042  1.00  0.00     0.014 A 
ATOM     24  C   UNL A   1      31.089  27.877  24.644  1.00  0.00     0.004 A 
ATOM     25  C   UNL A   1      31.595  26.606  24.315  1.00  0.00    -0.042 A 
ATOM     26  C   UNL A   1      30.895  25.863  23.204  1.00  0.00     0.045 C 
ENDBRANCH   9  19
ENDBRANCH   5   8
ENDBRANCH   3   4
ENDBRANCH   2   3
ENDBRANCH   1   2
BRANCH   1  27
ATOM     27  C   UNL A   1      41.482  21.864  27.170  1.00  0.00     0.116 C 
BRANCH  27  28
ATOM     28  N   UNL A   1      42.562  22.028  26.189  1.00  0.00    -0.352 N 
ATOM     29  C   UNL A   1      42.948  23.163  25.475  1.00  0.00     0.251 C 
ATOM     30  H   UNL A   1      43.092  21.219  26.009  1.00  0.00     0.163 HD
ATOM     31  O   UNL A   1      43.532  23.039  24.409  1.00  0.00    -0.269 OA
BRANCH  29  32
ATOM     32  C   UNL A   1      42.666  24.515  26.016  1.00  0.00     0.039 A 
ATOM     33  C   UNL A   1      41.739  25.398  25.453  1.00  0.00     0.014 A 
ATOM     34  C   UNL A   1      43.380  24.911  27.133  1.00  0.00     0.014 A 
ATOM     35  C   UNL A   1      41.518  26.635  26.075  1.00  0.00     0.010 A 
ATOM     36  C   UNL A   1      42.988  25.980  27.877  1.00  0.00     0.010 A 
ATOM     37  C   UNL A   1      42.149  26.909  27.298  1.00  0.00    -0.014 A 
BRANCH  37  38
ATOM     38  C   UNL A   1      41.925  28.120  28.071  1.00  0.00     0.031 A 
ATOM     39  C   UNL A   1      42.957  29.158  27.879  1.00  0.00     0.074 A 
ATOM     40  C   UNL A   1      40.750  28.425  28.664  1.00  0.00     0.049 A 
ATOM     41  N   UNL A   1      43.936  29.436  28.670  1.00  0.00    -0.248 NA
ATOM     42  C   UNL A   1      43.014  29.844  26.579  1.00  0.00     0.031 C 
ATOM     43  C   UNL A   1      39.475  27.693  28.606  1.00  0.00     0.029 A 
ATOM     44  N   UNL A   1      40.416  29.544  29.359  1.00  0.00    -0.354 N 
ATOM     45  C   UNL A   1      44.576  30.521  28.090  1.00  0.00     0.074 A 
ATOM     46  C   UNL A   1      44.138  30.550  26.716  1.00  0.00     0.031 C 
ATOM     47  C   UNL A   1      38.474  28.488  29.048  1.00  0.00     0.029 A 
ATOM     48  C   UNL A   1      39.053  29.707  29.582  1.00  0.00     0.049 A 
ATOM     49  H   UNL A   1      41.087  30.190  29.680  1.00  0.00     0.167 HD
ATOM     50  C   UNL A   1      45.174  31.479  28.854  1.00  0.00     0.031 A 
ATOM     51  C   UNL A   1      38.449  30.780  30.149  1.00  0.00     0.031 A 
ATOM     52  C   UNL A   1      45.225  31.084  30.244  1.00  0.00     0.049 A 
ATOM     53  C   UNL A   1      39.494  31.504  30.916  1.00  0.00     0.074 A 
ATOM     54  C   UNL A   1      45.741  30.005  30.934  1.00  0.00     0.029 A 
ATOM     55  N   UNL A   1      44.299  31.666  31.082  1.00  0.00    -0.354 N 
ATOM     56  N   UNL A   1      40.080  31.019  31.975  1.00  0.00    -0.248 NA
ATOM     57  C   UNL A   1      40.195  32.600  30.266  1.00  0.00     0.031 C 
ATOM     58  C   UNL A   1      44.785  29.724  31.955  1.00  0.00     0.029 A 
ATOM     59  C   UNL A   1      43.776  30.689  31.888  1.00  0.00     0.049 A 
ATOM     60  H   UNL A   1      44.055  32.620  31.098  1.00  0.00     0.167 HD
ATOM     61  C   UNL A   1      41.399  31.435  31.873  1.00  0.00     0.074 A 
ATOM     62  C   UNL A   1      41.382  32.499  30.873  1.00  0.00     0.031 C 
ATOM     63  C   UNL A   1      42.417  30.689  32.398  1.00  0.00     0.031 A 
BRANCH  50  64
ATOM     64  C   UNL A   1      45.326  32.924  28.441  1.00  0.00    -0.014 A 
ATOM     65  C   UNL A   1      46.514  33.313  27.790  1.00  0.00     0.010 A 
ATOM     66  C   UNL A   1      44.474  33.956  28.880  1.00  0.00     0.010 A 
ATOM     67  C   UNL A   1      46.863  34.663  27.655  1.00  0.00     0.020 A 
ATOM     68  C   UNL A   1      44.788  35.306  28.708  1.00  0.00     0.020 A 
ATOM     69  C   UNL A   1      46.000  35.650  28.128  1.00  0.00     0.054 A 
BRANCH  69  70
ATOM     70  S   UNL A   1      46.497  37.385  28.032  1.00  0.00     0.124 S 
ATOM     71  O   UNL A   1      47.480  37.473  29.107  1.00  0.00    -0.237 OA
ATOM     72  O   UNL A   1      47.026  37.479  26.675  1.00  0.00    -0.237 OA
ATOM     73  O   UNL A   1      45.248  38.110  28.261  1.00  0.00    -0.744 OA
ENDBRANCH  69  70
ENDBRANCH  50  64
BRANCH  51  74
ATOM     74  C   UNL A   1      37.104  31.355  29.900  1.00  0.00    -0.014 A 
ATOM     75  C   UNL A   1      36.393  31.983  30.941  1.00  0.00     0.010 A 
ATOM     76  C   UNL A   1      36.642  31.552  28.583  1.00  0.00     0.010 A 
ATOM     77  C   UNL A   1      35.320  32.848  30.670  1.00  0.00     0.020 A 
ATOM     78  C   UNL A   1      35.565  32.405  28.304  1.00  0.00     0.020 A 
ATOM     79  C   UNL A   1      34.930  33.075  29.348  1.00  0.00     0.054 A 
BRANCH  79  80
ATOM     80  S   UNL A   1      33.690  34.357  28.995  1.00  0.00     0.124 S 
ATOM     81  O   UNL A   1      32.744  33.649  28.137  1.00  0.00    -0.237 OA
ATOM     82  O   UNL A   1      33.198  34.700  30.327  1.00  0.00    -0.237 OA
ATOM     83  O   UNL A   1      34.459  35.410  28.335  1.00  0.00    -0.744 OA
ENDBRANCH  79  80
ENDBRANCH  51  74
BRANCH  63  84
ATOM     84  C   UNL A   1      42.087  29.625  33.421  1.00  0.00    -0.014 A 
ATOM     85  C   UNL A   1      41.739  28.296  33.107  1.00  0.00     0.010 A 
ATOM     86  C   UNL A   1      42.276  29.962  34.775  1.00  0.00     0.010 A 
ATOM     87  C   UNL A   1      41.563  27.343  34.123  1.00  0.00     0.020 A 
ATOM     88  C   UNL A   1      42.124  29.013  35.787  1.00  0.00     0.020 A 
ATOM     89  C   UNL A   1      41.758  27.709  35.458  1.00  0.00     0.054 A 
BRANCH  89  90
ATOM     90  S   UNL A   1      41.582  26.462  36.765  1.00  0.00     0.124 S 
ATOM     91  O   UNL A   1      41.441  25.223  36.005  1.00  0.00    -0.237 OA
ATOM     92  O   UNL A   1      42.826  26.601  37.518  1.00  0.00    -0.237 OA
ATOM     93  O   UNL A   1      40.382  26.881  37.489  1.00  0.00    -0.744 OA
ENDBRANCH  89  90
ENDBRANCH  63  84
ENDBRANCH  37  38
ENDBRANCH  29  32
ENDBRANCH  27  28
ENDBRANCH   1  27
TORSDOF 15
ENDMDL
