MODEL 1
REMARK VINA RESULT:     -12.1      0.000      0.000
REMARK SMILES Cc1nn(-c2cccc(C(=O)NCCCCNC(=O)c3ccc(-c4c5nc(c(-c6ccc(S(=O)(=O)[O-])cc6)c6ccc([nH]6)c(-c6ccc(S(=O)(=O)[O-])cc6)c6nc(c(-c7ccc(S(=O)(=O)[O-])cc7)c7ccc4[nH]7)C=C6)C=C5)cc3)c2)c(C)c1Cl
REMARK SMILES IDX 15 1 14 2 13 3 12 4 10 5 11 6 9 8 5 9 6 10 80 11 7 12 8 13
REMARK SMILES IDX 4 14 1 15 2 16 3 17 83 18 81 19 84 20 82 21 16 22 17 23
REMARK SMILES IDX 18 24 19 26 20 27 21 28 79 29 22 30 78 31 23 32 24 33 25 34
REMARK SMILES IDX 72 35 26 36 77 37 71 38 73 39 27 40 76 41 70 42 69 43 28 45
REMARK SMILES IDX 58 46 39 47 57 48 40 49 43 50 56 51 74 52 41 53 42 54 55 56
REMARK SMILES IDX 75 57 44 58 29 59 30 60 38 61 31 62 37 63 32 64 33 65 34 66
REMARK SMILES IDX 35 67 36 68 59 69 60 70 68 71 61 72 67 73 62 74 63 75 64 76
REMARK SMILES IDX 65 77 66 78 45 79 46 80 54 81 47 82 53 83 48 84 49 85 50 86
REMARK SMILES IDX 51 87 52 88
REMARK H PARENT 12 7 17 25 73 44 43 55
REMARK Flexibility Score: inf
ROOT
ATOM      1  C   UNL A   1      39.624  21.683  26.054  1.00  0.00     0.023 C 
ENDROOT
BRANCH   1   2
ATOM      2  C   UNL A   1      39.116  23.034  26.561  1.00  0.00     0.023 C 
BRANCH   2   3
ATOM      3  C   UNL A   1      37.771  23.520  26.025  1.00  0.00     0.116 C 
BRANCH   3   4
ATOM      4  N   UNL A   1      37.600  23.386  24.581  1.00  0.00    -0.352 N 
ATOM      5  C   UNL A   1      36.512  23.222  23.747  1.00  0.00     0.251 C 
ATOM      6  O   UNL A   1      36.735  23.094  22.543  1.00  0.00    -0.269 OA
ATOM      7  H   UNL A   1      38.454  23.420  24.093  1.00  0.00     0.163 HD
BRANCH   5   8
ATOM      8  C   UNL A   1      35.098  23.126  24.216  1.00  0.00     0.041 A 
ATOM      9  C   UNL A   1      33.009  24.154  24.920  1.00  0.00     0.066 A 
ATOM     10  C   UNL A   1      32.574  22.938  25.453  1.00  0.00     0.028 A 
ATOM     11  C   UNL A   1      34.231  24.214  24.238  1.00  0.00     0.042 A 
ATOM     12  C   UNL A   1      33.346  21.791  25.254  1.00  0.00     0.003 A 
ATOM     13  C   UNL A   1      34.611  21.888  24.659  1.00  0.00     0.014 A 
BRANCH   9  14
ATOM     14  N   UNL A   1      32.292  25.358  25.169  1.00  0.00    -0.236 N 
ATOM     15  C   UNL A   1      32.032  28.190  27.311  1.00  0.00     0.070 C 
ATOM     16  C   UNL A   1      31.953  27.189  26.218  1.00  0.00     0.079 A 
ATOM     17  N   UNL A   1      32.333  25.918  26.412  1.00  0.00    -0.171 NA
ATOM     18  C   UNL A   1      31.499  27.397  24.901  1.00  0.00     0.085 A 
ATOM     19  C   UNL A   1      31.659  26.191  24.257  1.00  0.00     0.060 A 
ATOM     20  Cl  UNL A   1      30.866  28.838  24.269  1.00  0.00    -0.080 Cl
ATOM     21  C   UNL A   1      31.236  25.788  22.890  1.00  0.00     0.068 C 
ENDBRANCH   9  14
ENDBRANCH   5   8
ENDBRANCH   3   4
ENDBRANCH   2   3
ENDBRANCH   1   2
BRANCH   1  22
ATOM     22  C   UNL A   1      40.496  20.894  27.029  1.00  0.00     0.116 C 
BRANCH  22  23
ATOM     23  N   UNL A   1      41.702  20.339  26.423  1.00  0.00    -0.352 N 
ATOM     24  C   UNL A   1      42.794  21.042  25.938  1.00  0.00     0.251 C 
ATOM     25  H   UNL A   1      41.745  19.358  26.351  1.00  0.00     0.163 HD
ATOM     26  O   UNL A   1      43.546  20.543  25.119  1.00  0.00    -0.269 OA
BRANCH  24  27
ATOM     27  C   UNL A   1      43.026  22.413  26.437  1.00  0.00     0.039 A 
ATOM     28  C   UNL A   1      42.731  23.519  25.639  1.00  0.00     0.014 A 
ATOM     29  C   UNL A   1      43.502  22.578  27.738  1.00  0.00     0.014 A 
ATOM     30  C   UNL A   1      42.815  24.792  26.199  1.00  0.00     0.010 A 
ATOM     31  C   UNL A   1      43.496  23.830  28.321  1.00  0.00     0.010 A 
ATOM     32  C   UNL A   1      43.157  24.944  27.557  1.00  0.00    -0.014 A 
BRANCH  32  33
ATOM     33  C   UNL A   1      42.918  26.233  28.220  1.00  0.00     0.031 A 
ATOM     34  C   UNL A   1      44.009  27.215  27.975  1.00  0.00     0.074 A 
ATOM     35  C   UNL A   1      41.754  26.617  28.792  1.00  0.00     0.049 A 
ATOM     36  N   UNL A   1      44.915  27.609  28.809  1.00  0.00    -0.248 NA
ATOM     37  C   UNL A   1      44.241  27.674  26.591  1.00  0.00     0.031 C 
ATOM     38  C   UNL A   1      40.493  25.867  28.798  1.00  0.00     0.029 A 
ATOM     39  N   UNL A   1      41.398  27.801  29.380  1.00  0.00    -0.354 N 
ATOM     40  C   UNL A   1      45.620  28.602  28.136  1.00  0.00     0.074 A 
ATOM     41  C   UNL A   1      45.344  28.411  26.735  1.00  0.00     0.031 C 
ATOM     42  C   UNL A   1      39.473  26.694  29.116  1.00  0.00     0.029 A 
ATOM     43  C   UNL A   1      40.021  27.979  29.511  1.00  0.00     0.049 A 
ATOM     44  H   UNL A   1      42.056  28.468  29.682  1.00  0.00     0.167 HD
ATOM     45  C   UNL A   1      46.020  29.724  28.797  1.00  0.00     0.031 A 
ATOM     46  C   UNL A   1      39.357  29.095  29.908  1.00  0.00     0.031 A 
ATOM     47  C   UNL A   1      45.910  29.552  30.223  1.00  0.00     0.049 A 
ATOM     48  C   UNL A   1      40.294  29.912  30.707  1.00  0.00     0.074 A 
ATOM     49  C   UNL A   1      46.554  28.864  31.225  1.00  0.00     0.029 A 
ATOM     50  N   UNL A   1      44.681  29.917  30.702  1.00  0.00    -0.354 N 
ATOM     51  N   UNL A   1      40.772  29.522  31.857  1.00  0.00    -0.248 NA
ATOM     52  C   UNL A   1      40.982  31.039  30.089  1.00  0.00     0.031 C 
ATOM     53  C   UNL A   1      45.606  28.721  32.284  1.00  0.00     0.029 A 
ATOM     54  C   UNL A   1      44.427  29.369  31.926  1.00  0.00     0.049 A 
ATOM     55  H   UNL A   1      44.055  30.506  30.221  1.00  0.00     0.167 HD
ATOM     56  C   UNL A   1      42.049  30.042  31.883  1.00  0.00     0.074 A 
ATOM     57  C   UNL A   1      42.058  31.098  30.878  1.00  0.00     0.031 C 
ATOM     58  C   UNL A   1      43.076  29.346  32.449  1.00  0.00     0.031 A 
BRANCH  45  59
ATOM     59  C   UNL A   1      45.923  31.122  28.203  1.00  0.00    -0.014 A 
ATOM     60  C   UNL A   1      44.642  31.684  28.012  1.00  0.00     0.010 A 
ATOM     61  C   UNL A   1      46.996  31.757  27.542  1.00  0.00     0.010 A 
ATOM     62  C   UNL A   1      44.445  32.790  27.170  1.00  0.00     0.020 A 
ATOM     63  C   UNL A   1      46.816  32.880  26.731  1.00  0.00     0.020 A 
ATOM     64  C   UNL A   1      45.537  33.377  26.532  1.00  0.00     0.054 A 
BRANCH  64  65
ATOM     65  S   UNL A   1      45.272  34.769  25.406  1.00  0.00     0.124 S 
ATOM     66  O   UNL A   1      44.208  34.261  24.546  1.00  0.00    -0.237 OA
ATOM     67  O   UNL A   1      44.892  35.837  26.326  1.00  0.00    -0.237 OA
ATOM     68  O   UNL A   1      46.574  34.939  24.765  1.00  0.00    -0.744 OA
ENDBRANCH  64  65
ENDBRANCH  45  59
BRANCH  46  69
ATOM     69  C   UNL A   1      38.025  29.605  29.487  1.00  0.00    -0.014 A 
ATOM     70  C   UNL A   1      37.112  30.115  30.433  1.00  0.00     0.010 A 
ATOM     71  C   UNL A   1      37.770  29.869  28.127  1.00  0.00     0.010 A 
ATOM     72  C   UNL A   1      36.037  30.932  30.038  1.00  0.00     0.020 A 
ATOM     73  C   UNL A   1      36.695  30.674  27.725  1.00  0.00     0.020 A 
ATOM     74  C   UNL A   1      35.852  31.228  28.686  1.00  0.00     0.054 A 
BRANCH  74  75
ATOM     75  S   UNL A   1      34.591  32.446  28.201  1.00  0.00     0.124 S 
ATOM     76  O   UNL A   1      34.040  32.856  29.489  1.00  0.00    -0.237 OA
ATOM     77  O   UNL A   1      35.378  33.457  27.499  1.00  0.00    -0.237 OA
ATOM     78  O   UNL A   1      33.679  31.679  27.353  1.00  0.00    -0.744 OA
ENDBRANCH  74  75
ENDBRANCH  46  69
BRANCH  58  79
ATOM     79  C   UNL A   1      42.766  28.422  33.590  1.00  0.00    -0.014 A 
ATOM     80  C   UNL A   1      42.996  27.035  33.594  1.00  0.00     0.010 A 
ATOM     81  C   UNL A   1      42.248  29.026  34.749  1.00  0.00     0.010 A 
ATOM     82  C   UNL A   1      42.686  26.269  34.729  1.00  0.00     0.020 A 
ATOM     83  C   UNL A   1      41.956  28.275  35.886  1.00  0.00     0.020 A 
ATOM     84  C   UNL A   1      42.164  26.897  35.867  1.00  0.00     0.054 A 
BRANCH  84  85
ATOM     85  S   UNL A   1      41.770  25.911  37.337  1.00  0.00     0.124 S 
ATOM     86  O   UNL A   1      42.884  26.215  38.231  1.00  0.00    -0.237 OA
ATOM     87  O   UNL A   1      40.471  26.444  37.745  1.00  0.00    -0.237 OA
ATOM     88  O   UNL A   1      41.736  24.537  36.837  1.00  0.00    -0.744 OA
ENDBRANCH  84  85
ENDBRANCH  58  79
ENDBRANCH  32  33
ENDBRANCH  24  27
ENDBRANCH  22  23
ENDBRANCH   1  22
TORSDOF 15
ENDMDL
MODEL 2
REMARK VINA RESULT:     -12.1      2.789      9.339
REMARK SMILES Cc1nn(-c2cccc(C(=O)NCCCCNC(=O)c3ccc(-c4c5nc(c(-c6ccc(S(=O)(=O)[O-])cc6)c6ccc([nH]6)c(-c6ccc(S(=O)(=O)[O-])cc6)c6nc(c(-c7ccc(S(=O)(=O)[O-])cc7)c7ccc4[nH]7)C=C6)C=C5)cc3)c2)c(C)c1Cl
REMARK SMILES IDX 15 1 14 2 13 3 12 4 10 5 11 6 9 8 5 9 6 10 80 11 7 12 8 13
REMARK SMILES IDX 4 14 1 15 2 16 3 17 83 18 81 19 84 20 82 21 16 22 17 23
REMARK SMILES IDX 18 24 19 26 20 27 21 28 79 29 22 30 78 31 23 32 24 33 25 34
REMARK SMILES IDX 72 35 26 36 77 37 71 38 73 39 27 40 76 41 70 42 69 43 28 45
REMARK SMILES IDX 58 46 39 47 57 48 40 49 43 50 56 51 74 52 41 53 42 54 55 56
REMARK SMILES IDX 75 57 44 58 29 59 30 60 38 61 31 62 37 63 32 64 33 65 34 66
REMARK SMILES IDX 35 67 36 68 59 69 60 70 68 71 61 72 67 73 62 74 63 75 64 76
REMARK SMILES IDX 65 77 66 78 45 79 46 80 54 81 47 82 53 83 48 84 49 85 50 86
REMARK SMILES IDX 51 87 52 88
REMARK H PARENT 12 7 17 25 73 44 43 55
REMARK Flexibility Score: inf
ROOT
ATOM      1  C   UNL A   1      34.174  31.817  27.999  1.00  0.00     0.023 C 
ENDROOT
BRANCH   1   2
ATOM      2  C   UNL A   1      35.307  30.791  27.938  1.00  0.00     0.023 C 
BRANCH   2   3
ATOM      3  C   UNL A   1      34.934  29.360  27.560  1.00  0.00     0.116 C 
BRANCH   3   4
ATOM      4  N   UNL A   1      33.554  28.987  27.855  1.00  0.00    -0.352 N 
ATOM      5  C   UNL A   1      32.645  28.115  27.287  1.00  0.00     0.251 C 
ATOM      6  O   UNL A   1      31.515  28.079  27.773  1.00  0.00    -0.269 OA
ATOM      7  H   UNL A   1      33.188  29.466  28.633  1.00  0.00     0.163 HD
BRANCH   5   8
ATOM      8  C   UNL A   1      32.925  27.269  26.090  1.00  0.00     0.041 A 
ATOM      9  C   UNL A   1      33.478  25.131  25.070  1.00  0.00     0.066 A 
ATOM     10  C   UNL A   1      33.818  25.772  23.876  1.00  0.00     0.028 A 
ATOM     11  C   UNL A   1      32.960  25.879  26.136  1.00  0.00     0.042 A 
ATOM     12  C   UNL A   1      33.589  27.145  23.750  1.00  0.00     0.003 A 
ATOM     13  C   UNL A   1      33.167  27.892  24.857  1.00  0.00     0.014 A 
BRANCH   9  14
ATOM     14  N   UNL A   1      33.768  23.751  25.266  1.00  0.00    -0.236 N 
ATOM     15  C   UNL A   1      32.632  20.433  24.655  1.00  0.00     0.070 C 
ATOM     16  C   UNL A   1      33.389  21.667  24.978  1.00  0.00     0.079 A 
ATOM     17  N   UNL A   1      32.761  22.835  25.176  1.00  0.00    -0.171 NA
ATOM     18  C   UNL A   1      34.784  21.801  25.120  1.00  0.00     0.085 A 
ATOM     19  C   UNL A   1      35.007  23.136  25.373  1.00  0.00     0.060 A 
ATOM     20  Cl  UNL A   1      35.931  20.556  25.021  1.00  0.00    -0.080 Cl
ATOM     21  C   UNL A   1      36.273  23.830  25.728  1.00  0.00     0.068 C 
ENDBRANCH   9  14
ENDBRANCH   5   8
ENDBRANCH   3   4
ENDBRANCH   2   3
ENDBRANCH   1   2
BRANCH   1  22
ATOM     22  C   UNL A   1      34.603  33.283  27.992  1.00  0.00     0.116 C 
BRANCH  22  23
ATOM     23  N   UNL A   1      34.063  34.060  29.103  1.00  0.00    -0.352 N 
ATOM     24  C   UNL A   1      34.329  33.885  30.452  1.00  0.00     0.251 C 
ATOM     25  H   UNL A   1      33.444  34.788  28.869  1.00  0.00     0.163 HD
ATOM     26  O   UNL A   1      33.557  34.299  31.300  1.00  0.00    -0.269 OA
BRANCH  24  27
ATOM     27  C   UNL A   1      35.570  33.183  30.840  1.00  0.00     0.039 A 
ATOM     28  C   UNL A   1      35.520  31.903  31.391  1.00  0.00     0.014 A 
ATOM     29  C   UNL A   1      36.794  33.811  30.600  1.00  0.00     0.014 A 
ATOM     30  C   UNL A   1      36.713  31.214  31.598  1.00  0.00     0.010 A 
ATOM     31  C   UNL A   1      37.968  33.095  30.717  1.00  0.00     0.010 A 
ATOM     32  C   UNL A   1      37.938  31.797  31.220  1.00  0.00    -0.014 A 
BRANCH  32  33
ATOM     33  C   UNL A   1      39.138  30.954  31.124  1.00  0.00     0.031 A 
ATOM     34  C   UNL A   1      39.760  30.690  32.450  1.00  0.00     0.074 A 
ATOM     35  C   UNL A   1      39.532  30.273  30.024  1.00  0.00     0.049 A 
ATOM     36  N   UNL A   1      40.855  31.192  32.920  1.00  0.00    -0.248 NA
ATOM     37  C   UNL A   1      38.985  29.926  33.448  1.00  0.00     0.031 C 
ATOM     38  C   UNL A   1      38.813  30.179  28.748  1.00  0.00     0.029 A 
ATOM     39  N   UNL A   1      40.585  29.418  29.835  1.00  0.00    -0.354 N 
ATOM     40  C   UNL A   1      41.055  30.551  34.137  1.00  0.00     0.074 A 
ATOM     41  C   UNL A   1      39.777  30.006  34.519  1.00  0.00     0.031 C 
ATOM     42  C   UNL A   1      39.294  29.140  28.030  1.00  0.00     0.029 A 
ATOM     43  C   UNL A   1      40.465  28.610  28.705  1.00  0.00     0.049 A 
ATOM     44  H   UNL A   1      41.358  29.377  30.443  1.00  0.00     0.167 HD
ATOM     45  C   UNL A   1      42.308  30.169  34.511  1.00  0.00     0.031 A 
ATOM     46  C   UNL A   1      41.256  27.570  28.333  1.00  0.00     0.031 A 
ATOM     47  C   UNL A   1      43.309  30.795  33.685  1.00  0.00     0.049 A 
ATOM     48  C   UNL A   1      42.571  27.756  28.981  1.00  0.00     0.074 A 
ATOM     49  C   UNL A   1      43.858  32.044  33.511  1.00  0.00     0.029 A 
ATOM     50  N   UNL A   1      43.604  30.058  32.570  1.00  0.00    -0.354 N 
ATOM     51  N   UNL A   1      43.368  28.749  28.697  1.00  0.00    -0.248 NA
ATOM     52  C   UNL A   1      42.887  27.026  30.203  1.00  0.00     0.031 C 
ATOM     53  C   UNL A   1      44.389  32.065  32.184  1.00  0.00     0.029 A 
ATOM     54  C   UNL A   1      44.197  30.815  31.601  1.00  0.00     0.049 A 
ATOM     55  H   UNL A   1      43.413  29.096  32.478  1.00  0.00     0.167 HD
ATOM     56  C   UNL A   1      43.986  29.037  29.896  1.00  0.00     0.074 A 
ATOM     57  C   UNL A   1      43.796  27.853  30.724  1.00  0.00     0.031 C 
ATOM     58  C   UNL A   1      44.278  30.324  30.240  1.00  0.00     0.031 A 
BRANCH  45  59
ATOM     59  C   UNL A   1      42.613  28.830  35.168  1.00  0.00    -0.014 A 
ATOM     60  C   UNL A   1      43.723  28.743  36.035  1.00  0.00     0.010 A 
ATOM     61  C   UNL A   1      42.061  27.609  34.725  1.00  0.00     0.010 A 
ATOM     62  C   UNL A   1      44.275  27.505  36.398  1.00  0.00     0.020 A 
ATOM     63  C   UNL A   1      42.580  26.370  35.110  1.00  0.00     0.020 A 
ATOM     64  C   UNL A   1      43.699  26.326  35.928  1.00  0.00     0.054 A 
BRANCH  64  65
ATOM     65  S   UNL A   1      44.445  24.734  36.355  1.00  0.00     0.124 S 
ATOM     66  O   UNL A   1      45.816  24.909  35.887  1.00  0.00    -0.237 OA
ATOM     67  O   UNL A   1      44.268  24.693  37.804  1.00  0.00    -0.237 OA
ATOM     68  O   UNL A   1      43.641  23.770  35.607  1.00  0.00    -0.744 OA
ENDBRANCH  64  65
ENDBRANCH  45  59
BRANCH  46  69
ATOM     69  C   UNL A   1      40.901  26.321  27.611  1.00  0.00    -0.014 A 
ATOM     70  C   UNL A   1      41.818  25.703  26.736  1.00  0.00     0.010 A 
ATOM     71  C   UNL A   1      39.776  25.572  28.010  1.00  0.00     0.010 A 
ATOM     72  C   UNL A   1      41.661  24.360  26.349  1.00  0.00     0.020 A 
ATOM     73  C   UNL A   1      39.608  24.236  27.620  1.00  0.00     0.020 A 
ATOM     74  C   UNL A   1      40.569  23.627  26.817  1.00  0.00     0.054 A 
BRANCH  74  75
ATOM     75  S   UNL A   1      40.480  21.840  26.484  1.00  0.00     0.124 S 
ATOM     76  O   UNL A   1      41.639  21.624  25.624  1.00  0.00    -0.237 OA
ATOM     77  O   UNL A   1      40.570  21.261  27.822  1.00  0.00    -0.237 OA
ATOM     78  O   UNL A   1      39.183  21.676  25.829  1.00  0.00    -0.744 OA
ENDBRANCH  74  75
ENDBRANCH  46  69
BRANCH  58  79
ATOM     79  C   UNL A   1      44.579  31.304  29.144  1.00  0.00    -0.014 A 
ATOM     80  C   UNL A   1      43.623  32.087  28.472  1.00  0.00     0.010 A 
ATOM     81  C   UNL A   1      45.937  31.462  28.814  1.00  0.00     0.010 A 
ATOM     82  C   UNL A   1      44.022  32.988  27.473  1.00  0.00     0.020 A 
ATOM     83  C   UNL A   1      46.341  32.369  27.837  1.00  0.00     0.020 A 
ATOM     84  C   UNL A   1      45.381  33.120  27.160  1.00  0.00     0.054 A 
BRANCH  84  85
ATOM     85  S   UNL A   1      45.900  34.290  25.876  1.00  0.00     0.124 S 
ATOM     86  O   UNL A   1      45.640  35.583  26.502  1.00  0.00    -0.237 OA
ATOM     87  O   UNL A   1      47.309  33.954  25.683  1.00  0.00    -0.237 OA
ATOM     88  O   UNL A   1      45.035  33.968  24.741  1.00  0.00    -0.744 OA
ENDBRANCH  84  85
ENDBRANCH  58  79
ENDBRANCH  32  33
ENDBRANCH  24  27
ENDBRANCH  22  23
ENDBRANCH   1  22
TORSDOF 15
ENDMDL
MODEL 3
REMARK VINA RESULT:     -12.0      1.487      2.199
REMARK SMILES Cc1nn(-c2cccc(C(=O)NCCCCNC(=O)c3ccc(-c4c5nc(c(-c6ccc(S(=O)(=O)[O-])cc6)c6ccc([nH]6)c(-c6ccc(S(=O)(=O)[O-])cc6)c6nc(c(-c7ccc(S(=O)(=O)[O-])cc7)c7ccc4[nH]7)C=C6)C=C5)cc3)c2)c(C)c1Cl
REMARK SMILES IDX 15 1 14 2 13 3 12 4 10 5 11 6 9 8 5 9 6 10 80 11 7 12 8 13
REMARK SMILES IDX 4 14 1 15 2 16 3 17 83 18 81 19 84 20 82 21 16 22 17 23
REMARK SMILES IDX 18 24 19 26 20 27 21 28 79 29 22 30 78 31 23 32 24 33 25 34
REMARK SMILES IDX 72 35 26 36 77 37 71 38 73 39 27 40 76 41 70 42 69 43 28 45
REMARK SMILES IDX 58 46 39 47 57 48 40 49 43 50 56 51 74 52 41 53 42 54 55 56
REMARK SMILES IDX 75 57 44 58 29 59 30 60 38 61 31 62 37 63 32 64 33 65 34 66
REMARK SMILES IDX 35 67 36 68 59 69 60 70 68 71 61 72 67 73 62 74 63 75 64 76
REMARK SMILES IDX 65 77 66 78 45 79 46 80 54 81 47 82 53 83 48 84 49 85 50 86
REMARK SMILES IDX 51 87 52 88
REMARK H PARENT 12 7 17 25 73 44 43 55
REMARK Flexibility Score: inf
ROOT
ATOM      1  C   UNL A   1      42.313  19.758  26.975  1.00  0.00     0.023 C 
ENDROOT
BRANCH   1   2
ATOM      2  C   UNL A   1      41.195  20.648  27.520  1.00  0.00     0.023 C 
BRANCH   2   3
ATOM      3  C   UNL A   1      40.045  20.985  26.573  1.00  0.00     0.116 C 
BRANCH   3   4
ATOM      4  N   UNL A   1      39.610  22.378  26.606  1.00  0.00    -0.352 N 
ATOM      5  C   UNL A   1      38.450  23.037  26.250  1.00  0.00     0.251 C 
ATOM      6  O   UNL A   1      38.436  24.263  26.370  1.00  0.00    -0.269 OA
ATOM      7  H   UNL A   1      40.300  22.983  26.961  1.00  0.00     0.163 HD
BRANCH   5   8
ATOM      8  C   UNL A   1      37.245  22.371  25.674  1.00  0.00     0.041 A 
ATOM      9  C   UNL A   1      34.850  22.275  25.268  1.00  0.00     0.066 A 
ATOM     10  C   UNL A   1      34.949  20.926  24.916  1.00  0.00     0.028 A 
ATOM     11  C   UNL A   1      36.010  23.001  25.565  1.00  0.00     0.042 A 
ATOM     12  C   UNL A   1      36.212  20.338  24.821  1.00  0.00     0.003 A 
ATOM     13  C   UNL A   1      37.351  21.049  25.220  1.00  0.00     0.014 A 
BRANCH   9  14
ATOM     14  N   UNL A   1      33.579  22.889  25.452  1.00  0.00    -0.236 N 
ATOM     15  C   UNL A   1      30.678  24.111  23.788  1.00  0.00     0.070 C 
ATOM     16  C   UNL A   1      31.697  23.617  24.748  1.00  0.00     0.079 A 
ATOM     17  N   UNL A   1      32.991  23.541  24.408  1.00  0.00    -0.171 NA
ATOM     18  C   UNL A   1      31.485  23.185  26.072  1.00  0.00     0.085 A 
ATOM     19  C   UNL A   1      32.717  22.784  26.535  1.00  0.00     0.060 A 
ATOM     20  Cl  UNL A   1      30.010  23.191  26.909  1.00  0.00    -0.080 Cl
ATOM     21  C   UNL A   1      33.117  22.352  27.900  1.00  0.00     0.068 C 
ENDBRANCH   9  14
ENDBRANCH   5   8
ENDBRANCH   3   4
ENDBRANCH   2   3
ENDBRANCH   1   2
BRANCH   1  22
ATOM     22  C   UNL A   1      42.584  19.876  25.476  1.00  0.00     0.116 C 
BRANCH  22  23
ATOM     23  N   UNL A   1      43.972  20.190  25.151  1.00  0.00    -0.352 N 
ATOM     24  C   UNL A   1      44.581  21.433  25.204  1.00  0.00     0.251 C 
ATOM     25  H   UNL A   1      44.536  19.436  24.865  1.00  0.00     0.163 HD
ATOM     26  O   UNL A   1      45.589  21.663  24.558  1.00  0.00    -0.269 OA
BRANCH  24  27
ATOM     27  C   UNL A   1      43.981  22.476  26.061  1.00  0.00     0.039 A 
ATOM     28  C   UNL A   1      44.391  22.631  27.386  1.00  0.00     0.014 A 
ATOM     29  C   UNL A   1      43.028  23.330  25.504  1.00  0.00     0.014 A 
ATOM     30  C   UNL A   1      43.917  23.721  28.112  1.00  0.00     0.010 A 
ATOM     31  C   UNL A   1      42.631  24.460  26.191  1.00  0.00     0.010 A 
ATOM     32  C   UNL A   1      43.068  24.662  27.498  1.00  0.00    -0.014 A 
BRANCH  32  33
ATOM     33  C   UNL A   1      42.848  25.963  28.144  1.00  0.00     0.031 A 
ATOM     34  C   UNL A   1      43.948  26.929  27.876  1.00  0.00     0.074 A 
ATOM     35  C   UNL A   1      41.692  26.369  28.717  1.00  0.00     0.049 A 
ATOM     36  N   UNL A   1      44.865  27.325  28.697  1.00  0.00    -0.248 NA
ATOM     37  C   UNL A   1      44.175  27.364  26.483  1.00  0.00     0.031 C 
ATOM     38  C   UNL A   1      40.423  25.634  28.744  1.00  0.00     0.029 A 
ATOM     39  N   UNL A   1      41.354  27.566  29.290  1.00  0.00    -0.354 N 
ATOM     40  C   UNL A   1      45.576  28.299  28.004  1.00  0.00     0.074 A 
ATOM     41  C   UNL A   1      45.288  28.090  26.608  1.00  0.00     0.031 C 
ATOM     42  C   UNL A   1      39.415  26.478  29.056  1.00  0.00     0.029 A 
ATOM     43  C   UNL A   1      39.980  27.762  29.428  1.00  0.00     0.049 A 
ATOM     44  H   UNL A   1      42.022  28.230  29.577  1.00  0.00     0.167 HD
ATOM     45  C   UNL A   1      45.993  29.426  28.645  1.00  0.00     0.031 A 
ATOM     46  C   UNL A   1      39.332  28.891  29.812  1.00  0.00     0.031 A 
ATOM     47  C   UNL A   1      45.892  29.278  30.075  1.00  0.00     0.049 A 
ATOM     48  C   UNL A   1      40.284  29.709  30.592  1.00  0.00     0.074 A 
ATOM     49  C   UNL A   1      46.535  28.597  31.082  1.00  0.00     0.029 A 
ATOM     50  N   UNL A   1      44.671  29.664  30.557  1.00  0.00    -0.354 N 
ATOM     51  N   UNL A   1      40.766  29.331  31.745  1.00  0.00    -0.248 NA
ATOM     52  C   UNL A   1      40.981  30.819  29.953  1.00  0.00     0.031 C 
ATOM     53  C   UNL A   1      45.594  28.481  32.150  1.00  0.00     0.029 A 
ATOM     54  C   UNL A   1      44.419  29.138  31.791  1.00  0.00     0.049 A 
ATOM     55  H   UNL A   1      44.048  30.253  30.071  1.00  0.00     0.167 HD
ATOM     56  C   UNL A   1      42.049  29.837  31.754  1.00  0.00     0.074 A 
ATOM     57  C   UNL A   1      42.062  30.877  30.733  1.00  0.00     0.031 C 
ATOM     58  C   UNL A   1      43.072  29.138  32.323  1.00  0.00     0.031 A 
BRANCH  45  59
ATOM     59  C   UNL A   1      45.909  30.817  28.031  1.00  0.00    -0.014 A 
ATOM     60  C   UNL A   1      44.632  31.382  27.821  1.00  0.00     0.010 A 
ATOM     61  C   UNL A   1      46.990  31.437  27.371  1.00  0.00     0.010 A 
ATOM     62  C   UNL A   1      44.448  32.477  26.962  1.00  0.00     0.020 A 
ATOM     63  C   UNL A   1      46.823  32.549  26.542  1.00  0.00     0.020 A 
ATOM     64  C   UNL A   1      45.548  33.050  26.325  1.00  0.00     0.054 A 
BRANCH  64  65
ATOM     65  S   UNL A   1      45.298  34.427  25.178  1.00  0.00     0.124 S 
ATOM     66  O   UNL A   1      44.393  35.287  25.933  1.00  0.00    -0.237 OA
ATOM     67  O   UNL A   1      46.658  34.929  25.004  1.00  0.00    -0.237 OA
ATOM     68  O   UNL A   1      44.722  33.785  23.998  1.00  0.00    -0.744 OA
ENDBRANCH  64  65
ENDBRANCH  45  59
BRANCH  46  69
ATOM     69  C   UNL A   1      38.003  29.410  29.393  1.00  0.00    -0.014 A 
ATOM     70  C   UNL A   1      37.016  29.730  30.347  1.00  0.00     0.010 A 
ATOM     71  C   UNL A   1      37.812  29.876  28.078  1.00  0.00     0.010 A 
ATOM     72  C   UNL A   1      35.927  30.557  30.018  1.00  0.00     0.020 A 
ATOM     73  C   UNL A   1      36.724  30.692  27.739  1.00  0.00     0.020 A 
ATOM     74  C   UNL A   1      35.804  31.055  28.719  1.00  0.00     0.054 A 
BRANCH  74  75
ATOM     75  S   UNL A   1      34.515  32.286  28.350  1.00  0.00     0.124 S 
ATOM     76  O   UNL A   1      35.247  33.278  27.569  1.00  0.00    -0.237 OA
ATOM     77  O   UNL A   1      33.528  31.503  27.611  1.00  0.00    -0.237 OA
ATOM     78  O   UNL A   1      34.081  32.736  29.672  1.00  0.00    -0.744 OA
ENDBRANCH  74  75
ENDBRANCH  46  69
BRANCH  58  79
ATOM     79  C   UNL A   1      42.760  28.235  33.480  1.00  0.00    -0.014 A 
ATOM     80  C   UNL A   1      42.884  26.834  33.471  1.00  0.00     0.010 A 
ATOM     81  C   UNL A   1      42.356  28.871  34.668  1.00  0.00     0.010 A 
ATOM     82  C   UNL A   1      42.583  26.089  34.622  1.00  0.00     0.020 A 
ATOM     83  C   UNL A   1      42.075  28.140  35.819  1.00  0.00     0.020 A 
ATOM     84  C   UNL A   1      42.176  26.749  35.789  1.00  0.00     0.054 A 
BRANCH  84  85
ATOM     85  S   UNL A   1      41.795  25.790  37.279  1.00  0.00     0.124 S 
ATOM     86  O   UNL A   1      41.972  24.414  36.824  1.00  0.00    -0.237 OA
ATOM     87  O   UNL A   1      42.790  26.271  38.236  1.00  0.00    -0.237 OA
ATOM     88  O   UNL A   1      40.416  26.164  37.592  1.00  0.00    -0.744 OA
ENDBRANCH  84  85
ENDBRANCH  58  79
ENDBRANCH  32  33
ENDBRANCH  24  27
ENDBRANCH  22  23
ENDBRANCH   1  22
TORSDOF 15
ENDMDL
