MODEL 1
REMARK VINA RESULT:     -10.9      0.000      0.000
REMARK SMILES C[NH+](C)Cc1noc(C[C@@](C)(C(=O)NCCCCNC(=O)c2ccc(-c3c4nc(c(-c5ccc(S(=O)(=O)[O-])cc5)c5ccc([nH]5)c(-c5ccc(S(=O)(=O)[O-])cc5)c5nc(c(-c6ccc(S(=O)(=O)[O-])cc6)c6ccc3[nH]6)C=C5)C=C4)cc2)c2ccccc2)n1
REMARK SMILES IDX 16 1 15 2 14 3 12 4 13 5 10 7 11 8 9 9 8 10 5 11 6 12 88 13
REMARK SMILES IDX 7 14 4 15 2 16 1 17 3 18 82 20 83 21 87 22 84 23 86 24 85 25
REMARK SMILES IDX 17 26 18 27 19 28 20 29 21 31 22 32 23 33 81 34 24 35 80 36
REMARK SMILES IDX 25 37 26 38 27 39 74 40 28 41 79 42 73 43 75 44 29 45 78 46
REMARK SMILES IDX 72 47 71 48 30 50 60 51 41 52 59 53 42 54 45 55 58 56 76 57
REMARK SMILES IDX 43 58 44 59 57 61 77 62 46 63 31 64 32 65 40 66 33 67 39 68
REMARK SMILES IDX 34 69 35 70 36 71 37 72 38 73 61 74 62 75 70 76 63 77 69 78
REMARK SMILES IDX 64 79 65 80 66 81 67 82 68 83 47 84 48 85 56 86 49 87 55 88
REMARK SMILES IDX 50 89 51 90 52 91 53 92 54 93
REMARK H PARENT 14 6 2 19 19 30 75 49 45 60
REMARK Flexibility Score: inf
ROOT
ATOM      1  C   UNL A   1      32.018  26.552  25.926  1.00  0.00     0.023 C 
ENDROOT
BRANCH   1   2
ATOM      2  C   UNL A   1      31.427  26.130  24.584  1.00  0.00     0.116 C 
BRANCH   2   3
ATOM      3  N   UNL A   1      32.333  26.413  23.481  1.00  0.00    -0.355 N 
ATOM      4  C   UNL A   1      33.175  25.639  22.734  1.00  0.00     0.230 C 
ATOM      5  O   UNL A   1      33.730  26.233  21.805  1.00  0.00    -0.274 OA
ATOM      6  H   UNL A   1      32.341  27.362  23.218  1.00  0.00     0.163 HD
BRANCH   4   7
ATOM      7  C   UNL A   1      33.389  24.119  23.016  1.00  0.00     0.080 C 
ATOM      8  C   UNL A   1      33.367  23.438  21.624  1.00  0.00     0.027 C 
BRANCH   7   9
ATOM      9  C   UNL A   1      32.273  23.654  23.983  1.00  0.00     0.122 C 
BRANCH   9  10
ATOM     10  C   UNL A   1      32.358  22.240  24.413  1.00  0.00     0.228 A 
ATOM     11  C   UNL A   1      32.608  20.175  24.571  1.00  0.00     0.226 A 
ATOM     12  N   UNL A   1      32.920  20.613  25.800  1.00  0.00    -0.056 NA
ATOM     13  N   UNL A   1      32.219  21.155  23.693  1.00  0.00    -0.190 NA
ATOM     14  O   UNL A   1      32.771  21.997  25.691  1.00  0.00    -0.339 OA
BRANCH  11  15
ATOM     15  C   UNL A   1      32.776  18.749  24.150  1.00  0.00     0.344 C 
BRANCH  15  16
ATOM     16  N   UNL A   1      33.612  17.932  25.064  1.00  0.00    -0.333 N 
ATOM     17  C   UNL A   1      32.874  16.809  25.646  1.00  0.00     0.332 C 
ATOM     18  C   UNL A   1      34.837  17.463  24.418  1.00  0.00     0.332 C 
ATOM     19  H   UNL A   1      33.878  18.553  25.829  1.00  0.00     0.348 HD
ENDBRANCH  15  16
ENDBRANCH  11  15
ENDBRANCH   9  10
ENDBRANCH   7   9
BRANCH   7  20
ATOM     20  C   UNL A   1      34.744  23.824  23.737  1.00  0.00    -0.032 A 
ATOM     21  C   UNL A   1      35.040  24.395  24.990  1.00  0.00     0.005 A 
ATOM     22  C   UNL A   1      35.672  22.896  23.223  1.00  0.00     0.005 A 
ATOM     23  C   UNL A   1      36.225  24.091  25.668  1.00  0.00     0.000 A 
ATOM     24  C   UNL A   1      36.851  22.585  23.905  1.00  0.00     0.000 A 
ATOM     25  C   UNL A   1      37.131  23.189  25.125  1.00  0.00     0.000 A 
ENDBRANCH   7  20
ENDBRANCH   4   7
ENDBRANCH   2   3
ENDBRANCH   1   2
BRANCH   1  26
ATOM     26  C   UNL A   1      33.029  27.694  25.838  1.00  0.00     0.023 C 
BRANCH  26  27
ATOM     27  C   UNL A   1      33.603  28.147  27.175  1.00  0.00     0.116 C 
BRANCH  27  28
ATOM     28  N   UNL A   1      33.463  29.579  27.392  1.00  0.00    -0.352 N 
ATOM     29  C   UNL A   1      34.368  30.464  27.920  1.00  0.00     0.251 C 
ATOM     30  H   UNL A   1      32.599  29.966  27.122  1.00  0.00     0.163 HD
ATOM     31  O   UNL A   1      34.020  31.615  28.171  1.00  0.00    -0.269 OA
BRANCH  29  32
ATOM     32  C   UNL A   1      35.746  30.019  28.209  1.00  0.00     0.039 A 
ATOM     33  C   UNL A   1      36.707  30.105  27.200  1.00  0.00     0.014 A 
ATOM     34  C   UNL A   1      36.091  29.527  29.471  1.00  0.00     0.014 A 
ATOM     35  C   UNL A   1      38.024  29.737  27.473  1.00  0.00     0.010 A 
ATOM     36  C   UNL A   1      37.422  29.251  29.767  1.00  0.00     0.010 A 
ATOM     37  C   UNL A   1      38.399  29.329  28.765  1.00  0.00    -0.014 A 
BRANCH  37  38
ATOM     38  C   UNL A   1      39.804  28.956  29.063  1.00  0.00     0.031 A 
ATOM     39  C   UNL A   1      40.725  29.938  29.736  1.00  0.00     0.074 A 
ATOM     40  C   UNL A   1      40.259  27.738  28.709  1.00  0.00     0.049 A 
ATOM     41  N   UNL A   1      41.969  29.778  30.109  1.00  0.00    -0.248 NA
ATOM     42  C   UNL A   1      40.188  31.283  30.002  1.00  0.00     0.031 C 
ATOM     43  C   UNL A   1      39.483  26.719  27.995  1.00  0.00     0.029 A 
ATOM     44  N   UNL A   1      41.481  27.147  28.906  1.00  0.00    -0.354 N 
ATOM     45  C   UNL A   1      42.360  30.999  30.650  1.00  0.00     0.074 A 
ATOM     46  C   UNL A   1      41.250  31.909  30.484  1.00  0.00     0.031 C 
ATOM     47  C   UNL A   1      40.236  25.618  27.850  1.00  0.00     0.029 A 
ATOM     48  C   UNL A   1      41.555  25.861  28.427  1.00  0.00     0.049 A 
ATOM     49  H   UNL A   1      42.233  27.601  29.349  1.00  0.00     0.167 HD
ATOM     50  C   UNL A   1      43.526  31.326  31.259  1.00  0.00     0.031 A 
ATOM     51  C   UNL A   1      42.567  24.974  28.453  1.00  0.00     0.031 A 
ATOM     52  C   UNL A   1      44.633  30.420  31.411  1.00  0.00     0.049 A 
ATOM     53  C   UNL A   1      43.851  25.351  29.137  1.00  0.00     0.074 A 
ATOM     54  C   UNL A   1      45.847  30.639  32.039  1.00  0.00     0.029 A 
ATOM     55  N   UNL A   1      44.665  29.121  30.923  1.00  0.00    -0.354 N 
ATOM     56  N   UNL A   1      44.180  26.490  29.703  1.00  0.00    -0.248 NA
ATOM     57  C   UNL A   1      44.890  24.317  29.211  1.00  0.00     0.031 C 
ATOM     58  C   UNL A   1      46.632  29.490  31.883  1.00  0.00     0.029 A 
ATOM     59  C   UNL A   1      45.882  28.531  31.222  1.00  0.00     0.049 A 
ATOM     60  H   UNL A   1      43.930  28.684  30.436  1.00  0.00     0.167 HD
ATOM     61  C   UNL A   1      45.455  26.298  30.225  1.00  0.00     0.074 A 
ATOM     62  C   UNL A   1      45.824  24.929  29.924  1.00  0.00     0.031 C 
ATOM     63  C   UNL A   1      46.244  27.173  30.899  1.00  0.00     0.031 A 
BRANCH  50  64
ATOM     64  C   UNL A   1      43.649  32.731  31.796  1.00  0.00    -0.014 A 
ATOM     65  C   UNL A   1      43.109  33.080  33.049  1.00  0.00     0.010 A 
ATOM     66  C   UNL A   1      44.306  33.718  31.040  1.00  0.00     0.010 A 
ATOM     67  C   UNL A   1      43.169  34.399  33.506  1.00  0.00     0.020 A 
ATOM     68  C   UNL A   1      44.400  35.031  31.510  1.00  0.00     0.020 A 
ATOM     69  C   UNL A   1      43.808  35.369  32.729  1.00  0.00     0.054 A 
BRANCH  69  70
ATOM     70  S   UNL A   1      43.861  37.075  33.341  1.00  0.00     0.124 S 
ATOM     71  O   UNL A   1      45.171  37.124  33.983  1.00  0.00    -0.237 OA
ATOM     72  O   UNL A   1      43.733  37.859  32.114  1.00  0.00    -0.237 OA
ATOM     73  O   UNL A   1      42.719  37.155  34.249  1.00  0.00    -0.744 OA
ENDBRANCH  69  70
ENDBRANCH  50  64
BRANCH  51  74
ATOM     74  C   UNL A   1      42.383  23.632  27.834  1.00  0.00    -0.014 A 
ATOM     75  C   UNL A   1      42.833  23.369  26.528  1.00  0.00     0.010 A 
ATOM     76  C   UNL A   1      41.792  22.591  28.574  1.00  0.00     0.010 A 
ATOM     77  C   UNL A   1      42.688  22.094  25.972  1.00  0.00     0.020 A 
ATOM     78  C   UNL A   1      41.672  21.309  28.033  1.00  0.00     0.020 A 
ATOM     79  C   UNL A   1      42.116  21.070  26.731  1.00  0.00     0.054 A 
BRANCH  79  80
ATOM     80  S   UNL A   1      42.010  19.405  26.017  1.00  0.00     0.124 S 
ATOM     81  O   UNL A   1      42.532  18.576  27.098  1.00  0.00    -0.237 OA
ATOM     82  O   UNL A   1      40.580  19.269  25.748  1.00  0.00    -0.237 OA
ATOM     83  O   UNL A   1      42.855  19.489  24.828  1.00  0.00    -0.744 OA
ENDBRANCH  79  80
ENDBRANCH  51  74
BRANCH  63  84
ATOM     84  C   UNL A   1      47.574  26.659  31.391  1.00  0.00    -0.014 A 
ATOM     85  C   UNL A   1      47.715  26.071  32.661  1.00  0.00     0.010 A 
ATOM     86  C   UNL A   1      48.703  26.758  30.556  1.00  0.00     0.010 A 
ATOM     87  C   UNL A   1      48.971  25.652  33.110  1.00  0.00     0.020 A 
ATOM     88  C   UNL A   1      49.952  26.307  30.985  1.00  0.00     0.020 A 
ATOM     89  C   UNL A   1      50.083  25.781  32.272  1.00  0.00     0.054 A 
BRANCH  89  90
ATOM     90  S   UNL A   1      51.702  25.235  32.878  1.00  0.00     0.124 S 
ATOM     91  O   UNL A   1      51.531  23.787  32.939  1.00  0.00    -0.237 OA
ATOM     92  O   UNL A   1      52.613  25.719  31.843  1.00  0.00    -0.237 OA
ATOM     93  O   UNL A   1      51.830  25.903  34.173  1.00  0.00    -0.744 OA
ENDBRANCH  89  90
ENDBRANCH  63  84
ENDBRANCH  37  38
ENDBRANCH  29  32
ENDBRANCH  27  28
ENDBRANCH  26  27
ENDBRANCH   1  26
TORSDOF 19
ENDMDL
MODEL 2
REMARK VINA RESULT:     -10.6      4.325     10.288
REMARK SMILES C[NH+](C)Cc1noc(C[C@@](C)(C(=O)NCCCCNC(=O)c2ccc(-c3c4nc(c(-c5ccc(S(=O)(=O)[O-])cc5)c5ccc([nH]5)c(-c5ccc(S(=O)(=O)[O-])cc5)c5nc(c(-c6ccc(S(=O)(=O)[O-])cc6)c6ccc3[nH]6)C=C5)C=C4)cc2)c2ccccc2)n1
REMARK SMILES IDX 16 1 15 2 14 3 12 4 13 5 10 7 11 8 9 9 8 10 5 11 6 12 88 13
REMARK SMILES IDX 7 14 4 15 2 16 1 17 3 18 82 20 83 21 87 22 84 23 86 24 85 25
REMARK SMILES IDX 17 26 18 27 19 28 20 29 21 31 22 32 23 33 81 34 24 35 80 36
REMARK SMILES IDX 25 37 26 38 27 39 74 40 28 41 79 42 73 43 75 44 29 45 78 46
REMARK SMILES IDX 72 47 71 48 30 50 60 51 41 52 59 53 42 54 45 55 58 56 76 57
REMARK SMILES IDX 43 58 44 59 57 61 77 62 46 63 31 64 32 65 40 66 33 67 39 68
REMARK SMILES IDX 34 69 35 70 36 71 37 72 38 73 61 74 62 75 70 76 63 77 69 78
REMARK SMILES IDX 64 79 65 80 66 81 67 82 68 83 47 84 48 85 56 86 49 87 55 88
REMARK SMILES IDX 50 89 51 90 52 91 53 92 54 93
REMARK H PARENT 14 6 2 19 19 30 75 49 45 60
REMARK Flexibility Score: inf
ROOT
ATOM      1  C   UNL A   1      37.557  22.147  25.315  1.00  0.00     0.023 C 
ENDROOT
BRANCH   1   2
ATOM      2  C   UNL A   1      36.227  21.399  25.349  1.00  0.00     0.116 C 
BRANCH   2   3
ATOM      3  N   UNL A   1      35.446  21.739  26.529  1.00  0.00    -0.355 N 
ATOM      4  C   UNL A   1      34.119  21.985  26.738  1.00  0.00     0.230 C 
ATOM      5  O   UNL A   1      33.808  22.157  27.921  1.00  0.00    -0.274 OA
ATOM      6  H   UNL A   1      35.988  21.805  27.348  1.00  0.00     0.163 HD
BRANCH   4   7
ATOM      7  C   UNL A   1      33.077  22.013  25.577  1.00  0.00     0.080 C 
ATOM      8  C   UNL A   1      33.629  23.041  24.556  1.00  0.00     0.027 C 
BRANCH   7   9
ATOM      9  C   UNL A   1      31.699  22.377  26.183  1.00  0.00     0.122 C 
BRANCH   9  10
ATOM     10  C   UNL A   1      31.310  23.799  26.059  1.00  0.00     0.228 A 
ATOM     11  C   UNL A   1      31.157  25.878  26.128  1.00  0.00     0.226 A 
ATOM     12  N   UNL A   1      30.567  25.569  24.963  1.00  0.00    -0.056 NA
ATOM     13  N   UNL A   1      31.597  24.800  26.853  1.00  0.00    -0.190 NA
ATOM     14  O   UNL A   1      30.685  24.179  24.907  1.00  0.00    -0.339 OA
BRANCH  11  15
ATOM     15  C   UNL A   1      31.417  27.288  26.558  1.00  0.00     0.344 C 
BRANCH  15  16
ATOM     16  N   UNL A   1      32.460  27.989  25.769  1.00  0.00    -0.333 N 
ATOM     17  C   UNL A   1      33.611  27.134  25.474  1.00  0.00     0.332 C 
ATOM     18  C   UNL A   1      31.922  28.569  24.539  1.00  0.00     0.332 C 
ATOM     19  H   UNL A   1      32.789  28.754  26.359  1.00  0.00     0.348 HD
ENDBRANCH  15  16
ENDBRANCH  11  15
ENDBRANCH   9  10
ENDBRANCH   7   9
BRANCH   7  20
ATOM     20  C   UNL A   1      32.899  20.620  24.891  1.00  0.00    -0.032 A 
ATOM     21  C   UNL A   1      33.009  19.427  25.632  1.00  0.00     0.005 A 
ATOM     22  C   UNL A   1      32.515  20.500  23.540  1.00  0.00     0.005 A 
ATOM     23  C   UNL A   1      32.796  18.178  25.039  1.00  0.00     0.000 A 
ATOM     24  C   UNL A   1      32.292  19.253  22.951  1.00  0.00     0.000 A 
ATOM     25  C   UNL A   1      32.439  18.091  23.699  1.00  0.00     0.000 A 
ENDBRANCH   7  20
ENDBRANCH   4   7
ENDBRANCH   2   3
ENDBRANCH   1   2
BRANCH   1  26
ATOM     26  C   UNL A   1      37.466  23.613  25.736  1.00  0.00     0.023 C 
BRANCH  26  27
ATOM     27  C   UNL A   1      38.566  24.076  26.684  1.00  0.00     0.116 C 
BRANCH  27  28
ATOM     28  N   UNL A   1      39.826  24.330  26.003  1.00  0.00    -0.352 N 
ATOM     29  C   UNL A   1      40.721  25.350  26.197  1.00  0.00     0.251 C 
ATOM     30  H   UNL A   1      40.072  23.677  25.308  1.00  0.00     0.163 HD
ATOM     31  O   UNL A   1      41.664  25.491  25.422  1.00  0.00    -0.269 OA
BRANCH  29  32
ATOM     32  C   UNL A   1      40.530  26.290  27.320  1.00  0.00     0.039 A 
ATOM     33  C   UNL A   1      39.700  25.915  28.378  1.00  0.00     0.014 A 
ATOM     34  C   UNL A   1      41.173  27.531  27.335  1.00  0.00     0.014 A 
ATOM     35  C   UNL A   1      39.549  26.770  29.469  1.00  0.00     0.010 A 
ATOM     36  C   UNL A   1      41.097  28.338  28.465  1.00  0.00     0.010 A 
ATOM     37  C   UNL A   1      40.265  27.978  29.535  1.00  0.00    -0.014 A 
BRANCH  37  38
ATOM     38  C   UNL A   1      40.123  28.881  30.704  1.00  0.00     0.031 A 
ATOM     39  C   UNL A   1      40.993  28.694  31.918  1.00  0.00     0.074 A 
ATOM     40  C   UNL A   1      39.194  29.857  30.682  1.00  0.00     0.049 A 
ATOM     41  N   UNL A   1      41.039  29.405  33.016  1.00  0.00    -0.248 NA
ATOM     42  C   UNL A   1      41.913  27.545  31.909  1.00  0.00     0.031 C 
ATOM     43  C   UNL A   1      38.248  30.101  29.590  1.00  0.00     0.029 A 
ATOM     44  N   UNL A   1      38.898  30.830  31.602  1.00  0.00    -0.354 N 
ATOM     45  C   UNL A   1      41.988  28.789  33.825  1.00  0.00     0.074 A 
ATOM     46  C   UNL A   1      42.434  27.605  33.125  1.00  0.00     0.031 C 
ATOM     47  C   UNL A   1      37.504  31.177  29.888  1.00  0.00     0.029 A 
ATOM     48  C   UNL A   1      37.895  31.679  31.202  1.00  0.00     0.049 A 
ATOM     49  H   UNL A   1      39.360  30.912  32.467  1.00  0.00     0.167 HD
ATOM     50  C   UNL A   1      42.470  29.187  35.027  1.00  0.00     0.031 A 
ATOM     51  C   UNL A   1      37.352  32.746  31.819  1.00  0.00     0.031 A 
ATOM     52  C   UNL A   1      42.014  30.360  35.725  1.00  0.00     0.049 A 
ATOM     53  C   UNL A   1      37.902  33.177  33.150  1.00  0.00     0.074 A 
ATOM     54  C   UNL A   1      42.456  30.872  36.932  1.00  0.00     0.029 A 
ATOM     55  N   UNL A   1      41.004  31.202  35.281  1.00  0.00    -0.354 N 
ATOM     56  N   UNL A   1      38.848  32.621  33.870  1.00  0.00    -0.248 NA
ATOM     57  C   UNL A   1      37.332  34.396  33.737  1.00  0.00     0.031 C 
ATOM     58  C   UNL A   1      41.677  31.993  37.243  1.00  0.00     0.029 A 
ATOM     59  C   UNL A   1      40.798  32.221  36.196  1.00  0.00     0.049 A 
ATOM     60  H   UNL A   1      40.508  31.091  34.438  1.00  0.00     0.167 HD
ATOM     61  C   UNL A   1      39.006  33.439  34.985  1.00  0.00     0.074 A 
ATOM     62  C   UNL A   1      38.072  34.536  34.828  1.00  0.00     0.031 C 
ATOM     63  C   UNL A   1      39.851  33.298  36.037  1.00  0.00     0.031 A 
BRANCH  50  64
ATOM     64  C   UNL A   1      43.543  28.332  35.654  1.00  0.00    -0.014 A 
ATOM     65  C   UNL A   1      43.215  27.287  36.540  1.00  0.00     0.010 A 
ATOM     66  C   UNL A   1      44.897  28.575  35.362  1.00  0.00     0.010 A 
ATOM     67  C   UNL A   1      44.220  26.546  37.168  1.00  0.00     0.020 A 
ATOM     68  C   UNL A   1      45.904  27.812  35.960  1.00  0.00     0.020 A 
ATOM     69  C   UNL A   1      45.559  26.819  36.879  1.00  0.00     0.054 A 
BRANCH  69  70
ATOM     70  S   UNL A   1      46.842  25.849  37.717  1.00  0.00     0.124 S 
ATOM     71  O   UNL A   1      48.016  26.131  36.896  1.00  0.00    -0.237 OA
ATOM     72  O   UNL A   1      46.859  26.432  39.058  1.00  0.00    -0.237 OA
ATOM     73  O   UNL A   1      46.345  24.478  37.643  1.00  0.00    -0.744 OA
ENDBRANCH  69  70
ENDBRANCH  50  64
BRANCH  51  74
ATOM     74  C   UNL A   1      36.245  33.492  31.158  1.00  0.00    -0.014 A 
ATOM     75  C   UNL A   1      35.091  33.857  31.874  1.00  0.00     0.010 A 
ATOM     76  C   UNL A   1      36.365  33.881  29.811  1.00  0.00     0.010 A 
ATOM     77  C   UNL A   1      34.075  34.589  31.252  1.00  0.00     0.020 A 
ATOM     78  C   UNL A   1      35.366  34.638  29.196  1.00  0.00     0.020 A 
ATOM     79  C   UNL A   1      34.222  34.982  29.919  1.00  0.00     0.054 A 
BRANCH  79  80
ATOM     80  S   UNL A   1      32.927  36.000  29.158  1.00  0.00     0.124 S 
ATOM     81  O   UNL A   1      32.242  35.034  28.306  1.00  0.00    -0.237 OA
ATOM     82  O   UNL A   1      32.173  36.469  30.318  1.00  0.00    -0.237 OA
ATOM     83  O   UNL A   1      33.678  37.036  28.451  1.00  0.00    -0.744 OA
ENDBRANCH  79  80
ENDBRANCH  51  74
BRANCH  63  84
ATOM     84  C   UNL A   1      39.830  34.382  37.085  1.00  0.00    -0.014 A 
ATOM     85  C   UNL A   1      39.106  34.239  38.282  1.00  0.00     0.010 A 
ATOM     86  C   UNL A   1      40.563  35.564  36.868  1.00  0.00     0.010 A 
ATOM     87  C   UNL A   1      39.063  35.282  39.212  1.00  0.00     0.020 A 
ATOM     88  C   UNL A   1      40.553  36.595  37.809  1.00  0.00     0.020 A 
ATOM     89  C   UNL A   1      39.781  36.457  38.964  1.00  0.00     0.054 A 
BRANCH  89  90
ATOM     90  S   UNL A   1      39.705  37.799  40.181  1.00  0.00     0.124 S 
ATOM     91  O   UNL A   1      41.104  38.205  40.273  1.00  0.00    -0.237 OA
ATOM     92  O   UNL A   1      38.811  38.763  39.542  1.00  0.00    -0.237 OA
ATOM     93  O   UNL A   1      39.163  37.154  41.376  1.00  0.00    -0.744 OA
ENDBRANCH  89  90
ENDBRANCH  63  84
ENDBRANCH  37  38
ENDBRANCH  29  32
ENDBRANCH  27  28
ENDBRANCH  26  27
ENDBRANCH   1  26
TORSDOF 19
ENDMDL
MODEL 3
REMARK VINA RESULT:     -10.5      4.265      9.901
REMARK SMILES C[NH+](C)Cc1noc(C[C@@](C)(C(=O)NCCCCNC(=O)c2ccc(-c3c4nc(c(-c5ccc(S(=O)(=O)[O-])cc5)c5ccc([nH]5)c(-c5ccc(S(=O)(=O)[O-])cc5)c5nc(c(-c6ccc(S(=O)(=O)[O-])cc6)c6ccc3[nH]6)C=C5)C=C4)cc2)c2ccccc2)n1
REMARK SMILES IDX 16 1 15 2 14 3 12 4 13 5 10 7 11 8 9 9 8 10 5 11 6 12 88 13
REMARK SMILES IDX 7 14 4 15 2 16 1 17 3 18 82 20 83 21 87 22 84 23 86 24 85 25
REMARK SMILES IDX 17 26 18 27 19 28 20 29 21 31 22 32 23 33 81 34 24 35 80 36
REMARK SMILES IDX 25 37 26 38 27 39 74 40 28 41 79 42 73 43 75 44 29 45 78 46
REMARK SMILES IDX 72 47 71 48 30 50 60 51 41 52 59 53 42 54 45 55 58 56 76 57
REMARK SMILES IDX 43 58 44 59 57 61 77 62 46 63 31 64 32 65 40 66 33 67 39 68
REMARK SMILES IDX 34 69 35 70 36 71 37 72 38 73 61 74 62 75 70 76 63 77 69 78
REMARK SMILES IDX 64 79 65 80 66 81 67 82 68 83 47 84 48 85 56 86 49 87 55 88
REMARK SMILES IDX 50 89 51 90 52 91 53 92 54 93
REMARK H PARENT 14 6 2 19 19 30 75 49 45 60
REMARK Flexibility Score: inf
ROOT
ATOM      1  C   UNL A   1      37.474  23.800  26.061  1.00  0.00     0.023 C 
ENDROOT
BRANCH   1   2
ATOM      2  C   UNL A   1      36.291  22.969  25.575  1.00  0.00     0.116 C 
BRANCH   2   3
ATOM      3  N   UNL A   1      35.442  22.540  26.677  1.00  0.00    -0.355 N 
ATOM      4  C   UNL A   1      34.089  22.495  26.857  1.00  0.00     0.230 C 
ATOM      5  O   UNL A   1      33.729  21.975  27.918  1.00  0.00    -0.274 OA
ATOM      6  H   UNL A   1      35.949  22.216  27.455  1.00  0.00     0.163 HD
BRANCH   4   7
ATOM      7  C   UNL A   1      33.081  23.028  25.791  1.00  0.00     0.080 C 
ATOM      8  C   UNL A   1      31.684  22.908  26.452  1.00  0.00     0.027 C 
BRANCH   7   9
ATOM      9  C   UNL A   1      33.264  22.189  24.503  1.00  0.00     0.122 C 
BRANCH   9  10
ATOM     10  C   UNL A   1      33.392  20.729  24.713  1.00  0.00     0.228 A 
ATOM     11  C   UNL A   1      33.134  18.663  24.831  1.00  0.00     0.226 A 
ATOM     12  N   UNL A   1      34.453  18.793  24.623  1.00  0.00    -0.056 NA
ATOM     13  N   UNL A   1      32.449  19.847  24.930  1.00  0.00    -0.190 NA
ATOM     14  O   UNL A   1      34.624  20.175  24.524  1.00  0.00    -0.339 OA
BRANCH  11  15
ATOM     15  C   UNL A   1      32.441  17.337  24.847  1.00  0.00     0.344 C 
BRANCH  15  16
ATOM     16  N   UNL A   1      32.992  16.366  25.824  1.00  0.00    -0.333 N 
ATOM     17  C   UNL A   1      32.046  15.296  26.145  1.00  0.00     0.332 C 
ATOM     18  C   UNL A   1      34.270  15.807  25.383  1.00  0.00     0.332 C 
ATOM     19  H   UNL A   1      33.159  16.895  26.680  1.00  0.00     0.348 HD
ENDBRANCH  15  16
ENDBRANCH  11  15
ENDBRANCH   9  10
ENDBRANCH   7   9
BRANCH   7  20
ATOM     20  C   UNL A   1      33.357  24.513  25.388  1.00  0.00    -0.032 A 
ATOM     21  C   UNL A   1      33.639  24.863  24.053  1.00  0.00     0.005 A 
ATOM     22  C   UNL A   1      33.229  25.570  26.312  1.00  0.00     0.005 A 
ATOM     23  C   UNL A   1      33.831  26.196  23.674  1.00  0.00     0.000 A 
ATOM     24  C   UNL A   1      33.410  26.902  25.931  1.00  0.00     0.000 A 
ATOM     25  C   UNL A   1      33.719  27.215  24.612  1.00  0.00     0.000 A 
ENDBRANCH   7  20
ENDBRANCH   4   7
ENDBRANCH   2   3
ENDBRANCH   1   2
BRANCH   1  26
ATOM     26  C   UNL A   1      38.737  22.990  26.350  1.00  0.00     0.023 C 
BRANCH  26  27
ATOM     27  C   UNL A   1      39.888  23.789  26.950  1.00  0.00     0.116 C 
BRANCH  27  28
ATOM     28  N   UNL A   1      40.712  24.434  25.939  1.00  0.00    -0.352 N 
ATOM     29  C   UNL A   1      41.166  25.727  25.893  1.00  0.00     0.251 C 
ATOM     30  H   UNL A   1      40.983  23.862  25.185  1.00  0.00     0.163 HD
ATOM     31  O   UNL A   1      41.727  26.141  24.881  1.00  0.00    -0.269 OA
BRANCH  29  32
ATOM     32  C   UNL A   1      40.952  26.621  27.048  1.00  0.00     0.039 A 
ATOM     33  C   UNL A   1      39.991  26.275  28.000  1.00  0.00     0.014 A 
ATOM     34  C   UNL A   1      41.702  27.791  27.199  1.00  0.00     0.014 A 
ATOM     35  C   UNL A   1      39.813  27.082  29.122  1.00  0.00     0.010 A 
ATOM     36  C   UNL A   1      41.590  28.542  28.365  1.00  0.00     0.010 A 
ATOM     37  C   UNL A   1      40.627  28.210  29.328  1.00  0.00    -0.014 A 
BRANCH  37  38
ATOM     38  C   UNL A   1      40.454  29.060  30.532  1.00  0.00     0.031 A 
ATOM     39  C   UNL A   1      41.308  28.834  31.750  1.00  0.00     0.074 A 
ATOM     40  C   UNL A   1      39.512  30.023  30.537  1.00  0.00     0.049 A 
ATOM     41  N   UNL A   1      41.327  29.498  32.878  1.00  0.00    -0.248 NA
ATOM     42  C   UNL A   1      42.245  27.699  31.708  1.00  0.00     0.031 C 
ATOM     43  C   UNL A   1      38.579  30.300  29.441  1.00  0.00     0.029 A 
ATOM     44  N   UNL A   1      39.188  30.952  31.492  1.00  0.00    -0.354 N 
ATOM     45  C   UNL A   1      42.273  28.861  33.675  1.00  0.00     0.074 A 
ATOM     46  C   UNL A   1      42.746  27.715  32.933  1.00  0.00     0.031 C 
ATOM     47  C   UNL A   1      37.815  31.353  29.772  1.00  0.00     0.029 A 
ATOM     48  C   UNL A   1      38.178  31.804  31.112  1.00  0.00     0.049 A 
ATOM     49  H   UNL A   1      39.636  31.004  32.367  1.00  0.00     0.167 HD
ATOM     50  C   UNL A   1      42.731  29.215  34.900  1.00  0.00     0.031 A 
ATOM     51  C   UNL A   1      37.611  32.836  31.765  1.00  0.00     0.031 A 
ATOM     52  C   UNL A   1      42.247  30.350  35.640  1.00  0.00     0.049 A 
ATOM     53  C   UNL A   1      38.135  33.218  33.122  1.00  0.00     0.074 A 
ATOM     54  C   UNL A   1      42.663  30.817  36.875  1.00  0.00     0.029 A 
ATOM     55  N   UNL A   1      41.232  31.197  35.216  1.00  0.00    -0.354 N 
ATOM     56  N   UNL A   1      39.077  32.644  33.833  1.00  0.00    -0.248 NA
ATOM     57  C   UNL A   1      37.539  34.402  33.750  1.00  0.00     0.031 C 
ATOM     58  C   UNL A   1      41.863  31.912  37.220  1.00  0.00     0.029 A 
ATOM     59  C   UNL A   1      40.998  32.173  36.170  1.00  0.00     0.049 A 
ATOM     60  H   UNL A   1      40.750  31.115  34.362  1.00  0.00     0.167 HD
ATOM     61  C   UNL A   1      39.206  33.416  34.983  1.00  0.00     0.074 A 
ATOM     62  C   UNL A   1      38.259  34.506  34.858  1.00  0.00     0.031 C 
ATOM     63  C   UNL A   1      40.038  33.242  36.042  1.00  0.00     0.031 A 
BRANCH  50  64
ATOM     64  C   UNL A   1      43.806  28.349  35.508  1.00  0.00    -0.014 A 
ATOM     65  C   UNL A   1      43.480  27.263  36.344  1.00  0.00     0.010 A 
ATOM     66  C   UNL A   1      45.161  28.622  35.246  1.00  0.00     0.010 A 
ATOM     67  C   UNL A   1      44.486  26.510  36.956  1.00  0.00     0.020 A 
ATOM     68  C   UNL A   1      46.170  27.848  35.828  1.00  0.00     0.020 A 
ATOM     69  C   UNL A   1      45.825  26.813  36.700  1.00  0.00     0.054 A 
BRANCH  69  70
ATOM     70  S   UNL A   1      47.109  25.826  37.516  1.00  0.00     0.124 S 
ATOM     71  O   UNL A   1      47.342  26.589  38.740  1.00  0.00    -0.237 OA
ATOM     72  O   UNL A   1      46.452  24.533  37.697  1.00  0.00    -0.237 OA
ATOM     73  O   UNL A   1      48.213  25.832  36.559  1.00  0.00    -0.744 OA
ENDBRANCH  69  70
ENDBRANCH  50  64
BRANCH  51  74
ATOM     74  C   UNL A   1      36.504  33.593  31.119  1.00  0.00    -0.014 A 
ATOM     75  C   UNL A   1      36.499  33.826  29.732  1.00  0.00     0.010 A 
ATOM     76  C   UNL A   1      35.418  34.047  31.891  1.00  0.00     0.010 A 
ATOM     77  C   UNL A   1      35.435  34.506  29.132  1.00  0.00     0.020 A 
ATOM     78  C   UNL A   1      34.339  34.700  31.291  1.00  0.00     0.020 A 
ATOM     79  C   UNL A   1      34.358  34.932  29.915  1.00  0.00     0.054 A 
BRANCH  79  80
ATOM     80  S   UNL A   1      32.951  35.741  29.102  1.00  0.00     0.124 S 
ATOM     81  O   UNL A   1      32.096  36.077  30.235  1.00  0.00    -0.237 OA
ATOM     82  O   UNL A   1      33.586  36.872  28.428  1.00  0.00    -0.237 OA
ATOM     83  O   UNL A   1      32.431  34.707  28.210  1.00  0.00    -0.744 OA
ENDBRANCH  79  80
ENDBRANCH  51  74
BRANCH  63  84
ATOM     84  C   UNL A   1      39.985  34.280  37.133  1.00  0.00    -0.014 A 
ATOM     85  C   UNL A   1      39.055  34.200  38.186  1.00  0.00     0.010 A 
ATOM     86  C   UNL A   1      40.897  35.352  37.110  1.00  0.00     0.010 A 
ATOM     87  C   UNL A   1      38.995  35.206  39.155  1.00  0.00     0.020 A 
ATOM     88  C   UNL A   1      40.866  36.340  38.096  1.00  0.00     0.020 A 
ATOM     89  C   UNL A   1      39.897  36.274  39.099  1.00  0.00     0.054 A 
BRANCH  89  90
ATOM     90  S   UNL A   1      39.796  37.569  40.363  1.00  0.00     0.124 S 
ATOM     91  O   UNL A   1      38.365  37.855  40.391  1.00  0.00    -0.237 OA
ATOM     92  O   UNL A   1      40.328  36.902  41.550  1.00  0.00    -0.237 OA
ATOM     93  O   UNL A   1      40.636  38.640  39.830  1.00  0.00    -0.744 OA
ENDBRANCH  89  90
ENDBRANCH  63  84
ENDBRANCH  37  38
ENDBRANCH  29  32
ENDBRANCH  27  28
ENDBRANCH  26  27
ENDBRANCH   1  26
TORSDOF 19
ENDMDL
