MODEL 1
REMARK VINA RESULT:     -11.6      0.000      0.000
REMARK SMILES O=C(C[N@@H+]1CC[N@H+](Cc2cc(F)ccc2Cl)[C@H]2CS(=O)(=O)C[C@H]21)NCCCCNC(=O)c1ccc(-c2c3nc(c(-c4ccc(S(=O)(=O)[O-])cc4)c4ccc([nH]4)c(-c4ccc(S(=O)(=O)[O-])cc4)c4nc(c(-c5ccc(S(=O)(=O)[O-])cc5)c5ccc2[nH]5)C=C4)C=C3)cc1
REMARK SMILES IDX 26 1 25 2 24 3 1 4 2 5 3 7 4 8 5 9 23 10 6 12 17 13 22 14
REMARK SMILES IDX 7 15 18 16 19 17 20 19 21 20 8 21 9 22 10 23 15 24 11 25
REMARK SMILES IDX 14 26 16 27 12 28 13 29 27 30 28 31 29 32 30 33 31 35 32 36
REMARK SMILES IDX 33 37 91 38 34 39 90 40 35 41 36 42 37 43 84 44 38 45 89 46
REMARK SMILES IDX 83 47 85 48 39 49 88 50 82 51 81 52 40 54 70 55 51 56 69 57
REMARK SMILES IDX 52 58 55 59 68 60 86 61 53 62 54 63 67 65 87 66 56 67 41 68
REMARK SMILES IDX 42 69 50 70 43 71 49 72 44 73 45 74 46 75 47 76 48 77 71 78
REMARK SMILES IDX 72 79 80 80 73 81 79 82 74 83 75 84 76 85 77 86 78 87 57 88
REMARK SMILES IDX 58 89 66 90 59 91 65 92 60 93 61 94 62 95 63 96 64 97
REMARK H PARENT 24 6 4 11 7 18 29 34 85 53 55 64
REMARK Flexibility Score: inf
ROOT
ATOM      1  C   UNL A   1      39.161  22.678  26.162  1.00  0.00     0.023 C 
ENDROOT
BRANCH   1   2
ATOM      2  C   UNL A   1      37.972  21.884  25.601  1.00  0.00     0.116 C 
BRANCH   2   3
ATOM      3  N   UNL A   1      37.252  22.544  24.521  1.00  0.00    -0.351 N 
ATOM      4  O   UNL A   1      35.371  21.239  24.716  1.00  0.00    -0.269 OA
ATOM      5  C   UNL A   1      35.921  22.236  24.256  1.00  0.00     0.275 C 
ATOM      6  H   UNL A   1      37.713  23.216  23.970  1.00  0.00     0.163 HD
BRANCH   5   7
ATOM      7  C   UNL A   1      35.162  23.321  23.461  1.00  0.00     0.364 C 
BRANCH   7   8
ATOM      8  N   UNL A   1      33.676  23.234  23.580  1.00  0.00    -0.314 N 
ATOM      9  C   UNL A   1      33.020  23.979  22.481  1.00  0.00     0.325 C 
ATOM     10  C   UNL A   1      33.133  23.693  24.871  1.00  0.00     0.259 C 
ATOM     11  H   UNL A   1      33.467  22.238  23.518  1.00  0.00     0.349 HD
ATOM     12  C   UNL A   1      32.855  25.519  22.672  1.00  0.00     0.325 C 
ATOM     13  C   UNL A   1      33.299  25.223  25.130  1.00  0.00     0.259 C 
ATOM     14  C   UNL A   1      31.650  23.351  25.044  1.00  0.00     0.208 C 
ATOM     15  N   UNL A   1      33.280  26.085  23.944  1.00  0.00    -0.318 N 
ATOM     16  C   UNL A   1      32.345  25.590  26.280  1.00  0.00     0.208 C 
ATOM     17  S   UNL A   1      31.205  24.243  26.502  1.00  0.00     0.162 S 
ATOM     18  H   UNL A   1      32.413  26.509  24.272  1.00  0.00     0.349 HD
ATOM     19  O   UNL A   1      31.628  23.475  27.653  1.00  0.00    -0.228 OA
ATOM     20  O   UNL A   1      29.847  24.735  26.361  1.00  0.00    -0.228 OA
BRANCH  15  21
ATOM     21  C   UNL A   1      33.953  27.399  23.942  1.00  0.00     0.301 C 
BRANCH  21  22
ATOM     22  C   UNL A   1      33.302  28.516  24.768  1.00  0.00     0.028 A 
ATOM     23  C   UNL A   1      33.926  29.060  25.903  1.00  0.00     0.050 A 
ATOM     24  C   UNL A   1      32.076  29.110  24.407  1.00  0.00     0.050 A 
ATOM     25  C   UNL A   1      33.256  29.933  26.761  1.00  0.00     0.123 A 
ATOM     26  C   UNL A   1      31.376  29.943  25.301  1.00  0.00     0.024 A 
ATOM     27  Cl  UNL A   1      31.409  28.932  22.820  1.00  0.00    -0.084 Cl
ATOM     28  F   UNL A   1      33.879  30.375  27.861  1.00  0.00    -0.207 F 
ATOM     29  C   UNL A   1      31.955  30.323  26.507  1.00  0.00     0.041 A 
ENDBRANCH  21  22
ENDBRANCH  15  21
ENDBRANCH   7   8
ENDBRANCH   5   7
ENDBRANCH   2   3
ENDBRANCH   1   2
BRANCH   1  30
ATOM     30  C   UNL A   1      40.263  21.869  26.852  1.00  0.00     0.023 C 
BRANCH  30  31
ATOM     31  C   UNL A   1      41.591  22.557  27.159  1.00  0.00     0.116 C 
BRANCH  31  32
ATOM     32  N   UNL A   1      41.999  23.460  26.101  1.00  0.00    -0.352 N 
ATOM     33  C   UNL A   1      42.049  24.833  26.020  1.00  0.00     0.251 C 
ATOM     34  H   UNL A   1      42.297  23.002  25.282  1.00  0.00     0.163 HD
ATOM     35  O   UNL A   1      42.203  25.321  24.899  1.00  0.00    -0.269 OA
BRANCH  33  36
ATOM     36  C   UNL A   1      41.926  25.756  27.191  1.00  0.00     0.039 A 
ATOM     37  C   UNL A   1      40.779  25.635  27.993  1.00  0.00     0.014 A 
ATOM     38  C   UNL A   1      42.809  26.803  27.463  1.00  0.00     0.014 A 
ATOM     39  C   UNL A   1      40.535  26.523  29.051  1.00  0.00     0.010 A 
ATOM     40  C   UNL A   1      42.608  27.642  28.574  1.00  0.00     0.010 A 
ATOM     41  C   UNL A   1      41.459  27.528  29.374  1.00  0.00    -0.014 A 
BRANCH  41  42
ATOM     42  C   UNL A   1      41.214  28.462  30.518  1.00  0.00     0.031 A 
ATOM     43  C   UNL A   1      42.065  28.401  31.767  1.00  0.00     0.074 A 
ATOM     44  C   UNL A   1      40.210  29.363  30.455  1.00  0.00     0.049 A 
ATOM     45  N   UNL A   1      41.977  29.113  32.866  1.00  0.00    -0.248 NA
ATOM     46  C   UNL A   1      43.144  27.402  31.793  1.00  0.00     0.031 C 
ATOM     47  C   UNL A   1      39.295  29.531  29.323  1.00  0.00     0.029 A 
ATOM     48  N   UNL A   1      39.787  30.311  31.360  1.00  0.00    -0.354 N 
ATOM     49  C   UNL A   1      42.967  28.632  33.718  1.00  0.00     0.074 A 
ATOM     50  C   UNL A   1      43.616  27.538  33.026  1.00  0.00     0.031 C 
ATOM     51  C   UNL A   1      38.447  30.539  29.586  1.00  0.00     0.029 A 
ATOM     52  C   UNL A   1      38.717  31.058  30.923  1.00  0.00     0.049 A 
ATOM     53  H   UNL A   1      40.211  30.441  32.238  1.00  0.00     0.167 HD
ATOM     54  C   UNL A   1      43.321  29.064  34.954  1.00  0.00     0.031 A 
ATOM     55  C   UNL A   1      38.020  32.044  31.525  1.00  0.00     0.031 A 
ATOM     56  C   UNL A   1      42.687  30.160  35.643  1.00  0.00     0.049 A 
ATOM     57  C   UNL A   1      38.411  32.488  32.910  1.00  0.00     0.074 A 
ATOM     58  C   UNL A   1      43.013  30.704  36.874  1.00  0.00     0.029 A 
ATOM     59  N   UNL A   1      41.599  30.875  35.167  1.00  0.00    -0.354 N 
ATOM     60  N   UNL A   1      39.388  32.054  33.669  1.00  0.00    -0.248 NA
ATOM     61  C   UNL A   1      37.609  33.561  33.515  1.00  0.00     0.031 C 
ATOM     62  C   UNL A   1      42.081  31.704  37.173  1.00  0.00     0.029 A 
ATOM     63  C   UNL A   1      41.221  31.833  36.095  1.00  0.00     0.049 A 
ATOM     64  H   UNL A   1      41.160  30.725  34.299  1.00  0.00     0.167 HD
ATOM     65  C   UNL A   1      39.338  32.824  34.827  1.00  0.00     0.074 A 
ATOM     66  C   UNL A   1      38.244  33.758  34.662  1.00  0.00     0.031 C 
ATOM     67  C   UNL A   1      40.130  32.761  35.927  1.00  0.00     0.031 A 
BRANCH  54  68
ATOM     68  C   UNL A   1      44.440  28.338  35.662  1.00  0.00    -0.014 A 
ATOM     69  C   UNL A   1      44.198  27.178  36.422  1.00  0.00     0.010 A 
ATOM     70  C   UNL A   1      45.766  28.791  35.520  1.00  0.00     0.010 A 
ATOM     71  C   UNL A   1      45.250  26.515  37.062  1.00  0.00     0.020 A 
ATOM     72  C   UNL A   1      46.825  28.112  36.132  1.00  0.00     0.020 A 
ATOM     73  C   UNL A   1      46.557  26.988  36.913  1.00  0.00     0.054 A 
BRANCH  73  74
ATOM     74  S   UNL A   1      47.904  26.092  37.736  1.00  0.00     0.124 S 
ATOM     75  O   UNL A   1      48.233  26.990  38.841  1.00  0.00    -0.237 OA
ATOM     76  O   UNL A   1      47.265  24.836  38.118  1.00  0.00    -0.237 OA
ATOM     77  O   UNL A   1      48.929  25.977  36.702  1.00  0.00    -0.744 OA
ENDBRANCH  73  74
ENDBRANCH  54  68
BRANCH  55  78
ATOM     78  C   UNL A   1      36.874  32.687  30.818  1.00  0.00    -0.014 A 
ATOM     79  C   UNL A   1      35.571  32.175  30.947  1.00  0.00     0.010 A 
ATOM     80  C   UNL A   1      37.082  33.821  30.010  1.00  0.00     0.010 A 
ATOM     81  C   UNL A   1      34.503  32.771  30.270  1.00  0.00     0.020 A 
ATOM     82  C   UNL A   1      36.012  34.439  29.359  1.00  0.00     0.020 A 
ATOM     83  C   UNL A   1      34.730  33.904  29.484  1.00  0.00     0.054 A 
BRANCH  83  84
ATOM     84  S   UNL A   1      33.320  34.694  28.658  1.00  0.00     0.124 S 
ATOM     85  O   UNL A   1      32.795  33.603  27.841  1.00  0.00    -0.237 OA
ATOM     86  O   UNL A   1      32.484  35.101  29.784  1.00  0.00    -0.237 OA
ATOM     87  O   UNL A   1      33.931  35.794  27.915  1.00  0.00    -0.744 OA
ENDBRANCH  83  84
ENDBRANCH  55  78
BRANCH  67  88
ATOM     88  C   UNL A   1      39.875  33.757  37.030  1.00  0.00    -0.014 A 
ATOM     89  C   UNL A   1      39.098  33.425  38.153  1.00  0.00     0.010 A 
ATOM     90  C   UNL A   1      40.470  35.031  36.963  1.00  0.00     0.010 A 
ATOM     91  C   UNL A   1      38.894  34.359  39.175  1.00  0.00     0.020 A 
ATOM     92  C   UNL A   1      40.296  35.955  37.996  1.00  0.00     0.020 A 
ATOM     93  C   UNL A   1      39.496  35.619  39.089  1.00  0.00     0.054 A 
BRANCH  93  94
ATOM     94  S   UNL A   1      39.251  36.797  40.447  1.00  0.00     0.124 S 
ATOM     95  O   UNL A   1      38.442  36.020  41.382  1.00  0.00    -0.237 OA
ATOM     96  O   UNL A   1      40.619  37.073  40.880  1.00  0.00    -0.237 OA
ATOM     97  O   UNL A   1      38.565  37.920  39.814  1.00  0.00    -0.744 OA
ENDBRANCH  93  94
ENDBRANCH  67  88
ENDBRANCH  41  42
ENDBRANCH  33  36
ENDBRANCH  31  32
ENDBRANCH  30  31
ENDBRANCH   1  30
TORSDOF 17
ENDMDL
MODEL 2
REMARK VINA RESULT:     -11.5      6.053     11.674
REMARK SMILES O=C(C[N@@H+]1CC[N@H+](Cc2cc(F)ccc2Cl)[C@H]2CS(=O)(=O)C[C@H]21)NCCCCNC(=O)c1ccc(-c2c3nc(c(-c4ccc(S(=O)(=O)[O-])cc4)c4ccc([nH]4)c(-c4ccc(S(=O)(=O)[O-])cc4)c4nc(c(-c5ccc(S(=O)(=O)[O-])cc5)c5ccc2[nH]5)C=C4)C=C3)cc1
REMARK SMILES IDX 26 1 25 2 24 3 1 4 2 5 3 7 4 8 5 9 23 10 6 12 17 13 22 14
REMARK SMILES IDX 7 15 18 16 19 17 20 19 21 20 8 21 9 22 10 23 15 24 11 25
REMARK SMILES IDX 14 26 16 27 12 28 13 29 27 30 28 31 29 32 30 33 31 35 32 36
REMARK SMILES IDX 33 37 91 38 34 39 90 40 35 41 36 42 37 43 84 44 38 45 89 46
REMARK SMILES IDX 83 47 85 48 39 49 88 50 82 51 81 52 40 54 70 55 51 56 69 57
REMARK SMILES IDX 52 58 55 59 68 60 86 61 53 62 54 63 67 65 87 66 56 67 41 68
REMARK SMILES IDX 42 69 50 70 43 71 49 72 44 73 45 74 46 75 47 76 48 77 71 78
REMARK SMILES IDX 72 79 80 80 73 81 79 82 74 83 75 84 76 85 77 86 78 87 57 88
REMARK SMILES IDX 58 89 66 90 59 91 65 92 60 93 61 94 62 95 63 96 64 97
REMARK H PARENT 24 6 4 11 7 18 29 34 85 53 55 64
REMARK Flexibility Score: inf
ROOT
ATOM      1  C   UNL A   1      35.492  32.481  27.893  1.00  0.00     0.023 C 
ENDROOT
BRANCH   1   2
ATOM      2  C   UNL A   1      34.365  31.453  28.077  1.00  0.00     0.116 C 
BRANCH   2   3
ATOM      3  N   UNL A   1      34.033  30.690  26.882  1.00  0.00    -0.351 N 
ATOM      4  O   UNL A   1      35.429  28.934  27.376  1.00  0.00    -0.269 OA
ATOM      5  C   UNL A   1      34.513  29.397  26.702  1.00  0.00     0.275 C 
ATOM      6  H   UNL A   1      33.461  31.096  26.192  1.00  0.00     0.163 HD
BRANCH   5   7
ATOM      7  C   UNL A   1      33.708  28.554  25.690  1.00  0.00     0.364 C 
BRANCH   7   8
ATOM      8  N   UNL A   1      32.266  28.928  25.597  1.00  0.00    -0.314 N 
ATOM      9  C   UNL A   1      31.451  28.103  26.518  1.00  0.00     0.325 C 
ATOM     10  C   UNL A   1      31.695  28.850  24.240  1.00  0.00     0.259 C 
ATOM     11  H   UNL A   1      32.233  29.911  25.866  1.00  0.00     0.349 HD
ATOM     12  C   UNL A   1      31.023  26.690  26.011  1.00  0.00     0.325 C 
ATOM     13  C   UNL A   1      31.597  27.402  23.667  1.00  0.00     0.259 C 
ATOM     14  C   UNL A   1      30.302  29.481  24.147  1.00  0.00     0.208 C 
ATOM     15  N   UNL A   1      31.386  26.332  24.647  1.00  0.00    -0.318 N 
ATOM     16  C   UNL A   1      30.634  27.457  22.469  1.00  0.00     0.208 C 
ATOM     17  S   UNL A   1      29.756  29.003  22.536  1.00  0.00     0.162 S 
ATOM     18  H   UNL A   1      30.469  26.147  24.240  1.00  0.00     0.349 HD
ATOM     19  O   UNL A   1      30.348  29.903  21.570  1.00  0.00    -0.228 OA
ATOM     20  O   UNL A   1      28.330  28.745  22.576  1.00  0.00    -0.228 OA
BRANCH  15  21
ATOM     21  C   UNL A   1      31.816  24.947  24.372  1.00  0.00     0.301 C 
BRANCH  21  22
ATOM     22  C   UNL A   1      32.877  24.349  25.305  1.00  0.00     0.028 A 
ATOM     23  C   UNL A   1      34.227  24.732  25.236  1.00  0.00     0.050 A 
ATOM     24  C   UNL A   1      32.559  23.432  26.328  1.00  0.00     0.050 A 
ATOM     25  C   UNL A   1      35.219  24.055  25.946  1.00  0.00     0.123 A 
ATOM     26  C   UNL A   1      33.562  22.708  26.998  1.00  0.00     0.024 A 
ATOM     27  Cl  UNL A   1      30.934  23.214  26.883  1.00  0.00    -0.084 Cl
ATOM     28  F   UNL A   1      36.498  24.426  25.797  1.00  0.00    -0.207 F 
ATOM     29  C   UNL A   1      34.905  22.994  26.774  1.00  0.00     0.041 A 
ENDBRANCH  21  22
ENDBRANCH  15  21
ENDBRANCH   7   8
ENDBRANCH   5   7
ENDBRANCH   2   3
ENDBRANCH   1   2
BRANCH   1  30
ATOM     30  C   UNL A   1      35.571  33.606  28.930  1.00  0.00     0.023 C 
BRANCH  30  31
ATOM     31  C   UNL A   1      36.414  33.386  30.183  1.00  0.00     0.116 C 
BRANCH  31  32
ATOM     32  N   UNL A   1      36.017  32.196  30.910  1.00  0.00    -0.352 N 
ATOM     33  C   UNL A   1      36.582  30.946  31.023  1.00  0.00     0.251 C 
ATOM     34  H   UNL A   1      35.183  32.304  31.421  1.00  0.00     0.163 HD
ATOM     35  O   UNL A   1      35.879  30.059  31.513  1.00  0.00    -0.269 OA
BRANCH  33  36
ATOM     36  C   UNL A   1      37.971  30.601  30.590  1.00  0.00     0.039 A 
ATOM     37  C   UNL A   1      38.194  30.417  29.216  1.00  0.00     0.014 A 
ATOM     38  C   UNL A   1      39.023  30.330  31.468  1.00  0.00     0.014 A 
ATOM     39  C   UNL A   1      39.442  29.996  28.732  1.00  0.00     0.010 A 
ATOM     40  C   UNL A   1      40.297  29.989  30.978  1.00  0.00     0.010 A 
ATOM     41  C   UNL A   1      40.522  29.799  29.605  1.00  0.00    -0.014 A 
BRANCH  41  42
ATOM     42  C   UNL A   1      41.862  29.374  29.090  1.00  0.00     0.031 A 
ATOM     43  C   UNL A   1      43.009  30.356  29.004  1.00  0.00     0.074 A 
ATOM     44  C   UNL A   1      42.058  28.104  28.674  1.00  0.00     0.049 A 
ATOM     45  N   UNL A   1      44.229  30.170  28.558  1.00  0.00    -0.248 NA
ATOM     46  C   UNL A   1      42.749  31.729  29.464  1.00  0.00     0.031 C 
ATOM     47  C   UNL A   1      41.043  27.047  28.682  1.00  0.00     0.029 A 
ATOM     48  N   UNL A   1      43.174  27.481  28.165  1.00  0.00    -0.354 N 
ATOM     49  C   UNL A   1      44.869  31.402  28.660  1.00  0.00     0.074 A 
ATOM     50  C   UNL A   1      43.891  32.339  29.169  1.00  0.00     0.031 C 
ATOM     51  C   UNL A   1      41.592  25.905  28.234  1.00  0.00     0.029 A 
ATOM     52  C   UNL A   1      42.979  26.153  27.858  1.00  0.00     0.049 A 
ATOM     53  H   UNL A   1      44.033  27.943  28.031  1.00  0.00     0.167 HD
ATOM     54  C   UNL A   1      46.155  31.728  28.373  1.00  0.00     0.031 A 
ATOM     55  C   UNL A   1      43.813  25.235  27.326  1.00  0.00     0.031 A 
ATOM     56  C   UNL A   1      47.137  30.797  27.878  1.00  0.00     0.049 A 
ATOM     57  C   UNL A   1      45.227  25.626  26.988  1.00  0.00     0.074 A 
ATOM     58  C   UNL A   1      48.477  31.023  27.611  1.00  0.00     0.029 A 
ATOM     59  N   UNL A   1      46.889  29.468  27.568  1.00  0.00    -0.354 N 
ATOM     60  N   UNL A   1      45.823  26.783  27.148  1.00  0.00    -0.248 NA
ATOM     61  C   UNL A   1      46.084  24.583  26.405  1.00  0.00     0.031 C 
ATOM     62  C   UNL A   1      49.022  29.850  27.078  1.00  0.00     0.029 A 
ATOM     63  C   UNL A   1      48.042  28.872  27.083  1.00  0.00     0.049 A 
ATOM     64  H   UNL A   1      46.021  29.015  27.678  1.00  0.00     0.167 HD
ATOM     65  C   UNL A   1      47.132  26.598  26.716  1.00  0.00     0.074 A 
ATOM     66  C   UNL A   1      47.245  25.215  26.302  1.00  0.00     0.031 C 
ATOM     67  C   UNL A   1      48.149  27.495  26.670  1.00  0.00     0.031 A 
BRANCH  54  68
ATOM     68  C   UNL A   1      46.579  33.164  28.571  1.00  0.00    -0.014 A 
ATOM     69  C   UNL A   1      47.140  33.602  29.786  1.00  0.00     0.010 A 
ATOM     70  C   UNL A   1      46.467  34.079  27.507  1.00  0.00     0.010 A 
ATOM     71  C   UNL A   1      47.536  34.933  29.947  1.00  0.00     0.020 A 
ATOM     72  C   UNL A   1      46.891  35.403  27.653  1.00  0.00     0.020 A 
ATOM     73  C   UNL A   1      47.408  35.826  28.879  1.00  0.00     0.054 A 
BRANCH  73  74
ATOM     74  S   UNL A   1      47.952  37.541  29.111  1.00  0.00     0.124 S 
ATOM     75  O   UNL A   1      49.355  37.470  28.713  1.00  0.00    -0.237 OA
ATOM     76  O   UNL A   1      47.079  38.279  28.201  1.00  0.00    -0.237 OA
ATOM     77  O   UNL A   1      47.720  37.792  30.531  1.00  0.00    -0.744 OA
ENDBRANCH  73  74
ENDBRANCH  54  68
BRANCH  55  78
ATOM     78  C   UNL A   1      43.331  23.844  27.080  1.00  0.00    -0.014 A 
ATOM     79  C   UNL A   1      43.153  23.366  25.769  1.00  0.00     0.010 A 
ATOM     80  C   UNL A   1      43.049  22.987  28.160  1.00  0.00     0.010 A 
ATOM     81  C   UNL A   1      42.687  22.068  25.544  1.00  0.00     0.020 A 
ATOM     82  C   UNL A   1      42.615  21.678  27.938  1.00  0.00     0.020 A 
ATOM     83  C   UNL A   1      42.425  21.229  26.631  1.00  0.00     0.054 A 
BRANCH  83  84
ATOM     84  S   UNL A   1      41.873  19.530  26.314  1.00  0.00     0.124 S 
ATOM     85  O   UNL A   1      42.325  18.834  27.515  1.00  0.00    -0.237 OA
ATOM     86  O   UNL A   1      40.427  19.689  26.180  1.00  0.00    -0.237 OA
ATOM     87  O   UNL A   1      42.569  19.168  25.081  1.00  0.00    -0.744 OA
ENDBRANCH  83  84
ENDBRANCH  55  78
BRANCH  67  88
ATOM     88  C   UNL A   1      49.492  27.005  26.191  1.00  0.00    -0.014 A 
ATOM     89  C   UNL A   1      50.299  26.175  26.989  1.00  0.00     0.010 A 
ATOM     90  C   UNL A   1      49.929  27.341  24.896  1.00  0.00     0.010 A 
ATOM     91  C   UNL A   1      51.532  25.716  26.513  1.00  0.00     0.020 A 
ATOM     92  C   UNL A   1      51.145  26.858  24.404  1.00  0.00     0.020 A 
ATOM     93  C   UNL A   1      51.946  26.060  25.222  1.00  0.00     0.054 A 
BRANCH  93  94
ATOM     94  S   UNL A   1      53.529  25.416  24.613  1.00  0.00     0.124 S 
ATOM     95  O   UNL A   1      54.485  26.342  25.213  1.00  0.00    -0.237 OA
ATOM     96  O   UNL A   1      53.548  24.057  25.151  1.00  0.00    -0.237 OA
ATOM     97  O   UNL A   1      53.404  25.503  23.161  1.00  0.00    -0.744 OA
ENDBRANCH  93  94
ENDBRANCH  67  88
ENDBRANCH  41  42
ENDBRANCH  33  36
ENDBRANCH  31  32
ENDBRANCH  30  31
ENDBRANCH   1  30
TORSDOF 17
ENDMDL
MODEL 3
REMARK VINA RESULT:     -11.4      2.247      2.939
REMARK SMILES O=C(C[N@@H+]1CC[N@H+](Cc2cc(F)ccc2Cl)[C@H]2CS(=O)(=O)C[C@H]21)NCCCCNC(=O)c1ccc(-c2c3nc(c(-c4ccc(S(=O)(=O)[O-])cc4)c4ccc([nH]4)c(-c4ccc(S(=O)(=O)[O-])cc4)c4nc(c(-c5ccc(S(=O)(=O)[O-])cc5)c5ccc2[nH]5)C=C4)C=C3)cc1
REMARK SMILES IDX 26 1 25 2 24 3 1 4 2 5 3 7 4 8 5 9 23 10 6 12 17 13 22 14
REMARK SMILES IDX 7 15 18 16 19 17 20 19 21 20 8 21 9 22 10 23 15 24 11 25
REMARK SMILES IDX 14 26 16 27 12 28 13 29 27 30 28 31 29 32 30 33 31 35 32 36
REMARK SMILES IDX 33 37 91 38 34 39 90 40 35 41 36 42 37 43 84 44 38 45 89 46
REMARK SMILES IDX 83 47 85 48 39 49 88 50 82 51 81 52 40 54 70 55 51 56 69 57
REMARK SMILES IDX 52 58 55 59 68 60 86 61 53 62 54 63 67 65 87 66 56 67 41 68
REMARK SMILES IDX 42 69 50 70 43 71 49 72 44 73 45 74 46 75 47 76 48 77 71 78
REMARK SMILES IDX 72 79 80 80 73 81 79 82 74 83 75 84 76 85 77 86 78 87 57 88
REMARK SMILES IDX 58 89 66 90 59 91 65 92 60 93 61 94 62 95 63 96 64 97
REMARK H PARENT 24 6 4 11 7 18 29 34 85 53 55 64
REMARK Flexibility Score: inf
ROOT
ATOM      1  C   UNL A   1      37.049  22.788  25.244  1.00  0.00     0.023 C 
ENDROOT
BRANCH   1   2
ATOM      2  C   UNL A   1      35.552  22.490  25.079  1.00  0.00     0.116 C 
BRANCH   2   3
ATOM      3  N   UNL A   1      34.723  23.657  24.810  1.00  0.00    -0.351 N 
ATOM      4  O   UNL A   1      34.786  23.419  22.526  1.00  0.00    -0.269 OA
ATOM      5  C   UNL A   1      34.293  23.947  23.519  1.00  0.00     0.275 C 
ATOM      6  H   UNL A   1      34.464  24.249  25.552  1.00  0.00     0.163 HD
BRANCH   5   7
ATOM      7  C   UNL A   1      33.059  24.872  23.451  1.00  0.00     0.364 C 
BRANCH   7   8
ATOM      8  N   UNL A   1      32.613  25.390  24.778  1.00  0.00    -0.314 N 
ATOM      9  C   UNL A   1      31.158  25.182  24.958  1.00  0.00     0.325 C 
ATOM     10  C   UNL A   1      32.936  26.807  25.027  1.00  0.00     0.259 C 
ATOM     11  H   UNL A   1      33.143  24.850  25.461  1.00  0.00     0.349 HD
ATOM     12  C   UNL A   1      30.208  26.246  24.325  1.00  0.00     0.325 C 
ATOM     13  C   UNL A   1      32.166  27.811  24.114  1.00  0.00     0.259 C 
ATOM     14  C   UNL A   1      32.693  27.222  26.482  1.00  0.00     0.208 C 
ATOM     15  N   UNL A   1      30.827  27.398  23.684  1.00  0.00    -0.318 N 
ATOM     16  C   UNL A   1      32.298  29.200  24.763  1.00  0.00     0.208 C 
ATOM     17  S   UNL A   1      32.878  28.978  26.429  1.00  0.00     0.162 S 
ATOM     18  H   UNL A   1      30.423  28.164  24.221  1.00  0.00     0.349 HD
ATOM     19  O   UNL A   1      34.292  29.288  26.462  1.00  0.00    -0.228 OA
ATOM     20  O   UNL A   1      31.935  29.582  27.351  1.00  0.00    -0.228 OA
BRANCH  15  21
ATOM     21  C   UNL A   1      30.227  27.919  22.440  1.00  0.00     0.301 C 
BRANCH  21  22
ATOM     22  C   UNL A   1      29.289  29.126  22.571  1.00  0.00     0.028 A 
ATOM     23  C   UNL A   1      29.605  30.376  22.016  1.00  0.00     0.050 A 
ATOM     24  C   UNL A   1      28.028  29.042  23.197  1.00  0.00     0.050 A 
ATOM     25  C   UNL A   1      28.851  31.516  22.297  1.00  0.00     0.123 A 
ATOM     26  C   UNL A   1      27.300  30.199  23.532  1.00  0.00     0.024 A 
ATOM     27  Cl  UNL A   1      27.261  27.521  23.502  1.00  0.00    -0.084 Cl
ATOM     28  F   UNL A   1      29.233  32.695  21.786  1.00  0.00    -0.207 F 
ATOM     29  C   UNL A   1      27.739  31.451  23.114  1.00  0.00     0.041 A 
ENDBRANCH  21  22
ENDBRANCH  15  21
ENDBRANCH   7   8
ENDBRANCH   5   7
ENDBRANCH   2   3
ENDBRANCH   1   2
BRANCH   1  30
ATOM     30  C   UNL A   1      37.416  24.054  26.023  1.00  0.00     0.023 C 
BRANCH  30  31
ATOM     31  C   UNL A   1      38.719  24.070  26.819  1.00  0.00     0.116 C 
BRANCH  31  32
ATOM     32  N   UNL A   1      39.786  24.751  26.112  1.00  0.00    -0.352 N 
ATOM     33  C   UNL A   1      40.430  25.947  26.333  1.00  0.00     0.251 C 
ATOM     34  H   UNL A   1      40.112  24.264  25.321  1.00  0.00     0.163 HD
ATOM     35  O   UNL A   1      41.128  26.383  25.415  1.00  0.00    -0.269 OA
BRANCH  33  36
ATOM     36  C   UNL A   1      40.333  26.741  27.597  1.00  0.00     0.039 A 
ATOM     37  C   UNL A   1      41.077  27.930  27.674  1.00  0.00     0.014 A 
ATOM     38  C   UNL A   1      39.656  26.315  28.741  1.00  0.00     0.014 A 
ATOM     39  C   UNL A   1      41.121  28.684  28.857  1.00  0.00     0.010 A 
ATOM     40  C   UNL A   1      39.633  27.112  29.901  1.00  0.00     0.010 A 
ATOM     41  C   UNL A   1      40.379  28.299  29.983  1.00  0.00    -0.014 A 
BRANCH  41  42
ATOM     42  C   UNL A   1      40.405  29.114  31.239  1.00  0.00     0.031 A 
ATOM     43  C   UNL A   1      41.488  28.911  32.275  1.00  0.00     0.074 A 
ATOM     44  C   UNL A   1      39.443  30.032  31.472  1.00  0.00     0.049 A 
ATOM     45  N   UNL A   1      41.651  29.507  33.432  1.00  0.00    -0.248 NA
ATOM     46  C   UNL A   1      42.513  27.897  31.981  1.00  0.00     0.031 C 
ATOM     47  C   UNL A   1      38.325  30.330  30.573  1.00  0.00     0.029 A 
ATOM     48  N   UNL A   1      39.247  30.888  32.532  1.00  0.00    -0.354 N 
ATOM     49  C   UNL A   1      42.775  28.925  34.012  1.00  0.00     0.074 A 
ATOM     50  C   UNL A   1      43.229  27.898  33.098  1.00  0.00     0.031 C 
ATOM     51  C   UNL A   1      37.584  31.319  31.102  1.00  0.00     0.029 A 
ATOM     52  C   UNL A   1      38.138  31.693  32.399  1.00  0.00     0.049 A 
ATOM     53  H   UNL A   1      39.844  30.921  33.313  1.00  0.00     0.167 HD
ATOM     54  C   UNL A   1      43.387  29.221  35.186  1.00  0.00     0.031 A 
ATOM     55  C   UNL A   1      37.614  32.622  33.225  1.00  0.00     0.031 A 
ATOM     56  C   UNL A   1      42.946  30.251  36.093  1.00  0.00     0.049 A 
ATOM     57  C   UNL A   1      38.293  32.915  34.537  1.00  0.00     0.074 A 
ATOM     58  C   UNL A   1      43.534  30.660  37.279  1.00  0.00     0.029 A 
ATOM     59  N   UNL A   1      41.812  31.028  35.923  1.00  0.00    -0.354 N 
ATOM     60  N   UNL A   1      39.388  32.390  35.033  1.00  0.00    -0.248 NA
ATOM     61  C   UNL A   1      37.670  33.933  35.396  1.00  0.00     0.031 C 
ATOM     62  C   UNL A   1      42.719  31.638  37.859  1.00  0.00     0.029 A 
ATOM     63  C   UNL A   1      41.664  31.891  36.998  1.00  0.00     0.049 A 
ATOM     64  H   UNL A   1      41.200  30.976  35.153  1.00  0.00     0.167 HD
ATOM     65  C   UNL A   1      39.601  33.037  36.247  1.00  0.00     0.074 A 
ATOM     66  C   UNL A   1      38.531  34.000  36.401  1.00  0.00     0.031 C 
ATOM     67  C   UNL A   1      40.596  32.848  37.148  1.00  0.00     0.031 A 
BRANCH  54  68
ATOM     68  C   UNL A   1      44.599  28.409  35.574  1.00  0.00    -0.014 A 
ATOM     69  C   UNL A   1      44.475  27.192  36.271  1.00  0.00     0.010 A 
ATOM     70  C   UNL A   1      45.882  28.841  35.188  1.00  0.00     0.010 A 
ATOM     71  C   UNL A   1      45.609  26.450  36.613  1.00  0.00     0.020 A 
ATOM     72  C   UNL A   1      47.017  28.085  35.500  1.00  0.00     0.020 A 
ATOM     73  C   UNL A   1      46.874  26.902  36.226  1.00  0.00     0.054 A 
BRANCH  73  74
ATOM     74  S   UNL A   1      48.325  25.905  36.665  1.00  0.00     0.124 S 
ATOM     75  O   UNL A   1      49.386  26.568  35.910  1.00  0.00    -0.237 OA
ATOM     76  O   UNL A   1      48.395  26.063  38.115  1.00  0.00    -0.237 OA
ATOM     77  O   UNL A   1      47.978  24.564  36.203  1.00  0.00    -0.744 OA
ENDBRANCH  73  74
ENDBRANCH  54  68
BRANCH  55  78
ATOM     78  C   UNL A   1      36.373  33.353  32.834  1.00  0.00    -0.014 A 
ATOM     79  C   UNL A   1      35.129  33.005  33.389  1.00  0.00     0.010 A 
ATOM     80  C   UNL A   1      36.431  34.407  31.903  1.00  0.00     0.010 A 
ATOM     81  C   UNL A   1      33.967  33.682  33.008  1.00  0.00     0.020 A 
ATOM     82  C   UNL A   1      35.276  35.108  31.545  1.00  0.00     0.020 A 
ATOM     83  C   UNL A   1      34.048  34.733  32.091  1.00  0.00     0.054 A 
BRANCH  83  84
ATOM     84  S   UNL A   1      32.535  35.633  31.653  1.00  0.00     0.124 S 
ATOM     85  O   UNL A   1      31.554  35.036  32.554  1.00  0.00    -0.237 OA
ATOM     86  O   UNL A   1      32.899  37.018  31.940  1.00  0.00    -0.237 OA
ATOM     87  O   UNL A   1      32.353  35.327  30.236  1.00  0.00    -0.744 OA
ENDBRANCH  83  84
ENDBRANCH  55  78
BRANCH  67  88
ATOM     88  C   UNL A   1      40.607  33.729  38.373  1.00  0.00    -0.014 A 
ATOM     89  C   UNL A   1      39.951  33.349  39.557  1.00  0.00     0.010 A 
ATOM     90  C   UNL A   1      41.331  34.936  38.351  1.00  0.00     0.010 A 
ATOM     91  C   UNL A   1      39.994  34.173  40.686  1.00  0.00     0.020 A 
ATOM     92  C   UNL A   1      41.404  35.746  39.486  1.00  0.00     0.020 A 
ATOM     93  C   UNL A   1      40.722  35.367  40.644  1.00  0.00     0.054 A 
BRANCH  93  94
ATOM     94  S   UNL A   1      40.797  36.396  42.135  1.00  0.00     0.124 S 
ATOM     95  O   UNL A   1      41.463  37.598  41.643  1.00  0.00    -0.237 OA
ATOM     96  O   UNL A   1      39.386  36.558  42.482  1.00  0.00    -0.237 OA
ATOM     97  O   UNL A   1      41.575  35.593  43.074  1.00  0.00    -0.744 OA
ENDBRANCH  93  94
ENDBRANCH  67  88
ENDBRANCH  41  42
ENDBRANCH  33  36
ENDBRANCH  31  32
ENDBRANCH  30  31
ENDBRANCH   1  30
TORSDOF 17
ENDMDL
