MODEL 1
REMARK VINA RESULT:     -10.9      0.000      0.000
REMARK SMILES C[C@@H](C(=O)NCCCCNC(=O)c1ccc(-c2c3nc(c(-c4ccc(S(=O)(=O)[O-])cc4)c4ccc([nH]4)c(-c4ccc(S(=O)(=O)[O-])cc4)c4nc(c(-c5ccc(S(=O)(=O)[O-])cc5)c5ccc2[nH]5)C=C4)C=C3)cc1)c1ccc(C[C@H]2CCC[C@@H]2O)cc1F
REMARK SMILES IDX 7 1 6 2 5 3 3 4 4 5 2 7 1 8 73 9 74 10 85 11 75 12 84 13
REMARK SMILES IDX 86 14 76 15 77 16 78 17 79 18 82 19 80 20 81 21 83 22 8 24
REMARK SMILES IDX 9 25 10 26 11 27 12 29 13 30 14 31 72 32 15 33 71 34 16 35
REMARK SMILES IDX 17 36 18 37 65 38 19 39 70 40 64 41 66 42 20 43 69 44 63 45
REMARK SMILES IDX 62 46 21 48 51 49 32 50 50 51 33 52 36 53 49 54 67 55 34 56
REMARK SMILES IDX 35 57 48 59 68 60 37 61 22 62 23 63 31 64 24 65 30 66 25 67
REMARK SMILES IDX 26 68 27 69 28 70 29 71 52 72 53 73 61 74 54 75 60 76 55 77
REMARK SMILES IDX 56 78 57 79 58 80 59 81 38 82 39 83 47 84 40 85 46 86 41 87
REMARK SMILES IDX 42 88 43 89 44 90 45 91
REMARK H PARENT 5 6 83 23 10 28 66 47 36 58
REMARK Flexibility Score: inf
ROOT
ATOM      1  C   UNL A   1      32.979  29.193  24.758  1.00  0.00     0.023 C 
ENDROOT
BRANCH   1   2
ATOM      2  C   UNL A   1      31.609  28.533  24.601  1.00  0.00     0.116 C 
BRANCH   2   3
ATOM      3  N   UNL A   1      31.391  28.086  23.241  1.00  0.00    -0.356 N 
ATOM      4  C   UNL A   1      31.240  26.824  22.742  1.00  0.00     0.227 C 
ATOM      5  O   UNL A   1      31.115  26.718  21.522  1.00  0.00    -0.274 OA
ATOM      6  H   UNL A   1      31.345  28.805  22.570  1.00  0.00     0.163 HD
BRANCH   4   7
ATOM      7  C   UNL A   1      31.158  25.628  23.701  1.00  0.00     0.108 C 
ATOM      8  C   UNL A   1      30.103  25.811  24.798  1.00  0.00     0.023 C 
BRANCH   7   9
ATOM      9  C   UNL A   1      32.518  25.290  24.293  1.00  0.00    -0.000 A 
ATOM     10  C   UNL A   1      33.628  25.132  23.451  1.00  0.00     0.008 A 
ATOM     11  C   UNL A   1      32.711  25.137  25.670  1.00  0.00     0.127 A 
ATOM     12  C   UNL A   1      34.864  24.742  23.970  1.00  0.00     0.004 A 
ATOM     13  C   UNL A   1      33.934  24.727  26.190  1.00  0.00     0.043 A 
ATOM     14  F   UNL A   1      31.698  25.335  26.525  1.00  0.00    -0.207 F 
ATOM     15  C   UNL A   1      35.013  24.475  25.336  1.00  0.00    -0.045 A 
BRANCH  15  16
ATOM     16  C   UNL A   1      36.287  23.878  25.881  1.00  0.00     0.041 C 
BRANCH  16  17
ATOM     17  C   UNL A   1      36.332  22.339  25.910  1.00  0.00     0.022 C 
ATOM     18  C   UNL A   1      34.992  21.610  25.699  1.00  0.00     0.007 C 
ATOM     19  C   UNL A   1      37.277  21.690  24.895  1.00  0.00     0.117 C 
ATOM     20  C   UNL A   1      35.320  20.339  24.906  1.00  0.00     0.003 C 
ATOM     21  C   UNL A   1      36.837  20.234  24.910  1.00  0.00     0.032 C 
BRANCH  19  22
ATOM     22  O   UNL A   1      38.628  21.833  25.289  1.00  0.00    -0.393 OA
ATOM     23  H   UNL A   1      38.822  21.214  26.009  1.00  0.00     0.210 HD
ENDBRANCH  19  22
ENDBRANCH  16  17
ENDBRANCH  15  16
ENDBRANCH   7   9
ENDBRANCH   4   7
ENDBRANCH   2   3
ENDBRANCH   1   2
BRANCH   1  24
ATOM     24  C   UNL A   1      33.928  28.470  25.717  1.00  0.00     0.023 C 
BRANCH  24  25
ATOM     25  C   UNL A   1      33.609  28.634  27.199  1.00  0.00     0.116 C 
BRANCH  25  26
ATOM     26  N   UNL A   1      33.590  30.026  27.623  1.00  0.00    -0.352 N 
ATOM     27  C   UNL A   1      34.585  30.750  28.237  1.00  0.00     0.251 C 
ATOM     28  H   UNL A   1      32.753  30.515  27.447  1.00  0.00     0.163 HD
ATOM     29  O   UNL A   1      34.364  31.887  28.641  1.00  0.00    -0.269 OA
BRANCH  27  30
ATOM     30  C   UNL A   1      35.909  30.127  28.440  1.00  0.00     0.039 A 
ATOM     31  C   UNL A   1      36.826  30.129  27.386  1.00  0.00     0.014 A 
ATOM     32  C   UNL A   1      36.259  29.594  29.684  1.00  0.00     0.014 A 
ATOM     33  C   UNL A   1      38.128  29.674  27.603  1.00  0.00     0.010 A 
ATOM     34  C   UNL A   1      37.572  29.192  29.913  1.00  0.00     0.010 A 
ATOM     35  C   UNL A   1      38.524  29.246  28.882  1.00  0.00    -0.014 A 
BRANCH  35  36
ATOM     36  C   UNL A   1      39.936  28.901  29.183  1.00  0.00     0.031 A 
ATOM     37  C   UNL A   1      40.880  29.953  29.691  1.00  0.00     0.074 A 
ATOM     38  C   UNL A   1      40.390  27.665  28.890  1.00  0.00     0.049 A 
ATOM     39  N   UNL A   1      42.171  29.873  29.886  1.00  0.00    -0.248 NA
ATOM     40  C   UNL A   1      40.305  31.274  29.994  1.00  0.00     0.031 C 
ATOM     41  C   UNL A   1      39.582  26.570  28.346  1.00  0.00     0.029 A 
ATOM     42  N   UNL A   1      41.651  27.130  28.981  1.00  0.00    -0.354 N 
ATOM     43  C   UNL A   1      42.569  31.136  30.306  1.00  0.00     0.074 A 
ATOM     44  C   UNL A   1      41.387  31.972  30.316  1.00  0.00     0.031 C 
ATOM     45  C   UNL A   1      40.366  25.497  28.152  1.00  0.00     0.029 A 
ATOM     46  C   UNL A   1      41.738  25.838  28.515  1.00  0.00     0.049 A 
ATOM     47  H   UNL A   1      42.422  27.624  29.344  1.00  0.00     0.167 HD
ATOM     48  C   UNL A   1      43.807  31.559  30.658  1.00  0.00     0.031 A 
ATOM     49  C   UNL A   1      42.803  25.026  28.370  1.00  0.00     0.031 A 
ATOM     50  C   UNL A   1      44.973  30.717  30.674  1.00  0.00     0.049 A 
ATOM     51  C   UNL A   1      44.166  25.523  28.768  1.00  0.00     0.074 A 
ATOM     52  C   UNL A   1      46.248  31.030  31.112  1.00  0.00     0.029 A 
ATOM     53  N   UNL A   1      45.012  29.407  30.224  1.00  0.00    -0.354 N 
ATOM     54  N   UNL A   1      44.505  26.691  29.257  1.00  0.00    -0.248 NA
ATOM     55  C   UNL A   1      45.291  24.591  28.594  1.00  0.00     0.031 C 
ATOM     56  C   UNL A   1      47.072  29.925  30.878  1.00  0.00     0.029 A 
ATOM     57  C   UNL A   1      46.299  28.909  30.339  1.00  0.00     0.049 A 
ATOM     58  H   UNL A   1      44.240  28.906  29.876  1.00  0.00     0.167 HD
ATOM     59  C   UNL A   1      45.878  26.629  29.464  1.00  0.00     0.074 A 
ATOM     60  C   UNL A   1      46.305  25.305  29.066  1.00  0.00     0.031 C 
ATOM     61  C   UNL A   1      46.709  27.588  29.939  1.00  0.00     0.031 A 
BRANCH  48  62
ATOM     62  C   UNL A   1      43.973  33.001  31.050  1.00  0.00    -0.014 A 
ATOM     63  C   UNL A   1      44.421  33.959  30.123  1.00  0.00     0.010 A 
ATOM     64  C   UNL A   1      43.604  33.416  32.343  1.00  0.00     0.010 A 
ATOM     65  C   UNL A   1      44.521  35.304  30.490  1.00  0.00     0.020 A 
ATOM     66  C   UNL A   1      43.682  34.763  32.706  1.00  0.00     0.020 A 
ATOM     67  C   UNL A   1      44.150  35.696  31.781  1.00  0.00     0.054 A 
BRANCH  67  68
ATOM     68  S   UNL A   1      44.247  37.455  32.215  1.00  0.00     0.124 S 
ATOM     69  O   UNL A   1      43.671  38.089  31.032  1.00  0.00    -0.237 OA
ATOM     70  O   UNL A   1      43.434  37.532  33.427  1.00  0.00    -0.237 OA
ATOM     71  O   UNL A   1      45.676  37.686  32.411  1.00  0.00    -0.744 OA
ENDBRANCH  67  68
ENDBRANCH  48  62
BRANCH  49  72
ATOM     72  C   UNL A   1      42.630  23.662  27.800  1.00  0.00    -0.014 A 
ATOM     73  C   UNL A   1      42.837  23.429  26.429  1.00  0.00     0.010 A 
ATOM     74  C   UNL A   1      42.248  22.590  28.627  1.00  0.00     0.010 A 
ATOM     75  C   UNL A   1      42.641  22.153  25.891  1.00  0.00     0.020 A 
ATOM     76  C   UNL A   1      42.077  21.308  28.098  1.00  0.00     0.020 A 
ATOM     77  C   UNL A   1      42.260  21.102  26.729  1.00  0.00     0.054 A 
BRANCH  77  78
ATOM     78  S   UNL A   1      42.045  19.445  26.019  1.00  0.00     0.124 S 
ATOM     79  O   UNL A   1      42.877  19.519  24.822  1.00  0.00    -0.237 OA
ATOM     80  O   UNL A   1      42.542  18.576  27.083  1.00  0.00    -0.237 OA
ATOM     81  O   UNL A   1      40.607  19.362  25.780  1.00  0.00    -0.744 OA
ENDBRANCH  77  78
ENDBRANCH  49  72
BRANCH  61  82
ATOM     82  C   UNL A   1      48.167  27.241  30.072  1.00  0.00    -0.014 A 
ATOM     83  C   UNL A   1      49.070  27.506  29.029  1.00  0.00     0.010 A 
ATOM     84  C   UNL A   1      48.650  26.716  31.285  1.00  0.00     0.010 A 
ATOM     85  C   UNL A   1      50.431  27.239  29.190  1.00  0.00     0.020 A 
ATOM     86  C   UNL A   1      50.014  26.471  31.459  1.00  0.00     0.020 A 
ATOM     87  C   UNL A   1      50.896  26.727  30.406  1.00  0.00     0.054 A 
BRANCH  87  88
ATOM     88  S   UNL A   1      52.678  26.457  30.618  1.00  0.00     0.124 S 
ATOM     89  O   UNL A   1      52.706  25.280  31.480  1.00  0.00    -0.237 OA
ATOM     90  O   UNL A   1      53.135  26.243  29.247  1.00  0.00    -0.237 OA
ATOM     91  O   UNL A   1      53.143  27.695  31.237  1.00  0.00    -0.744 OA
ENDBRANCH  87  88
ENDBRANCH  61  82
ENDBRANCH  35  36
ENDBRANCH  27  30
ENDBRANCH  25  26
ENDBRANCH  24  25
ENDBRANCH   1  24
TORSDOF 18
ENDMDL
MODEL 2
REMARK VINA RESULT:     -10.7      4.808     10.766
REMARK SMILES C[C@@H](C(=O)NCCCCNC(=O)c1ccc(-c2c3nc(c(-c4ccc(S(=O)(=O)[O-])cc4)c4ccc([nH]4)c(-c4ccc(S(=O)(=O)[O-])cc4)c4nc(c(-c5ccc(S(=O)(=O)[O-])cc5)c5ccc2[nH]5)C=C4)C=C3)cc1)c1ccc(C[C@H]2CCC[C@@H]2O)cc1F
REMARK SMILES IDX 7 1 6 2 5 3 3 4 4 5 2 7 1 8 73 9 74 10 85 11 75 12 84 13
REMARK SMILES IDX 86 14 76 15 77 16 78 17 79 18 82 19 80 20 81 21 83 22 8 24
REMARK SMILES IDX 9 25 10 26 11 27 12 29 13 30 14 31 72 32 15 33 71 34 16 35
REMARK SMILES IDX 17 36 18 37 65 38 19 39 70 40 64 41 66 42 20 43 69 44 63 45
REMARK SMILES IDX 62 46 21 48 51 49 32 50 50 51 33 52 36 53 49 54 67 55 34 56
REMARK SMILES IDX 35 57 48 59 68 60 37 61 22 62 23 63 31 64 24 65 30 66 25 67
REMARK SMILES IDX 26 68 27 69 28 70 29 71 52 72 53 73 61 74 54 75 60 76 55 77
REMARK SMILES IDX 56 78 57 79 58 80 59 81 38 82 39 83 47 84 40 85 46 86 41 87
REMARK SMILES IDX 42 88 43 89 44 90 45 91
REMARK H PARENT 5 6 83 23 10 28 66 47 36 58
REMARK Flexibility Score: inf
ROOT
ATOM      1  C   UNL A   1      36.930  22.424  24.793  1.00  0.00     0.023 C 
ENDROOT
BRANCH   1   2
ATOM      2  C   UNL A   1      36.337  23.257  23.657  1.00  0.00     0.116 C 
BRANCH   2   3
ATOM      3  N   UNL A   1      34.993  22.827  23.333  1.00  0.00    -0.356 N 
ATOM      4  C   UNL A   1      33.788  23.304  23.763  1.00  0.00     0.227 C 
ATOM      5  O   UNL A   1      32.781  22.716  23.366  1.00  0.00    -0.274 OA
ATOM      6  H   UNL A   1      34.939  22.072  22.704  1.00  0.00     0.163 HD
BRANCH   4   7
ATOM      7  C   UNL A   1      33.732  24.562  24.640  1.00  0.00     0.108 C 
ATOM      8  C   UNL A   1      33.534  24.247  26.128  1.00  0.00     0.023 C 
BRANCH   7   9
ATOM      9  C   UNL A   1      32.688  25.549  24.141  1.00  0.00    -0.000 A 
ATOM     10  C   UNL A   1      31.540  25.800  24.907  1.00  0.00     0.008 A 
ATOM     11  C   UNL A   1      32.833  26.235  22.931  1.00  0.00     0.127 A 
ATOM     12  C   UNL A   1      30.534  26.640  24.425  1.00  0.00     0.004 A 
ATOM     13  C   UNL A   1      31.825  27.055  22.437  1.00  0.00     0.043 A 
ATOM     14  F   UNL A   1      33.937  26.078  22.187  1.00  0.00    -0.207 F 
ATOM     15  C   UNL A   1      30.639  27.226  23.159  1.00  0.00    -0.045 A 
BRANCH  15  16
ATOM     16  C   UNL A   1      29.484  27.984  22.551  1.00  0.00     0.041 C 
BRANCH  16  17
ATOM     17  C   UNL A   1      28.935  29.141  23.408  1.00  0.00     0.022 C 
ATOM     18  C   UNL A   1      29.953  30.203  23.859  1.00  0.00     0.007 C 
ATOM     19  C   UNL A   1      27.804  29.951  22.768  1.00  0.00     0.117 C 
ATOM     20  C   UNL A   1      29.205  31.542  23.845  1.00  0.00     0.003 C 
ATOM     21  C   UNL A   1      27.739  31.189  23.649  1.00  0.00     0.032 C 
BRANCH  19  22
ATOM     22  O   UNL A   1      26.586  29.233  22.784  1.00  0.00    -0.393 OA
ATOM     23  H   UNL A   1      26.250  29.145  21.879  1.00  0.00     0.210 HD
ENDBRANCH  19  22
ENDBRANCH  16  17
ENDBRANCH  15  16
ENDBRANCH   7   9
ENDBRANCH   4   7
ENDBRANCH   2   3
ENDBRANCH   1   2
BRANCH   1  24
ATOM     24  C   UNL A   1      37.070  23.168  26.124  1.00  0.00     0.023 C 
BRANCH  24  25
ATOM     25  C   UNL A   1      38.078  24.312  26.128  1.00  0.00     0.116 C 
BRANCH  25  26
ATOM     26  N   UNL A   1      39.458  23.851  26.093  1.00  0.00    -0.352 N 
ATOM     27  C   UNL A   1      40.566  24.418  26.677  1.00  0.00     0.251 C 
ATOM     28  H   UNL A   1      39.620  23.024  25.584  1.00  0.00     0.163 HD
ATOM     29  O   UNL A   1      41.684  23.968  26.449  1.00  0.00    -0.269 OA
BRANCH  27  30
ATOM     30  C   UNL A   1      40.398  25.599  27.549  1.00  0.00     0.039 A 
ATOM     31  C   UNL A   1      39.470  25.544  28.592  1.00  0.00     0.014 A 
ATOM     32  C   UNL A   1      41.195  26.733  27.368  1.00  0.00     0.014 A 
ATOM     33  C   UNL A   1      39.400  26.594  29.509  1.00  0.00     0.010 A 
ATOM     34  C   UNL A   1      41.162  27.753  28.315  1.00  0.00     0.010 A 
ATOM     35  C   UNL A   1      40.278  27.685  29.404  1.00  0.00    -0.014 A 
BRANCH  35  36
ATOM     36  C   UNL A   1      40.333  28.741  30.446  1.00  0.00     0.031 A 
ATOM     37  C   UNL A   1      41.255  28.595  31.624  1.00  0.00     0.074 A 
ATOM     38  C   UNL A   1      39.470  29.775  30.384  1.00  0.00     0.049 A 
ATOM     39  N   UNL A   1      41.349  29.343  32.692  1.00  0.00    -0.248 NA
ATOM     40  C   UNL A   1      42.172  27.443  31.613  1.00  0.00     0.031 C 
ATOM     41  C   UNL A   1      38.492  30.002  29.316  1.00  0.00     0.029 A 
ATOM     42  N   UNL A   1      39.254  30.815  31.255  1.00  0.00    -0.354 N 
ATOM     43  C   UNL A   1      42.310  28.742  33.494  1.00  0.00     0.074 A 
ATOM     44  C   UNL A   1      42.756  27.552  32.800  1.00  0.00     0.031 C 
ATOM     45  C   UNL A   1      37.783  31.108  29.595  1.00  0.00     0.029 A 
ATOM     46  C   UNL A   1      38.224  31.645  30.879  1.00  0.00     0.049 A 
ATOM     47  H   UNL A   1      39.786  30.953  32.072  1.00  0.00     0.167 HD
ATOM     48  C   UNL A   1      42.784  29.148  34.695  1.00  0.00     0.031 A 
ATOM     49  C   UNL A   1      37.674  32.703  31.506  1.00  0.00     0.031 A 
ATOM     50  C   UNL A   1      42.359  30.346  35.368  1.00  0.00     0.049 A 
ATOM     51  C   UNL A   1      38.219  33.131  32.842  1.00  0.00     0.074 A 
ATOM     52  C   UNL A   1      42.853  30.893  36.539  1.00  0.00     0.029 A 
ATOM     53  N   UNL A   1      41.334  31.175  34.939  1.00  0.00    -0.354 N 
ATOM     54  N   UNL A   1      39.199  32.604  33.536  1.00  0.00    -0.248 NA
ATOM     55  C   UNL A   1      37.586  34.296  33.477  1.00  0.00     0.031 C 
ATOM     56  C   UNL A   1      42.093  32.024  36.847  1.00  0.00     0.029 A 
ATOM     57  C   UNL A   1      41.156  32.209  35.843  1.00  0.00     0.049 A 
ATOM     58  H   UNL A   1      40.812  31.048  34.115  1.00  0.00     0.167 HD
ATOM     59  C   UNL A   1      39.309  33.383  34.682  1.00  0.00     0.074 A 
ATOM     60  C   UNL A   1      38.310  34.426  34.581  1.00  0.00     0.031 C 
ATOM     61  C   UNL A   1      40.159  33.242  35.727  1.00  0.00     0.031 A 
BRANCH  48  62
ATOM     62  C   UNL A   1      43.815  28.289  35.373  1.00  0.00    -0.014 A 
ATOM     63  C   UNL A   1      43.437  27.266  36.262  1.00  0.00     0.010 A 
ATOM     64  C   UNL A   1      45.176  28.457  35.058  1.00  0.00     0.010 A 
ATOM     65  C   UNL A   1      44.406  26.443  36.844  1.00  0.00     0.020 A 
ATOM     66  C   UNL A   1      46.144  27.621  35.620  1.00  0.00     0.020 A 
ATOM     67  C   UNL A   1      45.754  26.627  36.518  1.00  0.00     0.054 A 
BRANCH  67  68
ATOM     68  S   UNL A   1      46.984  25.515  37.252  1.00  0.00     0.124 S 
ATOM     69  O   UNL A   1      46.301  24.226  37.188  1.00  0.00    -0.237 OA
ATOM     70  O   UNL A   1      48.128  25.664  36.356  1.00  0.00    -0.237 OA
ATOM     71  O   UNL A   1      47.178  26.050  38.598  1.00  0.00    -0.744 OA
ENDBRANCH  67  68
ENDBRANCH  48  62
BRANCH  49  72
ATOM     72  C   UNL A   1      36.525  33.422  30.892  1.00  0.00    -0.014 A 
ATOM     73  C   UNL A   1      36.611  33.917  29.579  1.00  0.00     0.010 A 
ATOM     74  C   UNL A   1      35.339  33.621  31.623  1.00  0.00     0.010 A 
ATOM     75  C   UNL A   1      35.541  34.620  29.017  1.00  0.00     0.020 A 
ATOM     76  C   UNL A   1      34.259  34.300  31.055  1.00  0.00     0.020 A 
ATOM     77  C   UNL A   1      34.372  34.810  29.760  1.00  0.00     0.054 A 
BRANCH  77  78
ATOM     78  S   UNL A   1      32.981  35.694  29.001  1.00  0.00     0.124 S 
ATOM     79  O   UNL A   1      33.662  36.762  28.275  1.00  0.00    -0.237 OA
ATOM     80  O   UNL A   1      32.361  34.662  28.174  1.00  0.00    -0.237 OA
ATOM     81  O   UNL A   1      32.184  36.123  30.147  1.00  0.00    -0.744 OA
ENDBRANCH  77  78
ENDBRANCH  49  72
BRANCH  61  82
ATOM     82  C   UNL A   1      40.065  34.246  36.842  1.00  0.00    -0.014 A 
ATOM     83  C   UNL A   1      39.225  34.022  37.947  1.00  0.00     0.010 A 
ATOM     84  C   UNL A   1      40.885  35.390  36.821  1.00  0.00     0.010 A 
ATOM     85  C   UNL A   1      39.196  34.932  39.006  1.00  0.00     0.020 A 
ATOM     86  C   UNL A   1      40.877  36.289  37.890  1.00  0.00     0.020 A 
ATOM     87  C   UNL A   1      40.026  36.059  38.973  1.00  0.00     0.054 A 
BRANCH  87  88
ATOM     88  S   UNL A   1      40.024  37.187  40.394  1.00  0.00     0.124 S 
ATOM     89  O   UNL A   1      41.266  36.826  41.069  1.00  0.00    -0.237 OA
ATOM     90  O   UNL A   1      40.014  38.504  39.758  1.00  0.00    -0.237 OA
ATOM     91  O   UNL A   1      38.799  36.839  41.110  1.00  0.00    -0.744 OA
ENDBRANCH  87  88
ENDBRANCH  61  82
ENDBRANCH  35  36
ENDBRANCH  27  30
ENDBRANCH  25  26
ENDBRANCH  24  25
ENDBRANCH   1  24
TORSDOF 18
ENDMDL
MODEL 3
REMARK VINA RESULT:     -10.5      4.119      7.231
REMARK SMILES C[C@@H](C(=O)NCCCCNC(=O)c1ccc(-c2c3nc(c(-c4ccc(S(=O)(=O)[O-])cc4)c4ccc([nH]4)c(-c4ccc(S(=O)(=O)[O-])cc4)c4nc(c(-c5ccc(S(=O)(=O)[O-])cc5)c5ccc2[nH]5)C=C4)C=C3)cc1)c1ccc(C[C@H]2CCC[C@@H]2O)cc1F
REMARK SMILES IDX 7 1 6 2 5 3 3 4 4 5 2 7 1 8 73 9 74 10 85 11 75 12 84 13
REMARK SMILES IDX 86 14 76 15 77 16 78 17 79 18 82 19 80 20 81 21 83 22 8 24
REMARK SMILES IDX 9 25 10 26 11 27 12 29 13 30 14 31 72 32 15 33 71 34 16 35
REMARK SMILES IDX 17 36 18 37 65 38 19 39 70 40 64 41 66 42 20 43 69 44 63 45
REMARK SMILES IDX 62 46 21 48 51 49 32 50 50 51 33 52 36 53 49 54 67 55 34 56
REMARK SMILES IDX 35 57 48 59 68 60 37 61 22 62 23 63 31 64 24 65 30 66 25 67
REMARK SMILES IDX 26 68 27 69 28 70 29 71 52 72 53 73 61 74 54 75 60 76 55 77
REMARK SMILES IDX 56 78 57 79 58 80 59 81 38 82 39 83 47 84 40 85 46 86 41 87
REMARK SMILES IDX 42 88 43 89 44 90 45 91
REMARK H PARENT 5 6 83 23 10 28 66 47 36 58
REMARK Flexibility Score: inf
ROOT
ATOM      1  C   UNL A   1      33.273  34.578  27.824  1.00  0.00     0.023 C 
ENDROOT
BRANCH   1   2
ATOM      2  C   UNL A   1      34.474  34.813  28.741  1.00  0.00     0.116 C 
BRANCH   2   3
ATOM      3  N   UNL A   1      34.060  34.993  30.116  1.00  0.00    -0.356 N 
ATOM      4  C   UNL A   1      34.323  34.235  31.222  1.00  0.00     0.227 C 
ATOM      5  O   UNL A   1      33.799  34.589  32.279  1.00  0.00    -0.274 OA
ATOM      6  H   UNL A   1      33.501  35.786  30.281  1.00  0.00     0.163 HD
BRANCH   4   7
ATOM      7  C   UNL A   1      35.292  33.049  31.123  1.00  0.00     0.108 C 
ATOM      8  C   UNL A   1      35.300  32.176  32.383  1.00  0.00     0.023 C 
BRANCH   7   9
ATOM      9  C   UNL A   1      36.697  33.501  30.754  1.00  0.00    -0.000 A 
ATOM     10  C   UNL A   1      37.261  33.104  29.533  1.00  0.00     0.008 A 
ATOM     11  C   UNL A   1      37.459  34.317  31.595  1.00  0.00     0.127 A 
ATOM     12  C   UNL A   1      38.578  33.442  29.215  1.00  0.00     0.004 A 
ATOM     13  C   UNL A   1      38.778  34.638  31.295  1.00  0.00     0.043 A 
ATOM     14  F   UNL A   1      36.948  34.773  32.748  1.00  0.00    -0.207 F 
ATOM     15  C   UNL A   1      39.369  34.159  30.121  1.00  0.00    -0.045 A 
BRANCH  15  16
ATOM     16  C   UNL A   1      40.843  34.371  29.872  1.00  0.00     0.041 C 
BRANCH  16  17
ATOM     17  C   UNL A   1      41.785  33.637  30.846  1.00  0.00     0.022 C 
ATOM     18  C   UNL A   1      42.473  32.368  30.310  1.00  0.00     0.007 C 
ATOM     19  C   UNL A   1      42.934  34.479  31.407  1.00  0.00     0.117 C 
ATOM     20  C   UNL A   1      43.871  32.344  30.939  1.00  0.00     0.003 C 
ATOM     21  C   UNL A   1      43.858  33.429  32.004  1.00  0.00     0.032 C 
BRANCH  19  22
ATOM     22  O   UNL A   1      42.472  35.388  32.387  1.00  0.00    -0.393 OA
ATOM     23  H   UNL A   1      42.899  35.194  33.235  1.00  0.00     0.210 HD
ENDBRANCH  19  22
ENDBRANCH  16  17
ENDBRANCH  15  16
ENDBRANCH   7   9
ENDBRANCH   4   7
ENDBRANCH   2   3
ENDBRANCH   1   2
BRANCH   1  24
ATOM     24  C   UNL A   1      32.850  33.112  27.691  1.00  0.00     0.023 C 
BRANCH  24  25
ATOM     25  C   UNL A   1      33.940  32.089  27.987  1.00  0.00     0.116 C 
BRANCH  25  26
ATOM     26  N   UNL A   1      33.776  30.852  27.238  1.00  0.00    -0.352 N 
ATOM     27  C   UNL A   1      34.638  29.785  27.144  1.00  0.00     0.251 C 
ATOM     28  H   UNL A   1      32.935  30.768  26.732  1.00  0.00     0.163 HD
ATOM     29  O   UNL A   1      34.400  28.864  26.369  1.00  0.00    -0.269 OA
BRANCH  27  30
ATOM     30  C   UNL A   1      35.871  29.780  27.957  1.00  0.00     0.039 A 
ATOM     31  C   UNL A   1      35.785  29.467  29.316  1.00  0.00     0.014 A 
ATOM     32  C   UNL A   1      37.112  30.030  27.364  1.00  0.00     0.014 A 
ATOM     33  C   UNL A   1      36.953  29.319  30.065  1.00  0.00     0.010 A 
ATOM     34  C   UNL A   1      38.277  29.828  28.099  1.00  0.00     0.010 A 
ATOM     35  C   UNL A   1      38.210  29.453  29.451  1.00  0.00    -0.014 A 
BRANCH  35  36
ATOM     36  C   UNL A   1      39.467  29.153  30.180  1.00  0.00     0.031 A 
ATOM     37  C   UNL A   1      39.820  29.915  31.427  1.00  0.00     0.074 A 
ATOM     38  C   UNL A   1      40.342  28.272  29.653  1.00  0.00     0.049 A 
ATOM     39  N   UNL A   1      40.926  29.884  32.124  1.00  0.00    -0.248 NA
ATOM     40  C   UNL A   1      38.808  30.852  31.943  1.00  0.00     0.031 C 
ATOM     41  C   UNL A   1      40.137  27.505  28.421  1.00  0.00     0.029 A 
ATOM     42  N   UNL A   1      41.595  27.895  30.071  1.00  0.00    -0.354 N 
ATOM     43  C   UNL A   1      40.759  30.815  33.141  1.00  0.00     0.074 A 
ATOM     44  C   UNL A   1      39.453  31.412  32.959  1.00  0.00     0.031 C 
ATOM     45  C   UNL A   1      41.223  26.751  28.185  1.00  0.00     0.029 A 
ATOM     46  C   UNL A   1      42.218  27.012  29.220  1.00  0.00     0.049 A 
ATOM     47  H   UNL A   1      42.008  28.225  30.901  1.00  0.00     0.167 HD
ATOM     48  C   UNL A   1      41.613  31.137  34.141  1.00  0.00     0.031 A 
ATOM     49  C   UNL A   1      43.459  26.489  29.252  1.00  0.00     0.031 A 
ATOM     50  C   UNL A   1      42.898  30.521  34.334  1.00  0.00     0.049 A 
ATOM     51  C   UNL A   1      44.388  26.866  30.373  1.00  0.00     0.074 A 
ATOM     52  C   UNL A   1      43.790  30.710  35.376  1.00  0.00     0.029 A 
ATOM     53  N   UNL A   1      43.480  29.609  33.468  1.00  0.00    -0.354 N 
ATOM     54  N   UNL A   1      44.172  27.675  31.382  1.00  0.00    -0.248 NA
ATOM     55  C   UNL A   1      45.728  26.260  30.360  1.00  0.00     0.031 C 
ATOM     56  C   UNL A   1      44.935  29.952  35.111  1.00  0.00     0.029 A 
ATOM     57  C   UNL A   1      44.735  29.255  33.931  1.00  0.00     0.049 A 
ATOM     58  H   UNL A   1      43.062  29.265  32.646  1.00  0.00     0.167 HD
ATOM     59  C   UNL A   1      45.342  27.663  32.132  1.00  0.00     0.074 A 
ATOM     60  C   UNL A   1      46.256  26.754  31.473  1.00  0.00     0.031 C 
ATOM     61  C   UNL A   1      45.633  28.347  33.264  1.00  0.00     0.031 A 
BRANCH  48  62
ATOM     62  C   UNL A   1      41.196  32.213  35.105  1.00  0.00    -0.014 A 
ATOM     63  C   UNL A   1      40.533  31.896  36.305  1.00  0.00     0.010 A 
ATOM     64  C   UNL A   1      41.539  33.552  34.842  1.00  0.00     0.010 A 
ATOM     65  C   UNL A   1      40.199  32.904  37.213  1.00  0.00     0.020 A 
ATOM     66  C   UNL A   1      41.226  34.559  35.759  1.00  0.00     0.020 A 
ATOM     67  C   UNL A   1      40.548  34.230  36.933  1.00  0.00     0.054 A 
BRANCH  67  68
ATOM     68  S   UNL A   1      40.142  35.511  38.152  1.00  0.00     0.124 S 
ATOM     69  O   UNL A   1      41.324  35.495  39.010  1.00  0.00    -0.237 OA
ATOM     70  O   UNL A   1      39.983  36.704  37.324  1.00  0.00    -0.237 OA
ATOM     71  O   UNL A   1      38.915  35.020  38.775  1.00  0.00    -0.744 OA
ENDBRANCH  67  68
ENDBRANCH  48  62
BRANCH  49  72
ATOM     72  C   UNL A   1      43.909  25.567  28.173  1.00  0.00    -0.014 A 
ATOM     73  C   UNL A   1      43.742  24.177  28.303  1.00  0.00     0.010 A 
ATOM     74  C   UNL A   1      44.516  26.078  27.011  1.00  0.00     0.010 A 
ATOM     75  C   UNL A   1      44.195  23.314  27.302  1.00  0.00     0.020 A 
ATOM     76  C   UNL A   1      44.947  25.220  25.996  1.00  0.00     0.020 A 
ATOM     77  C   UNL A   1      44.798  23.841  26.156  1.00  0.00     0.054 A 
BRANCH  77  78
ATOM     78  S   UNL A   1      45.349  22.706  24.851  1.00  0.00     0.124 S 
ATOM     79  O   UNL A   1      44.080  22.216  24.322  1.00  0.00    -0.237 OA
ATOM     80  O   UNL A   1      46.107  23.585  23.964  1.00  0.00    -0.237 OA
ATOM     81  O   UNL A   1      46.151  21.721  25.573  1.00  0.00    -0.744 OA
ENDBRANCH  77  78
ENDBRANCH  49  72
BRANCH  61  82
ATOM     82  C   UNL A   1      46.989  28.133  33.878  1.00  0.00    -0.014 A 
ATOM     83  C   UNL A   1      48.069  28.972  33.555  1.00  0.00     0.010 A 
ATOM     84  C   UNL A   1      47.164  27.129  34.849  1.00  0.00     0.010 A 
ATOM     85  C   UNL A   1      49.306  28.802  34.181  1.00  0.00     0.020 A 
ATOM     86  C   UNL A   1      48.392  26.973  35.495  1.00  0.00     0.020 A 
ATOM     87  C   UNL A   1      49.459  27.806  35.151  1.00  0.00     0.054 A 
BRANCH  87  88
ATOM     88  S   UNL A   1      51.053  27.652  36.003  1.00  0.00     0.124 S 
ATOM     89  O   UNL A   1      51.945  28.387  35.112  1.00  0.00    -0.237 OA
ATOM     90  O   UNL A   1      50.791  28.286  37.293  1.00  0.00    -0.237 OA
ATOM     91  O   UNL A   1      51.277  26.210  36.060  1.00  0.00    -0.744 OA
ENDBRANCH  87  88
ENDBRANCH  61  82
ENDBRANCH  35  36
ENDBRANCH  27  30
ENDBRANCH  25  26
ENDBRANCH  24  25
ENDBRANCH   1  24
TORSDOF 18
ENDMDL
