MODEL 1
REMARK VINA RESULT:     -11.7      0.000      0.000
REMARK SMILES NS(=O)(=O)c1ccc(-n2nc(NC(=O)NCCCC(=O)NCCCCNC(=O)c3ccc(-c4c5nc(c(-c6ccc(S(=O)(=O)[O-])cc6)c6ccc([nH]6)c(-c6ccc(S(=O)(=O)[O-])cc6)c6nc(c(-c7ccc(S(=O)(=O)[O-])cc7)c7ccc4[nH]7)C=C6)C=C5)cc3)cc2-c2ccccc2)cc1
REMARK SMILES IDX 19 1 20 2 21 3 18 5 17 6 16 7 15 8 12 9 13 10 14 12 11 14
REMARK SMILES IDX 9 15 10 16 90 17 89 18 8 19 5 20 6 21 98 22 7 23 97 24 2 25
REMARK SMILES IDX 3 26 4 27 1 28 91 31 92 32 96 33 93 34 95 35 94 36 22 37
REMARK SMILES IDX 23 38 24 39 25 40 26 41 27 42 28 44 29 45 30 46 88 47 31 48
REMARK SMILES IDX 87 49 32 50 33 51 34 52 81 53 35 54 86 55 80 56 82 57 36 58
REMARK SMILES IDX 85 59 79 60 78 61 37 63 67 64 48 65 66 66 49 67 52 68 65 69
REMARK SMILES IDX 83 70 50 71 51 72 64 74 84 75 53 76 38 77 39 78 47 79 40 80
REMARK SMILES IDX 46 81 41 82 42 83 43 84 44 85 45 86 68 87 69 88 77 89 70 90
REMARK SMILES IDX 76 91 71 92 72 93 73 94 74 95 75 96 54 97 55 98 63 99 56 100
REMARK SMILES IDX 62 101 57 102 58 103 59 104 60 105 61 106
REMARK H PARENT 21 4 12 11 15 13 1 29 1 30 26 43 82 62 52 73
REMARK Flexibility Score: inf
ROOT
ATOM      1  C   UNL A   1      36.568  21.486  25.253  1.00  0.00     0.220 C 
ATOM      2  O   UNL A   1      35.980  20.414  25.098  1.00  0.00    -0.275 OA
ATOM      3  N   UNL A   1      37.921  21.458  25.428  1.00  0.00    -0.356 N 
ATOM      4  H   UNL A   1      38.351  20.607  25.183  1.00  0.00     0.163 HD
ENDROOT
BRANCH   1   5
ATOM      5  C   UNL A   1      35.804  22.800  25.215  1.00  0.00     0.102 C 
BRANCH   5   6
ATOM      6  C   UNL A   1      35.767  23.474  23.842  1.00  0.00     0.031 C 
BRANCH   6   7
ATOM      7  C   UNL A   1      34.379  23.591  23.229  1.00  0.00     0.118 C 
BRANCH   7   8
ATOM      8  N   UNL A   1      33.748  22.332  22.874  1.00  0.00    -0.338 N 
ATOM      9  N   UNL A   1      31.795  22.296  24.245  1.00  0.00    -0.291 N 
ATOM     10  C   UNL A   1      32.617  21.744  23.326  1.00  0.00     0.320 C 
ATOM     11  H   UNL A   1      31.229  21.649  24.725  1.00  0.00     0.173 HD
ATOM     12  O   UNL A   1      32.397  20.584  22.964  1.00  0.00    -0.248 OA
ATOM     13  H   UNL A   1      34.227  21.817  22.186  1.00  0.00     0.165 HD
BRANCH   9  14
ATOM     14  C   UNL A   1      31.613  23.602  24.627  1.00  0.00     0.157 A 
ATOM     15  N   UNL A   1      30.976  25.621  24.544  1.00  0.00    -0.231 N 
ATOM     16  N   UNL A   1      30.599  24.368  24.243  1.00  0.00    -0.149 NA
ATOM     17  C   UNL A   1      32.003  25.621  25.477  1.00  0.00     0.076 A 
ATOM     18  C   UNL A   1      32.424  24.303  25.544  1.00  0.00     0.078 A 
BRANCH  15  19
ATOM     19  C   UNL A   1      30.379  26.718  23.867  1.00  0.00     0.065 A 
ATOM     20  C   UNL A   1      29.177  28.894  22.613  1.00  0.00     0.082 A 
ATOM     21  C   UNL A   1      30.557  28.702  22.496  1.00  0.00     0.024 A 
ATOM     22  C   UNL A   1      28.387  27.987  23.321  1.00  0.00     0.024 A 
ATOM     23  C   UNL A   1      31.164  27.616  23.135  1.00  0.00     0.030 A 
ATOM     24  C   UNL A   1      28.993  26.891  23.934  1.00  0.00     0.030 A 
BRANCH  20  25
ATOM     25  S   UNL A   1      28.427  30.330  21.902  1.00  0.00     0.238 S 
ATOM     26  O   UNL A   1      27.971  30.021  20.575  1.00  0.00    -0.207 OA
ATOM     27  O   UNL A   1      29.292  31.464  22.181  1.00  0.00    -0.207 OA
BRANCH  25  28
ATOM     28  N   UNL A   1      27.053  30.543  22.832  1.00  0.00    -0.225 NA
ATOM     29  H   UNL A   1      26.295  29.976  22.453  1.00  0.00     0.137 HD
ATOM     30  H   UNL A   1      26.783  31.526  22.818  1.00  0.00     0.137 HD
ENDBRANCH  25  28
ENDBRANCH  20  25
ENDBRANCH  15  19
BRANCH  17  31
ATOM     31  C   UNL A   1      32.446  26.812  26.190  1.00  0.00     0.000 A 
ATOM     32  C   UNL A   1      31.536  27.538  26.975  1.00  0.00     0.010 A 
ATOM     33  C   UNL A   1      33.757  27.273  26.060  1.00  0.00     0.010 A 
ATOM     34  C   UNL A   1      31.915  28.738  27.572  1.00  0.00     0.001 A 
ATOM     35  C   UNL A   1      34.139  28.469  26.670  1.00  0.00     0.001 A 
ATOM     36  C   UNL A   1      33.216  29.205  27.415  1.00  0.00     0.000 A 
ENDBRANCH  17  31
ENDBRANCH   9  14
ENDBRANCH   7   8
ENDBRANCH   6   7
ENDBRANCH   5   6
ENDBRANCH   1   5
BRANCH   3  37
ATOM     37  C   UNL A   1      38.832  22.484  25.919  1.00  0.00     0.116 C 
BRANCH  37  38
ATOM     38  C   UNL A   1      39.866  21.879  26.871  1.00  0.00     0.023 C 
BRANCH  38  39
ATOM     39  C   UNL A   1      40.583  20.595  26.444  1.00  0.00     0.023 C 
BRANCH  39  40
ATOM     40  C   UNL A   1      41.924  20.364  27.103  1.00  0.00     0.116 C 
BRANCH  40  41
ATOM     41  N   UNL A   1      42.953  19.904  26.160  1.00  0.00    -0.352 N 
ATOM     42  C   UNL A   1      43.677  20.678  25.268  1.00  0.00     0.251 C 
ATOM     43  H   UNL A   1      43.149  18.940  26.163  1.00  0.00     0.163 HD
ATOM     44  O   UNL A   1      44.206  20.203  24.274  1.00  0.00    -0.269 OA
BRANCH  42  45
ATOM     45  C   UNL A   1      43.803  22.106  25.592  1.00  0.00     0.039 A 
ATOM     46  C   UNL A   1      42.924  23.076  25.101  1.00  0.00     0.014 A 
ATOM     47  C   UNL A   1      44.753  22.406  26.560  1.00  0.00     0.014 A 
ATOM     48  C   UNL A   1      42.951  24.344  25.679  1.00  0.00     0.010 A 
ATOM     49  C   UNL A   1      44.617  23.565  27.266  1.00  0.00     0.010 A 
ATOM     50  C   UNL A   1      43.786  24.570  26.783  1.00  0.00    -0.014 A 
BRANCH  50  51
ATOM     51  C   UNL A   1      43.780  25.821  27.530  1.00  0.00     0.031 A 
ATOM     52  C   UNL A   1      44.859  26.786  27.172  1.00  0.00     0.074 A 
ATOM     53  C   UNL A   1      42.703  26.182  28.266  1.00  0.00     0.049 A 
ATOM     54  N   UNL A   1      45.848  27.180  27.903  1.00  0.00    -0.248 NA
ATOM     55  C   UNL A   1      44.923  27.278  25.784  1.00  0.00     0.031 C 
ATOM     56  C   UNL A   1      41.412  25.485  28.404  1.00  0.00     0.029 A 
ATOM     57  N   UNL A   1      42.475  27.338  28.935  1.00  0.00    -0.354 N 
ATOM     58  C   UNL A   1      46.534  28.135  27.153  1.00  0.00     0.074 A 
ATOM     59  C   UNL A   1      46.041  28.007  25.806  1.00  0.00     0.031 C 
ATOM     60  C   UNL A   1      40.478  26.342  28.869  1.00  0.00     0.029 A 
ATOM     61  C   UNL A   1      41.142  27.571  29.258  1.00  0.00     0.049 A 
ATOM     62  H   UNL A   1      43.196  27.963  29.175  1.00  0.00     0.167 HD
ATOM     63  C   UNL A   1      47.276  29.115  27.745  1.00  0.00     0.031 A 
ATOM     64  C   UNL A   1      40.618  28.703  29.788  1.00  0.00     0.031 A 
ATOM     65  C   UNL A   1      47.460  28.851  29.150  1.00  0.00     0.049 A 
ATOM     66  C   UNL A   1      41.754  29.456  30.376  1.00  0.00     0.074 A 
ATOM     67  C   UNL A   1      48.057  27.845  29.882  1.00  0.00     0.029 A 
ATOM     68  N   UNL A   1      46.607  29.499  30.015  1.00  0.00    -0.354 N 
ATOM     69  N   UNL A   1      42.465  29.015  31.378  1.00  0.00    -0.248 NA
ATOM     70  C   UNL A   1      42.406  30.454  29.542  1.00  0.00     0.031 C 
ATOM     71  C   UNL A   1      47.179  27.631  30.984  1.00  0.00     0.029 A 
ATOM     72  C   UNL A   1      46.147  28.572  30.915  1.00  0.00     0.049 A 
ATOM     73  H   UNL A   1      46.370  30.454  29.992  1.00  0.00     0.167 HD
ATOM     74  C   UNL A   1      43.776  29.344  31.060  1.00  0.00     0.074 A 
ATOM     75  C   UNL A   1      43.666  30.307  29.963  1.00  0.00     0.031 C 
ATOM     76  C   UNL A   1      44.829  28.602  31.517  1.00  0.00     0.031 A 
BRANCH  63  77
ATOM     77  C   UNL A   1      47.502  30.498  27.174  1.00  0.00    -0.014 A 
ATOM     78  C   UNL A   1      48.823  30.996  27.112  1.00  0.00     0.010 A 
ATOM     79  C   UNL A   1      46.465  31.426  26.955  1.00  0.00     0.010 A 
ATOM     80  C   UNL A   1      49.083  32.362  26.935  1.00  0.00     0.020 A 
ATOM     81  C   UNL A   1      46.715  32.783  26.734  1.00  0.00     0.020 A 
ATOM     82  C   UNL A   1      48.022  33.250  26.765  1.00  0.00     0.054 A 
BRANCH  82  83
ATOM     83  S   UNL A   1      48.359  35.024  26.662  1.00  0.00     0.124 S 
ATOM     84  O   UNL A   1      49.594  35.141  27.431  1.00  0.00    -0.237 OA
ATOM     85  O   UNL A   1      48.483  35.233  25.223  1.00  0.00    -0.237 OA
ATOM     86  O   UNL A   1      47.180  35.631  27.276  1.00  0.00    -0.744 OA
ENDBRANCH  82  83
ENDBRANCH  63  77
BRANCH  64  87
ATOM     87  C   UNL A   1      39.283  29.301  29.538  1.00  0.00    -0.014 A 
ATOM     88  C   UNL A   1      38.516  29.849  30.582  1.00  0.00     0.010 A 
ATOM     89  C   UNL A   1      38.876  29.577  28.215  1.00  0.00     0.010 A 
ATOM     90  C   UNL A   1      37.412  30.680  30.314  1.00  0.00     0.020 A 
ATOM     91  C   UNL A   1      37.779  30.404  27.939  1.00  0.00     0.020 A 
ATOM     92  C   UNL A   1      37.061  30.967  28.990  1.00  0.00     0.054 A 
BRANCH  92  93
ATOM     93  S   UNL A   1      35.734  32.167  28.655  1.00  0.00     0.124 S 
ATOM     94  O   UNL A   1      36.425  33.445  28.797  1.00  0.00    -0.237 OA
ATOM     95  O   UNL A   1      35.326  31.818  27.297  1.00  0.00    -0.237 OA
ATOM     96  O   UNL A   1      34.742  31.881  29.689  1.00  0.00    -0.744 OA
ENDBRANCH  92  93
ENDBRANCH  64  87
BRANCH  76  97
ATOM     97  C   UNL A   1      44.579  27.565  32.591  1.00  0.00    -0.014 A 
ATOM     98  C   UNL A   1      44.254  26.218  32.331  1.00  0.00     0.010 A 
ATOM     99  C   UNL A   1      44.887  27.935  33.912  1.00  0.00     0.010 A 
ATOM    100  C   UNL A   1      44.231  25.272  33.371  1.00  0.00     0.020 A 
ATOM    101  C   UNL A   1      44.883  26.997  34.946  1.00  0.00     0.020 A 
ATOM    102  C   UNL A   1      44.551  25.671  34.674  1.00  0.00     0.054 A 
BRANCH 102 103
ATOM    103  S   UNL A   1      44.590  24.441  36.009  1.00  0.00     0.124 S 
ATOM    104  O   UNL A   1      43.562  24.931  36.923  1.00  0.00    -0.237 OA
ATOM    105  O   UNL A   1      44.271  23.195  35.315  1.00  0.00    -0.237 OA
ATOM    106  O   UNL A   1      45.959  24.522  36.518  1.00  0.00    -0.744 OA
ENDBRANCH 102 103
ENDBRANCH  76  97
ENDBRANCH  50  51
ENDBRANCH  42  45
ENDBRANCH  40  41
ENDBRANCH  39  40
ENDBRANCH  38  39
ENDBRANCH  37  38
ENDBRANCH   3  37
TORSDOF 22
ENDMDL
MODEL 2
REMARK VINA RESULT:     -11.6      2.248      2.944
REMARK SMILES NS(=O)(=O)c1ccc(-n2nc(NC(=O)NCCCC(=O)NCCCCNC(=O)c3ccc(-c4c5nc(c(-c6ccc(S(=O)(=O)[O-])cc6)c6ccc([nH]6)c(-c6ccc(S(=O)(=O)[O-])cc6)c6nc(c(-c7ccc(S(=O)(=O)[O-])cc7)c7ccc4[nH]7)C=C6)C=C5)cc3)cc2-c2ccccc2)cc1
REMARK SMILES IDX 19 1 20 2 21 3 18 5 17 6 16 7 15 8 12 9 13 10 14 12 11 14
REMARK SMILES IDX 9 15 10 16 90 17 89 18 8 19 5 20 6 21 98 22 7 23 97 24 2 25
REMARK SMILES IDX 3 26 4 27 1 28 91 31 92 32 96 33 93 34 95 35 94 36 22 37
REMARK SMILES IDX 23 38 24 39 25 40 26 41 27 42 28 44 29 45 30 46 88 47 31 48
REMARK SMILES IDX 87 49 32 50 33 51 34 52 81 53 35 54 86 55 80 56 82 57 36 58
REMARK SMILES IDX 85 59 79 60 78 61 37 63 67 64 48 65 66 66 49 67 52 68 65 69
REMARK SMILES IDX 83 70 50 71 51 72 64 74 84 75 53 76 38 77 39 78 47 79 40 80
REMARK SMILES IDX 46 81 41 82 42 83 43 84 44 85 45 86 68 87 69 88 77 89 70 90
REMARK SMILES IDX 76 91 71 92 72 93 73 94 74 95 75 96 54 97 55 98 63 99 56 100
REMARK SMILES IDX 62 101 57 102 58 103 59 104 60 105 61 106
REMARK H PARENT 21 4 12 11 15 13 1 29 1 30 26 43 82 62 52 73
REMARK Flexibility Score: inf
ROOT
ATOM      1  C   UNL A   1      35.612  22.452  25.753  1.00  0.00     0.220 C 
ATOM      2  O   UNL A   1      34.596  22.086  26.349  1.00  0.00    -0.275 OA
ATOM      3  N   UNL A   1      36.714  21.648  25.807  1.00  0.00    -0.356 N 
ATOM      4  H   UNL A   1      36.541  20.731  26.119  1.00  0.00     0.163 HD
ENDROOT
BRANCH   1   5
ATOM      5  C   UNL A   1      35.616  23.746  24.956  1.00  0.00     0.102 C 
BRANCH   5   6
ATOM      6  C   UNL A   1      35.486  23.560  23.443  1.00  0.00     0.031 C 
BRANCH   6   7
ATOM      7  C   UNL A   1      34.089  23.807  22.891  1.00  0.00     0.118 C 
BRANCH   7   8
ATOM      8  N   UNL A   1      33.404  22.630  22.385  1.00  0.00    -0.338 N 
ATOM      9  N   UNL A   1      31.413  22.552  23.697  1.00  0.00    -0.291 N 
ATOM     10  C   UNL A   1      32.231  22.060  22.742  1.00  0.00     0.320 C 
ATOM     11  H   UNL A   1      30.800  21.889  24.089  1.00  0.00     0.173 HD
ATOM     12  O   UNL A   1      31.962  20.960  22.249  1.00  0.00    -0.248 OA
ATOM     13  H   UNL A   1      33.876  22.168  21.655  1.00  0.00     0.165 HD
BRANCH   9  14
ATOM     14  C   UNL A   1      31.287  23.817  24.216  1.00  0.00     0.157 A 
ATOM     15  N   UNL A   1      30.699  25.846  24.373  1.00  0.00    -0.231 N 
ATOM     16  N   UNL A   1      30.273  24.637  23.974  1.00  0.00    -0.149 NA
ATOM     17  C   UNL A   1      31.780  25.733  25.235  1.00  0.00     0.076 A 
ATOM     18  C   UNL A   1      32.170  24.407  25.145  1.00  0.00     0.078 A 
BRANCH  15  19
ATOM     19  C   UNL A   1      30.090  27.016  23.846  1.00  0.00     0.065 A 
ATOM     20  C   UNL A   1      28.939  29.299  22.742  1.00  0.00     0.082 A 
ATOM     21  C   UNL A   1      28.120  28.266  23.210  1.00  0.00     0.024 A 
ATOM     22  C   UNL A   1      30.327  29.216  22.856  1.00  0.00     0.024 A 
ATOM     23  C   UNL A   1      28.697  27.114  23.753  1.00  0.00     0.030 A 
ATOM     24  C   UNL A   1      30.897  28.077  23.423  1.00  0.00     0.030 A 
BRANCH  20  25
ATOM     25  S   UNL A   1      28.213  30.704  21.950  1.00  0.00     0.238 S 
ATOM     26  O   UNL A   1      27.166  31.232  22.781  1.00  0.00    -0.207 OA
ATOM     27  O   UNL A   1      27.998  30.362  20.555  1.00  0.00    -0.207 OA
BRANCH  25  28
ATOM     28  N   UNL A   1      29.445  31.835  21.976  1.00  0.00    -0.225 NA
ATOM     29  H   UNL A   1      29.636  32.108  22.940  1.00  0.00     0.137 HD
ATOM     30  H   UNL A   1      29.164  32.656  21.440  1.00  0.00     0.137 HD
ENDBRANCH  25  28
ENDBRANCH  20  25
ENDBRANCH  15  19
BRANCH  17  31
ATOM     31  C   UNL A   1      32.296  26.838  26.033  1.00  0.00     0.000 A 
ATOM     32  C   UNL A   1      31.448  27.512  26.927  1.00  0.00     0.010 A 
ATOM     33  C   UNL A   1      33.613  27.272  25.880  1.00  0.00     0.010 A 
ATOM     34  C   UNL A   1      31.895  28.638  27.613  1.00  0.00     0.001 A 
ATOM     35  C   UNL A   1      34.063  28.393  26.579  1.00  0.00     0.001 A 
ATOM     36  C   UNL A   1      33.201  29.081  27.435  1.00  0.00     0.000 A 
ENDBRANCH  17  31
ENDBRANCH   9  14
ENDBRANCH   7   8
ENDBRANCH   6   7
ENDBRANCH   5   6
ENDBRANCH   1   5
BRANCH   3  37
ATOM     37  C   UNL A   1      38.105  21.929  25.477  1.00  0.00     0.116 C 
BRANCH  37  38
ATOM     38  C   UNL A   1      38.817  22.599  26.654  1.00  0.00     0.023 C 
BRANCH  38  39
ATOM     39  C   UNL A   1      40.087  23.407  26.370  1.00  0.00     0.023 C 
BRANCH  39  40
ATOM     40  C   UNL A   1      41.340  22.875  27.029  1.00  0.00     0.116 C 
BRANCH  40  41
ATOM     41  N   UNL A   1      42.445  22.677  26.080  1.00  0.00    -0.352 N 
ATOM     42  C   UNL A   1      43.110  23.653  25.356  1.00  0.00     0.251 C 
ATOM     43  H   UNL A   1      42.744  21.751  25.944  1.00  0.00     0.163 HD
ATOM     44  O   UNL A   1      43.722  23.398  24.329  1.00  0.00    -0.269 OA
BRANCH  42  45
ATOM     45  C   UNL A   1      43.068  25.017  25.902  1.00  0.00     0.039 A 
ATOM     46  C   UNL A   1      42.291  26.035  25.343  1.00  0.00     0.014 A 
ATOM     47  C   UNL A   1      43.723  25.182  27.117  1.00  0.00     0.014 A 
ATOM     48  C   UNL A   1      42.098  27.200  26.083  1.00  0.00     0.010 A 
ATOM     49  C   UNL A   1      43.345  26.218  27.921  1.00  0.00     0.010 A 
ATOM     50  C   UNL A   1      42.609  27.270  27.386  1.00  0.00    -0.014 A 
BRANCH  50  51
ATOM     51  C   UNL A   1      42.344  28.392  28.277  1.00  0.00     0.031 A 
ATOM     52  C   UNL A   1      43.367  29.475  28.266  1.00  0.00     0.074 A 
ATOM     53  C   UNL A   1      41.120  28.560  28.830  1.00  0.00     0.049 A 
ATOM     54  N   UNL A   1      44.163  29.828  29.220  1.00  0.00    -0.248 NA
ATOM     55  C   UNL A   1      43.633  30.172  26.994  1.00  0.00     0.031 C 
ATOM     56  C   UNL A   1      39.902  27.758  28.622  1.00  0.00     0.029 A 
ATOM     57  N   UNL A   1      40.660  29.583  29.589  1.00  0.00    -0.354 N 
ATOM     58  C   UNL A   1      44.875  30.932  28.751  1.00  0.00     0.074 A 
ATOM     59  C   UNL A   1      44.650  30.970  27.329  1.00  0.00     0.031 C 
ATOM     60  C   UNL A   1      38.817  28.465  29.005  1.00  0.00     0.029 A 
ATOM     61  C   UNL A   1      39.273  29.668  29.675  1.00  0.00     0.049 A 
ATOM     62  H   UNL A   1      41.259  30.217  30.045  1.00  0.00     0.167 HD
ATOM     63  C   UNL A   1      45.395  31.864  29.600  1.00  0.00     0.031 A 
ATOM     64  C   UNL A   1      38.552  30.668  30.238  1.00  0.00     0.031 A 
ATOM     65  C   UNL A   1      45.346  31.408  30.967  1.00  0.00     0.049 A 
ATOM     66  C   UNL A   1      39.480  31.406  31.130  1.00  0.00     0.074 A 
ATOM     67  C   UNL A   1      45.897  30.351  31.661  1.00  0.00     0.029 A 
ATOM     68  N   UNL A   1      44.289  31.856  31.727  1.00  0.00    -0.354 N 
ATOM     69  N   UNL A   1      40.038  30.874  32.184  1.00  0.00    -0.248 NA
ATOM     70  C   UNL A   1      40.171  32.561  30.578  1.00  0.00     0.031 C 
ATOM     71  C   UNL A   1      44.859  29.912  32.533  1.00  0.00     0.029 A 
ATOM     72  C   UNL A   1      43.769  30.775  32.390  1.00  0.00     0.049 A 
ATOM     73  H   UNL A   1      43.967  32.784  31.785  1.00  0.00     0.167 HD
ATOM     74  C   UNL A   1      41.346  31.341  32.173  1.00  0.00     0.074 A 
ATOM     75  C   UNL A   1      41.341  32.446  31.212  1.00  0.00     0.031 C 
ATOM     76  C   UNL A   1      42.367  30.618  32.723  1.00  0.00     0.031 A 
BRANCH  63  77
ATOM     77  C   UNL A   1      45.581  33.329  29.272  1.00  0.00    -0.014 A 
ATOM     78  C   UNL A   1      46.498  34.082  30.040  1.00  0.00     0.010 A 
ATOM     79  C   UNL A   1      44.709  34.056  28.438  1.00  0.00     0.010 A 
ATOM     80  C   UNL A   1      46.475  35.484  30.042  1.00  0.00     0.020 A 
ATOM     81  C   UNL A   1      44.707  35.452  28.399  1.00  0.00     0.020 A 
ATOM     82  C   UNL A   1      45.563  36.159  29.232  1.00  0.00     0.054 A 
BRANCH  82  83
ATOM     83  S   UNL A   1      45.455  37.962  29.332  1.00  0.00     0.124 S 
ATOM     84  O   UNL A   1      44.503  38.266  28.269  1.00  0.00    -0.237 OA
ATOM     85  O   UNL A   1      44.974  38.168  30.695  1.00  0.00    -0.237 OA
ATOM     86  O   UNL A   1      46.828  38.400  29.088  1.00  0.00    -0.744 OA
ENDBRANCH  82  83
ENDBRANCH  63  77
BRANCH  64  87
ATOM     87  C   UNL A   1      37.232  31.197  29.815  1.00  0.00    -0.014 A 
ATOM     88  C   UNL A   1      36.337  31.767  30.740  1.00  0.00     0.010 A 
ATOM     89  C   UNL A   1      36.960  31.387  28.443  1.00  0.00     0.010 A 
ATOM     90  C   UNL A   1      35.241  32.537  30.310  1.00  0.00     0.020 A 
ATOM     91  C   UNL A   1      35.871  32.153  28.006  1.00  0.00     0.020 A 
ATOM     92  C   UNL A   1      35.025  32.741  28.943  1.00  0.00     0.054 A 
BRANCH  92  93
ATOM     93  S   UNL A   1      33.701  33.866  28.401  1.00  0.00     0.124 S 
ATOM     94  O   UNL A   1      34.435  34.860  27.622  1.00  0.00    -0.237 OA
ATOM     95  O   UNL A   1      32.826  32.984  27.635  1.00  0.00    -0.237 OA
ATOM     96  O   UNL A   1      33.134  34.359  29.655  1.00  0.00    -0.744 OA
ENDBRANCH  92  93
ENDBRANCH  64  87
BRANCH  76  97
ATOM     97  C   UNL A   1      42.031  29.417  33.582  1.00  0.00    -0.014 A 
ATOM     98  C   UNL A   1      41.938  28.097  33.096  1.00  0.00     0.010 A 
ATOM     99  C   UNL A   1      42.007  29.620  34.973  1.00  0.00     0.010 A 
ATOM    100  C   UNL A   1      41.817  27.014  33.983  1.00  0.00     0.020 A 
ATOM    101  C   UNL A   1      41.906  28.547  35.859  1.00  0.00     0.020 A 
ATOM    102  C   UNL A   1      41.806  27.249  35.362  1.00  0.00     0.054 A 
BRANCH 102 103
ATOM    103  S   UNL A   1      41.720  25.847  36.514  1.00  0.00     0.124 S 
ATOM    104  O   UNL A   1      40.390  25.305  36.255  1.00  0.00    -0.237 OA
ATOM    105  O   UNL A   1      42.837  25.006  36.090  1.00  0.00    -0.237 OA
ATOM    106  O   UNL A   1      41.890  26.467  37.829  1.00  0.00    -0.744 OA
ENDBRANCH 102 103
ENDBRANCH  76  97
ENDBRANCH  50  51
ENDBRANCH  42  45
ENDBRANCH  40  41
ENDBRANCH  39  40
ENDBRANCH  38  39
ENDBRANCH  37  38
ENDBRANCH   3  37
TORSDOF 22
ENDMDL
MODEL 3
REMARK VINA RESULT:     -10.1      5.009     10.537
REMARK SMILES NS(=O)(=O)c1ccc(-n2nc(NC(=O)NCCCC(=O)NCCCCNC(=O)c3ccc(-c4c5nc(c(-c6ccc(S(=O)(=O)[O-])cc6)c6ccc([nH]6)c(-c6ccc(S(=O)(=O)[O-])cc6)c6nc(c(-c7ccc(S(=O)(=O)[O-])cc7)c7ccc4[nH]7)C=C6)C=C5)cc3)cc2-c2ccccc2)cc1
REMARK SMILES IDX 19 1 20 2 21 3 18 5 17 6 16 7 15 8 12 9 13 10 14 12 11 14
REMARK SMILES IDX 9 15 10 16 90 17 89 18 8 19 5 20 6 21 98 22 7 23 97 24 2 25
REMARK SMILES IDX 3 26 4 27 1 28 91 31 92 32 96 33 93 34 95 35 94 36 22 37
REMARK SMILES IDX 23 38 24 39 25 40 26 41 27 42 28 44 29 45 30 46 88 47 31 48
REMARK SMILES IDX 87 49 32 50 33 51 34 52 81 53 35 54 86 55 80 56 82 57 36 58
REMARK SMILES IDX 85 59 79 60 78 61 37 63 67 64 48 65 66 66 49 67 52 68 65 69
REMARK SMILES IDX 83 70 50 71 51 72 64 74 84 75 53 76 38 77 39 78 47 79 40 80
REMARK SMILES IDX 46 81 41 82 42 83 43 84 44 85 45 86 68 87 69 88 77 89 70 90
REMARK SMILES IDX 76 91 71 92 72 93 73 94 74 95 75 96 54 97 55 98 63 99 56 100
REMARK SMILES IDX 62 101 57 102 58 103 59 104 60 105 61 106
REMARK H PARENT 21 4 12 11 15 13 1 29 1 30 26 43 82 62 52 73
REMARK Flexibility Score: inf
ROOT
ATOM      1  C   UNL A   1      45.094  25.664  27.559  1.00  0.00     0.220 C 
ATOM      2  O   UNL A   1      44.644  25.493  28.695  1.00  0.00    -0.275 OA
ATOM      3  N   UNL A   1      44.630  24.863  26.557  1.00  0.00    -0.356 N 
ATOM      4  H   UNL A   1      43.804  24.372  26.770  1.00  0.00     0.163 HD
ENDROOT
BRANCH   1   5
ATOM      5  C   UNL A   1      46.113  26.759  27.289  1.00  0.00     0.102 C 
BRANCH   5   6
ATOM      6  C   UNL A   1      47.152  26.947  28.397  1.00  0.00     0.031 C 
BRANCH   6   7
ATOM      7  C   UNL A   1      47.890  25.678  28.798  1.00  0.00     0.118 C 
BRANCH   7   8
ATOM      8  N   UNL A   1      49.185  25.488  28.169  1.00  0.00    -0.338 N 
ATOM      9  N   UNL A   1      50.673  26.654  29.625  1.00  0.00    -0.291 N 
ATOM     10  C   UNL A   1      50.417  25.926  28.518  1.00  0.00     0.320 C 
ATOM     11  H   UNL A   1      51.502  27.183  29.582  1.00  0.00     0.173 HD
ATOM     12  O   UNL A   1      51.331  25.750  27.707  1.00  0.00    -0.248 OA
ATOM     13  H   UNL A   1      49.163  24.948  27.348  1.00  0.00     0.165 HD
BRANCH   9  14
ATOM     14  C   UNL A   1      49.978  26.786  30.802  1.00  0.00     0.157 A 
ATOM     15  N   UNL A   1      48.636  26.322  32.374  1.00  0.00    -0.231 N 
ATOM     16  N   UNL A   1      49.526  25.774  31.531  1.00  0.00    -0.149 NA
ATOM     17  C   UNL A   1      48.826  27.691  32.477  1.00  0.00     0.076 A 
ATOM     18  C   UNL A   1      49.708  28.006  31.456  1.00  0.00     0.078 A 
BRANCH  15  19
ATOM     19  C   UNL A   1      47.629  25.509  32.961  1.00  0.00     0.065 A 
ATOM     20  C   UNL A   1      45.640  23.883  34.035  1.00  0.00     0.082 A 
ATOM     21  C   UNL A   1      46.937  23.828  34.555  1.00  0.00     0.024 A 
ATOM     22  C   UNL A   1      45.320  24.770  33.007  1.00  0.00     0.024 A 
ATOM     23  C   UNL A   1      47.939  24.636  34.009  1.00  0.00     0.030 A 
ATOM     24  C   UNL A   1      46.317  25.593  32.483  1.00  0.00     0.030 A 
BRANCH  20  25
ATOM     25  S   UNL A   1      44.401  22.779  34.649  1.00  0.00     0.238 S 
ATOM     26  O   UNL A   1      44.954  21.458  34.763  1.00  0.00    -0.207 OA
ATOM     27  O   UNL A   1      43.172  23.047  33.921  1.00  0.00    -0.207 OA
BRANCH  25  28
ATOM     28  N   UNL A   1      44.151  23.319  36.212  1.00  0.00    -0.225 NA
ATOM     29  H   UNL A   1      43.447  24.056  36.209  1.00  0.00     0.137 HD
ATOM     30  H   UNL A   1      45.025  23.685  36.588  1.00  0.00     0.137 HD
ENDBRANCH  25  28
ENDBRANCH  20  25
ENDBRANCH  15  19
BRANCH  17  31
ATOM     31  C   UNL A   1      48.197  28.521  33.497  1.00  0.00     0.000 A 
ATOM     32  C   UNL A   1      47.599  27.921  34.617  1.00  0.00     0.010 A 
ATOM     33  C   UNL A   1      48.132  29.907  33.347  1.00  0.00     0.010 A 
ATOM     34  C   UNL A   1      46.898  28.690  35.543  1.00  0.00     0.001 A 
ATOM     35  C   UNL A   1      47.440  30.677  34.283  1.00  0.00     0.001 A 
ATOM     36  C   UNL A   1      46.815  30.068  35.372  1.00  0.00     0.000 A 
ENDBRANCH  17  31
ENDBRANCH   9  14
ENDBRANCH   7   8
ENDBRANCH   6   7
ENDBRANCH   5   6
ENDBRANCH   1   5
BRANCH   3  37
ATOM     37  C   UNL A   1      45.160  24.618  25.222  1.00  0.00     0.116 C 
BRANCH  37  38
ATOM     38  C   UNL A   1      44.832  23.196  24.762  1.00  0.00     0.023 C 
BRANCH  38  39
ATOM     39  C   UNL A   1      43.359  22.794  24.638  1.00  0.00     0.023 C 
BRANCH  39  40
ATOM     40  C   UNL A   1      42.836  21.935  25.767  1.00  0.00     0.116 C 
BRANCH  40  41
ATOM     41  N   UNL A   1      41.375  21.784  25.741  1.00  0.00    -0.352 N 
ATOM     42  C   UNL A   1      40.441  22.572  26.393  1.00  0.00     0.251 C 
ATOM     43  H   UNL A   1      41.021  21.043  25.201  1.00  0.00     0.163 HD
ATOM     44  O   UNL A   1      39.314  22.172  26.646  1.00  0.00    -0.269 OA
BRANCH  42  45
ATOM     45  C   UNL A   1      40.865  23.935  26.746  1.00  0.00     0.039 A 
ATOM     46  C   UNL A   1      40.540  25.054  25.974  1.00  0.00     0.014 A 
ATOM     47  C   UNL A   1      41.465  24.058  27.993  1.00  0.00     0.014 A 
ATOM     48  C   UNL A   1      40.740  26.318  26.527  1.00  0.00     0.010 A 
ATOM     49  C   UNL A   1      41.443  25.276  28.606  1.00  0.00     0.010 A 
ATOM     50  C   UNL A   1      41.168  26.416  27.859  1.00  0.00    -0.014 A 
BRANCH  50  51
ATOM     51  C   UNL A   1      41.276  27.690  28.558  1.00  0.00     0.031 A 
ATOM     52  C   UNL A   1      42.444  28.534  28.177  1.00  0.00     0.074 A 
ATOM     53  C   UNL A   1      40.232  28.180  29.267  1.00  0.00     0.049 A 
ATOM     54  N   UNL A   1      43.460  28.861  28.903  1.00  0.00    -0.248 NA
ATOM     55  C   UNL A   1      42.565  28.964  26.772  1.00  0.00     0.031 C 
ATOM     56  C   UNL A   1      38.880  27.614  29.417  1.00  0.00     0.029 A 
ATOM     57  N   UNL A   1      40.110  29.377  29.890  1.00  0.00    -0.354 N 
ATOM     58  C   UNL A   1      44.240  29.717  28.125  1.00  0.00     0.074 A 
ATOM     59  C   UNL A   1      43.747  29.585  26.779  1.00  0.00     0.031 C 
ATOM     60  C   UNL A   1      38.027  28.573  29.839  1.00  0.00     0.029 A 
ATOM     61  C   UNL A   1      38.802  29.747  30.188  1.00  0.00     0.049 A 
ATOM     62  H   UNL A   1      40.885  29.940  30.114  1.00  0.00     0.167 HD
ATOM     63  C   UNL A   1      45.067  30.645  28.688  1.00  0.00     0.031 A 
ATOM     64  C   UNL A   1      38.385  30.944  30.670  1.00  0.00     0.031 A 
ATOM     65  C   UNL A   1      45.214  30.419  30.104  1.00  0.00     0.049 A 
ATOM     66  C   UNL A   1      39.582  31.608  31.242  1.00  0.00     0.074 A 
ATOM     67  C   UNL A   1      45.707  29.390  30.880  1.00  0.00     0.029 A 
ATOM     68  N   UNL A   1      44.420  31.178  30.934  1.00  0.00    -0.354 N 
ATOM     69  N   UNL A   1      40.240  31.141  32.268  1.00  0.00    -0.248 NA
ATOM     70  C   UNL A   1      40.333  32.507  30.378  1.00  0.00     0.031 C 
ATOM     71  C   UNL A   1      44.804  29.303  31.979  1.00  0.00     0.029 A 
ATOM     72  C   UNL A   1      43.868  30.334  31.863  1.00  0.00     0.049 A 
ATOM     73  H   UNL A   1      44.275  32.149  30.873  1.00  0.00     0.167 HD
ATOM     74  C   UNL A   1      41.580  31.332  31.952  1.00  0.00     0.074 A 
ATOM     75  C   UNL A   1      41.570  32.258  30.818  1.00  0.00     0.031 C 
ATOM     76  C   UNL A   1      42.553  30.511  32.448  1.00  0.00     0.031 A 
BRANCH  63  77
ATOM     77  C   UNL A   1      45.427  31.977  28.069  1.00  0.00    -0.014 A 
ATOM     78  C   UNL A   1      46.794  32.305  27.920  1.00  0.00     0.010 A 
ATOM     79  C   UNL A   1      44.502  33.022  27.881  1.00  0.00     0.010 A 
ATOM     80  C   UNL A   1      47.209  33.624  27.692  1.00  0.00     0.020 A 
ATOM     81  C   UNL A   1      44.904  34.333  27.610  1.00  0.00     0.020 A 
ATOM     82  C   UNL A   1      46.258  34.634  27.556  1.00  0.00     0.054 A 
BRANCH  82  83
ATOM     83  S   UNL A   1      46.804  36.350  27.386  1.00  0.00     0.124 S 
ATOM     84  O   UNL A   1      47.355  36.623  28.710  1.00  0.00    -0.237 OA
ATOM     85  O   UNL A   1      47.774  36.260  26.300  1.00  0.00    -0.237 OA
ATOM     86  O   UNL A   1      45.574  37.068  27.059  1.00  0.00    -0.744 OA
ENDBRANCH  82  83
ENDBRANCH  63  77
BRANCH  64  87
ATOM     87  C   UNL A   1      37.115  31.656  30.382  1.00  0.00    -0.014 A 
ATOM     88  C   UNL A   1      36.403  32.328  31.393  1.00  0.00     0.010 A 
ATOM     89  C   UNL A   1      36.737  31.902  29.045  1.00  0.00     0.010 A 
ATOM     90  C   UNL A   1      35.386  33.248  31.077  1.00  0.00     0.020 A 
ATOM     91  C   UNL A   1      35.726  32.817  28.721  1.00  0.00     0.020 A 
ATOM     92  C   UNL A   1      35.066  33.500  29.739  1.00  0.00     0.054 A 
BRANCH  92  93
ATOM     93  S   UNL A   1      33.862  34.805  29.335  1.00  0.00     0.124 S 
ATOM     94  O   UNL A   1      33.665  35.458  30.626  1.00  0.00    -0.237 OA
ATOM     95  O   UNL A   1      34.572  35.592  28.331  1.00  0.00    -0.237 OA
ATOM     96  O   UNL A   1      32.707  34.063  28.833  1.00  0.00    -0.744 OA
ENDBRANCH  92  93
ENDBRANCH  64  87
BRANCH  76  97
ATOM     97  C   UNL A   1      42.198  29.545  33.559  1.00  0.00    -0.014 A 
ATOM     98  C   UNL A   1      41.456  28.361  33.370  1.00  0.00     0.010 A 
ATOM     99  C   UNL A   1      42.818  29.754  34.803  1.00  0.00     0.010 A 
ATOM    100  C   UNL A   1      41.335  27.418  34.406  1.00  0.00     0.020 A 
ATOM    101  C   UNL A   1      42.716  28.814  35.830  1.00  0.00     0.020 A 
ATOM    102  C   UNL A   1      41.972  27.652  35.630  1.00  0.00     0.054 A 
BRANCH 102 103
ATOM    103  S   UNL A   1      41.876  26.407  36.948  1.00  0.00     0.124 S 
ATOM    104  O   UNL A   1      40.561  26.659  37.528  1.00  0.00    -0.237 OA
ATOM    105  O   UNL A   1      42.011  25.148  36.219  1.00  0.00    -0.237 OA
ATOM    106  O   UNL A   1      43.008  26.731  37.817  1.00  0.00    -0.744 OA
ENDBRANCH 102 103
ENDBRANCH  76  97
ENDBRANCH  50  51
ENDBRANCH  42  45
ENDBRANCH  40  41
ENDBRANCH  39  40
ENDBRANCH  38  39
ENDBRANCH  37  38
ENDBRANCH   3  37
TORSDOF 22
ENDMDL
