MODEL 1
REMARK VINA RESULT:     -10.5      0.000      0.000
REMARK SMILES C[NH2+][C@]1(C(=O)NCCCCNC(=O)c2ccc(-c3c4nc(c(-c5ccc(S(=O)(=O)[O-])cc5)c5ccc([nH]5)c(-c5ccc(S(=O)(=O)[O-])cc5)c5nc(c(-c6ccc(S(=O)(=O)[O-])cc6)c6ccc3[nH]6)C=C5)C=C4)cc2)CCC[C@@H]1CCSc1cccc(Cl)c1
REMARK SMILES IDX 8 1 7 2 6 3 4 4 5 5 3 7 74 8 77 9 75 10 76 11 2 12 1 13
REMARK SMILES IDX 78 16 79 17 80 18 81 19 82 20 87 21 83 22 85 23 84 24 86 25
REMARK SMILES IDX 9 26 10 27 11 28 12 29 13 31 14 32 15 33 73 34 16 35 72 36
REMARK SMILES IDX 17 37 18 38 19 39 66 40 20 41 71 42 65 43 67 44 21 45 70 46
REMARK SMILES IDX 64 47 63 48 22 50 52 51 33 52 51 53 34 54 37 55 50 56 68 57
REMARK SMILES IDX 35 58 36 59 49 61 69 62 38 63 23 64 24 65 32 66 25 67 31 68
REMARK SMILES IDX 26 69 27 70 28 71 29 72 30 73 53 74 54 75 62 76 55 77 61 78
REMARK SMILES IDX 56 79 57 80 58 81 59 82 60 83 39 84 40 85 48 86 41 87 47 88
REMARK SMILES IDX 42 89 43 90 44 91 45 92 46 93
REMARK H PARENT 6 6 2 14 2 15 11 30 67 49 37 60
REMARK Flexibility Score: inf
ROOT
ATOM      1  C   UNL A   1      34.922  23.892  23.541  1.00  0.00     0.023 C 
ENDROOT
BRANCH   1   2
ATOM      2  C   UNL A   1      33.981  22.936  22.803  1.00  0.00     0.116 C 
BRANCH   2   3
ATOM      3  N   UNL A   1      32.604  23.384  22.877  1.00  0.00    -0.351 N 
ATOM      4  C   UNL A   1      31.611  23.257  23.799  1.00  0.00     0.281 C 
ATOM      5  O   UNL A   1      30.521  23.690  23.403  1.00  0.00    -0.268 OA
ATOM      6  H   UNL A   1      32.326  23.895  22.082  1.00  0.00     0.163 HD
BRANCH   4   7
ATOM      7  C   UNL A   1      31.821  22.708  25.267  1.00  0.00     0.178 C 
ATOM      8  C   UNL A   1      32.728  21.450  25.317  1.00  0.00     0.079 C 
ATOM      9  C   UNL A   1      32.634  23.708  26.140  1.00  0.00     0.061 C 
ATOM     10  C   UNL A   1      33.417  21.455  26.681  1.00  0.00     0.008 C 
ATOM     11  C   UNL A   1      33.214  22.846  27.271  1.00  0.00     0.011 C 
BRANCH   7  12
ATOM     12  N   UNL A   1      30.551  22.196  25.861  1.00  0.00    -0.336 N 
ATOM     13  C   UNL A   1      29.912  22.915  26.946  1.00  0.00     0.331 C 
ATOM     14  H   UNL A   1      29.871  22.144  25.102  1.00  0.00     0.346 HD
ATOM     15  H   UNL A   1      30.835  21.319  26.298  1.00  0.00     0.346 HD
ENDBRANCH   7  12
BRANCH   9  16
ATOM     16  C   UNL A   1      31.889  24.943  26.670  1.00  0.00     0.022 C 
BRANCH  16  17
ATOM     17  C   UNL A   1      31.969  26.190  25.780  1.00  0.00     0.075 C 
BRANCH  17  18
ATOM     18  S   UNL A   1      33.664  26.824  25.519  1.00  0.00    -0.126 SA
BRANCH  18  19
ATOM     19  C   UNL A   1      33.646  28.453  26.241  1.00  0.00     0.009 A 
ATOM     20  C   UNL A   1      34.634  28.931  27.108  1.00  0.00     0.015 A 
ATOM     21  C   UNL A   1      32.544  29.269  25.958  1.00  0.00     0.035 A 
ATOM     22  C   UNL A   1      34.554  30.222  27.639  1.00  0.00     0.003 A 
ATOM     23  C   UNL A   1      32.455  30.547  26.509  1.00  0.00     0.042 A 
ATOM     24  C   UNL A   1      33.463  31.033  27.337  1.00  0.00     0.020 A 
ATOM     25  Cl  UNL A   1      31.098  31.538  26.145  1.00  0.00    -0.084 Cl
ENDBRANCH  18  19
ENDBRANCH  17  18
ENDBRANCH  16  17
ENDBRANCH   9  16
ENDBRANCH   4   7
ENDBRANCH   2   3
ENDBRANCH   1   2
BRANCH   1  26
ATOM     26  C   UNL A   1      36.343  23.359  23.748  1.00  0.00     0.023 C 
BRANCH  26  27
ATOM     27  C   UNL A   1      36.973  23.676  25.102  1.00  0.00     0.116 C 
BRANCH  27  28
ATOM     28  N   UNL A   1      37.953  22.688  25.526  1.00  0.00    -0.352 N 
ATOM     29  C   UNL A   1      39.082  22.874  26.289  1.00  0.00     0.251 C 
ATOM     30  H   UNL A   1      37.785  21.765  25.228  1.00  0.00     0.163 HD
ATOM     31  O   UNL A   1      39.855  21.944  26.477  1.00  0.00    -0.269 OA
BRANCH  29  32
ATOM     32  C   UNL A   1      39.375  24.215  26.841  1.00  0.00     0.039 A 
ATOM     33  C   UNL A   1      38.968  24.512  28.144  1.00  0.00     0.014 A 
ATOM     34  C   UNL A   1      40.069  25.165  26.087  1.00  0.00     0.014 A 
ATOM     35  C   UNL A   1      39.317  25.738  28.716  1.00  0.00     0.010 A 
ATOM     36  C   UNL A   1      40.463  26.364  26.676  1.00  0.00     0.010 A 
ATOM     37  C   UNL A   1      40.098  26.659  27.998  1.00  0.00    -0.014 A 
BRANCH  37  38
ATOM     38  C   UNL A   1      40.564  27.924  28.619  1.00  0.00     0.031 A 
ATOM     39  C   UNL A   1      41.952  28.026  29.187  1.00  0.00     0.074 A 
ATOM     40  C   UNL A   1      39.705  28.956  28.742  1.00  0.00     0.049 A 
ATOM     41  N   UNL A   1      42.512  29.028  29.818  1.00  0.00    -0.248 NA
ATOM     42  C   UNL A   1      42.816  26.843  29.050  1.00  0.00     0.031 C 
ATOM     43  C   UNL A   1      38.316  28.963  28.278  1.00  0.00     0.029 A 
ATOM     44  N   UNL A   1      39.873  30.197  29.307  1.00  0.00    -0.354 N 
ATOM     45  C   UNL A   1      43.784  28.590  30.169  1.00  0.00     0.074 A 
ATOM     46  C   UNL A   1      43.899  27.221  29.715  1.00  0.00     0.031 C 
ATOM     47  C   UNL A   1      37.764  30.153  28.563  1.00  0.00     0.029 A 
ATOM     48  C   UNL A   1      38.744  30.982  29.256  1.00  0.00     0.049 A 
ATOM     49  H   UNL A   1      40.719  30.496  29.710  1.00  0.00     0.167 HD
ATOM     50  C   UNL A   1      44.770  29.271  30.799  1.00  0.00     0.031 A 
ATOM     51  C   UNL A   1      38.521  32.226  29.720  1.00  0.00     0.031 A 
ATOM     52  C   UNL A   1      44.657  30.636  31.239  1.00  0.00     0.049 A 
ATOM     53  C   UNL A   1      39.636  32.968  30.404  1.00  0.00     0.074 A 
ATOM     54  C   UNL A   1      45.624  31.434  31.827  1.00  0.00     0.029 A 
ATOM     55  N   UNL A   1      43.508  31.406  31.143  1.00  0.00    -0.354 N 
ATOM     56  N   UNL A   1      40.858  32.562  30.659  1.00  0.00    -0.248 NA
ATOM     57  C   UNL A   1      39.348  34.338  30.849  1.00  0.00     0.031 C 
ATOM     58  C   UNL A   1      45.046  32.672  32.126  1.00  0.00     0.029 A 
ATOM     59  C   UNL A   1      43.735  32.663  31.679  1.00  0.00     0.049 A 
ATOM     60  H   UNL A   1      42.656  31.104  30.752  1.00  0.00     0.167 HD
ATOM     61  C   UNL A   1      41.490  33.636  31.275  1.00  0.00     0.074 A 
ATOM     62  C   UNL A   1      40.522  34.712  31.340  1.00  0.00     0.031 C 
ATOM     63  C   UNL A   1      42.761  33.724  31.741  1.00  0.00     0.031 A 
BRANCH  50  64
ATOM     64  C   UNL A   1      46.063  28.543  31.054  1.00  0.00    -0.014 A 
ATOM     65  C   UNL A   1      46.284  27.861  32.265  1.00  0.00     0.010 A 
ATOM     66  C   UNL A   1      47.054  28.506  30.056  1.00  0.00     0.010 A 
ATOM     67  C   UNL A   1      47.490  27.190  32.488  1.00  0.00     0.020 A 
ATOM     68  C   UNL A   1      48.251  27.814  30.267  1.00  0.00     0.020 A 
ATOM     69  C   UNL A   1      48.468  27.175  31.490  1.00  0.00     0.054 A 
BRANCH  69  70
ATOM     70  S   UNL A   1      50.014  26.279  31.799  1.00  0.00     0.124 S 
ATOM     71  O   UNL A   1      50.144  26.395  33.250  1.00  0.00    -0.237 OA
ATOM     72  O   UNL A   1      49.715  24.938  31.302  1.00  0.00    -0.237 OA
ATOM     73  O   UNL A   1      51.005  27.020  31.022  1.00  0.00    -0.744 OA
ENDBRANCH  69  70
ENDBRANCH  50  64
BRANCH  51  74
ATOM     74  C   UNL A   1      37.187  32.856  29.531  1.00  0.00    -0.014 A 
ATOM     75  C   UNL A   1      36.322  33.032  30.626  1.00  0.00     0.010 A 
ATOM     76  C   UNL A   1      36.785  33.306  28.261  1.00  0.00     0.010 A 
ATOM     77  C   UNL A   1      35.074  33.637  30.451  1.00  0.00     0.020 A 
ATOM     78  C   UNL A   1      35.547  33.933  28.087  1.00  0.00     0.020 A 
ATOM     79  C   UNL A   1      34.695  34.086  29.184  1.00  0.00     0.054 A 
BRANCH  79  80
ATOM     80  S   UNL A   1      33.098  34.925  28.993  1.00  0.00     0.124 S 
ATOM     81  O   UNL A   1      33.503  36.244  28.514  1.00  0.00    -0.237 OA
ATOM     82  O   UNL A   1      32.411  34.082  28.019  1.00  0.00    -0.237 OA
ATOM     83  O   UNL A   1      32.532  34.893  30.340  1.00  0.00    -0.744 OA
ENDBRANCH  79  80
ENDBRANCH  51  74
BRANCH  63  84
ATOM     84  C   UNL A   1      43.190  35.035  32.339  1.00  0.00    -0.014 A 
ATOM     85  C   UNL A   1      43.890  35.989  31.579  1.00  0.00     0.010 A 
ATOM     86  C   UNL A   1      42.839  35.338  33.668  1.00  0.00     0.010 A 
ATOM     87  C   UNL A   1      44.254  37.213  32.146  1.00  0.00     0.020 A 
ATOM     88  C   UNL A   1      43.180  36.571  34.229  1.00  0.00     0.020 A 
ATOM     89  C   UNL A   1      43.898  37.497  33.468  1.00  0.00     0.054 A 
BRANCH  89  90
ATOM     90  S   UNL A   1      44.340  39.111  34.168  1.00  0.00     0.124 S 
ATOM     91  O   UNL A   1      43.098  39.862  34.008  1.00  0.00    -0.237 OA
ATOM     92  O   UNL A   1      44.701  38.777  35.543  1.00  0.00    -0.237 OA
ATOM     93  O   UNL A   1      45.451  39.558  33.330  1.00  0.00    -0.744 OA
ENDBRANCH  89  90
ENDBRANCH  63  84
ENDBRANCH  37  38
ENDBRANCH  29  32
ENDBRANCH  27  28
ENDBRANCH  26  27
ENDBRANCH   1  26
TORSDOF 19
ENDMDL
MODEL 2
REMARK VINA RESULT:     -10.3      2.120      3.764
REMARK SMILES C[NH2+][C@]1(C(=O)NCCCCNC(=O)c2ccc(-c3c4nc(c(-c5ccc(S(=O)(=O)[O-])cc5)c5ccc([nH]5)c(-c5ccc(S(=O)(=O)[O-])cc5)c5nc(c(-c6ccc(S(=O)(=O)[O-])cc6)c6ccc3[nH]6)C=C5)C=C4)cc2)CCC[C@@H]1CCSc1cccc(Cl)c1
REMARK SMILES IDX 8 1 7 2 6 3 4 4 5 5 3 7 74 8 77 9 75 10 76 11 2 12 1 13
REMARK SMILES IDX 78 16 79 17 80 18 81 19 82 20 87 21 83 22 85 23 84 24 86 25
REMARK SMILES IDX 9 26 10 27 11 28 12 29 13 31 14 32 15 33 73 34 16 35 72 36
REMARK SMILES IDX 17 37 18 38 19 39 66 40 20 41 71 42 65 43 67 44 21 45 70 46
REMARK SMILES IDX 64 47 63 48 22 50 52 51 33 52 51 53 34 54 37 55 50 56 68 57
REMARK SMILES IDX 35 58 36 59 49 61 69 62 38 63 23 64 24 65 32 66 25 67 31 68
REMARK SMILES IDX 26 69 27 70 28 71 29 72 30 73 53 74 54 75 62 76 55 77 61 78
REMARK SMILES IDX 56 79 57 80 58 81 59 82 60 83 39 84 40 85 48 86 41 87 47 88
REMARK SMILES IDX 42 89 43 90 44 91 45 92 46 93
REMARK H PARENT 6 6 2 14 2 15 11 30 67 49 37 60
REMARK Flexibility Score: inf
ROOT
ATOM      1  C   UNL A   1      34.707  24.141  25.896  1.00  0.00     0.023 C 
ENDROOT
BRANCH   1   2
ATOM      2  C   UNL A   1      34.281  25.499  25.332  1.00  0.00     0.116 C 
BRANCH   2   3
ATOM      3  N   UNL A   1      34.076  25.436  23.897  1.00  0.00    -0.351 N 
ATOM      4  C   UNL A   1      33.125  25.916  23.050  1.00  0.00     0.281 C 
ATOM      5  O   UNL A   1      33.263  25.517  21.886  1.00  0.00    -0.268 OA
ATOM      6  H   UNL A   1      34.784  24.933  23.432  1.00  0.00     0.163 HD
BRANCH   4   7
ATOM      7  C   UNL A   1      32.006  26.955  23.462  1.00  0.00     0.178 C 
ATOM      8  C   UNL A   1      31.311  27.612  22.240  1.00  0.00     0.079 C 
ATOM      9  C   UNL A   1      30.803  26.253  24.158  1.00  0.00     0.061 C 
ATOM     10  C   UNL A   1      29.893  27.974  22.678  1.00  0.00     0.008 C 
ATOM     11  C   UNL A   1      29.634  27.233  23.985  1.00  0.00     0.011 C 
BRANCH   7  12
ATOM     12  N   UNL A   1      32.573  28.141  24.167  1.00  0.00    -0.336 N 
ATOM     13  C   UNL A   1      33.442  29.062  23.462  1.00  0.00     0.331 C 
ATOM     14  H   UNL A   1      31.781  28.688  24.508  1.00  0.00     0.346 HD
ATOM     15  H   UNL A   1      33.191  27.725  24.864  1.00  0.00     0.346 HD
ENDBRANCH   7  12
BRANCH   9  16
ATOM     16  C   UNL A   1      30.992  25.822  25.620  1.00  0.00     0.022 C 
BRANCH  16  17
ATOM     17  C   UNL A   1      30.230  24.557  26.037  1.00  0.00     0.075 C 
BRANCH  17  18
ATOM     18  S   UNL A   1      31.289  23.216  26.683  1.00  0.00    -0.126 SA
BRANCH  18  19
ATOM     19  C   UNL A   1      31.728  22.260  25.244  1.00  0.00     0.009 A 
ATOM     20  C   UNL A   1      31.697  22.762  23.938  1.00  0.00     0.015 A 
ATOM     21  C   UNL A   1      32.064  20.916  25.444  1.00  0.00     0.035 A 
ATOM     22  C   UNL A   1      32.052  21.952  22.855  1.00  0.00     0.003 A 
ATOM     23  C   UNL A   1      32.394  20.105  24.359  1.00  0.00     0.042 A 
ATOM     24  C   UNL A   1      32.404  20.621  23.066  1.00  0.00     0.020 A 
ATOM     25  Cl  UNL A   1      32.813  18.459  24.623  1.00  0.00    -0.084 Cl
ENDBRANCH  18  19
ENDBRANCH  17  18
ENDBRANCH  16  17
ENDBRANCH   9  16
ENDBRANCH   4   7
ENDBRANCH   2   3
ENDBRANCH   1   2
BRANCH   1  26
ATOM     26  C   UNL A   1      35.589  23.308  24.960  1.00  0.00     0.023 C 
BRANCH  26  27
ATOM     27  C   UNL A   1      37.050  23.743  24.873  1.00  0.00     0.116 C 
BRANCH  27  28
ATOM     28  N   UNL A   1      37.985  22.694  25.248  1.00  0.00    -0.352 N 
ATOM     29  C   UNL A   1      39.096  22.784  26.055  1.00  0.00     0.251 C 
ATOM     30  H   UNL A   1      37.798  21.801  24.877  1.00  0.00     0.163 HD
ATOM     31  O   UNL A   1      39.834  21.817  26.193  1.00  0.00    -0.269 OA
BRANCH  29  32
ATOM     32  C   UNL A   1      39.414  24.070  26.715  1.00  0.00     0.039 A 
ATOM     33  C   UNL A   1      38.955  24.291  28.016  1.00  0.00     0.014 A 
ATOM     34  C   UNL A   1      40.180  25.040  26.064  1.00  0.00     0.014 A 
ATOM     35  C   UNL A   1      39.323  25.459  28.690  1.00  0.00     0.010 A 
ATOM     36  C   UNL A   1      40.591  26.177  26.755  1.00  0.00     0.010 A 
ATOM     37  C   UNL A   1      40.173  26.394  28.076  1.00  0.00    -0.014 A 
BRANCH  37  38
ATOM     38  C   UNL A   1      40.658  27.591  28.808  1.00  0.00     0.031 A 
ATOM     39  C   UNL A   1      42.012  27.588  29.461  1.00  0.00     0.074 A 
ATOM     40  C   UNL A   1      39.841  28.654  28.951  1.00  0.00     0.049 A 
ATOM     41  N   UNL A   1      42.577  28.518  30.189  1.00  0.00    -0.248 NA
ATOM     42  C   UNL A   1      42.828  26.375  29.293  1.00  0.00     0.031 C 
ATOM     43  C   UNL A   1      38.484  28.759  28.409  1.00  0.00     0.029 A 
ATOM     44  N   UNL A   1      40.029  29.845  29.607  1.00  0.00    -0.354 N 
ATOM     45  C   UNL A   1      43.804  27.997  30.582  1.00  0.00     0.074 A 
ATOM     46  C   UNL A   1      43.885  26.655  30.044  1.00  0.00     0.031 C 
ATOM     47  C   UNL A   1      37.969  29.954  28.741  1.00  0.00     0.029 A 
ATOM     48  C   UNL A   1      38.943  30.687  29.544  1.00  0.00     0.049 A 
ATOM     49  H   UNL A   1      40.862  30.076  30.078  1.00  0.00     0.167 HD
ATOM     50  C   UNL A   1      44.780  28.585  31.312  1.00  0.00     0.031 A 
ATOM     51  C   UNL A   1      38.748  31.908  30.078  1.00  0.00     0.031 A 
ATOM     52  C   UNL A   1      44.702  29.923  31.837  1.00  0.00     0.049 A 
ATOM     53  C   UNL A   1      39.851  32.548  30.874  1.00  0.00     0.074 A 
ATOM     54  C   UNL A   1      45.667  30.632  32.532  1.00  0.00     0.029 A 
ATOM     55  N   UNL A   1      43.597  30.753  31.728  1.00  0.00    -0.354 N 
ATOM     56  N   UNL A   1      41.036  32.067  31.171  1.00  0.00    -0.248 NA
ATOM     57  C   UNL A   1      39.599  33.898  31.394  1.00  0.00     0.031 C 
ATOM     58  C   UNL A   1      45.128  31.875  32.882  1.00  0.00     0.029 A 
ATOM     59  C   UNL A   1      43.847  31.960  32.360  1.00  0.00     0.049 A 
ATOM     60  H   UNL A   1      42.758  30.520  31.268  1.00  0.00     0.167 HD
ATOM     61  C   UNL A   1      41.678  33.066  31.893  1.00  0.00     0.074 A 
ATOM     62  C   UNL A   1      40.757  34.182  31.976  1.00  0.00     0.031 C 
ATOM     63  C   UNL A   1      42.920  33.061  32.437  1.00  0.00     0.031 A 
BRANCH  50  64
ATOM     64  C   UNL A   1      46.021  27.780  31.592  1.00  0.00    -0.014 A 
ATOM     65  C   UNL A   1      47.116  27.805  30.707  1.00  0.00     0.010 A 
ATOM     66  C   UNL A   1      46.112  27.021  32.773  1.00  0.00     0.010 A 
ATOM     67  C   UNL A   1      48.261  27.051  30.978  1.00  0.00     0.020 A 
ATOM     68  C   UNL A   1      47.267  26.287  33.058  1.00  0.00     0.020 A 
ATOM     69  C   UNL A   1      48.328  26.293  32.150  1.00  0.00     0.054 A 
BRANCH  69  70
ATOM     70  S   UNL A   1      49.835  25.341  32.488  1.00  0.00     0.124 S 
ATOM     71  O   UNL A   1      50.239  24.932  31.144  1.00  0.00    -0.237 OA
ATOM     72  O   UNL A   1      50.701  26.327  33.130  1.00  0.00    -0.237 OA
ATOM     73  O   UNL A   1      49.375  24.261  33.357  1.00  0.00    -0.744 OA
ENDBRANCH  69  70
ENDBRANCH  50  64
BRANCH  51  74
ATOM     74  C   UNL A   1      37.457  32.614  29.856  1.00  0.00    -0.014 A 
ATOM     75  C   UNL A   1      37.315  33.517  28.788  1.00  0.00     0.010 A 
ATOM     76  C   UNL A   1      36.356  32.366  30.695  1.00  0.00     0.010 A 
ATOM     77  C   UNL A   1      36.099  34.170  28.571  1.00  0.00     0.020 A 
ATOM     78  C   UNL A   1      35.130  32.999  30.466  1.00  0.00     0.020 A 
ATOM     79  C   UNL A   1      35.013  33.904  29.409  1.00  0.00     0.054 A 
BRANCH  79  80
ATOM     80  S   UNL A   1      33.425  34.714  29.070  1.00  0.00     0.124 S 
ATOM     81  O   UNL A   1      32.835  34.795  30.402  1.00  0.00    -0.237 OA
ATOM     82  O   UNL A   1      33.837  35.986  28.482  1.00  0.00    -0.237 OA
ATOM     83  O   UNL A   1      32.765  33.796  28.145  1.00  0.00    -0.744 OA
ENDBRANCH  79  80
ENDBRANCH  51  74
BRANCH  63  84
ATOM     84  C   UNL A   1      43.371  34.308  33.147  1.00  0.00    -0.014 A 
ATOM     85  C   UNL A   1      43.200  34.459  34.534  1.00  0.00     0.010 A 
ATOM     86  C   UNL A   1      44.025  35.320  32.421  1.00  0.00     0.010 A 
ATOM     87  C   UNL A   1      43.651  35.613  35.179  1.00  0.00     0.020 A 
ATOM     88  C   UNL A   1      44.500  36.465  33.068  1.00  0.00     0.020 A 
ATOM     89  C   UNL A   1      44.298  36.609  34.443  1.00  0.00     0.054 A 
BRANCH  89  90
ATOM     90  S   UNL A   1      44.917  38.077  35.309  1.00  0.00     0.124 S 
ATOM     91  O   UNL A   1      43.953  38.217  36.396  1.00  0.00    -0.237 OA
ATOM     92  O   UNL A   1      46.262  37.671  35.710  1.00  0.00    -0.237 OA
ATOM     93  O   UNL A   1      44.867  39.126  34.292  1.00  0.00    -0.744 OA
ENDBRANCH  89  90
ENDBRANCH  63  84
ENDBRANCH  37  38
ENDBRANCH  29  32
ENDBRANCH  27  28
ENDBRANCH  26  27
ENDBRANCH   1  26
TORSDOF 19
ENDMDL
MODEL 3
REMARK VINA RESULT:     -10.1      4.163      9.780
REMARK SMILES C[NH2+][C@]1(C(=O)NCCCCNC(=O)c2ccc(-c3c4nc(c(-c5ccc(S(=O)(=O)[O-])cc5)c5ccc([nH]5)c(-c5ccc(S(=O)(=O)[O-])cc5)c5nc(c(-c6ccc(S(=O)(=O)[O-])cc6)c6ccc3[nH]6)C=C5)C=C4)cc2)CCC[C@@H]1CCSc1cccc(Cl)c1
REMARK SMILES IDX 8 1 7 2 6 3 4 4 5 5 3 7 74 8 77 9 75 10 76 11 2 12 1 13
REMARK SMILES IDX 78 16 79 17 80 18 81 19 82 20 87 21 83 22 85 23 84 24 86 25
REMARK SMILES IDX 9 26 10 27 11 28 12 29 13 31 14 32 15 33 73 34 16 35 72 36
REMARK SMILES IDX 17 37 18 38 19 39 66 40 20 41 71 42 65 43 67 44 21 45 70 46
REMARK SMILES IDX 64 47 63 48 22 50 52 51 33 52 51 53 34 54 37 55 50 56 68 57
REMARK SMILES IDX 35 58 36 59 49 61 69 62 38 63 23 64 24 65 32 66 25 67 31 68
REMARK SMILES IDX 26 69 27 70 28 71 29 72 30 73 53 74 54 75 62 76 55 77 61 78
REMARK SMILES IDX 56 79 57 80 58 81 59 82 60 83 39 84 40 85 48 86 41 87 47 88
REMARK SMILES IDX 42 89 43 90 44 91 45 92 46 93
REMARK H PARENT 6 6 2 14 2 15 11 30 67 49 37 60
REMARK Flexibility Score: inf
ROOT
ATOM      1  C   UNL A   1      32.108  30.639  26.465  1.00  0.00     0.023 C 
ENDROOT
BRANCH   1   2
ATOM      2  C   UNL A   1      31.236  30.056  25.349  1.00  0.00     0.116 C 
BRANCH   2   3
ATOM      3  N   UNL A   1      32.021  29.755  24.167  1.00  0.00    -0.351 N 
ATOM      4  C   UNL A   1      32.423  28.605  23.559  1.00  0.00     0.281 C 
ATOM      5  O   UNL A   1      33.207  28.798  22.621  1.00  0.00    -0.268 OA
ATOM      6  H   UNL A   1      32.333  30.564  23.700  1.00  0.00     0.163 HD
BRANCH   4   7
ATOM      7  C   UNL A   1      31.884  27.165  23.929  1.00  0.00     0.178 C 
ATOM      8  C   UNL A   1      30.344  27.125  24.116  1.00  0.00     0.079 C 
ATOM      9  C   UNL A   1      32.076  26.163  22.752  1.00  0.00     0.061 C 
ATOM     10  C   UNL A   1      29.889  25.713  23.751  1.00  0.00     0.008 C 
ATOM     11  C   UNL A   1      31.055  25.050  23.026  1.00  0.00     0.011 C 
BRANCH   7  12
ATOM     12  N   UNL A   1      32.368  26.711  25.266  1.00  0.00    -0.336 N 
ATOM     13  C   UNL A   1      33.655  27.154  25.764  1.00  0.00     0.331 C 
ATOM     14  H   UNL A   1      31.670  27.010  25.948  1.00  0.00     0.346 HD
ATOM     15  H   UNL A   1      32.499  25.708  25.138  1.00  0.00     0.346 HD
ENDBRANCH   7  12
BRANCH   9  16
ATOM     16  C   UNL A   1      33.492  25.614  22.523  1.00  0.00     0.022 C 
BRANCH  16  17
ATOM     17  C   UNL A   1      33.721  24.171  22.992  1.00  0.00     0.075 C 
BRANCH  17  18
ATOM     18  S   UNL A   1      35.094  23.974  24.182  1.00  0.00    -0.126 SA
BRANCH  18  19
ATOM     19  C   UNL A   1      35.175  22.219  24.484  1.00  0.00     0.009 A 
ATOM     20  C   UNL A   1      36.366  21.523  24.714  1.00  0.00     0.015 A 
ATOM     21  C   UNL A   1      33.973  21.502  24.428  1.00  0.00     0.035 A 
ATOM     22  C   UNL A   1      36.353  20.144  24.942  1.00  0.00     0.003 A 
ATOM     23  C   UNL A   1      33.967  20.123  24.631  1.00  0.00     0.042 A 
ATOM     24  C   UNL A   1      35.150  19.442  24.902  1.00  0.00     0.020 A 
ATOM     25  Cl  UNL A   1      32.482  19.260  24.566  1.00  0.00    -0.084 Cl
ENDBRANCH  18  19
ENDBRANCH  17  18
ENDBRANCH  16  17
ENDBRANCH   9  16
ENDBRANCH   4   7
ENDBRANCH   2   3
ENDBRANCH   1   2
BRANCH   1  26
ATOM     26  C   UNL A   1      31.829  32.109  26.793  1.00  0.00     0.023 C 
BRANCH  26  27
ATOM     27  C   UNL A   1      32.979  32.863  27.456  1.00  0.00     0.116 C 
BRANCH  27  28
ATOM     28  N   UNL A   1      32.630  34.223  27.836  1.00  0.00    -0.352 N 
ATOM     29  C   UNL A   1      33.172  34.999  28.835  1.00  0.00     0.251 C 
ATOM     30  H   UNL A   1      31.912  34.644  27.310  1.00  0.00     0.163 HD
ATOM     31  O   UNL A   1      32.695  36.098  29.085  1.00  0.00    -0.269 OA
BRANCH  29  32
ATOM     32  C   UNL A   1      34.304  34.475  29.631  1.00  0.00     0.039 A 
ATOM     33  C   UNL A   1      34.045  33.908  30.881  1.00  0.00     0.014 A 
ATOM     34  C   UNL A   1      35.610  34.521  29.137  1.00  0.00     0.014 A 
ATOM     35  C   UNL A   1      35.087  33.324  31.606  1.00  0.00     0.010 A 
ATOM     36  C   UNL A   1      36.638  33.891  29.834  1.00  0.00     0.010 A 
ATOM     37  C   UNL A   1      36.385  33.280  31.071  1.00  0.00    -0.014 A 
BRANCH  37  38
ATOM     38  C   UNL A   1      37.486  32.579  31.778  1.00  0.00     0.031 A 
ATOM     39  C   UNL A   1      37.995  33.094  33.095  1.00  0.00     0.074 A 
ATOM     40  C   UNL A   1      38.081  31.521  31.190  1.00  0.00     0.049 A 
ATOM     41  N   UNL A   1      38.984  32.649  33.827  1.00  0.00    -0.248 NA
ATOM     42  C   UNL A   1      37.320  34.278  33.652  1.00  0.00     0.031 C 
ATOM     43  C   UNL A   1      37.713  30.957  29.889  1.00  0.00     0.029 A 
ATOM     44  N   UNL A   1      39.130  30.739  31.607  1.00  0.00    -0.354 N 
ATOM     45  C   UNL A   1      39.064  33.505  34.918  1.00  0.00     0.074 A 
ATOM     46  C   UNL A   1      38.048  34.520  34.733  1.00  0.00     0.031 C 
ATOM     47  C   UNL A   1      38.513  29.911  29.623  1.00  0.00     0.029 A 
ATOM     48  C   UNL A   1      39.468  29.749  30.714  1.00  0.00     0.049 A 
ATOM     49  H   UNL A   1      39.596  30.874  32.463  1.00  0.00     0.167 HD
ATOM     50  C   UNL A   1      39.897  33.446  35.984  1.00  0.00     0.031 A 
ATOM     51  C   UNL A   1      40.441  28.820  30.763  1.00  0.00     0.031 A 
ATOM     52  C   UNL A   1      40.899  32.430  36.171  1.00  0.00     0.049 A 
ATOM     53  C   UNL A   1      41.346  28.764  31.962  1.00  0.00     0.074 A 
ATOM     54  C   UNL A   1      41.747  32.246  37.249  1.00  0.00     0.029 A 
ATOM     55  N   UNL A   1      41.192  31.428  35.257  1.00  0.00    -0.354 N 
ATOM     56  N   UNL A   1      41.355  29.539  33.021  1.00  0.00    -0.248 NA
ATOM     57  C   UNL A   1      42.361  27.702  31.981  1.00  0.00     0.031 C 
ATOM     58  C   UNL A   1      42.583  31.159  36.969  1.00  0.00     0.029 A 
ATOM     59  C   UNL A   1      42.221  30.635  35.738  1.00  0.00     0.049 A 
ATOM     60  H   UNL A   1      40.735  31.300  34.394  1.00  0.00     0.167 HD
ATOM     61  C   UNL A   1      42.361  29.043  33.842  1.00  0.00     0.074 A 
ATOM     62  C   UNL A   1      42.928  27.894  33.165  1.00  0.00     0.031 C 
ATOM     63  C   UNL A   1      42.776  29.497  35.051  1.00  0.00     0.031 A 
BRANCH  50  64
ATOM     64  C   UNL A   1      39.762  34.517  37.033  1.00  0.00    -0.014 A 
ATOM     65  C   UNL A   1      40.422  35.752  36.897  1.00  0.00     0.010 A 
ATOM     66  C   UNL A   1      38.933  34.302  38.149  1.00  0.00     0.010 A 
ATOM     67  C   UNL A   1      40.289  36.737  37.879  1.00  0.00     0.020 A 
ATOM     68  C   UNL A   1      38.777  35.296  39.120  1.00  0.00     0.020 A 
ATOM     69  C   UNL A   1      39.470  36.501  38.987  1.00  0.00     0.054 A 
BRANCH  69  70
ATOM     70  S   UNL A   1      39.298  37.805  40.236  1.00  0.00     0.124 S 
ATOM     71  O   UNL A   1      38.953  37.035  41.429  1.00  0.00    -0.237 OA
ATOM     72  O   UNL A   1      40.624  38.418  40.247  1.00  0.00    -0.237 OA
ATOM     73  O   UNL A   1      38.230  38.651  39.709  1.00  0.00    -0.744 OA
ENDBRANCH  69  70
ENDBRANCH  50  64
BRANCH  51  74
ATOM     74  C   UNL A   1      40.594  27.851  29.644  1.00  0.00    -0.014 A 
ATOM     75  C   UNL A   1      39.829  26.672  29.614  1.00  0.00     0.010 A 
ATOM     76  C   UNL A   1      41.487  28.116  28.590  1.00  0.00     0.010 A 
ATOM     77  C   UNL A   1      39.963  25.769  28.556  1.00  0.00     0.020 A 
ATOM     78  C   UNL A   1      41.605  27.226  27.518  1.00  0.00     0.020 A 
ATOM     79  C   UNL A   1      40.848  26.053  27.513  1.00  0.00     0.054 A 
BRANCH  79  80
ATOM     80  S   UNL A   1      40.958  24.897  26.119  1.00  0.00     0.124 S 
ATOM     81  O   UNL A   1      41.611  25.713  25.099  1.00  0.00    -0.237 OA
ATOM     82  O   UNL A   1      41.762  23.810  26.670  1.00  0.00    -0.237 OA
ATOM     83  O   UNL A   1      39.563  24.553  25.850  1.00  0.00    -0.744 OA
ENDBRANCH  79  80
ENDBRANCH  51  74
BRANCH  63  84
ATOM     84  C   UNL A   1      43.879  28.736  35.735  1.00  0.00    -0.014 A 
ATOM     85  C   UNL A   1      45.228  29.084  35.549  1.00  0.00     0.010 A 
ATOM     86  C   UNL A   1      43.555  27.691  36.620  1.00  0.00     0.010 A 
ATOM     87  C   UNL A   1      46.236  28.383  36.216  1.00  0.00     0.020 A 
ATOM     88  C   UNL A   1      44.559  27.004  37.307  1.00  0.00     0.020 A 
ATOM     89  C   UNL A   1      45.896  27.346  37.091  1.00  0.00     0.054 A 
BRANCH  89  90
ATOM     90  S   UNL A   1      47.217  26.481  37.982  1.00  0.00     0.124 S 
ATOM     91  O   UNL A   1      46.604  25.183  38.250  1.00  0.00    -0.237 OA
ATOM     92  O   UNL A   1      48.308  26.472  37.010  1.00  0.00    -0.237 OA
ATOM     93  O   UNL A   1      47.447  27.317  39.158  1.00  0.00    -0.744 OA
ENDBRANCH  89  90
ENDBRANCH  63  84
ENDBRANCH  37  38
ENDBRANCH  29  32
ENDBRANCH  27  28
ENDBRANCH  26  27
ENDBRANCH   1  26
TORSDOF 19
ENDMDL
