MODEL 1
REMARK VINA RESULT:     -11.3      0.000      0.000
REMARK SMILES Cc1cc(C(=O)Nc2cccc(C(=O)NCC(=O)NCCCCNC(=O)c3ccc(-c4c5nc(c(-c6ccc(S(=O)(=O)[O-])cc6)c6ccc([nH]6)c(-c6ccc(S(=O)(=O)[O-])cc6)c6nc(c(-c7ccc(S(=O)(=O)[O-])cc7)c7ccc4[nH]7)C=C6)C=C5)cc3)c2)no1
REMARK SMILES IDX 21 1 20 2 19 3 17 4 18 5 16 7 15 8 13 9 14 10 12 12 8 13
REMARK SMILES IDX 9 14 87 15 10 16 11 17 7 18 5 19 6 20 4 22 1 23 2 24 3 25
REMARK SMILES IDX 89 26 88 27 22 28 23 29 24 30 25 31 26 33 27 34 28 35 86 36
REMARK SMILES IDX 29 37 85 38 30 39 31 40 32 41 79 42 33 43 84 44 78 45 80 46
REMARK SMILES IDX 34 47 83 48 77 49 76 50 35 52 65 53 46 54 64 55 47 56 50 57
REMARK SMILES IDX 63 58 81 59 48 60 49 61 62 63 82 64 51 65 36 66 37 67 45 68
REMARK SMILES IDX 38 69 44 70 39 71 40 72 41 73 42 74 43 75 66 76 67 77 75 78
REMARK SMILES IDX 68 79 74 80 69 81 70 82 71 83 72 84 73 85 52 86 53 87 61 88
REMARK SMILES IDX 54 89 60 90 55 91 56 92 57 93 58 94 59 95
REMARK H PARENT 19 6 15 11 7 21 24 32 80 51 50 62
REMARK Flexibility Score: inf
ROOT
ATOM      1  C   UNL A   1      35.709  21.625  24.484  1.00  0.00     0.023 C 
ENDROOT
BRANCH   1   2
ATOM      2  C   UNL A   1      34.899  21.327  25.739  1.00  0.00     0.116 C 
BRANCH   2   3
ATOM      3  N   UNL A   1      34.086  20.142  25.608  1.00  0.00    -0.355 N 
ATOM      4  C   UNL A   1      32.758  20.000  25.355  1.00  0.00     0.239 C 
ATOM      5  O   UNL A   1      32.345  18.846  25.193  1.00  0.00    -0.273 OA
ATOM      6  H   UNL A   1      34.575  19.295  25.719  1.00  0.00     0.163 HD
BRANCH   4   7
ATOM      7  C   UNL A   1      31.811  21.186  25.102  1.00  0.00     0.216 C 
BRANCH   7   8
ATOM      8  N   UNL A   1      31.056  21.774  26.201  1.00  0.00    -0.343 N 
ATOM      9  C   UNL A   1      30.847  23.025  26.717  1.00  0.00     0.251 C 
ATOM     10  O   UNL A   1      29.984  23.102  27.596  1.00  0.00    -0.269 OA
ATOM     11  H   UNL A   1      30.565  21.089  26.709  1.00  0.00     0.164 HD
BRANCH   9  12
ATOM     12  C   UNL A   1      31.580  24.278  26.344  1.00  0.00     0.041 A 
ATOM     13  C   UNL A   1      31.776  26.553  25.472  1.00  0.00     0.042 A 
ATOM     14  C   UNL A   1      33.157  26.518  25.642  1.00  0.00     0.026 A 
ATOM     15  C   UNL A   1      31.018  25.404  25.741  1.00  0.00     0.040 A 
ATOM     16  C   UNL A   1      33.751  25.392  26.206  1.00  0.00     0.003 A 
ATOM     17  C   UNL A   1      32.965  24.298  26.580  1.00  0.00     0.014 A 
BRANCH  13  18
ATOM     18  N   UNL A   1      31.187  27.756  25.043  1.00  0.00    -0.321 N 
ATOM     19  C   UNL A   1      31.375  28.463  23.862  1.00  0.00     0.277 C 
ATOM     20  O   UNL A   1      30.933  29.609  23.791  1.00  0.00    -0.267 OA
ATOM     21  H   UNL A   1      30.546  28.156  25.675  1.00  0.00     0.170 HD
BRANCH  19  22
ATOM     22  C   UNL A   1      32.001  27.786  22.718  1.00  0.00     0.171 A 
ATOM     23  C   UNL A   1      32.733  25.167  20.250  1.00  0.00     0.091 C 
ATOM     24  C   UNL A   1      32.522  26.320  21.144  1.00  0.00     0.134 A 
ATOM     25  C   UNL A   1      31.457  26.765  21.883  1.00  0.00     0.082 A 
ATOM     26  O   UNL A   1      33.593  27.120  21.384  1.00  0.00    -0.361 OA
ATOM     27  N   UNL A   1      33.268  28.049  22.357  1.00  0.00    -0.074 NA
ENDBRANCH  19  22
ENDBRANCH  13  18
ENDBRANCH   9  12
ENDBRANCH   7   8
ENDBRANCH   4   7
ENDBRANCH   2   3
ENDBRANCH   1   2
BRANCH   1  28
ATOM     28  C   UNL A   1      36.048  23.105  24.306  1.00  0.00     0.023 C 
BRANCH  28  29
ATOM     29  C   UNL A   1      37.100  23.650  25.268  1.00  0.00     0.116 C 
BRANCH  29  30
ATOM     30  N   UNL A   1      38.178  22.712  25.541  1.00  0.00    -0.352 N 
ATOM     31  C   UNL A   1      39.358  22.944  26.212  1.00  0.00     0.251 C 
ATOM     32  H   UNL A   1      38.049  21.797  25.202  1.00  0.00     0.163 HD
ATOM     33  O   UNL A   1      40.219  22.079  26.277  1.00  0.00    -0.269 OA
BRANCH  31  34
ATOM     34  C   UNL A   1      39.579  24.275  26.817  1.00  0.00     0.039 A 
ATOM     35  C   UNL A   1      39.141  24.503  28.123  1.00  0.00     0.014 A 
ATOM     36  C   UNL A   1      40.276  25.263  26.118  1.00  0.00     0.014 A 
ATOM     37  C   UNL A   1      39.470  25.703  28.758  1.00  0.00     0.010 A 
ATOM     38  C   UNL A   1      40.659  26.429  26.774  1.00  0.00     0.010 A 
ATOM     39  C   UNL A   1      40.265  26.658  28.102  1.00  0.00    -0.014 A 
BRANCH  39  40
ATOM     40  C   UNL A   1      40.709  27.896  28.790  1.00  0.00     0.031 A 
ATOM     41  C   UNL A   1      42.082  27.969  29.400  1.00  0.00     0.074 A 
ATOM     42  C   UNL A   1      39.850  28.926  28.933  1.00  0.00     0.049 A 
ATOM     43  N   UNL A   1      42.623  28.932  30.100  1.00  0.00    -0.248 NA
ATOM     44  C   UNL A   1      42.951  26.793  29.222  1.00  0.00     0.031 C 
ATOM     45  C   UNL A   1      38.475  28.961  28.430  1.00  0.00     0.029 A 
ATOM     46  N   UNL A   1      40.006  30.141  29.554  1.00  0.00    -0.354 N 
ATOM     47  C   UNL A   1      43.884  28.474  30.463  1.00  0.00     0.074 A 
ATOM     48  C   UNL A   1      44.010  27.129  29.945  1.00  0.00     0.031 C 
ATOM     49  C   UNL A   1      37.923  30.144  28.741  1.00  0.00     0.029 A 
ATOM     50  C   UNL A   1      38.887  30.938  29.495  1.00  0.00     0.049 A 
ATOM     51  H   UNL A   1      40.841  30.415  29.997  1.00  0.00     0.167 HD
ATOM     52  C   UNL A   1      44.856  29.120  31.150  1.00  0.00     0.031 A 
ATOM     53  C   UNL A   1      38.660  32.167  29.998  1.00  0.00     0.031 A 
ATOM     54  C   UNL A   1      44.736  30.463  31.648  1.00  0.00     0.049 A 
ATOM     55  C   UNL A   1      39.759  32.869  30.748  1.00  0.00     0.074 A 
ATOM     56  C   UNL A   1      45.687  31.226  32.302  1.00  0.00     0.029 A 
ATOM     57  N   UNL A   1      43.595  31.246  31.547  1.00  0.00    -0.354 N 
ATOM     58  N   UNL A   1      40.968  32.442  31.024  1.00  0.00    -0.248 NA
ATOM     59  C   UNL A   1      39.466  34.221  31.245  1.00  0.00     0.031 C 
ATOM     60  C   UNL A   1      45.107  32.456  32.634  1.00  0.00     0.029 A 
ATOM     61  C   UNL A   1      43.812  32.477  32.142  1.00  0.00     0.049 A 
ATOM     62  H   UNL A   1      42.755  30.966  31.117  1.00  0.00     0.167 HD
ATOM     63  C   UNL A   1      41.589  33.485  31.705  1.00  0.00     0.074 A 
ATOM     64  C   UNL A   1      40.628  34.564  31.786  1.00  0.00     0.031 C 
ATOM     65  C   UNL A   1      42.845  33.541  32.214  1.00  0.00     0.031 A 
BRANCH  52  66
ATOM     66  C   UNL A   1      46.139  28.374  31.400  1.00  0.00    -0.014 A 
ATOM     67  C   UNL A   1      46.404  27.787  32.650  1.00  0.00     0.010 A 
ATOM     68  C   UNL A   1      47.078  28.227  30.362  1.00  0.00     0.010 A 
ATOM     69  C   UNL A   1      47.603  27.105  32.873  1.00  0.00     0.020 A 
ATOM     70  C   UNL A   1      48.267  27.524  30.573  1.00  0.00     0.020 A 
ATOM     71  C   UNL A   1      48.530  26.983  31.834  1.00  0.00     0.054 A 
BRANCH  71  72
ATOM     72  S   UNL A   1      50.071  26.078  32.145  1.00  0.00     0.124 S 
ATOM     73  O   UNL A   1      50.737  26.168  30.848  1.00  0.00    -0.237 OA
ATOM     74  O   UNL A   1      50.686  26.853  33.220  1.00  0.00    -0.237 OA
ATOM     75  O   UNL A   1      49.619  24.742  32.524  1.00  0.00    -0.744 OA
ENDBRANCH  71  72
ENDBRANCH  52  66
BRANCH  53  76
ATOM     76  C   UNL A   1      37.341  32.824  29.789  1.00  0.00    -0.014 A 
ATOM     77  C   UNL A   1      36.393  32.862  30.826  1.00  0.00     0.010 A 
ATOM     78  C   UNL A   1      37.032  33.428  28.557  1.00  0.00     0.010 A 
ATOM     79  C   UNL A   1      35.152  33.475  30.629  1.00  0.00     0.020 A 
ATOM     80  C   UNL A   1      35.803  34.064  28.364  1.00  0.00     0.020 A 
ATOM     81  C   UNL A   1      34.864  34.073  29.398  1.00  0.00     0.054 A 
BRANCH  81  82
ATOM     82  S   UNL A   1      33.268  34.909  29.182  1.00  0.00     0.124 S 
ATOM     83  O   UNL A   1      33.677  36.216  28.680  1.00  0.00    -0.237 OA
ATOM     84  O   UNL A   1      32.586  34.046  28.221  1.00  0.00    -0.237 OA
ATOM     85  O   UNL A   1      32.697  34.904  30.527  1.00  0.00    -0.744 OA
ENDBRANCH  81  82
ENDBRANCH  53  76
BRANCH  65  86
ATOM     86  C   UNL A   1      43.265  34.825  32.877  1.00  0.00    -0.014 A 
ATOM     87  C   UNL A   1      43.765  35.903  32.125  1.00  0.00     0.010 A 
ATOM     88  C   UNL A   1      43.102  34.972  34.266  1.00  0.00     0.010 A 
ATOM     89  C   UNL A   1      44.121  37.098  32.756  1.00  0.00     0.020 A 
ATOM     90  C   UNL A   1      43.433  36.174  34.897  1.00  0.00     0.020 A 
ATOM     91  C   UNL A   1      43.954  37.225  34.139  1.00  0.00     0.054 A 
BRANCH  91  92
ATOM     92  S   UNL A   1      44.379  38.800  34.931  1.00  0.00     0.124 S 
ATOM     93  O   UNL A   1      43.524  39.741  34.214  1.00  0.00    -0.237 OA
ATOM     94  O   UNL A   1      44.021  38.565  36.328  1.00  0.00    -0.237 OA
ATOM     95  O   UNL A   1      45.811  38.941  34.677  1.00  0.00    -0.744 OA
ENDBRANCH  91  92
ENDBRANCH  65  86
ENDBRANCH  39  40
ENDBRANCH  31  34
ENDBRANCH  29  30
ENDBRANCH  28  29
ENDBRANCH   1  28
TORSDOF 18
ENDMDL
MODEL 2
REMARK VINA RESULT:     -11.1      4.653     11.987
REMARK SMILES Cc1cc(C(=O)Nc2cccc(C(=O)NCC(=O)NCCCCNC(=O)c3ccc(-c4c5nc(c(-c6ccc(S(=O)(=O)[O-])cc6)c6ccc([nH]6)c(-c6ccc(S(=O)(=O)[O-])cc6)c6nc(c(-c7ccc(S(=O)(=O)[O-])cc7)c7ccc4[nH]7)C=C6)C=C5)cc3)c2)no1
REMARK SMILES IDX 21 1 20 2 19 3 17 4 18 5 16 7 15 8 13 9 14 10 12 12 8 13
REMARK SMILES IDX 9 14 87 15 10 16 11 17 7 18 5 19 6 20 4 22 1 23 2 24 3 25
REMARK SMILES IDX 89 26 88 27 22 28 23 29 24 30 25 31 26 33 27 34 28 35 86 36
REMARK SMILES IDX 29 37 85 38 30 39 31 40 32 41 79 42 33 43 84 44 78 45 80 46
REMARK SMILES IDX 34 47 83 48 77 49 76 50 35 52 65 53 46 54 64 55 47 56 50 57
REMARK SMILES IDX 63 58 81 59 48 60 49 61 62 63 82 64 51 65 36 66 37 67 45 68
REMARK SMILES IDX 38 69 44 70 39 71 40 72 41 73 42 74 43 75 66 76 67 77 75 78
REMARK SMILES IDX 68 79 74 80 69 81 70 82 71 83 72 84 73 85 52 86 53 87 61 88
REMARK SMILES IDX 54 89 60 90 55 91 56 92 57 93 58 94 59 95
REMARK H PARENT 19 6 15 11 7 21 24 32 80 51 50 62
REMARK Flexibility Score: inf
ROOT
ATOM      1  C   UNL A   1      35.346  33.877  31.649  1.00  0.00     0.023 C 
ENDROOT
BRANCH   1   2
ATOM      2  C   UNL A   1      36.864  33.875  31.773  1.00  0.00     0.116 C 
BRANCH   2   3
ATOM      3  N   UNL A   1      37.332  34.659  32.891  1.00  0.00    -0.355 N 
ATOM      4  C   UNL A   1      38.408  34.491  33.704  1.00  0.00     0.239 C 
ATOM      5  O   UNL A   1      38.625  35.386  34.528  1.00  0.00    -0.273 OA
ATOM      6  H   UNL A   1      36.781  35.447  33.098  1.00  0.00     0.163 HD
BRANCH   4   7
ATOM      7  C   UNL A   1      39.430  33.353  33.535  1.00  0.00     0.216 C 
BRANCH   7   8
ATOM      8  N   UNL A   1      40.146  32.826  34.690  1.00  0.00    -0.343 N 
ATOM      9  C   UNL A   1      40.787  31.665  35.027  1.00  0.00     0.251 C 
ATOM     10  O   UNL A   1      41.411  31.690  36.092  1.00  0.00    -0.269 OA
ATOM     11  H   UNL A   1      40.175  33.480  35.426  1.00  0.00     0.164 HD
BRANCH   9  12
ATOM     12  C   UNL A   1      40.773  30.381  34.255  1.00  0.00     0.041 A 
ATOM     13  C   UNL A   1      41.778  28.410  33.216  1.00  0.00     0.042 A 
ATOM     14  C   UNL A   1      40.540  28.019  32.717  1.00  0.00     0.026 A 
ATOM     15  C   UNL A   1      41.893  29.629  33.901  1.00  0.00     0.040 A 
ATOM     16  C   UNL A   1      39.408  28.771  33.022  1.00  0.00     0.003 A 
ATOM     17  C   UNL A   1      39.522  29.923  33.808  1.00  0.00     0.014 A 
BRANCH  13  18
ATOM     18  N   UNL A   1      42.876  27.553  33.022  1.00  0.00    -0.321 N 
ATOM     19  C   UNL A   1      43.558  26.763  33.940  1.00  0.00     0.277 C 
ATOM     20  O   UNL A   1      44.632  26.269  33.601  1.00  0.00    -0.267 OA
ATOM     21  H   UNL A   1      43.212  27.506  32.098  1.00  0.00     0.170 HD
BRANCH  19  22
ATOM     22  C   UNL A   1      42.927  26.470  35.235  1.00  0.00     0.171 A 
ATOM     23  C   UNL A   1      40.377  25.420  37.661  1.00  0.00     0.091 C 
ATOM     24  C   UNL A   1      41.508  25.833  36.809  1.00  0.00     0.134 A 
ATOM     25  C   UNL A   1      41.888  25.538  35.527  1.00  0.00     0.082 A 
ATOM     26  O   UNL A   1      42.361  26.759  37.321  1.00  0.00    -0.361 OA
ATOM     27  N   UNL A   1      43.261  27.149  36.346  1.00  0.00    -0.074 NA
ENDBRANCH  19  22
ENDBRANCH  13  18
ENDBRANCH   9  12
ENDBRANCH   7   8
ENDBRANCH   4   7
ENDBRANCH   2   3
ENDBRANCH   1   2
BRANCH   1  28
ATOM     28  C   UNL A   1      34.790  32.687  30.868  1.00  0.00     0.023 C 
BRANCH  28  29
ATOM     29  C   UNL A   1      35.047  32.721  29.364  1.00  0.00     0.116 C 
BRANCH  29  30
ATOM     30  N   UNL A   1      34.170  31.842  28.605  1.00  0.00    -0.352 N 
ATOM     31  C   UNL A   1      34.467  30.616  28.053  1.00  0.00     0.251 C 
ATOM     32  H   UNL A   1      33.251  32.165  28.467  1.00  0.00     0.163 HD
ATOM     33  O   UNL A   1      33.651  30.034  27.352  1.00  0.00    -0.269 OA
BRANCH  31  34
ATOM     34  C   UNL A   1      35.805  30.035  28.292  1.00  0.00     0.039 A 
ATOM     35  C   UNL A   1      36.770  30.129  27.287  1.00  0.00     0.014 A 
ATOM     36  C   UNL A   1      36.119  29.465  29.527  1.00  0.00     0.014 A 
ATOM     37  C   UNL A   1      38.078  29.716  27.550  1.00  0.00     0.010 A 
ATOM     38  C   UNL A   1      37.437  29.117  29.809  1.00  0.00     0.010 A 
ATOM     39  C   UNL A   1      38.430  29.244  28.826  1.00  0.00    -0.014 A 
BRANCH  39  40
ATOM     40  C   UNL A   1      39.833  28.893  29.158  1.00  0.00     0.031 A 
ATOM     41  C   UNL A   1      40.734  29.911  29.800  1.00  0.00     0.074 A 
ATOM     42  C   UNL A   1      40.318  27.683  28.813  1.00  0.00     0.049 A 
ATOM     43  N   UNL A   1      42.004  29.817  30.098  1.00  0.00    -0.248 NA
ATOM     44  C   UNL A   1      40.136  31.217  30.123  1.00  0.00     0.031 C 
ATOM     45  C   UNL A   1      39.561  26.623  28.142  1.00  0.00     0.029 A 
ATOM     46  N   UNL A   1      41.571  27.143  28.971  1.00  0.00    -0.354 N 
ATOM     47  C   UNL A   1      42.362  31.052  30.625  1.00  0.00     0.074 A 
ATOM     48  C   UNL A   1      41.187  31.895  30.562  1.00  0.00     0.031 C 
ATOM     49  C   UNL A   1      40.356  25.556  27.968  1.00  0.00     0.029 A 
ATOM     50  C   UNL A   1      41.688  25.864  28.480  1.00  0.00     0.049 A 
ATOM     51  H   UNL A   1      42.316  27.627  29.397  1.00  0.00     0.167 HD
ATOM     52  C   UNL A   1      43.554  31.445  31.132  1.00  0.00     0.031 A 
ATOM     53  C   UNL A   1      42.748  25.034  28.440  1.00  0.00     0.031 A 
ATOM     54  C   UNL A   1      44.716  30.601  31.211  1.00  0.00     0.049 A 
ATOM     55  C   UNL A   1      44.060  25.489  29.018  1.00  0.00     0.074 A 
ATOM     56  C   UNL A   1      45.952  30.888  31.763  1.00  0.00     0.029 A 
ATOM     57  N   UNL A   1      44.786  29.304  30.725  1.00  0.00    -0.354 N 
ATOM     58  N   UNL A   1      44.359  26.641  29.571  1.00  0.00    -0.248 NA
ATOM     59  C   UNL A   1      45.173  24.530  28.977  1.00  0.00     0.031 C 
ATOM     60  C   UNL A   1      46.782  29.778  31.573  1.00  0.00     0.029 A 
ATOM     61  C   UNL A   1      46.049  28.783  30.948  1.00  0.00     0.049 A 
ATOM     62  H   UNL A   1      44.046  28.825  30.285  1.00  0.00     0.167 HD
ATOM     63  C   UNL A   1      45.689  26.534  29.967  1.00  0.00     0.074 A 
ATOM     64  C   UNL A   1      46.129  25.204  29.603  1.00  0.00     0.031 C 
ATOM     65  C   UNL A   1      46.472  27.456  30.580  1.00  0.00     0.031 A 
BRANCH  52  66
ATOM     66  C   UNL A   1      43.658  32.857  31.643  1.00  0.00    -0.014 A 
ATOM     67  C   UNL A   1      44.020  33.913  30.787  1.00  0.00     0.010 A 
ATOM     68  C   UNL A   1      43.357  33.139  32.988  1.00  0.00     0.010 A 
ATOM     69  C   UNL A   1      44.122  35.218  31.274  1.00  0.00     0.020 A 
ATOM     70  C   UNL A   1      43.432  34.448  33.474  1.00  0.00     0.020 A 
ATOM     71  C   UNL A   1      43.832  35.476  32.617  1.00  0.00     0.054 A 
BRANCH  71  72
ATOM     72  S   UNL A   1      43.956  37.182  33.221  1.00  0.00     0.124 S 
ATOM     73  O   UNL A   1      43.942  37.943  31.974  1.00  0.00    -0.237 OA
ATOM     74  O   UNL A   1      42.762  37.316  34.052  1.00  0.00    -0.237 OA
ATOM     75  O   UNL A   1      45.222  37.201  33.950  1.00  0.00    -0.744 OA
ENDBRANCH  71  72
ENDBRANCH  52  66
BRANCH  53  76
ATOM     76  C   UNL A   1      42.608  23.676  27.848  1.00  0.00    -0.014 A 
ATOM     77  C   UNL A   1      43.059  23.419  26.541  1.00  0.00     0.010 A 
ATOM     78  C   UNL A   1      42.036  22.629  28.592  1.00  0.00     0.010 A 
ATOM     79  C   UNL A   1      42.924  22.145  25.983  1.00  0.00     0.020 A 
ATOM     80  C   UNL A   1      41.921  21.347  28.046  1.00  0.00     0.020 A 
ATOM     81  C   UNL A   1      42.355  21.116  26.740  1.00  0.00     0.054 A 
BRANCH  81  82
ATOM     82  S   UNL A   1      42.237  19.457  26.014  1.00  0.00     0.124 S 
ATOM     83  O   UNL A   1      43.096  19.578  24.840  1.00  0.00    -0.237 OA
ATOM     84  O   UNL A   1      42.745  18.605  27.086  1.00  0.00    -0.237 OA
ATOM     85  O   UNL A   1      40.811  19.308  25.735  1.00  0.00    -0.744 OA
ENDBRANCH  81  82
ENDBRANCH  53  76
BRANCH  65  86
ATOM     86  C   UNL A   1      47.878  27.049  30.926  1.00  0.00    -0.014 A 
ATOM     87  C   UNL A   1      48.188  26.499  32.182  1.00  0.00     0.010 A 
ATOM     88  C   UNL A   1      48.892  27.167  29.958  1.00  0.00     0.010 A 
ATOM     89  C   UNL A   1      49.495  26.099  32.473  1.00  0.00     0.020 A 
ATOM     90  C   UNL A   1      50.194  26.745  30.236  1.00  0.00     0.020 A 
ATOM     91  C   UNL A   1      50.490  26.225  31.499  1.00  0.00     0.054 A 
BRANCH  91  92
ATOM     92  S   UNL A   1      52.169  25.657  31.882  1.00  0.00     0.124 S 
ATOM     93  O   UNL A   1      52.889  25.988  30.656  1.00  0.00    -0.237 OA
ATOM     94  O   UNL A   1      52.521  26.458  33.053  1.00  0.00    -0.237 OA
ATOM     95  O   UNL A   1      52.001  24.229  32.140  1.00  0.00    -0.744 OA
ENDBRANCH  91  92
ENDBRANCH  65  86
ENDBRANCH  39  40
ENDBRANCH  31  34
ENDBRANCH  29  30
ENDBRANCH  28  29
ENDBRANCH   1  28
TORSDOF 18
ENDMDL
MODEL 3
REMARK VINA RESULT:     -10.9      3.649      4.979
REMARK SMILES Cc1cc(C(=O)Nc2cccc(C(=O)NCC(=O)NCCCCNC(=O)c3ccc(-c4c5nc(c(-c6ccc(S(=O)(=O)[O-])cc6)c6ccc([nH]6)c(-c6ccc(S(=O)(=O)[O-])cc6)c6nc(c(-c7ccc(S(=O)(=O)[O-])cc7)c7ccc4[nH]7)C=C6)C=C5)cc3)c2)no1
REMARK SMILES IDX 21 1 20 2 19 3 17 4 18 5 16 7 15 8 13 9 14 10 12 12 8 13
REMARK SMILES IDX 9 14 87 15 10 16 11 17 7 18 5 19 6 20 4 22 1 23 2 24 3 25
REMARK SMILES IDX 89 26 88 27 22 28 23 29 24 30 25 31 26 33 27 34 28 35 86 36
REMARK SMILES IDX 29 37 85 38 30 39 31 40 32 41 79 42 33 43 84 44 78 45 80 46
REMARK SMILES IDX 34 47 83 48 77 49 76 50 35 52 65 53 46 54 64 55 47 56 50 57
REMARK SMILES IDX 63 58 81 59 48 60 49 61 62 63 82 64 51 65 36 66 37 67 45 68
REMARK SMILES IDX 38 69 44 70 39 71 40 72 41 73 42 74 43 75 66 76 67 77 75 78
REMARK SMILES IDX 68 79 74 80 69 81 70 82 71 83 72 84 73 85 52 86 53 87 61 88
REMARK SMILES IDX 54 89 60 90 55 91 56 92 57 93 58 94 59 95
REMARK H PARENT 19 6 15 11 7 21 24 32 80 51 50 62
REMARK Flexibility Score: inf
ROOT
ATOM      1  C   UNL A   1      36.891  20.272  25.006  1.00  0.00     0.023 C 
ENDROOT
BRANCH   1   2
ATOM      2  C   UNL A   1      35.463  20.779  25.157  1.00  0.00     0.116 C 
BRANCH   2   3
ATOM      3  N   UNL A   1      34.524  19.719  25.437  1.00  0.00    -0.355 N 
ATOM      4  C   UNL A   1      33.165  19.717  25.447  1.00  0.00     0.239 C 
ATOM      5  O   UNL A   1      32.613  18.625  25.624  1.00  0.00    -0.273 OA
ATOM      6  H   UNL A   1      34.936  18.853  25.656  1.00  0.00     0.163 HD
BRANCH   4   7
ATOM      7  C   UNL A   1      32.312  20.948  25.089  1.00  0.00     0.216 C 
BRANCH   7   8
ATOM      8  N   UNL A   1      31.681  21.737  26.140  1.00  0.00    -0.343 N 
ATOM      9  C   UNL A   1      31.573  23.062  26.469  1.00  0.00     0.251 C 
ATOM     10  O   UNL A   1      30.793  23.319  27.391  1.00  0.00    -0.269 OA
ATOM     11  H   UNL A   1      31.206  21.165  26.785  1.00  0.00     0.164 HD
BRANCH   9  12
ATOM     12  C   UNL A   1      32.326  24.200  25.850  1.00  0.00     0.041 A 
ATOM     13  C   UNL A   1      33.428  25.393  24.024  1.00  0.00     0.042 A 
ATOM     14  C   UNL A   1      33.809  26.410  24.894  1.00  0.00     0.026 A 
ATOM     15  C   UNL A   1      32.771  24.261  24.529  1.00  0.00     0.040 A 
ATOM     16  C   UNL A   1      33.412  26.357  26.227  1.00  0.00     0.003 A 
ATOM     17  C   UNL A   1      32.653  25.277  26.691  1.00  0.00     0.014 A 
BRANCH  13  18
ATOM     18  N   UNL A   1      33.711  25.546  22.655  1.00  0.00    -0.321 N 
ATOM     19  C   UNL A   1      32.982  26.195  21.666  1.00  0.00     0.277 C 
ATOM     20  O   UNL A   1      33.297  26.011  20.491  1.00  0.00    -0.267 OA
ATOM     21  H   UNL A   1      34.551  25.130  22.352  1.00  0.00     0.170 HD
BRANCH  19  22
ATOM     22  C   UNL A   1      31.935  27.148  22.062  1.00  0.00     0.171 A 
ATOM     23  C   UNL A   1      30.299  29.928  23.816  1.00  0.00     0.091 C 
ATOM     24  C   UNL A   1      30.830  28.816  23.008  1.00  0.00     0.134 A 
ATOM     25  C   UNL A   1      32.085  28.468  22.580  1.00  0.00     0.082 A 
ATOM     26  O   UNL A   1      29.950  27.853  22.628  1.00  0.00    -0.361 OA
ATOM     27  N   UNL A   1      30.634  26.815  22.021  1.00  0.00    -0.074 NA
ENDBRANCH  19  22
ENDBRANCH  13  18
ENDBRANCH   9  12
ENDBRANCH   7   8
ENDBRANCH   4   7
ENDBRANCH   2   3
ENDBRANCH   1   2
BRANCH   1  28
ATOM     28  C   UNL A   1      37.940  21.384  24.984  1.00  0.00     0.023 C 
BRANCH  28  29
ATOM     29  C   UNL A   1      38.990  21.308  26.090  1.00  0.00     0.116 C 
BRANCH  29  30
ATOM     30  N   UNL A   1      39.839  20.129  26.004  1.00  0.00    -0.352 N 
ATOM     31  C   UNL A   1      41.212  20.063  26.082  1.00  0.00     0.251 C 
ATOM     32  H   UNL A   1      39.373  19.272  25.872  1.00  0.00     0.163 HD
ATOM     33  O   UNL A   1      41.797  19.006  25.891  1.00  0.00    -0.269 OA
BRANCH  31  34
ATOM     34  C   UNL A   1      41.967  21.303  26.360  1.00  0.00     0.039 A 
ATOM     35  C   UNL A   1      42.298  22.144  25.296  1.00  0.00     0.014 A 
ATOM     36  C   UNL A   1      42.283  21.659  27.673  1.00  0.00     0.014 A 
ATOM     37  C   UNL A   1      42.882  23.385  25.558  1.00  0.00     0.010 A 
ATOM     38  C   UNL A   1      42.802  22.923  27.936  1.00  0.00     0.010 A 
ATOM     39  C   UNL A   1      43.102  23.800  26.882  1.00  0.00    -0.014 A 
BRANCH  39  40
ATOM     40  C   UNL A   1      43.630  25.154  27.188  1.00  0.00     0.031 A 
ATOM     41  C   UNL A   1      45.084  25.464  26.965  1.00  0.00     0.074 A 
ATOM     42  C   UNL A   1      42.818  26.079  27.738  1.00  0.00     0.049 A 
ATOM     43  N   UNL A   1      45.745  26.559  27.238  1.00  0.00    -0.248 NA
ATOM     44  C   UNL A   1      45.911  24.392  26.384  1.00  0.00     0.031 C 
ATOM     45  C   UNL A   1      41.399  25.888  28.050  1.00  0.00     0.029 A 
ATOM     46  N   UNL A   1      43.074  27.367  28.142  1.00  0.00    -0.354 N 
ATOM     47  C   UNL A   1      47.065  26.303  26.882  1.00  0.00     0.074 A 
ATOM     48  C   UNL A   1      47.120  24.934  26.417  1.00  0.00     0.031 C 
ATOM     49  C   UNL A   1      40.907  27.022  28.572  1.00  0.00     0.029 A 
ATOM     50  C   UNL A   1      41.978  28.009  28.668  1.00  0.00     0.049 A 
ATOM     51  H   UNL A   1      43.959  27.790  28.061  1.00  0.00     0.167 HD
ATOM     52  C   UNL A   1      48.130  27.138  26.921  1.00  0.00     0.031 A 
ATOM     53  C   UNL A   1      41.849  29.249  29.177  1.00  0.00     0.031 A 
ATOM     54  C   UNL A   1      48.071  28.504  27.366  1.00  0.00     0.049 A 
ATOM     55  C   UNL A   1      43.045  30.161  29.201  1.00  0.00     0.074 A 
ATOM     56  C   UNL A   1      49.083  29.448  27.385  1.00  0.00     0.029 A 
ATOM     57  N   UNL A   1      46.936  29.124  27.868  1.00  0.00    -0.354 N 
ATOM     58  N   UNL A   1      44.271  29.921  28.799  1.00  0.00    -0.248 NA
ATOM     59  C   UNL A   1      42.839  31.514  29.736  1.00  0.00     0.031 C 
ATOM     60  C   UNL A   1      48.570  30.626  27.938  1.00  0.00     0.029 A 
ATOM     61  C   UNL A   1      47.227  30.431  28.217  1.00  0.00     0.049 A 
ATOM     62  H   UNL A   1      46.054  28.696  27.964  1.00  0.00     0.167 HD
ATOM     63  C   UNL A   1      44.975  31.102  29.009  1.00  0.00     0.074 A 
ATOM     64  C   UNL A   1      44.036  32.057  29.560  1.00  0.00     0.031 C 
ATOM     65  C   UNL A   1      46.281  31.370  28.764  1.00  0.00     0.031 A 
BRANCH  52  66
ATOM     66  C   UNL A   1      49.456  26.589  26.467  1.00  0.00    -0.014 A 
ATOM     67  C   UNL A   1      50.007  26.958  25.226  1.00  0.00     0.010 A 
ATOM     68  C   UNL A   1      50.177  25.718  27.304  1.00  0.00     0.010 A 
ATOM     69  C   UNL A   1      51.234  26.434  24.812  1.00  0.00     0.020 A 
ATOM     70  C   UNL A   1      51.417  25.211  26.904  1.00  0.00     0.020 A 
ATOM     71  C   UNL A   1      51.929  25.559  25.651  1.00  0.00     0.054 A 
BRANCH  71  72
ATOM     72  S   UNL A   1      53.527  24.906  25.096  1.00  0.00     0.124 S 
ATOM     73  O   UNL A   1      53.250  23.474  25.004  1.00  0.00    -0.237 OA
ATOM     74  O   UNL A   1      53.727  25.588  23.820  1.00  0.00    -0.237 OA
ATOM     75  O   UNL A   1      54.450  25.296  26.159  1.00  0.00    -0.744 OA
ENDBRANCH  71  72
ENDBRANCH  52  66
BRANCH  53  76
ATOM     76  C   UNL A   1      40.530  29.711  29.688  1.00  0.00    -0.014 A 
ATOM     77  C   UNL A   1      39.529  30.132  28.795  1.00  0.00     0.010 A 
ATOM     78  C   UNL A   1      40.262  29.721  31.068  1.00  0.00     0.010 A 
ATOM     79  C   UNL A   1      38.291  30.570  29.273  1.00  0.00     0.020 A 
ATOM     80  C   UNL A   1      39.017  30.135  31.550  1.00  0.00     0.020 A 
ATOM     81  C   UNL A   1      38.043  30.569  30.649  1.00  0.00     0.054 A 
BRANCH  81  82
ATOM     82  S   UNL A   1      36.411  31.093  31.246  1.00  0.00     0.124 S 
ATOM     83  O   UNL A   1      36.028  29.974  32.100  1.00  0.00    -0.237 OA
ATOM     84  O   UNL A   1      36.712  32.344  31.936  1.00  0.00    -0.237 OA
ATOM     85  O   UNL A   1      35.632  31.240  30.018  1.00  0.00    -0.744 OA
ENDBRANCH  81  82
ENDBRANCH  53  76
BRANCH  65  86
ATOM     86  C   UNL A   1      46.769  32.763  29.060  1.00  0.00    -0.014 A 
ATOM     87  C   UNL A   1      47.247  33.110  30.335  1.00  0.00     0.010 A 
ATOM     88  C   UNL A   1      46.800  33.719  28.028  1.00  0.00     0.010 A 
ATOM     89  C   UNL A   1      47.723  34.401  30.581  1.00  0.00     0.020 A 
ATOM     90  C   UNL A   1      47.299  35.002  28.263  1.00  0.00     0.020 A 
ATOM     91  C   UNL A   1      47.745  35.340  29.544  1.00  0.00     0.054 A 
BRANCH  91  92
ATOM     92  S   UNL A   1      48.410  36.994  29.873  1.00  0.00     0.124 S 
ATOM     93  O   UNL A   1      47.684  37.812  28.907  1.00  0.00    -0.237 OA
ATOM     94  O   UNL A   1      48.054  37.211  31.274  1.00  0.00    -0.237 OA
ATOM     95  O   UNL A   1      49.841  36.849  29.617  1.00  0.00    -0.744 OA
ENDBRANCH  91  92
ENDBRANCH  65  86
ENDBRANCH  39  40
ENDBRANCH  31  34
ENDBRANCH  29  30
ENDBRANCH  28  29
ENDBRANCH   1  28
TORSDOF 18
ENDMDL
