MODEL 1
REMARK VINA RESULT:     -14.2      0.000      0.000
REMARK SMILES Cc1ccc(NC(=O)C[N@H+]2CC[C@@H](C(=O)NCCCCNC(=O)c3ccc(-c4c5nc(c(-c6ccc(S(=O)(=O)[O-])cc6)c6ccc([nH]6)c(-c6ccc(S(=O)(=O)[O-])cc6)c6nc(c(-c7ccc(S(=O)(=O)[O-])cc7)c7ccc4[nH]7)C=C6)C=C5)cc3)[C@@H]2C)cc1
REMARK SMILES IDX 18 1 17 2 16 3 14 4 15 5 13 7 10 8 11 9 84 10 12 12 85 13
REMARK SMILES IDX 9 14 7 15 6 16 8 18 5 19 1 20 2 21 3 22 87 23 4 24 86 25
REMARK SMILES IDX 19 26 20 27 21 28 22 29 23 31 24 32 25 33 83 34 26 35 82 36
REMARK SMILES IDX 27 37 28 38 29 39 76 40 30 41 81 42 75 43 77 44 31 45 80 46
REMARK SMILES IDX 74 47 73 48 32 50 62 51 43 52 61 53 44 54 47 55 60 56 78 57
REMARK SMILES IDX 45 58 46 59 59 61 79 62 48 63 33 64 34 65 42 66 35 67 41 68
REMARK SMILES IDX 36 69 37 70 38 71 39 72 40 73 63 74 64 75 72 76 65 77 71 78
REMARK SMILES IDX 66 79 67 80 68 81 69 82 70 83 49 84 50 85 58 86 51 87 57 88
REMARK SMILES IDX 52 89 53 90 54 91 55 92 56 93
REMARK H PARENT 16 6 10 11 6 17 21 30 77 49 47 60
REMARK Flexibility Score: inf
ROOT
ATOM      1  C   UNL A   1      32.179  28.596  26.406  1.00  0.00     0.023 C 
ENDROOT
BRANCH   1   2
ATOM      2  C   UNL A   1      32.085  27.317  27.241  1.00  0.00     0.116 C 
BRANCH   2   3
ATOM      3  N   UNL A   1      31.032  26.376  26.860  1.00  0.00    -0.356 N 
ATOM      4  C   UNL A   1      31.051  25.070  26.465  1.00  0.00     0.229 C 
ATOM      5  O   UNL A   1      30.011  24.434  26.701  1.00  0.00    -0.275 OA
ATOM      6  H   UNL A   1      30.128  26.764  26.896  1.00  0.00     0.163 HD
BRANCH   4   7
ATOM      7  C   UNL A   1      32.181  24.335  25.712  1.00  0.00     0.142 C 
ATOM      8  N   UNL A   1      33.552  25.332  24.109  1.00  0.00    -0.324 N 
ATOM      9  C   UNL A   1      34.502  25.017  25.140  1.00  0.00     0.263 C 
ATOM     10  C   UNL A   1      32.339  24.528  24.211  1.00  0.00     0.194 C 
ATOM     11  H   UNL A   1      34.134  25.182  23.286  1.00  0.00     0.348 HD
ATOM     12  C   UNL A   1      33.621  24.458  26.274  1.00  0.00     0.081 C 
ATOM     13  C   UNL A   1      32.514  23.146  23.559  1.00  0.00     0.076 C 
BRANCH   8  14
ATOM     14  C   UNL A   1      33.596  26.508  23.250  1.00  0.00     0.364 C 
BRANCH  14  15
ATOM     15  C   UNL A   1      32.823  26.550  21.915  1.00  0.00     0.279 C 
ATOM     16  N   UNL A   1      31.573  27.041  21.666  1.00  0.00    -0.321 N 
ATOM     17  H   UNL A   1      31.189  26.633  20.857  1.00  0.00     0.170 HD
ATOM     18  O   UNL A   1      33.330  25.950  20.947  1.00  0.00    -0.268 OA
BRANCH  16  19
ATOM     19  C   UNL A   1      30.675  27.965  22.235  1.00  0.00     0.041 A 
ATOM     20  C   UNL A   1      27.574  30.727  23.528  1.00  0.00     0.044 C 
ATOM     21  C   UNL A   1      28.632  29.747  23.126  1.00  0.00    -0.051 A 
ATOM     22  C   UNL A   1      29.817  30.220  22.587  1.00  0.00     0.005 A 
ATOM     23  C   UNL A   1      28.492  28.369  23.275  1.00  0.00     0.005 A 
ATOM     24  C   UNL A   1      30.811  29.328  22.170  1.00  0.00     0.026 A 
ATOM     25  C   UNL A   1      29.499  27.494  22.822  1.00  0.00     0.026 A 
ENDBRANCH  16  19
ENDBRANCH  14  15
ENDBRANCH   8  14
ENDBRANCH   4   7
ENDBRANCH   2   3
ENDBRANCH   1   2
BRANCH   1  26
ATOM     26  C   UNL A   1      33.013  29.706  27.047  1.00  0.00     0.023 C 
BRANCH  26  27
ATOM     27  C   UNL A   1      34.501  29.389  27.174  1.00  0.00     0.116 C 
BRANCH  27  28
ATOM     28  N   UNL A   1      35.419  30.500  26.966  1.00  0.00    -0.352 N 
ATOM     29  C   UNL A   1      36.408  30.789  27.913  1.00  0.00     0.251 C 
ATOM     30  H   UNL A   1      35.344  31.051  26.154  1.00  0.00     0.163 HD
ATOM     31  O   UNL A   1      36.467  31.812  28.561  1.00  0.00    -0.269 OA
BRANCH  29  32
ATOM     32  C   UNL A   1      37.404  29.705  28.110  1.00  0.00     0.039 A 
ATOM     33  C   UNL A   1      37.396  28.929  29.273  1.00  0.00     0.014 A 
ATOM     34  C   UNL A   1      38.440  29.594  27.185  1.00  0.00     0.014 A 
ATOM     35  C   UNL A   1      38.516  28.151  29.577  1.00  0.00     0.010 A 
ATOM     36  C   UNL A   1      39.580  28.913  27.532  1.00  0.00     0.010 A 
ATOM     37  C   UNL A   1      39.629  28.212  28.737  1.00  0.00    -0.014 A 
BRANCH  37  38
ATOM     38  C   UNL A   1      40.923  27.613  29.017  1.00  0.00     0.031 A 
ATOM     39  C   UNL A   1      41.196  26.224  28.598  1.00  0.00     0.074 A 
ATOM     40  C   UNL A   1      41.920  28.397  29.482  1.00  0.00     0.049 A 
ATOM     41  N   UNL A   1      42.100  25.473  29.129  1.00  0.00    -0.248 NA
ATOM     42  C   UNL A   1      40.444  25.558  27.536  1.00  0.00     0.031 C 
ATOM     43  C   UNL A   1      43.344  28.083  29.517  1.00  0.00     0.029 A 
ATOM     44  N   UNL A   1      41.817  29.575  30.221  1.00  0.00    -0.354 N 
ATOM     45  C   UNL A   1      42.274  24.400  28.286  1.00  0.00     0.074 A 
ATOM     46  C   UNL A   1      41.159  24.441  27.369  1.00  0.00     0.031 C 
ATOM     47  C   UNL A   1      43.917  28.821  30.483  1.00  0.00     0.029 A 
ATOM     48  C   UNL A   1      42.847  29.530  31.171  1.00  0.00     0.049 A 
ATOM     49  H   UNL A   1      41.154  30.294  30.101  1.00  0.00     0.167 HD
ATOM     50  C   UNL A   1      43.434  23.686  28.328  1.00  0.00     0.031 A 
ATOM     51  C   UNL A   1      42.633  29.516  32.519  1.00  0.00     0.031 A 
ATOM     52  C   UNL A   1      44.340  24.191  29.357  1.00  0.00     0.049 A 
ATOM     53  C   UNL A   1      43.226  28.281  33.164  1.00  0.00     0.074 A 
ATOM     54  C   UNL A   1      45.453  25.013  29.305  1.00  0.00     0.029 A 
ATOM     55  N   UNL A   1      43.961  24.126  30.692  1.00  0.00    -0.354 N 
ATOM     56  N   UNL A   1      43.543  27.203  32.500  1.00  0.00    -0.248 NA
ATOM     57  C   UNL A   1      43.500  28.152  34.590  1.00  0.00     0.031 C 
ATOM     58  C   UNL A   1      45.695  25.507  30.612  1.00  0.00     0.029 A 
ATOM     59  C   UNL A   1      44.746  24.965  31.459  1.00  0.00     0.049 A 
ATOM     60  H   UNL A   1      43.234  23.562  31.044  1.00  0.00     0.167 HD
ATOM     61  C   UNL A   1      44.082  26.274  33.348  1.00  0.00     0.074 A 
ATOM     62  C   UNL A   1      44.022  26.911  34.652  1.00  0.00     0.031 C 
ATOM     63  C   UNL A   1      44.537  25.067  32.899  1.00  0.00     0.031 A 
BRANCH  50  64
ATOM     64  C   UNL A   1      43.853  22.758  27.214  1.00  0.00    -0.014 A 
ATOM     65  C   UNL A   1      42.951  21.777  26.750  1.00  0.00     0.010 A 
ATOM     66  C   UNL A   1      45.126  22.774  26.612  1.00  0.00     0.010 A 
ATOM     67  C   UNL A   1      43.323  20.811  25.806  1.00  0.00     0.020 A 
ATOM     68  C   UNL A   1      45.523  21.792  25.688  1.00  0.00     0.020 A 
ATOM     69  C   UNL A   1      44.617  20.810  25.296  1.00  0.00     0.054 A 
BRANCH  69  70
ATOM     70  S   UNL A   1      45.087  19.513  24.120  1.00  0.00     0.124 S 
ATOM     71  O   UNL A   1      44.509  19.999  22.869  1.00  0.00    -0.237 OA
ATOM     72  O   UNL A   1      46.545  19.539  24.192  1.00  0.00    -0.237 OA
ATOM     73  O   UNL A   1      44.457  18.311  24.661  1.00  0.00    -0.744 OA
ENDBRANCH  69  70
ENDBRANCH  50  64
BRANCH  51  74
ATOM     74  C   UNL A   1      41.373  30.200  32.937  1.00  0.00    -0.014 A 
ATOM     75  C   UNL A   1      40.273  29.382  33.284  1.00  0.00     0.010 A 
ATOM     76  C   UNL A   1      41.414  31.518  33.424  1.00  0.00     0.010 A 
ATOM     77  C   UNL A   1      39.345  29.803  34.242  1.00  0.00     0.020 A 
ATOM     78  C   UNL A   1      40.476  31.946  34.377  1.00  0.00     0.020 A 
ATOM     79  C   UNL A   1      39.496  31.057  34.833  1.00  0.00     0.054 A 
BRANCH  79  80
ATOM     80  S   UNL A   1      38.518  31.429  36.325  1.00  0.00     0.124 S 
ATOM     81  O   UNL A   1      37.446  32.266  35.798  1.00  0.00    -0.237 OA
ATOM     82  O   UNL A   1      38.116  30.094  36.779  1.00  0.00    -0.237 OA
ATOM     83  O   UNL A   1      39.476  32.107  37.192  1.00  0.00    -0.744 OA
ENDBRANCH  79  80
ENDBRANCH  51  74
BRANCH  63  84
ATOM     84  C   UNL A   1      44.928  23.881  33.751  1.00  0.00    -0.014 A 
ATOM     85  C   UNL A   1      44.056  22.844  34.110  1.00  0.00     0.010 A 
ATOM     86  C   UNL A   1      46.292  23.723  34.111  1.00  0.00     0.010 A 
ATOM     87  C   UNL A   1      44.506  21.734  34.839  1.00  0.00     0.020 A 
ATOM     88  C   UNL A   1      46.761  22.598  34.792  1.00  0.00     0.020 A 
ATOM     89  C   UNL A   1      45.856  21.619  35.176  1.00  0.00     0.054 A 
BRANCH  89  90
ATOM     90  S   UNL A   1      46.435  20.147  36.057  1.00  0.00     0.124 S 
ATOM     91  O   UNL A   1      45.785  20.302  37.355  1.00  0.00    -0.237 OA
ATOM     92  O   UNL A   1      45.930  19.054  35.230  1.00  0.00    -0.237 OA
ATOM     93  O   UNL A   1      47.887  20.298  36.059  1.00  0.00    -0.744 OA
ENDBRANCH  89  90
ENDBRANCH  63  84
ENDBRANCH  37  38
ENDBRANCH  29  32
ENDBRANCH  27  28
ENDBRANCH  26  27
ENDBRANCH   1  26
TORSDOF 17
ENDMDL
MODEL 2
REMARK VINA RESULT:     -13.9      1.966      3.929
REMARK SMILES Cc1ccc(NC(=O)C[N@H+]2CC[C@@H](C(=O)NCCCCNC(=O)c3ccc(-c4c5nc(c(-c6ccc(S(=O)(=O)[O-])cc6)c6ccc([nH]6)c(-c6ccc(S(=O)(=O)[O-])cc6)c6nc(c(-c7ccc(S(=O)(=O)[O-])cc7)c7ccc4[nH]7)C=C6)C=C5)cc3)[C@@H]2C)cc1
REMARK SMILES IDX 18 1 17 2 16 3 14 4 15 5 13 7 10 8 11 9 84 10 12 12 85 13
REMARK SMILES IDX 9 14 7 15 6 16 8 18 5 19 1 20 2 21 3 22 87 23 4 24 86 25
REMARK SMILES IDX 19 26 20 27 21 28 22 29 23 31 24 32 25 33 83 34 26 35 82 36
REMARK SMILES IDX 27 37 28 38 29 39 76 40 30 41 81 42 75 43 77 44 31 45 80 46
REMARK SMILES IDX 74 47 73 48 32 50 62 51 43 52 61 53 44 54 47 55 60 56 78 57
REMARK SMILES IDX 45 58 46 59 59 61 79 62 48 63 33 64 34 65 42 66 35 67 41 68
REMARK SMILES IDX 36 69 37 70 38 71 39 72 40 73 63 74 64 75 72 76 65 77 71 78
REMARK SMILES IDX 66 79 67 80 68 81 69 82 70 83 49 84 50 85 58 86 51 87 57 88
REMARK SMILES IDX 52 89 53 90 54 91 55 92 56 93
REMARK H PARENT 16 6 10 11 6 17 21 30 77 49 47 60
REMARK Flexibility Score: inf
ROOT
ATOM      1  C   UNL A   1      33.592  28.518  24.992  1.00  0.00     0.023 C 
ENDROOT
BRANCH   1   2
ATOM      2  C   UNL A   1      32.140  28.858  25.340  1.00  0.00     0.116 C 
BRANCH   2   3
ATOM      3  N   UNL A   1      31.342  27.769  25.901  1.00  0.00    -0.356 N 
ATOM      4  C   UNL A   1      31.271  26.432  25.631  1.00  0.00     0.229 C 
ATOM      5  O   UNL A   1      30.896  25.724  26.579  1.00  0.00    -0.275 OA
ATOM      6  H   UNL A   1      30.732  28.059  26.617  1.00  0.00     0.163 HD
BRANCH   4   7
ATOM      7  C   UNL A   1      31.539  25.735  24.280  1.00  0.00     0.142 C 
ATOM      8  N   UNL A   1      32.412  23.582  24.068  1.00  0.00    -0.324 N 
ATOM      9  C   UNL A   1      31.102  23.414  23.503  1.00  0.00     0.263 C 
ATOM     10  C   UNL A   1      32.841  24.976  24.066  1.00  0.00     0.194 C 
ATOM     11  H   UNL A   1      32.939  22.939  23.476  1.00  0.00     0.348 HD
ATOM     12  C   UNL A   1      30.442  24.788  23.727  1.00  0.00     0.081 C 
ATOM     13  C   UNL A   1      33.427  25.392  22.707  1.00  0.00     0.076 C 
BRANCH   8  14
ATOM     14  C   UNL A   1      33.129  22.583  24.851  1.00  0.00     0.364 C 
BRANCH  14  15
ATOM     15  C   UNL A   1      34.398  21.899  24.299  1.00  0.00     0.279 C 
ATOM     16  N   UNL A   1      34.834  20.620  24.497  1.00  0.00    -0.321 N 
ATOM     17  H   UNL A   1      35.805  20.552  24.347  1.00  0.00     0.170 HD
ATOM     18  O   UNL A   1      35.213  22.621  23.692  1.00  0.00    -0.268 OA
BRANCH  16  19
ATOM     19  C   UNL A   1      34.294  19.370  24.855  1.00  0.00     0.041 A 
ATOM     20  C   UNL A   1      32.466  15.462  25.408  1.00  0.00     0.044 C 
ATOM     21  C   UNL A   1      33.142  16.786  25.232  1.00  0.00    -0.051 A 
ATOM     22  C   UNL A   1      32.491  17.934  25.652  1.00  0.00     0.005 A 
ATOM     23  C   UNL A   1      34.409  16.927  24.670  1.00  0.00     0.005 A 
ATOM     24  C   UNL A   1      33.082  19.190  25.470  1.00  0.00     0.026 A 
ATOM     25  C   UNL A   1      34.967  18.207  24.476  1.00  0.00     0.026 A 
ENDBRANCH  16  19
ENDBRANCH  14  15
ENDBRANCH   8  14
ENDBRANCH   4   7
ENDBRANCH   2   3
ENDBRANCH   1   2
BRANCH   1  26
ATOM     26  C   UNL A   1      34.499  28.312  26.205  1.00  0.00     0.023 C 
BRANCH  26  27
ATOM     27  C   UNL A   1      34.450  29.443  27.231  1.00  0.00     0.116 C 
BRANCH  27  28
ATOM     28  N   UNL A   1      35.368  30.552  27.013  1.00  0.00    -0.352 N 
ATOM     29  C   UNL A   1      36.369  30.840  27.949  1.00  0.00     0.251 C 
ATOM     30  H   UNL A   1      35.284  31.105  26.203  1.00  0.00     0.163 HD
ATOM     31  O   UNL A   1      36.436  31.862  28.596  1.00  0.00    -0.269 OA
BRANCH  29  32
ATOM     32  C   UNL A   1      37.364  29.754  28.134  1.00  0.00     0.039 A 
ATOM     33  C   UNL A   1      37.371  28.979  29.297  1.00  0.00     0.014 A 
ATOM     34  C   UNL A   1      38.388  29.639  27.195  1.00  0.00     0.014 A 
ATOM     35  C   UNL A   1      38.493  28.198  29.587  1.00  0.00     0.010 A 
ATOM     36  C   UNL A   1      39.531  28.956  27.528  1.00  0.00     0.010 A 
ATOM     37  C   UNL A   1      39.595  28.257  28.733  1.00  0.00    -0.014 A 
BRANCH  37  38
ATOM     38  C   UNL A   1      40.891  27.655  28.996  1.00  0.00     0.031 A 
ATOM     39  C   UNL A   1      41.149  26.259  28.593  1.00  0.00     0.074 A 
ATOM     40  C   UNL A   1      41.901  28.440  29.430  1.00  0.00     0.049 A 
ATOM     41  N   UNL A   1      42.060  25.511  29.116  1.00  0.00    -0.248 NA
ATOM     42  C   UNL A   1      40.373  25.581  27.556  1.00  0.00     0.031 C 
ATOM     43  C   UNL A   1      43.324  28.120  29.442  1.00  0.00     0.029 A 
ATOM     44  N   UNL A   1      41.818  29.630  30.154  1.00  0.00    -0.354 N 
ATOM     45  C   UNL A   1      42.212  24.424  28.287  1.00  0.00     0.074 A 
ATOM     46  C   UNL A   1      41.079  24.459  27.391  1.00  0.00     0.031 C 
ATOM     47  C   UNL A   1      43.919  28.869  30.385  1.00  0.00     0.029 A 
ATOM     48  C   UNL A   1      42.866  29.593  31.084  1.00  0.00     0.049 A 
ATOM     49  H   UNL A   1      41.156  30.350  30.036  1.00  0.00     0.167 HD
ATOM     50  C   UNL A   1      43.369  23.706  28.316  1.00  0.00     0.031 A 
ATOM     51  C   UNL A   1      42.678  29.600  32.436  1.00  0.00     0.031 A 
ATOM     52  C   UNL A   1      44.297  24.221  29.320  1.00  0.00     0.049 A 
ATOM     53  C   UNL A   1      43.278  28.372  33.087  1.00  0.00     0.074 A 
ATOM     54  C   UNL A   1      45.413  25.036  29.234  1.00  0.00     0.029 A 
ATOM     55  N   UNL A   1      43.944  24.177  30.663  1.00  0.00    -0.354 N 
ATOM     56  N   UNL A   1      43.577  27.282  32.433  1.00  0.00    -0.248 NA
ATOM     57  C   UNL A   1      43.579  28.262  34.509  1.00  0.00     0.031 C 
ATOM     58  C   UNL A   1      45.684  25.549  30.528  1.00  0.00     0.029 A 
ATOM     59  C   UNL A   1      44.748  25.024  31.402  1.00  0.00     0.049 A 
ATOM     60  H   UNL A   1      43.222  23.622  31.037  1.00  0.00     0.167 HD
ATOM     61  C   UNL A   1      44.128  26.363  33.284  1.00  0.00     0.074 A 
ATOM     62  C   UNL A   1      44.096  27.020  34.579  1.00  0.00     0.031 C 
ATOM     63  C   UNL A   1      44.569  25.147  32.844  1.00  0.00     0.031 A 
BRANCH  50  64
ATOM     64  C   UNL A   1      43.761  22.759  27.208  1.00  0.00    -0.014 A 
ATOM     65  C   UNL A   1      42.913  21.681  26.882  1.00  0.00     0.010 A 
ATOM     66  C   UNL A   1      44.964  22.854  26.481  1.00  0.00     0.010 A 
ATOM     67  C   UNL A   1      43.278  20.702  25.949  1.00  0.00     0.020 A 
ATOM     68  C   UNL A   1      45.358  21.862  25.565  1.00  0.00     0.020 A 
ATOM     69  C   UNL A   1      44.512  20.785  25.311  1.00  0.00     0.054 A 
BRANCH  69  70
ATOM     70  S   UNL A   1      44.982  19.474  24.152  1.00  0.00     0.124 S 
ATOM     71  O   UNL A   1      44.515  20.001  22.873  1.00  0.00    -0.237 OA
ATOM     72  O   UNL A   1      46.432  19.415  24.318  1.00  0.00    -0.237 OA
ATOM     73  O   UNL A   1      44.253  18.305  24.639  1.00  0.00    -0.744 OA
ENDBRANCH  69  70
ENDBRANCH  50  64
BRANCH  51  74
ATOM     74  C   UNL A   1      41.430  30.297  32.868  1.00  0.00    -0.014 A 
ATOM     75  C   UNL A   1      40.299  29.494  33.141  1.00  0.00     0.010 A 
ATOM     76  C   UNL A   1      41.500  31.581  33.436  1.00  0.00     0.010 A 
ATOM     77  C   UNL A   1      39.361  29.885  34.103  1.00  0.00     0.020 A 
ATOM     78  C   UNL A   1      40.552  31.979  34.394  1.00  0.00     0.020 A 
ATOM     79  C   UNL A   1      39.537  31.095  34.774  1.00  0.00     0.054 A 
BRANCH  79  80
ATOM     80  S   UNL A   1      38.536  31.406  36.264  1.00  0.00     0.124 S 
ATOM     81  O   UNL A   1      37.450  32.233  35.748  1.00  0.00    -0.237 OA
ATOM     82  O   UNL A   1      38.158  30.051  36.679  1.00  0.00    -0.237 OA
ATOM     83  O   UNL A   1      39.470  32.082  37.159  1.00  0.00    -0.744 OA
ENDBRANCH  79  80
ENDBRANCH  51  74
BRANCH  63  84
ATOM     84  C   UNL A   1      44.971  23.972  33.706  1.00  0.00    -0.014 A 
ATOM     85  C   UNL A   1      44.110  22.926  34.065  1.00  0.00     0.010 A 
ATOM     86  C   UNL A   1      46.334  23.835  34.075  1.00  0.00     0.010 A 
ATOM     87  C   UNL A   1      44.572  21.826  34.803  1.00  0.00     0.020 A 
ATOM     88  C   UNL A   1      46.814  22.722  34.766  1.00  0.00     0.020 A 
ATOM     89  C   UNL A   1      45.920  21.732  35.150  1.00  0.00     0.054 A 
BRANCH  89  90
ATOM     90  S   UNL A   1      46.514  20.274  36.043  1.00  0.00     0.124 S 
ATOM     91  O   UNL A   1      46.222  19.204  35.094  1.00  0.00    -0.237 OA
ATOM     92  O   UNL A   1      47.931  20.568  36.239  1.00  0.00    -0.237 OA
ATOM     93  O   UNL A   1      45.712  20.268  37.263  1.00  0.00    -0.744 OA
ENDBRANCH  89  90
ENDBRANCH  63  84
ENDBRANCH  37  38
ENDBRANCH  29  32
ENDBRANCH  27  28
ENDBRANCH  26  27
ENDBRANCH   1  26
TORSDOF 17
ENDMDL
MODEL 3
REMARK VINA RESULT:     -13.9      1.887      3.966
REMARK SMILES Cc1ccc(NC(=O)C[N@H+]2CC[C@@H](C(=O)NCCCCNC(=O)c3ccc(-c4c5nc(c(-c6ccc(S(=O)(=O)[O-])cc6)c6ccc([nH]6)c(-c6ccc(S(=O)(=O)[O-])cc6)c6nc(c(-c7ccc(S(=O)(=O)[O-])cc7)c7ccc4[nH]7)C=C6)C=C5)cc3)[C@@H]2C)cc1
REMARK SMILES IDX 18 1 17 2 16 3 14 4 15 5 13 7 10 8 11 9 84 10 12 12 85 13
REMARK SMILES IDX 9 14 7 15 6 16 8 18 5 19 1 20 2 21 3 22 87 23 4 24 86 25
REMARK SMILES IDX 19 26 20 27 21 28 22 29 23 31 24 32 25 33 83 34 26 35 82 36
REMARK SMILES IDX 27 37 28 38 29 39 76 40 30 41 81 42 75 43 77 44 31 45 80 46
REMARK SMILES IDX 74 47 73 48 32 50 62 51 43 52 61 53 44 54 47 55 60 56 78 57
REMARK SMILES IDX 45 58 46 59 59 61 79 62 48 63 33 64 34 65 42 66 35 67 41 68
REMARK SMILES IDX 36 69 37 70 38 71 39 72 40 73 63 74 64 75 72 76 65 77 71 78
REMARK SMILES IDX 66 79 67 80 68 81 69 82 70 83 49 84 50 85 58 86 51 87 57 88
REMARK SMILES IDX 52 89 53 90 54 91 55 92 56 93
REMARK H PARENT 16 6 10 11 6 17 21 30 77 49 47 60
REMARK Flexibility Score: inf
ROOT
ATOM      1  C   UNL A   1      33.934  28.587  25.112  1.00  0.00     0.023 C 
ENDROOT
BRANCH   1   2
ATOM      2  C   UNL A   1      32.502  29.129  25.088  1.00  0.00     0.116 C 
BRANCH   2   3
ATOM      3  N   UNL A   1      31.477  28.263  25.670  1.00  0.00    -0.356 N 
ATOM      4  C   UNL A   1      31.226  26.924  25.573  1.00  0.00     0.229 C 
ATOM      5  O   UNL A   1      30.631  26.429  26.545  1.00  0.00    -0.275 OA
ATOM      6  H   UNL A   1      30.841  28.742  26.248  1.00  0.00     0.163 HD
BRANCH   4   7
ATOM      7  C   UNL A   1      31.539  25.997  24.380  1.00  0.00     0.142 C 
ATOM      8  N   UNL A   1      31.975  23.713  24.574  1.00  0.00    -0.324 N 
ATOM      9  C   UNL A   1      30.755  23.706  23.816  1.00  0.00     0.263 C 
ATOM     10  C   UNL A   1      32.676  24.990  24.483  1.00  0.00     0.194 C 
ATOM     11  H   UNL A   1      32.440  22.905  24.161  1.00  0.00     0.348 HD
ATOM     12  C   UNL A   1      30.364  25.195  23.761  1.00  0.00     0.081 C 
ATOM     13  C   UNL A   1      33.526  25.085  23.205  1.00  0.00     0.076 C 
BRANCH   8  14
ATOM     14  C   UNL A   1      32.352  22.727  25.579  1.00  0.00     0.364 C 
BRANCH  14  15
ATOM     15  C   UNL A   1      32.723  21.284  25.180  1.00  0.00     0.279 C 
ATOM     16  N   UNL A   1      33.941  20.785  24.814  1.00  0.00    -0.321 N 
ATOM     17  H   UNL A   1      33.839  19.963  24.280  1.00  0.00     0.170 HD
ATOM     18  O   UNL A   1      31.785  20.474  25.044  1.00  0.00    -0.268 OA
BRANCH  16  19
ATOM     19  C   UNL A   1      35.301  21.108  24.980  1.00  0.00     0.041 A 
ATOM     20  C   UNL A   1      39.471  21.820  25.994  1.00  0.00     0.044 C 
ATOM     21  C   UNL A   1      38.052  21.548  25.602  1.00  0.00    -0.051 A 
ATOM     22  C   UNL A   1      37.109  22.551  25.751  1.00  0.00     0.005 A 
ATOM     23  C   UNL A   1      37.624  20.329  25.080  1.00  0.00     0.005 A 
ATOM     24  C   UNL A   1      35.768  22.318  25.426  1.00  0.00     0.026 A 
ATOM     25  C   UNL A   1      36.262  20.114  24.787  1.00  0.00     0.026 A 
ENDBRANCH  16  19
ENDBRANCH  14  15
ENDBRANCH   8  14
ENDBRANCH   4   7
ENDBRANCH   2   3
ENDBRANCH   1   2
BRANCH   1  26
ATOM     26  C   UNL A   1      34.430  28.180  26.500  1.00  0.00     0.023 C 
BRANCH  26  27
ATOM     27  C   UNL A   1      34.569  29.335  27.488  1.00  0.00     0.116 C 
BRANCH  27  28
ATOM     28  N   UNL A   1      35.485  30.403  27.108  1.00  0.00    -0.352 N 
ATOM     29  C   UNL A   1      36.547  30.759  27.948  1.00  0.00     0.251 C 
ATOM     30  H   UNL A   1      35.356  30.877  26.256  1.00  0.00     0.163 HD
ATOM     31  O   UNL A   1      36.668  31.836  28.489  1.00  0.00    -0.269 OA
BRANCH  29  32
ATOM     32  C   UNL A   1      37.539  29.677  28.173  1.00  0.00     0.039 A 
ATOM     33  C   UNL A   1      37.614  29.019  29.404  1.00  0.00     0.014 A 
ATOM     34  C   UNL A   1      38.495  29.452  27.184  1.00  0.00     0.014 A 
ATOM     35  C   UNL A   1      38.743  28.249  29.695  1.00  0.00     0.010 A 
ATOM     36  C   UNL A   1      39.650  28.783  27.507  1.00  0.00     0.010 A 
ATOM     37  C   UNL A   1      39.786  28.203  28.768  1.00  0.00    -0.014 A 
BRANCH  37  38
ATOM     38  C   UNL A   1      41.089  27.605  29.003  1.00  0.00     0.031 A 
ATOM     39  C   UNL A   1      41.343  26.211  28.592  1.00  0.00     0.074 A 
ATOM     40  C   UNL A   1      42.105  28.393  29.418  1.00  0.00     0.049 A 
ATOM     41  N   UNL A   1      42.267  25.465  29.095  1.00  0.00    -0.248 NA
ATOM     42  C   UNL A   1      40.548  25.532  27.570  1.00  0.00     0.031 C 
ATOM     43  C   UNL A   1      43.529  28.078  29.400  1.00  0.00     0.029 A 
ATOM     44  N   UNL A   1      42.032  29.581  30.145  1.00  0.00    -0.354 N 
ATOM     45  C   UNL A   1      42.406  24.380  28.260  1.00  0.00     0.074 A 
ATOM     46  C   UNL A   1      41.254  24.412  27.389  1.00  0.00     0.031 C 
ATOM     47  C   UNL A   1      44.141  28.826  30.332  1.00  0.00     0.029 A 
ATOM     48  C   UNL A   1      43.100  29.546  31.054  1.00  0.00     0.049 A 
ATOM     49  H   UNL A   1      41.366  30.299  30.042  1.00  0.00     0.167 HD
ATOM     50  C   UNL A   1      43.565  23.665  28.265  1.00  0.00     0.031 A 
ATOM     51  C   UNL A   1      42.940  29.550  32.409  1.00  0.00     0.031 A 
ATOM     52  C   UNL A   1      44.512  24.182  29.251  1.00  0.00     0.049 A 
ATOM     53  C   UNL A   1      43.557  28.322  33.045  1.00  0.00     0.074 A 
ATOM     54  C   UNL A   1      45.623  25.001  29.143  1.00  0.00     0.029 A 
ATOM     55  N   UNL A   1      44.187  24.135  30.601  1.00  0.00    -0.354 N 
ATOM     56  N   UNL A   1      43.846  27.235  32.384  1.00  0.00    -0.248 NA
ATOM     57  C   UNL A   1      43.888  28.211  34.461  1.00  0.00     0.031 C 
ATOM     58  C   UNL A   1      45.919  25.512  30.433  1.00  0.00     0.029 A 
ATOM     59  C   UNL A   1      45.003  24.982  31.324  1.00  0.00     0.049 A 
ATOM     60  H   UNL A   1      43.474  23.576  30.988  1.00  0.00     0.167 HD
ATOM     61  C   UNL A   1      44.417  26.316  33.222  1.00  0.00     0.074 A 
ATOM     62  C   UNL A   1      44.410  26.970  34.518  1.00  0.00     0.031 C 
ATOM     63  C   UNL A   1      44.853  25.102  32.770  1.00  0.00     0.031 A 
BRANCH  50  64
ATOM     64  C   UNL A   1      43.938  22.722  27.147  1.00  0.00    -0.014 A 
ATOM     65  C   UNL A   1      43.040  21.702  26.770  1.00  0.00     0.010 A 
ATOM     66  C   UNL A   1      45.165  22.763  26.458  1.00  0.00     0.010 A 
ATOM     67  C   UNL A   1      43.378  20.724  25.826  1.00  0.00     0.020 A 
ATOM     68  C   UNL A   1      45.531  21.771  25.532  1.00  0.00     0.020 A 
ATOM     69  C   UNL A   1      44.635  20.750  25.227  1.00  0.00     0.054 A 
BRANCH  69  70
ATOM     70  S   UNL A   1      45.066  19.439  24.053  1.00  0.00     0.124 S 
ATOM     71  O   UNL A   1      46.526  19.439  24.103  1.00  0.00    -0.237 OA
ATOM     72  O   UNL A   1      44.415  18.270  24.638  1.00  0.00    -0.237 OA
ATOM     73  O   UNL A   1      44.494  19.904  22.791  1.00  0.00    -0.744 OA
ENDBRANCH  69  70
ENDBRANCH  50  64
BRANCH  51  74
ATOM     74  C   UNL A   1      41.699  30.241  32.868  1.00  0.00    -0.014 A 
ATOM     75  C   UNL A   1      41.714  31.655  32.897  1.00  0.00     0.010 A 
ATOM     76  C   UNL A   1      40.459  29.580  32.806  1.00  0.00     0.010 A 
ATOM     77  C   UNL A   1      40.543  32.386  32.674  1.00  0.00     0.020 A 
ATOM     78  C   UNL A   1      39.281  30.315  32.594  1.00  0.00     0.020 A 
ATOM     79  C   UNL A   1      39.346  31.705  32.453  1.00  0.00     0.054 A 
BRANCH  79  80
ATOM     80  S   UNL A   1      37.928  32.645  31.801  1.00  0.00     0.124 S 
ATOM     81  O   UNL A   1      36.944  31.598  31.549  1.00  0.00    -0.237 OA
ATOM     82  O   UNL A   1      37.616  33.554  32.909  1.00  0.00    -0.237 OA
ATOM     83  O   UNL A   1      38.474  33.294  30.614  1.00  0.00    -0.744 OA
ENDBRANCH  79  80
ENDBRANCH  51  74
BRANCH  63  84
ATOM     84  C   UNL A   1      45.276  23.927  33.621  1.00  0.00    -0.014 A 
ATOM     85  C   UNL A   1      46.512  23.831  34.276  1.00  0.00     0.010 A 
ATOM     86  C   UNL A   1      44.328  22.908  33.892  1.00  0.00     0.010 A 
ATOM     87  C   UNL A   1      46.809  22.746  35.113  1.00  0.00     0.020 A 
ATOM     88  C   UNL A   1      44.594  21.850  34.763  1.00  0.00     0.020 A 
ATOM     89  C   UNL A   1      45.848  21.761  35.350  1.00  0.00     0.054 A 
BRANCH  89  90
ATOM     90  S   UNL A   1      46.221  20.404  36.487  1.00  0.00     0.124 S 
ATOM     91  O   UNL A   1      45.776  20.954  37.764  1.00  0.00    -0.237 OA
ATOM     92  O   UNL A   1      45.412  19.307  35.961  1.00  0.00    -0.237 OA
ATOM     93  O   UNL A   1      47.664  20.226  36.349  1.00  0.00    -0.744 OA
ENDBRANCH  89  90
ENDBRANCH  63  84
ENDBRANCH  37  38
ENDBRANCH  29  32
ENDBRANCH  27  28
ENDBRANCH  26  27
ENDBRANCH   1  26
TORSDOF 17
ENDMDL
