MODEL 1
REMARK VINA RESULT:     -12.7      0.000      0.000
REMARK SMILES CCn1nc(-c2cccnc2)c2cc(C(=O)NCCCCNC(=O)c3ccc(-c4c5nc(c(-c6ccc(S(=O)(=O)[O-])cc6)c6ccc([nH]6)c(-c6ccc(S(=O)(=O)[O-])cc6)c6nc(c(-c7ccc(S(=O)(=O)[O-])cc7)c7ccc4[nH]7)C=C6)C=C5)cc3)sc21
REMARK SMILES IDX 20 1 19 2 18 3 17 4 15 5 16 6 14 8 3 9 4 10 86 11 5 12 12 13
REMARK SMILES IDX 85 14 13 15 2 16 1 17 6 18 7 19 11 20 8 21 10 22 9 23 21 24
REMARK SMILES IDX 22 25 23 26 24 28 25 29 26 30 84 31 27 32 83 33 28 34 29 35
REMARK SMILES IDX 30 36 77 37 31 38 82 39 76 40 78 41 32 42 81 43 75 44 74 45
REMARK SMILES IDX 33 47 63 48 44 49 62 50 45 51 48 52 61 53 79 54 46 55 47 56
REMARK SMILES IDX 60 58 80 59 49 60 34 61 35 62 43 63 36 64 42 65 37 66 38 67
REMARK SMILES IDX 39 68 40 69 41 70 64 71 65 72 73 73 66 74 72 75 67 76 68 77
REMARK SMILES IDX 69 78 70 79 71 80 50 81 51 82 59 83 52 84 58 85 53 86 54 87
REMARK SMILES IDX 55 88 56 89 57 90
REMARK H PARENT 17 7 22 27 78 46 48 57
REMARK Flexibility Score: inf
ROOT
ATOM      1  C   UNL A   1      35.989  23.526  26.146  1.00  0.00     0.023 C 
ENDROOT
BRANCH   1   2
ATOM      2  C   UNL A   1      35.020  22.335  26.156  1.00  0.00     0.023 C 
BRANCH   2   3
ATOM      3  C   UNL A   1      33.677  22.582  25.455  1.00  0.00     0.116 C 
BRANCH   3   4
ATOM      4  N   UNL A   1      32.558  22.645  26.388  1.00  0.00    -0.351 N 
ATOM      5  C   UNL A   1      31.614  23.616  26.664  1.00  0.00     0.261 C 
ATOM      6  O   UNL A   1      30.713  23.276  27.438  1.00  0.00    -0.268 OA
ATOM      7  H   UNL A   1      32.452  21.829  26.931  1.00  0.00     0.163 HD
BRANCH   5   8
ATOM      8  C   UNL A   1      31.632  24.947  26.065  1.00  0.00     0.095 A 
ATOM      9  N   UNL A   1      30.647  28.052  24.259  1.00  0.00    -0.254 N 
ATOM     10  N   UNL A   1      31.289  29.127  24.800  1.00  0.00    -0.171 NA
ATOM     11  C   UNL A   1      31.085  26.902  24.800  1.00  0.00     0.122 A 
ATOM     12  C   UNL A   1      32.126  28.590  25.737  1.00  0.00     0.103 A 
ATOM     13  C   UNL A   1      31.913  27.206  25.793  1.00  0.00     0.040 A 
ATOM     14  S   UNL A   1      30.858  25.295  24.548  1.00  0.00    -0.110 S 
ATOM     15  C   UNL A   1      32.296  26.095  26.551  1.00  0.00     0.038 A 
BRANCH   9  16
ATOM     16  C   UNL A   1      29.587  28.141  23.277  1.00  0.00     0.142 C 
ATOM     17  C   UNL A   1      29.560  29.389  22.421  1.00  0.00     0.029 C 
ENDBRANCH   9  16
BRANCH  12  18
ATOM     18  C   UNL A   1      33.104  29.415  26.428  1.00  0.00     0.021 A 
ATOM     19  C   UNL A   1      34.370  28.937  26.770  1.00  0.00     0.013 A 
ATOM     20  C   UNL A   1      32.766  30.694  26.865  1.00  0.00     0.121 A 
ATOM     21  C   UNL A   1      35.236  29.743  27.510  1.00  0.00     0.021 A 
ATOM     22  N   UNL A   1      33.583  31.498  27.594  1.00  0.00    -0.264 NA
ATOM     23  C   UNL A   1      34.800  31.000  27.897  1.00  0.00     0.111 A 
ENDBRANCH  12  18
ENDBRANCH   5   8
ENDBRANCH   3   4
ENDBRANCH   2   3
ENDBRANCH   1   2
BRANCH   1  24
ATOM     24  C   UNL A   1      37.330  23.261  25.467  1.00  0.00     0.116 C 
BRANCH  24  25
ATOM     25  N   UNL A   1      38.122  22.236  26.141  1.00  0.00    -0.352 N 
ATOM     26  C   UNL A   1      39.408  22.363  26.621  1.00  0.00     0.251 C 
ATOM     27  H   UNL A   1      37.692  21.360  26.268  1.00  0.00     0.163 HD
ATOM     28  O   UNL A   1      40.128  21.366  26.749  1.00  0.00    -0.269 OA
BRANCH  26  29
ATOM     29  C   UNL A   1      39.914  23.698  26.985  1.00  0.00     0.039 A 
ATOM     30  C   UNL A   1      39.361  24.852  26.428  1.00  0.00     0.014 A 
ATOM     31  C   UNL A   1      40.942  23.785  27.927  1.00  0.00     0.014 A 
ATOM     32  C   UNL A   1      39.782  26.093  26.901  1.00  0.00     0.010 A 
ATOM     33  C   UNL A   1      41.285  25.009  28.467  1.00  0.00     0.010 A 
ATOM     34  C   UNL A   1      40.717  26.170  27.954  1.00  0.00    -0.014 A 
BRANCH  34  35
ATOM     35  C   UNL A   1      40.895  27.441  28.669  1.00  0.00     0.031 A 
ATOM     36  C   UNL A   1      42.035  28.229  28.127  1.00  0.00     0.074 A 
ATOM     37  C   UNL A   1      40.030  27.980  29.560  1.00  0.00     0.049 A 
ATOM     38  N   UNL A   1      43.213  28.350  28.645  1.00  0.00    -0.248 NA
ATOM     39  C   UNL A   1      41.937  28.763  26.754  1.00  0.00     0.031 C 
ATOM     40  C   UNL A   1      38.710  27.455  29.929  1.00  0.00     0.029 A 
ATOM     41  N   UNL A   1      40.078  29.163  30.251  1.00  0.00    -0.354 N 
ATOM     42  C   UNL A   1      43.868  29.265  27.830  1.00  0.00     0.074 A 
ATOM     43  C   UNL A   1      43.166  29.255  26.574  1.00  0.00     0.031 C 
ATOM     44  C   UNL A   1      37.994  28.416  30.556  1.00  0.00     0.029 A 
ATOM     45  C   UNL A   1      38.855  29.560  30.796  1.00  0.00     0.049 A 
ATOM     46  H   UNL A   1      40.905  29.688  30.355  1.00  0.00     0.167 HD
ATOM     47  C   UNL A   1      44.621  30.249  28.397  1.00  0.00     0.031 A 
ATOM     48  C   UNL A   1      38.553  30.736  31.408  1.00  0.00     0.031 A 
ATOM     49  C   UNL A   1      44.872  29.968  29.787  1.00  0.00     0.049 A 
ATOM     50  C   UNL A   1      39.818  31.302  31.922  1.00  0.00     0.074 A 
ATOM     51  C   UNL A   1      45.631  29.098  30.538  1.00  0.00     0.029 A 
ATOM     52  N   UNL A   1      43.892  30.460  30.605  1.00  0.00    -0.354 N 
ATOM     53  N   UNL A   1      40.510  30.737  32.872  1.00  0.00    -0.248 NA
ATOM     54  C   UNL A   1      40.516  32.325  31.155  1.00  0.00     0.031 C 
ATOM     55  C   UNL A   1      45.002  29.019  31.818  1.00  0.00     0.029 A 
ATOM     56  C   UNL A   1      43.913  29.886  31.842  1.00  0.00     0.049 A 
ATOM     57  H   UNL A   1      43.244  31.149  30.331  1.00  0.00     0.167 HD
ATOM     58  C   UNL A   1      41.820  30.999  32.529  1.00  0.00     0.074 A 
ATOM     59  C   UNL A   1      41.760  32.110  31.586  1.00  0.00     0.031 C 
ATOM     60  C   UNL A   1      42.795  30.071  32.743  1.00  0.00     0.031 A 
BRANCH  47  61
ATOM     61  C   UNL A   1      44.596  31.696  27.921  1.00  0.00    -0.014 A 
ATOM     62  C   UNL A   1      45.708  32.183  27.200  1.00  0.00     0.010 A 
ATOM     63  C   UNL A   1      43.691  32.660  28.410  1.00  0.00     0.010 A 
ATOM     64  C   UNL A   1      45.915  33.558  27.011  1.00  0.00     0.020 A 
ATOM     65  C   UNL A   1      43.868  34.029  28.200  1.00  0.00     0.020 A 
ATOM     66  C   UNL A   1      44.990  34.472  27.515  1.00  0.00     0.054 A 
BRANCH  66  67
ATOM     67  S   UNL A   1      45.276  36.245  27.297  1.00  0.00     0.124 S 
ATOM     68  O   UNL A   1      45.847  36.619  28.586  1.00  0.00    -0.237 OA
ATOM     69  O   UNL A   1      46.194  36.267  26.161  1.00  0.00    -0.237 OA
ATOM     70  O   UNL A   1      43.941  36.773  27.021  1.00  0.00    -0.744 OA
ENDBRANCH  66  67
ENDBRANCH  47  61
BRANCH  48  71
ATOM     71  C   UNL A   1      37.286  31.516  31.417  1.00  0.00    -0.014 A 
ATOM     72  C   UNL A   1      36.460  31.551  32.562  1.00  0.00     0.010 A 
ATOM     73  C   UNL A   1      37.045  32.478  30.417  1.00  0.00     0.010 A 
ATOM     74  C   UNL A   1      35.499  32.563  32.739  1.00  0.00     0.020 A 
ATOM     75  C   UNL A   1      36.084  33.484  30.583  1.00  0.00     0.020 A 
ATOM     76  C   UNL A   1      35.337  33.543  31.758  1.00  0.00     0.054 A 
BRANCH  76  77
ATOM     77  S   UNL A   1      34.249  34.967  32.080  1.00  0.00     0.124 S 
ATOM     78  O   UNL A   1      35.101  35.833  32.891  1.00  0.00    -0.237 OA
ATOM     79  O   UNL A   1      33.951  35.452  30.736  1.00  0.00    -0.237 OA
ATOM     80  O   UNL A   1      33.114  34.377  32.789  1.00  0.00    -0.744 OA
ENDBRANCH  76  77
ENDBRANCH  48  71
BRANCH  60  81
ATOM     81  C   UNL A   1      42.652  29.145  33.914  1.00  0.00    -0.014 A 
ATOM     82  C   UNL A   1      43.002  29.448  35.241  1.00  0.00     0.010 A 
ATOM     83  C   UNL A   1      42.086  27.888  33.634  1.00  0.00     0.010 A 
ATOM     84  C   UNL A   1      42.814  28.496  36.257  1.00  0.00     0.020 A 
ATOM     85  C   UNL A   1      41.880  26.947  34.640  1.00  0.00     0.020 A 
ATOM     86  C   UNL A   1      42.258  27.250  35.946  1.00  0.00     0.054 A 
BRANCH  86  87
ATOM     87  S   UNL A   1      42.021  26.017  37.254  1.00  0.00     0.124 S 
ATOM     88  O   UNL A   1      40.616  26.197  37.609  1.00  0.00    -0.237 OA
ATOM     89  O   UNL A   1      42.345  24.764  36.578  1.00  0.00    -0.237 OA
ATOM     90  O   UNL A   1      42.975  26.418  38.288  1.00  0.00    -0.744 OA
ENDBRANCH  86  87
ENDBRANCH  60  81
ENDBRANCH  34  35
ENDBRANCH  26  29
ENDBRANCH  24  25
ENDBRANCH   1  24
TORSDOF 16
ENDMDL
MODEL 2
REMARK VINA RESULT:     -12.4      3.003      5.312
REMARK SMILES CCn1nc(-c2cccnc2)c2cc(C(=O)NCCCCNC(=O)c3ccc(-c4c5nc(c(-c6ccc(S(=O)(=O)[O-])cc6)c6ccc([nH]6)c(-c6ccc(S(=O)(=O)[O-])cc6)c6nc(c(-c7ccc(S(=O)(=O)[O-])cc7)c7ccc4[nH]7)C=C6)C=C5)cc3)sc21
REMARK SMILES IDX 20 1 19 2 18 3 17 4 15 5 16 6 14 8 3 9 4 10 86 11 5 12 12 13
REMARK SMILES IDX 85 14 13 15 2 16 1 17 6 18 7 19 11 20 8 21 10 22 9 23 21 24
REMARK SMILES IDX 22 25 23 26 24 28 25 29 26 30 84 31 27 32 83 33 28 34 29 35
REMARK SMILES IDX 30 36 77 37 31 38 82 39 76 40 78 41 32 42 81 43 75 44 74 45
REMARK SMILES IDX 33 47 63 48 44 49 62 50 45 51 48 52 61 53 79 54 46 55 47 56
REMARK SMILES IDX 60 58 80 59 49 60 34 61 35 62 43 63 36 64 42 65 37 66 38 67
REMARK SMILES IDX 39 68 40 69 41 70 64 71 65 72 73 73 66 74 72 75 67 76 68 77
REMARK SMILES IDX 69 78 70 79 71 80 50 81 51 82 59 83 52 84 58 85 53 86 54 87
REMARK SMILES IDX 55 88 56 89 57 90
REMARK H PARENT 17 7 22 27 78 46 48 57
REMARK Flexibility Score: inf
ROOT
ATOM      1  C   UNL A   1      40.857  20.423  27.065  1.00  0.00     0.023 C 
ENDROOT
BRANCH   1   2
ATOM      2  C   UNL A   1      40.194  19.628  25.932  1.00  0.00     0.023 C 
BRANCH   2   3
ATOM      3  C   UNL A   1      39.016  20.332  25.244  1.00  0.00     0.116 C 
BRANCH   3   4
ATOM      4  N   UNL A   1      38.884  21.729  25.643  1.00  0.00    -0.351 N 
ATOM      5  C   UNL A   1      37.795  22.561  25.812  1.00  0.00     0.261 C 
ATOM      6  O   UNL A   1      38.044  23.671  26.295  1.00  0.00    -0.268 OA
ATOM      7  H   UNL A   1      39.746  22.167  25.831  1.00  0.00     0.163 HD
BRANCH   5   8
ATOM      8  C   UNL A   1      36.425  22.169  25.490  1.00  0.00     0.095 A 
ATOM      9  N   UNL A   1      32.978  22.103  24.082  1.00  0.00    -0.254 N 
ATOM     10  N   UNL A   1      32.572  20.813  23.909  1.00  0.00    -0.171 NA
ATOM     11  C   UNL A   1      34.163  22.159  24.713  1.00  0.00     0.122 A 
ATOM     12  C   UNL A   1      33.585  20.062  24.434  1.00  0.00     0.103 A 
ATOM     13  C   UNL A   1      34.617  20.918  24.843  1.00  0.00     0.040 A 
ATOM     14  S   UNL A   1      35.138  23.326  25.334  1.00  0.00    -0.110 S 
ATOM     15  C   UNL A   1      35.928  20.857  25.326  1.00  0.00     0.038 A 
BRANCH   9  16
ATOM     16  C   UNL A   1      32.259  23.260  23.591  1.00  0.00     0.142 C 
ATOM     17  C   UNL A   1      32.843  23.958  22.382  1.00  0.00     0.029 C 
ENDBRANCH   9  16
BRANCH  12  18
ATOM     18  C   UNL A   1      33.452  18.621  24.579  1.00  0.00     0.021 A 
ATOM     19  C   UNL A   1      33.918  17.730  23.611  1.00  0.00     0.013 A 
ATOM     20  C   UNL A   1      32.757  18.082  25.659  1.00  0.00     0.121 A 
ATOM     21  C   UNL A   1      33.685  16.362  23.761  1.00  0.00     0.021 A 
ATOM     22  N   UNL A   1      32.506  16.758  25.829  1.00  0.00    -0.264 NA
ATOM     23  C   UNL A   1      32.979  15.930  24.873  1.00  0.00     0.111 A 
ENDBRANCH  12  18
ENDBRANCH   5   8
ENDBRANCH   3   4
ENDBRANCH   2   3
ENDBRANCH   1   2
BRANCH   1  24
ATOM     24  C   UNL A   1      42.187  19.857  27.557  1.00  0.00     0.116 C 
BRANCH  24  25
ATOM     25  N   UNL A   1      43.124  19.567  26.474  1.00  0.00    -0.352 N 
ATOM     26  C   UNL A   1      43.595  20.449  25.526  1.00  0.00     0.251 C 
ATOM     27  H   UNL A   1      43.455  18.642  26.416  1.00  0.00     0.163 HD
ATOM     28  O   UNL A   1      43.995  20.034  24.431  1.00  0.00    -0.269 OA
BRANCH  26  29
ATOM     29  C   UNL A   1      43.624  21.890  25.831  1.00  0.00     0.039 A 
ATOM     30  C   UNL A   1      42.691  22.761  25.266  1.00  0.00     0.014 A 
ATOM     31  C   UNL A   1      44.588  22.361  26.724  1.00  0.00     0.014 A 
ATOM     32  C   UNL A   1      42.675  24.090  25.687  1.00  0.00     0.010 A 
ATOM     33  C   UNL A   1      44.508  23.650  27.214  1.00  0.00     0.010 A 
ATOM     34  C   UNL A   1      43.560  24.525  26.695  1.00  0.00    -0.014 A 
BRANCH  34  35
ATOM     35  C   UNL A   1      43.313  25.807  27.367  1.00  0.00     0.031 A 
ATOM     36  C   UNL A   1      44.334  26.829  27.007  1.00  0.00     0.074 A 
ATOM     37  C   UNL A   1      42.196  26.144  28.055  1.00  0.00     0.049 A 
ATOM     38  N   UNL A   1      45.334  27.215  27.729  1.00  0.00    -0.248 NA
ATOM     39  C   UNL A   1      44.386  27.318  25.615  1.00  0.00     0.031 C 
ATOM     40  C   UNL A   1      40.978  25.338  28.198  1.00  0.00     0.029 A 
ATOM     41  N   UNL A   1      41.850  27.312  28.683  1.00  0.00    -0.354 N 
ATOM     42  C   UNL A   1      45.917  28.249  27.004  1.00  0.00     0.074 A 
ATOM     43  C   UNL A   1      45.488  28.073  25.642  1.00  0.00     0.031 C 
ATOM     44  C   UNL A   1      39.962  26.116  28.632  1.00  0.00     0.029 A 
ATOM     45  C   UNL A   1      40.488  27.427  28.971  1.00  0.00     0.049 A 
ATOM     46  H   UNL A   1      42.505  28.010  28.912  1.00  0.00     0.167 HD
ATOM     47  C   UNL A   1      46.312  29.382  27.652  1.00  0.00     0.031 A 
ATOM     48  C   UNL A   1      39.823  28.509  29.458  1.00  0.00     0.031 A 
ATOM     49  C   UNL A   1      46.347  29.173  29.077  1.00  0.00     0.049 A 
ATOM     50  C   UNL A   1      40.809  29.348  30.169  1.00  0.00     0.074 A 
ATOM     51  C   UNL A   1      47.120  28.502  29.997  1.00  0.00     0.029 A 
ATOM     52  N   UNL A   1      45.144  29.437  29.673  1.00  0.00    -0.354 N 
ATOM     53  N   UNL A   1      41.414  28.960  31.257  1.00  0.00    -0.248 NA
ATOM     54  C   UNL A   1      41.399  30.497  29.495  1.00  0.00     0.031 C 
ATOM     55  C   UNL A   1      46.291  28.292  31.141  1.00  0.00     0.029 A 
ATOM     56  C   UNL A   1      45.053  28.890  30.920  1.00  0.00     0.049 A 
ATOM     57  H   UNL A   1      44.426  29.960  29.250  1.00  0.00     0.167 HD
ATOM     58  C   UNL A   1      42.675  29.508  31.150  1.00  0.00     0.074 A 
ATOM     59  C   UNL A   1      42.555  30.571  30.159  1.00  0.00     0.031 C 
ATOM     60  C   UNL A   1      43.771  28.825  31.588  1.00  0.00     0.031 A 
BRANCH  47  61
ATOM     61  C   UNL A   1      46.061  30.782  27.108  1.00  0.00    -0.014 A 
ATOM     62  C   UNL A   1      47.136  31.697  27.093  1.00  0.00     0.010 A 
ATOM     63  C   UNL A   1      44.773  31.320  26.910  1.00  0.00     0.010 A 
ATOM     64  C   UNL A   1      46.925  33.074  26.923  1.00  0.00     0.020 A 
ATOM     65  C   UNL A   1      44.553  32.684  26.706  1.00  0.00     0.020 A 
ATOM     66  C   UNL A   1      45.631  33.557  26.731  1.00  0.00     0.054 A 
BRANCH  66  67
ATOM     67  S   UNL A   1      45.361  35.336  26.543  1.00  0.00     0.124 S 
ATOM     68  O   UNL A   1      46.397  35.698  25.582  1.00  0.00    -0.237 OA
ATOM     69  O   UNL A   1      43.988  35.383  26.048  1.00  0.00    -0.237 OA
ATOM     70  O   UNL A   1      45.547  35.852  27.897  1.00  0.00    -0.744 OA
ENDBRANCH  66  67
ENDBRANCH  47  61
BRANCH  48  71
ATOM     71  C   UNL A   1      38.438  28.983  29.193  1.00  0.00    -0.014 A 
ATOM     72  C   UNL A   1      37.575  29.339  30.253  1.00  0.00     0.010 A 
ATOM     73  C   UNL A   1      38.069  29.387  27.895  1.00  0.00     0.010 A 
ATOM     74  C   UNL A   1      36.442  30.145  30.033  1.00  0.00     0.020 A 
ATOM     75  C   UNL A   1      36.938  30.183  27.669  1.00  0.00     0.020 A 
ATOM     76  C   UNL A   1      36.147  30.586  28.742  1.00  0.00     0.054 A 
BRANCH  76  77
ATOM     77  S   UNL A   1      34.811  31.798  28.490  1.00  0.00     0.124 S 
ATOM     78  O   UNL A   1      33.752  30.978  27.910  1.00  0.00    -0.237 OA
ATOM     79  O   UNL A   1      34.563  32.287  29.843  1.00  0.00    -0.237 OA
ATOM     80  O   UNL A   1      35.405  32.777  27.579  1.00  0.00    -0.744 OA
ENDBRANCH  76  77
ENDBRANCH  48  71
BRANCH  60  81
ATOM     81  C   UNL A   1      43.613  27.899  32.756  1.00  0.00    -0.014 A 
ATOM     82  C   UNL A   1      43.178  28.271  34.039  1.00  0.00     0.010 A 
ATOM     83  C   UNL A   1      43.899  26.544  32.506  1.00  0.00     0.010 A 
ATOM     84  C   UNL A   1      43.063  27.307  35.055  1.00  0.00     0.020 A 
ATOM     85  C   UNL A   1      43.770  25.581  33.503  1.00  0.00     0.020 A 
ATOM     86  C   UNL A   1      43.365  25.969  34.778  1.00  0.00     0.054 A 
BRANCH  86  87
ATOM     87  S   UNL A   1      43.224  24.724  36.089  1.00  0.00     0.124 S 
ATOM     88  O   UNL A   1      42.547  25.458  37.154  1.00  0.00    -0.237 OA
ATOM     89  O   UNL A   1      42.439  23.671  35.450  1.00  0.00    -0.237 OA
ATOM     90  O   UNL A   1      44.613  24.362  36.376  1.00  0.00    -0.744 OA
ENDBRANCH  86  87
ENDBRANCH  60  81
ENDBRANCH  34  35
ENDBRANCH  26  29
ENDBRANCH  24  25
ENDBRANCH   1  24
TORSDOF 16
ENDMDL
MODEL 3
REMARK VINA RESULT:     -12.4      2.931      9.542
REMARK SMILES CCn1nc(-c2cccnc2)c2cc(C(=O)NCCCCNC(=O)c3ccc(-c4c5nc(c(-c6ccc(S(=O)(=O)[O-])cc6)c6ccc([nH]6)c(-c6ccc(S(=O)(=O)[O-])cc6)c6nc(c(-c7ccc(S(=O)(=O)[O-])cc7)c7ccc4[nH]7)C=C6)C=C5)cc3)sc21
REMARK SMILES IDX 20 1 19 2 18 3 17 4 15 5 16 6 14 8 3 9 4 10 86 11 5 12 12 13
REMARK SMILES IDX 85 14 13 15 2 16 1 17 6 18 7 19 11 20 8 21 10 22 9 23 21 24
REMARK SMILES IDX 22 25 23 26 24 28 25 29 26 30 84 31 27 32 83 33 28 34 29 35
REMARK SMILES IDX 30 36 77 37 31 38 82 39 76 40 78 41 32 42 81 43 75 44 74 45
REMARK SMILES IDX 33 47 63 48 44 49 62 50 45 51 48 52 61 53 79 54 46 55 47 56
REMARK SMILES IDX 60 58 80 59 49 60 34 61 35 62 43 63 36 64 42 65 37 66 38 67
REMARK SMILES IDX 39 68 40 69 41 70 64 71 65 72 73 73 66 74 72 75 67 76 68 77
REMARK SMILES IDX 69 78 70 79 71 80 50 81 51 82 59 83 52 84 58 85 53 86 54 87
REMARK SMILES IDX 55 88 56 89 57 90
REMARK H PARENT 17 7 22 27 78 46 48 57
REMARK Flexibility Score: inf
ROOT
ATOM      1  C   UNL A   1      33.389  28.339  25.983  1.00  0.00     0.023 C 
ENDROOT
BRANCH   1   2
ATOM      2  C   UNL A   1      33.568  27.437  24.754  1.00  0.00     0.023 C 
BRANCH   2   3
ATOM      3  C   UNL A   1      32.346  27.345  23.829  1.00  0.00     0.116 C 
BRANCH   3   4
ATOM      4  N   UNL A   1      32.688  26.892  22.486  1.00  0.00    -0.351 N 
ATOM      5  C   UNL A   1      33.132  25.683  21.984  1.00  0.00     0.261 C 
ATOM      6  O   UNL A   1      33.197  25.612  20.753  1.00  0.00    -0.268 OA
ATOM      7  H   UNL A   1      32.580  27.587  21.797  1.00  0.00     0.163 HD
BRANCH   5   8
ATOM      8  C   UNL A   1      33.467  24.538  22.825  1.00  0.00     0.095 A 
ATOM      9  N   UNL A   1      33.656  21.103  24.252  1.00  0.00    -0.254 N 
ATOM     10  N   UNL A   1      34.877  20.905  24.827  1.00  0.00    -0.171 NA
ATOM     11  C   UNL A   1      33.509  22.376  23.848  1.00  0.00     0.122 A 
ATOM     12  C   UNL A   1      35.502  22.116  24.727  1.00  0.00     0.103 A 
ATOM     13  C   UNL A   1      34.669  22.998  24.024  1.00  0.00     0.040 A 
ATOM     14  S   UNL A   1      32.307  23.306  23.224  1.00  0.00    -0.110 S 
ATOM     15  C   UNL A   1      34.695  24.283  23.474  1.00  0.00     0.038 A 
BRANCH   9  16
ATOM     16  C   UNL A   1      32.672  20.061  24.044  1.00  0.00     0.142 C 
ATOM     17  C   UNL A   1      33.157  18.634  24.175  1.00  0.00     0.029 C 
ENDBRANCH   9  16
BRANCH  12  18
ATOM     18  C   UNL A   1      36.782  22.354  25.375  1.00  0.00     0.021 A 
ATOM     19  C   UNL A   1      37.113  23.589  25.935  1.00  0.00     0.013 A 
ATOM     20  C   UNL A   1      37.769  21.372  25.369  1.00  0.00     0.121 A 
ATOM     21  C   UNL A   1      38.388  23.788  26.465  1.00  0.00     0.021 A 
ATOM     22  N   UNL A   1      39.021  21.537  25.869  1.00  0.00    -0.264 NA
ATOM     23  C   UNL A   1      39.298  22.744  26.407  1.00  0.00     0.111 A 
ENDBRANCH  12  18
ENDBRANCH   5   8
ENDBRANCH   3   4
ENDBRANCH   2   3
ENDBRANCH   1   2
BRANCH   1  24
ATOM     24  C   UNL A   1      34.616  29.164  26.361  1.00  0.00     0.116 C 
BRANCH  24  25
ATOM     25  N   UNL A   1      34.284  30.505  26.834  1.00  0.00    -0.352 N 
ATOM     26  C   UNL A   1      34.743  31.119  27.980  1.00  0.00     0.251 C 
ATOM     27  H   UNL A   1      33.666  31.028  26.275  1.00  0.00     0.163 HD
ATOM     28  O   UNL A   1      34.085  32.019  28.513  1.00  0.00    -0.269 OA
BRANCH  26  29
ATOM     29  C   UNL A   1      36.029  30.694  28.560  1.00  0.00     0.039 A 
ATOM     30  C   UNL A   1      36.187  29.415  29.096  1.00  0.00     0.014 A 
ATOM     31  C   UNL A   1      37.099  31.592  28.534  1.00  0.00     0.014 A 
ATOM     32  C   UNL A   1      37.456  29.015  29.512  1.00  0.00     0.010 A 
ATOM     33  C   UNL A   1      38.372  31.162  28.852  1.00  0.00     0.010 A 
ATOM     34  C   UNL A   1      38.560  29.877  29.350  1.00  0.00    -0.014 A 
BRANCH  34  35
ATOM     35  C   UNL A   1      39.920  29.337  29.465  1.00  0.00     0.031 A 
ATOM     36  C   UNL A   1      40.313  29.116  30.884  1.00  0.00     0.074 A 
ATOM     37  C   UNL A   1      40.680  28.868  28.447  1.00  0.00     0.049 A 
ATOM     38  N   UNL A   1      41.087  29.862  31.601  1.00  0.00    -0.248 NA
ATOM     39  C   UNL A   1      39.600  28.084  31.664  1.00  0.00     0.031 C 
ATOM     40  C   UNL A   1      40.274  28.726  27.044  1.00  0.00     0.029 A 
ATOM     41  N   UNL A   1      41.934  28.314  28.447  1.00  0.00    -0.354 N 
ATOM     42  C   UNL A   1      41.225  29.179  32.804  1.00  0.00     0.074 A 
ATOM     43  C   UNL A   1      40.101  28.284  32.886  1.00  0.00     0.031 C 
ATOM     44  C   UNL A   1      41.137  27.910  26.397  1.00  0.00     0.029 A 
ATOM     45  C   UNL A   1      42.253  27.616  27.280  1.00  0.00     0.049 A 
ATOM     46  H   UNL A   1      42.556  28.401  29.204  1.00  0.00     0.167 HD
ATOM     47  C   UNL A   1      42.454  29.086  33.386  1.00  0.00     0.031 A 
ATOM     48  C   UNL A   1      43.350  26.851  27.035  1.00  0.00     0.031 A 
ATOM     49  C   UNL A   1      43.377  30.019  32.789  1.00  0.00     0.049 A 
ATOM     50  C   UNL A   1      44.419  27.311  27.945  1.00  0.00     0.074 A 
ATOM     51  C   UNL A   1      43.599  31.377  32.778  1.00  0.00     0.029 A 
ATOM     52  N   UNL A   1      44.021  29.493  31.703  1.00  0.00    -0.354 N 
ATOM     53  N   UNL A   1      44.960  28.495  27.859  1.00  0.00    -0.248 NA
ATOM     54  C   UNL A   1      44.671  26.591  29.186  1.00  0.00     0.031 C 
ATOM     55  C   UNL A   1      44.328  31.655  31.582  1.00  0.00     0.029 A 
ATOM     56  C   UNL A   1      44.587  30.458  30.920  1.00  0.00     0.049 A 
ATOM     57  H   UNL A   1      44.069  28.530  31.507  1.00  0.00     0.167 HD
ATOM     58  C   UNL A   1      45.219  28.838  29.169  1.00  0.00     0.074 A 
ATOM     59  C   UNL A   1      45.192  27.583  29.912  1.00  0.00     0.031 C 
ATOM     60  C   UNL A   1      45.068  30.123  29.597  1.00  0.00     0.031 A 
BRANCH  47  61
ATOM     61  C   UNL A   1      42.988  27.801  34.004  1.00  0.00    -0.014 A 
ATOM     62  C   UNL A   1      43.245  27.782  35.392  1.00  0.00     0.010 A 
ATOM     63  C   UNL A   1      43.530  26.741  33.248  1.00  0.00     0.010 A 
ATOM     64  C   UNL A   1      44.028  26.777  35.979  1.00  0.00     0.020 A 
ATOM     65  C   UNL A   1      44.283  25.717  33.826  1.00  0.00     0.020 A 
ATOM     66  C   UNL A   1      44.542  25.750  35.189  1.00  0.00     0.054 A 
BRANCH  66  67
ATOM     67  S   UNL A   1      45.577  24.472  35.945  1.00  0.00     0.124 S 
ATOM     68  O   UNL A   1      44.601  23.427  36.234  1.00  0.00    -0.237 OA
ATOM     69  O   UNL A   1      46.528  24.180  34.876  1.00  0.00    -0.237 OA
ATOM     70  O   UNL A   1      46.146  25.144  37.111  1.00  0.00    -0.744 OA
ENDBRANCH  66  67
ENDBRANCH  47  61
BRANCH  48  71
ATOM     71  C   UNL A   1      43.497  25.618  26.214  1.00  0.00    -0.014 A 
ATOM     72  C   UNL A   1      44.669  25.379  25.464  1.00  0.00     0.010 A 
ATOM     73  C   UNL A   1      42.624  24.532  26.416  1.00  0.00     0.010 A 
ATOM     74  C   UNL A   1      44.998  24.086  25.017  1.00  0.00     0.020 A 
ATOM     75  C   UNL A   1      42.942  23.243  25.966  1.00  0.00     0.020 A 
ATOM     76  C   UNL A   1      44.143  23.018  25.297  1.00  0.00     0.054 A 
BRANCH  76  77
ATOM     77  S   UNL A   1      44.668  21.319  24.906  1.00  0.00     0.124 S 
ATOM     78  O   UNL A   1      43.698  20.515  25.644  1.00  0.00    -0.237 OA
ATOM     79  O   UNL A   1      44.551  21.274  23.452  1.00  0.00    -0.237 OA
ATOM     80  O   UNL A   1      46.038  21.259  25.417  1.00  0.00    -0.744 OA
ENDBRANCH  76  77
ENDBRANCH  48  71
BRANCH  60  81
ATOM     81  C   UNL A   1      45.324  31.233  28.621  1.00  0.00    -0.014 A 
ATOM     82  C   UNL A   1      46.569  31.838  28.382  1.00  0.00     0.010 A 
ATOM     83  C   UNL A   1      44.211  31.660  27.874  1.00  0.00     0.010 A 
ATOM     84  C   UNL A   1      46.686  32.868  27.435  1.00  0.00     0.020 A 
ATOM     85  C   UNL A   1      44.323  32.668  26.921  1.00  0.00     0.020 A 
ATOM     86  C   UNL A   1      45.558  33.278  26.714  1.00  0.00     0.054 A 
BRANCH  86  87
ATOM     87  S   UNL A   1      45.704  34.613  25.495  1.00  0.00     0.124 S 
ATOM     88  O   UNL A   1      44.802  34.174  24.434  1.00  0.00    -0.237 OA
ATOM     89  O   UNL A   1      45.267  35.786  26.249  1.00  0.00    -0.237 OA
ATOM     90  O   UNL A   1      47.123  34.608  25.141  1.00  0.00    -0.744 OA
ENDBRANCH  86  87
ENDBRANCH  60  81
ENDBRANCH  34  35
ENDBRANCH  26  29
ENDBRANCH  24  25
ENDBRANCH   1  24
TORSDOF 16
ENDMDL
