MODEL 1
REMARK VINA RESULT:     -13.5      0.000      0.000
REMARK SMILES Cc1ccc(C(=O)NCCCCNC(=O)c2ccc(-c3c4nc(c(-c5ccc(S(=O)(=O)[O-])cc5)c5ccc([nH]5)c(-c5ccc(S(=O)(=O)[O-])cc5)c5nc(c(-c6ccc(S(=O)(=O)[O-])cc6)c6ccc3[nH]6)C=C5)C=C4)cc2)cc1N1C(=O)/C(=C/c2ccc([N+](=O)[O-])cc2)SC1=S
REMARK SMILES IDX 10 1 9 2 8 3 6 4 7 5 5 7 1 8 2 9 3 10 77 11 4 12 76 13 78 14
REMARK SMILES IDX 79 15 93 16 80 17 81 18 92 19 94 20 82 21 83 22 84 23 91 24
REMARK SMILES IDX 85 25 90 26 86 27 87 28 88 29 89 30 11 31 12 32 13 33 14 34
REMARK SMILES IDX 15 36 16 37 17 38 75 39 18 40 74 41 19 42 20 43 21 44 68 45
REMARK SMILES IDX 22 46 73 47 67 48 69 49 23 50 72 51 66 52 65 53 24 55 54 56
REMARK SMILES IDX 35 57 53 58 36 59 39 60 52 61 70 62 37 63 38 64 51 66 71 67
REMARK SMILES IDX 40 68 25 69 26 70 34 71 27 72 33 73 28 74 29 75 30 76 31 77
REMARK SMILES IDX 32 78 55 79 56 80 64 81 57 82 63 83 58 84 59 85 60 86 61 87
REMARK SMILES IDX 62 88 41 89 42 90 50 91 43 92 49 93 44 94 45 95 46 96 47 97
REMARK SMILES IDX 48 98
REMARK H PARENT 8 6 13 35 69 54 39 65
REMARK Flexibility Score: inf
ROOT
ATOM      1  C   UNL A   1      35.313  23.216  26.529  1.00  0.00     0.023 C 
ENDROOT
BRANCH   1   2
ATOM      2  C   UNL A   1      34.033  22.461  26.127  1.00  0.00     0.116 C 
BRANCH   2   3
ATOM      3  N   UNL A   1      32.826  23.064  26.675  1.00  0.00    -0.352 N 
ATOM      4  C   UNL A   1      32.184  24.263  26.508  1.00  0.00     0.251 C 
ATOM      5  O   UNL A   1      31.098  24.391  27.079  1.00  0.00    -0.269 OA
ATOM      6  H   UNL A   1      32.365  22.473  27.313  1.00  0.00     0.163 HD
BRANCH   4   7
ATOM      7  C   UNL A   1      32.696  25.417  25.704  1.00  0.00     0.041 A 
ATOM      8  C   UNL A   1      34.143  28.537  23.037  1.00  0.00     0.046 C 
ATOM      9  C   UNL A   1      33.644  27.490  23.991  1.00  0.00    -0.027 A 
ATOM     10  C   UNL A   1      33.685  26.148  23.589  1.00  0.00     0.006 A 
ATOM     11  C   UNL A   1      33.129  27.782  25.263  1.00  0.00     0.054 A 
ATOM     12  C   UNL A   1      33.218  25.131  24.431  1.00  0.00     0.014 A 
ATOM     13  C   UNL A   1      32.650  26.751  26.095  1.00  0.00     0.041 A 
BRANCH  11  14
ATOM     14  N   UNL A   1      33.065  29.107  25.770  1.00  0.00    -0.261 N 
ATOM     15  C   UNL A   1      34.070  29.569  26.610  1.00  0.00     0.270 C 
ATOM     16  C   UNL A   1      31.983  29.946  25.560  1.00  0.00     0.152 C 
ATOM     17  O   UNL A   1      35.137  29.027  26.868  1.00  0.00    -0.268 OA
ATOM     18  C   UNL A   1      33.665  30.879  27.194  1.00  0.00     0.081 C 
ATOM     19  S   UNL A   1      32.199  31.426  26.486  1.00  0.00    -0.054 SA
ATOM     20  S   UNL A   1      30.664  29.727  24.554  1.00  0.00    -0.051 S 
ATOM     21  C   UNL A   1      34.376  31.479  28.158  1.00  0.00     0.029 C 
BRANCH  21  22
ATOM     22  C   UNL A   1      34.041  32.766  28.772  1.00  0.00    -0.024 A 
ATOM     23  C   UNL A   1      34.442  33.071  30.080  1.00  0.00     0.015 A 
ATOM     24  C   UNL A   1      33.303  33.700  28.035  1.00  0.00     0.015 A 
ATOM     25  C   UNL A   1      34.115  34.308  30.649  1.00  0.00     0.086 A 
ATOM     26  C   UNL A   1      32.972  34.935  28.595  1.00  0.00     0.086 A 
ATOM     27  C   UNL A   1      33.383  35.238  29.901  1.00  0.00     0.269 A 
BRANCH  27  28
ATOM     28  N   UNL A   1      33.044  36.546  30.477  1.00  0.00     0.062 N 
ATOM     29  O   UNL A   1      32.488  36.570  31.582  1.00  0.00    -0.258 OA
ATOM     30  O   UNL A   1      33.340  37.557  29.820  1.00  0.00    -0.258 OA
ENDBRANCH  27  28
ENDBRANCH  21  22
ENDBRANCH  11  14
ENDBRANCH   4   7
ENDBRANCH   2   3
ENDBRANCH   1   2
BRANCH   1  31
ATOM     31  C   UNL A   1      36.232  23.635  25.371  1.00  0.00     0.023 C 
BRANCH  31  32
ATOM     32  C   UNL A   1      37.392  22.684  25.115  1.00  0.00     0.116 C 
BRANCH  32  33
ATOM     33  N   UNL A   1      38.079  22.194  26.300  1.00  0.00    -0.352 N 
ATOM     34  C   UNL A   1      39.371  22.617  26.608  1.00  0.00     0.251 C 
ATOM     35  H   UNL A   1      37.624  21.553  26.893  1.00  0.00     0.163 HD
ATOM     36  O   UNL A   1      40.335  21.877  26.690  1.00  0.00    -0.269 OA
BRANCH  34  37
ATOM     37  C   UNL A   1      39.488  24.067  26.888  1.00  0.00     0.039 A 
ATOM     38  C   UNL A   1      40.130  24.911  25.977  1.00  0.00     0.014 A 
ATOM     39  C   UNL A   1      39.148  24.516  28.161  1.00  0.00     0.014 A 
ATOM     40  C   UNL A   1      40.565  26.171  26.402  1.00  0.00     0.010 A 
ATOM     41  C   UNL A   1      39.670  25.712  28.606  1.00  0.00     0.010 A 
ATOM     42  C   UNL A   1      40.404  26.534  27.738  1.00  0.00    -0.014 A 
BRANCH  42  43
ATOM     43  C   UNL A   1      40.979  27.718  28.371  1.00  0.00     0.031 A 
ATOM     44  C   UNL A   1      40.134  28.920  28.598  1.00  0.00     0.074 A 
ATOM     45  C   UNL A   1      42.197  27.644  28.955  1.00  0.00     0.049 A 
ATOM     46  N   UNL A   1      40.580  30.064  29.002  1.00  0.00    -0.248 NA
ATOM     47  C   UNL A   1      38.698  28.943  28.307  1.00  0.00     0.031 C 
ATOM     48  C   UNL A   1      42.705  28.496  30.029  1.00  0.00     0.029 A 
ATOM     49  N   UNL A   1      43.323  26.935  28.532  1.00  0.00    -0.354 N 
ATOM     50  C   UNL A   1      39.486  30.816  29.366  1.00  0.00     0.074 A 
ATOM     51  C   UNL A   1      38.357  30.150  28.769  1.00  0.00     0.031 C 
ATOM     52  C   UNL A   1      44.044  28.496  29.982  1.00  0.00     0.029 A 
ATOM     53  C   UNL A   1      44.422  27.780  28.776  1.00  0.00     0.049 A 
ATOM     54  H   UNL A   1      43.344  26.031  28.143  1.00  0.00     0.167 HD
ATOM     55  C   UNL A   1      39.630  31.811  30.284  1.00  0.00     0.031 A 
ATOM     56  C   UNL A   1      45.255  28.267  27.808  1.00  0.00     0.031 A 
ATOM     57  C   UNL A   1      41.032  32.166  30.488  1.00  0.00     0.049 A 
ATOM     58  C   UNL A   1      45.353  29.776  27.798  1.00  0.00     0.074 A 
ATOM     59  C   UNL A   1      41.922  31.996  31.534  1.00  0.00     0.029 A 
ATOM     60  N   UNL A   1      41.781  32.599  29.398  1.00  0.00    -0.354 N 
ATOM     61  N   UNL A   1      44.523  30.563  28.424  1.00  0.00    -0.248 NA
ATOM     62  C   UNL A   1      46.356  30.520  27.040  1.00  0.00     0.031 C 
ATOM     63  C   UNL A   1      43.234  32.213  31.025  1.00  0.00     0.029 A 
ATOM     64  C   UNL A   1      43.130  32.563  29.690  1.00  0.00     0.049 A 
ATOM     65  H   UNL A   1      41.402  32.891  28.538  1.00  0.00     0.167 HD
ATOM     66  C   UNL A   1      44.839  31.868  28.164  1.00  0.00     0.074 A 
ATOM     67  C   UNL A   1      46.007  31.792  27.304  1.00  0.00     0.031 C 
ATOM     68  C   UNL A   1      44.106  32.905  28.664  1.00  0.00     0.031 A 
BRANCH  55  69
ATOM     69  C   UNL A   1      38.504  32.300  31.179  1.00  0.00    -0.014 A 
ATOM     70  C   UNL A   1      38.299  33.685  31.357  1.00  0.00     0.010 A 
ATOM     71  C   UNL A   1      37.710  31.454  31.983  1.00  0.00     0.010 A 
ATOM     72  C   UNL A   1      37.377  34.187  32.295  1.00  0.00     0.020 A 
ATOM     73  C   UNL A   1      36.763  31.940  32.894  1.00  0.00     0.020 A 
ATOM     74  C   UNL A   1      36.617  33.308  33.065  1.00  0.00     0.054 A 
BRANCH  74  75
ATOM     75  S   UNL A   1      35.465  33.950  34.307  1.00  0.00     0.124 S 
ATOM     76  O   UNL A   1      36.113  33.565  35.557  1.00  0.00    -0.237 OA
ATOM     77  O   UNL A   1      35.446  35.381  34.018  1.00  0.00    -0.237 OA
ATOM     78  O   UNL A   1      34.216  33.248  34.016  1.00  0.00    -0.744 OA
ENDBRANCH  74  75
ENDBRANCH  55  69
BRANCH  56  79
ATOM     79  C   UNL A   1      45.364  27.401  26.604  1.00  0.00    -0.014 A 
ATOM     80  C   UNL A   1      46.369  26.412  26.621  1.00  0.00     0.010 A 
ATOM     81  C   UNL A   1      44.252  27.238  25.756  1.00  0.00     0.010 A 
ATOM     82  C   UNL A   1      46.161  25.191  25.979  1.00  0.00     0.020 A 
ATOM     83  C   UNL A   1      44.050  26.016  25.102  1.00  0.00     0.020 A 
ATOM     84  C   UNL A   1      44.965  24.976  25.295  1.00  0.00     0.054 A 
BRANCH  84  85
ATOM     85  S   UNL A   1      44.525  23.261  24.881  1.00  0.00     0.124 S 
ATOM     86  O   UNL A   1      45.241  23.047  23.627  1.00  0.00    -0.237 OA
ATOM     87  O   UNL A   1      45.053  22.535  26.037  1.00  0.00    -0.237 OA
ATOM     88  O   UNL A   1      43.069  23.299  24.786  1.00  0.00    -0.744 OA
ENDBRANCH  84  85
ENDBRANCH  56  79
BRANCH  68  89
ATOM     89  C   UNL A   1      44.279  34.352  28.281  1.00  0.00    -0.014 A 
ATOM     90  C   UNL A   1      43.611  34.963  27.206  1.00  0.00     0.010 A 
ATOM     91  C   UNL A   1      45.058  35.189  29.114  1.00  0.00     0.010 A 
ATOM     92  C   UNL A   1      43.773  36.328  26.929  1.00  0.00     0.020 A 
ATOM     93  C   UNL A   1      45.195  36.559  28.870  1.00  0.00     0.020 A 
ATOM     94  C   UNL A   1      44.573  37.116  27.759  1.00  0.00     0.054 A 
BRANCH  94  95
ATOM     95  S   UNL A   1      44.741  38.889  27.425  1.00  0.00     0.124 S 
ATOM     96  O   UNL A   1      45.174  39.399  28.722  1.00  0.00    -0.237 OA
ATOM     97  O   UNL A   1      45.749  38.933  26.368  1.00  0.00    -0.237 OA
ATOM     98  O   UNL A   1      43.397  39.285  27.010  1.00  0.00    -0.744 OA
ENDBRANCH  94  95
ENDBRANCH  68  89
ENDBRANCH  42  43
ENDBRANCH  34  37
ENDBRANCH  32  33
ENDBRANCH  31  32
ENDBRANCH   1  31
TORSDOF 17
ENDMDL
MODEL 2
REMARK VINA RESULT:     -12.0      1.680      2.375
REMARK SMILES Cc1ccc(C(=O)NCCCCNC(=O)c2ccc(-c3c4nc(c(-c5ccc(S(=O)(=O)[O-])cc5)c5ccc([nH]5)c(-c5ccc(S(=O)(=O)[O-])cc5)c5nc(c(-c6ccc(S(=O)(=O)[O-])cc6)c6ccc3[nH]6)C=C5)C=C4)cc2)cc1N1C(=O)/C(=C/c2ccc([N+](=O)[O-])cc2)SC1=S
REMARK SMILES IDX 10 1 9 2 8 3 6 4 7 5 5 7 1 8 2 9 3 10 77 11 4 12 76 13 78 14
REMARK SMILES IDX 79 15 93 16 80 17 81 18 92 19 94 20 82 21 83 22 84 23 91 24
REMARK SMILES IDX 85 25 90 26 86 27 87 28 88 29 89 30 11 31 12 32 13 33 14 34
REMARK SMILES IDX 15 36 16 37 17 38 75 39 18 40 74 41 19 42 20 43 21 44 68 45
REMARK SMILES IDX 22 46 73 47 67 48 69 49 23 50 72 51 66 52 65 53 24 55 54 56
REMARK SMILES IDX 35 57 53 58 36 59 39 60 52 61 70 62 37 63 38 64 51 66 71 67
REMARK SMILES IDX 40 68 25 69 26 70 34 71 27 72 33 73 28 74 29 75 30 76 31 77
REMARK SMILES IDX 32 78 55 79 56 80 64 81 57 82 63 83 58 84 59 85 60 86 61 87
REMARK SMILES IDX 62 88 41 89 42 90 50 91 43 92 49 93 44 94 45 95 46 96 47 97
REMARK SMILES IDX 48 98
REMARK H PARENT 8 6 13 35 69 54 39 65
REMARK Flexibility Score: inf
ROOT
ATOM      1  C   UNL A   1      36.372  21.307  24.911  1.00  0.00     0.023 C 
ENDROOT
BRANCH   1   2
ATOM      2  C   UNL A   1      35.442  21.411  26.133  1.00  0.00     0.116 C 
BRANCH   2   3
ATOM      3  N   UNL A   1      34.221  20.632  25.982  1.00  0.00    -0.352 N 
ATOM      4  C   UNL A   1      33.036  20.813  25.318  1.00  0.00     0.251 C 
ATOM      5  O   UNL A   1      32.245  19.866  25.335  1.00  0.00    -0.269 OA
ATOM      6  H   UNL A   1      34.255  19.777  26.470  1.00  0.00     0.163 HD
BRANCH   4   7
ATOM      7  C   UNL A   1      32.630  22.056  24.590  1.00  0.00     0.041 A 
ATOM      8  C   UNL A   1      31.232  25.431  22.225  1.00  0.00     0.046 C 
ATOM      9  C   UNL A   1      31.734  24.295  23.070  1.00  0.00    -0.027 A 
ATOM     10  C   UNL A   1      31.713  23.002  22.528  1.00  0.00     0.006 A 
ATOM     11  C   UNL A   1      32.213  24.455  24.378  1.00  0.00     0.054 A 
ATOM     12  C   UNL A   1      32.154  21.904  23.277  1.00  0.00     0.014 A 
ATOM     13  C   UNL A   1      32.641  23.340  25.125  1.00  0.00     0.041 A 
BRANCH  11  14
ATOM     14  N   UNL A   1      32.293  25.725  25.008  1.00  0.00    -0.261 N 
ATOM     15  C   UNL A   1      33.445  26.489  24.867  1.00  0.00     0.270 C 
ATOM     16  C   UNL A   1      31.314  26.211  25.860  1.00  0.00     0.152 C 
ATOM     17  O   UNL A   1      34.390  26.286  24.116  1.00  0.00    -0.268 OA
ATOM     18  C   UNL A   1      33.386  27.651  25.799  1.00  0.00     0.081 C 
ATOM     19  S   UNL A   1      31.854  27.727  26.571  1.00  0.00    -0.054 SA
ATOM     20  S   UNL A   1      29.797  25.584  26.181  1.00  0.00    -0.051 S 
ATOM     21  C   UNL A   1      34.431  28.468  25.984  1.00  0.00     0.029 C 
BRANCH  21  22
ATOM     22  C   UNL A   1      34.443  29.629  26.878  1.00  0.00    -0.024 A 
ATOM     23  C   UNL A   1      33.378  30.540  26.897  1.00  0.00     0.015 A 
ATOM     24  C   UNL A   1      35.543  29.828  27.720  1.00  0.00     0.015 A 
ATOM     25  C   UNL A   1      33.406  31.642  27.760  1.00  0.00     0.086 A 
ATOM     26  C   UNL A   1      35.580  30.925  28.583  1.00  0.00     0.086 A 
ATOM     27  C   UNL A   1      34.507  31.828  28.604  1.00  0.00     0.269 A 
BRANCH  27  28
ATOM     28  N   UNL A   1      34.546  32.970  29.526  1.00  0.00     0.062 N 
ATOM     29  O   UNL A   1      34.027  32.838  30.642  1.00  0.00    -0.258 OA
ATOM     30  O   UNL A   1      35.104  34.007  29.132  1.00  0.00    -0.258 OA
ENDBRANCH  27  28
ENDBRANCH  21  22
ENDBRANCH  11  14
ENDBRANCH   4   7
ENDBRANCH   2   3
ENDBRANCH   1   2
BRANCH   1  31
ATOM     31  C   UNL A   1      37.866  21.134  25.223  1.00  0.00     0.023 C 
BRANCH  31  32
ATOM     32  C   UNL A   1      38.480  22.282  26.011  1.00  0.00     0.116 C 
BRANCH  32  33
ATOM     33  N   UNL A   1      39.674  21.953  26.776  1.00  0.00    -0.352 N 
ATOM     34  C   UNL A   1      40.852  22.680  26.616  1.00  0.00     0.251 C 
ATOM     35  H   UNL A   1      39.647  21.207  27.417  1.00  0.00     0.163 HD
ATOM     36  O   UNL A   1      41.906  22.203  26.235  1.00  0.00    -0.269 OA
BRANCH  34  37
ATOM     37  C   UNL A   1      40.747  24.107  27.002  1.00  0.00     0.039 A 
ATOM     38  C   UNL A   1      41.042  25.111  26.074  1.00  0.00     0.014 A 
ATOM     39  C   UNL A   1      40.571  24.409  28.349  1.00  0.00     0.014 A 
ATOM     40  C   UNL A   1      41.306  26.406  26.529  1.00  0.00     0.010 A 
ATOM     41  C   UNL A   1      40.934  25.659  28.804  1.00  0.00     0.010 A 
ATOM     42  C   UNL A   1      41.329  26.656  27.901  1.00  0.00    -0.014 A 
BRANCH  42  43
ATOM     43  C   UNL A   1      41.781  27.895  28.530  1.00  0.00     0.031 A 
ATOM     44  C   UNL A   1      40.821  29.010  28.743  1.00  0.00     0.074 A 
ATOM     45  C   UNL A   1      42.996  27.943  29.123  1.00  0.00     0.049 A 
ATOM     46  N   UNL A   1      41.150  30.194  29.142  1.00  0.00    -0.248 NA
ATOM     47  C   UNL A   1      39.392  28.890  28.442  1.00  0.00     0.031 C 
ATOM     48  C   UNL A   1      43.410  28.847  30.195  1.00  0.00     0.029 A 
ATOM     49  N   UNL A   1      44.189  27.345  28.712  1.00  0.00    -0.354 N 
ATOM     50  C   UNL A   1      39.986  30.837  29.493  1.00  0.00     0.074 A 
ATOM     51  C   UNL A   1      38.931  30.061  28.892  1.00  0.00     0.031 C 
ATOM     52  C   UNL A   1      44.743  28.978  30.157  1.00  0.00     0.029 A 
ATOM     53  C   UNL A   1      45.198  28.295  28.958  1.00  0.00     0.049 A 
ATOM     54  H   UNL A   1      44.301  26.445  28.330  1.00  0.00     0.167 HD
ATOM     55  C   UNL A   1      40.024  31.847  30.406  1.00  0.00     0.031 A 
ATOM     56  C   UNL A   1      45.987  28.855  27.993  1.00  0.00     0.031 A 
ATOM     57  C   UNL A   1      41.384  32.339  30.618  1.00  0.00     0.049 A 
ATOM     58  C   UNL A   1      45.938  30.367  27.974  1.00  0.00     0.074 A 
ATOM     59  C   UNL A   1      42.277  32.263  31.671  1.00  0.00     0.029 A 
ATOM     60  N   UNL A   1      42.095  32.837  29.531  1.00  0.00    -0.354 N 
ATOM     61  N   UNL A   1      45.030  31.073  28.589  1.00  0.00    -0.248 NA
ATOM     62  C   UNL A   1      46.869  31.201  27.218  1.00  0.00     0.031 C 
ATOM     63  C   UNL A   1      43.565  32.604  31.170  1.00  0.00     0.029 A 
ATOM     64  C   UNL A   1      43.438  32.935  29.832  1.00  0.00     0.049 A 
ATOM     65  H   UNL A   1      41.696  33.085  28.666  1.00  0.00     0.167 HD
ATOM     66  C   UNL A   1      45.219  32.401  28.323  1.00  0.00     0.074 A 
ATOM     67  C   UNL A   1      46.395  32.434  27.472  1.00  0.00     0.031 C 
ATOM     68  C   UNL A   1      44.384  33.364  28.810  1.00  0.00     0.031 A 
BRANCH  55  69
ATOM     69  C   UNL A   1      38.849  32.229  31.290  1.00  0.00    -0.014 A 
ATOM     70  C   UNL A   1      38.140  33.423  31.039  1.00  0.00     0.010 A 
ATOM     71  C   UNL A   1      38.484  31.535  32.464  1.00  0.00     0.010 A 
ATOM     72  C   UNL A   1      37.150  33.902  31.919  1.00  0.00     0.020 A 
ATOM     73  C   UNL A   1      37.477  31.980  33.329  1.00  0.00     0.020 A 
ATOM     74  C   UNL A   1      36.829  33.177  33.065  1.00  0.00     0.054 A 
BRANCH  74  75
ATOM     75  S   UNL A   1      35.591  33.813  34.225  1.00  0.00     0.124 S 
ATOM     76  O   UNL A   1      35.569  35.237  33.903  1.00  0.00    -0.237 OA
ATOM     77  O   UNL A   1      34.393  33.063  33.859  1.00  0.00    -0.237 OA
ATOM     78  O   UNL A   1      36.145  33.484  35.537  1.00  0.00    -0.744 OA
ENDBRANCH  74  75
ENDBRANCH  55  69
BRANCH  56  79
ATOM     79  C   UNL A   1      46.189  27.997  26.796  1.00  0.00    -0.014 A 
ATOM     80  C   UNL A   1      47.252  27.072  26.849  1.00  0.00     0.010 A 
ATOM     81  C   UNL A   1      45.119  27.766  25.912  1.00  0.00     0.010 A 
ATOM     82  C   UNL A   1      47.142  25.840  26.204  1.00  0.00     0.020 A 
ATOM     83  C   UNL A   1      45.014  26.533  25.255  1.00  0.00     0.020 A 
ATOM     84  C   UNL A   1      45.985  25.552  25.481  1.00  0.00     0.054 A 
BRANCH  84  85
ATOM     85  S   UNL A   1      45.665  23.812  25.057  1.00  0.00     0.124 S 
ATOM     86  O   UNL A   1      46.095  23.112  26.264  1.00  0.00    -0.237 OA
ATOM     87  O   UNL A   1      44.222  23.827  24.820  1.00  0.00    -0.237 OA
ATOM     88  O   UNL A   1      46.486  23.598  23.870  1.00  0.00    -0.744 OA
ENDBRANCH  84  85
ENDBRANCH  56  79
BRANCH  68  89
ATOM     89  C   UNL A   1      44.418  34.819  28.419  1.00  0.00    -0.014 A 
ATOM     90  C   UNL A   1      43.690  35.358  27.346  1.00  0.00     0.010 A 
ATOM     91  C   UNL A   1      45.119  35.730  29.243  1.00  0.00     0.010 A 
ATOM     92  C   UNL A   1      43.721  36.731  27.061  1.00  0.00     0.020 A 
ATOM     93  C   UNL A   1      45.126  37.105  28.991  1.00  0.00     0.020 A 
ATOM     94  C   UNL A   1      44.447  37.595  27.881  1.00  0.00     0.054 A 
BRANCH  94  95
ATOM     95  S   UNL A   1      44.446  39.374  27.538  1.00  0.00     0.124 S 
ATOM     96  O   UNL A   1      45.867  39.698  27.627  1.00  0.00    -0.237 OA
ATOM     97  O   UNL A   1      43.870  39.452  26.197  1.00  0.00    -0.237 OA
ATOM     98  O   UNL A   1      43.608  39.924  28.601  1.00  0.00    -0.744 OA
ENDBRANCH  94  95
ENDBRANCH  68  89
ENDBRANCH  42  43
ENDBRANCH  34  37
ENDBRANCH  32  33
ENDBRANCH  31  32
ENDBRANCH   1  31
TORSDOF 17
ENDMDL
MODEL 3
REMARK VINA RESULT:     -11.7      6.619      9.450
REMARK SMILES Cc1ccc(C(=O)NCCCCNC(=O)c2ccc(-c3c4nc(c(-c5ccc(S(=O)(=O)[O-])cc5)c5ccc([nH]5)c(-c5ccc(S(=O)(=O)[O-])cc5)c5nc(c(-c6ccc(S(=O)(=O)[O-])cc6)c6ccc3[nH]6)C=C5)C=C4)cc2)cc1N1C(=O)/C(=C/c2ccc([N+](=O)[O-])cc2)SC1=S
REMARK SMILES IDX 10 1 9 2 8 3 6 4 7 5 5 7 1 8 2 9 3 10 77 11 4 12 76 13 78 14
REMARK SMILES IDX 79 15 93 16 80 17 81 18 92 19 94 20 82 21 83 22 84 23 91 24
REMARK SMILES IDX 85 25 90 26 86 27 87 28 88 29 89 30 11 31 12 32 13 33 14 34
REMARK SMILES IDX 15 36 16 37 17 38 75 39 18 40 74 41 19 42 20 43 21 44 68 45
REMARK SMILES IDX 22 46 73 47 67 48 69 49 23 50 72 51 66 52 65 53 24 55 54 56
REMARK SMILES IDX 35 57 53 58 36 59 39 60 52 61 70 62 37 63 38 64 51 66 71 67
REMARK SMILES IDX 40 68 25 69 26 70 34 71 27 72 33 73 28 74 29 75 30 76 31 77
REMARK SMILES IDX 32 78 55 79 56 80 64 81 57 82 63 83 58 84 59 85 60 86 61 87
REMARK SMILES IDX 62 88 41 89 42 90 50 91 43 92 49 93 44 94 45 95 46 96 47 97
REMARK SMILES IDX 48 98
REMARK H PARENT 8 6 13 35 69 54 39 65
REMARK Flexibility Score: inf
ROOT
ATOM      1  C   UNL A   1      44.291  29.916  27.630  1.00  0.00     0.023 C 
ENDROOT
BRANCH   1   2
ATOM      2  C   UNL A   1      43.355  30.194  26.440  1.00  0.00     0.116 C 
BRANCH   2   3
ATOM      3  N   UNL A   1      42.947  28.980  25.746  1.00  0.00    -0.352 N 
ATOM      4  C   UNL A   1      41.978  28.032  25.950  1.00  0.00     0.251 C 
ATOM      5  O   UNL A   1      41.859  27.170  25.075  1.00  0.00    -0.269 OA
ATOM      6  H   UNL A   1      43.491  28.800  24.947  1.00  0.00     0.163 HD
BRANCH   4   7
ATOM      7  C   UNL A   1      41.073  27.956  27.139  1.00  0.00     0.041 A 
ATOM      8  C   UNL A   1      38.669  27.425  30.727  1.00  0.00     0.046 C 
ATOM      9  C   UNL A   1      39.475  27.645  29.479  1.00  0.00    -0.027 A 
ATOM     10  C   UNL A   1      40.274  26.594  29.008  1.00  0.00     0.006 A 
ATOM     11  C   UNL A   1      39.480  28.851  28.763  1.00  0.00     0.054 A 
ATOM     12  C   UNL A   1      41.058  26.749  27.859  1.00  0.00     0.014 A 
ATOM     13  C   UNL A   1      40.285  28.998  27.616  1.00  0.00     0.041 A 
BRANCH  11  14
ATOM     14  N   UNL A   1      38.690  29.966  29.148  1.00  0.00    -0.261 N 
ATOM     15  C   UNL A   1      37.346  30.007  28.799  1.00  0.00     0.270 C 
ATOM     16  C   UNL A   1      39.215  31.088  29.768  1.00  0.00     0.152 C 
ATOM     17  O   UNL A   1      36.670  29.107  28.317  1.00  0.00    -0.268 OA
ATOM     18  C   UNL A   1      36.798  31.360  29.098  1.00  0.00     0.081 C 
ATOM     19  S   UNL A   1      37.963  32.314  29.924  1.00  0.00    -0.054 SA
ATOM     20  S   UNL A   1      40.753  31.325  30.381  1.00  0.00    -0.051 S 
ATOM     21  C   UNL A   1      35.566  31.728  28.719  1.00  0.00     0.029 C 
BRANCH  21  22
ATOM     22  C   UNL A   1      34.961  33.037  28.983  1.00  0.00    -0.024 A 
ATOM     23  C   UNL A   1      34.918  34.028  27.994  1.00  0.00     0.015 A 
ATOM     24  C   UNL A   1      34.424  33.294  30.250  1.00  0.00     0.015 A 
ATOM     25  C   UNL A   1      34.333  35.272  28.264  1.00  0.00     0.086 A 
ATOM     26  C   UNL A   1      33.840  34.531  30.529  1.00  0.00     0.086 A 
ATOM     27  C   UNL A   1      33.792  35.516  29.532  1.00  0.00     0.269 A 
BRANCH  27  28
ATOM     28  N   UNL A   1      33.161  36.809  29.828  1.00  0.00     0.062 N 
ATOM     29  O   UNL A   1      33.207  37.692  28.963  1.00  0.00    -0.258 OA
ATOM     30  O   UNL A   1      32.613  36.940  30.934  1.00  0.00    -0.258 OA
ENDBRANCH  27  28
ENDBRANCH  21  22
ENDBRANCH  11  14
ENDBRANCH   4   7
ENDBRANCH   2   3
ENDBRANCH   1   2
BRANCH   1  31
ATOM     31  C   UNL A   1      44.586  28.435  27.913  1.00  0.00     0.023 C 
BRANCH  31  32
ATOM     32  C   UNL A   1      45.918  27.944  27.364  1.00  0.00     0.116 C 
BRANCH  32  33
ATOM     33  N   UNL A   1      45.887  26.652  26.694  1.00  0.00    -0.352 N 
ATOM     34  C   UNL A   1      46.590  25.562  27.203  1.00  0.00     0.251 C 
ATOM     35  H   UNL A   1      45.361  26.548  25.869  1.00  0.00     0.163 HD
ATOM     36  O   UNL A   1      47.479  24.980  26.608  1.00  0.00    -0.269 OA
BRANCH  34  37
ATOM     37  C   UNL A   1      46.135  25.111  28.539  1.00  0.00     0.039 A 
ATOM     38  C   UNL A   1      44.858  24.565  28.701  1.00  0.00     0.014 A 
ATOM     39  C   UNL A   1      46.913  25.449  29.643  1.00  0.00     0.014 A 
ATOM     40  C   UNL A   1      44.302  24.496  29.983  1.00  0.00     0.010 A 
ATOM     41  C   UNL A   1      46.324  25.477  30.889  1.00  0.00     0.010 A 
ATOM     42  C   UNL A   1      45.007  25.026  31.062  1.00  0.00    -0.014 A 
BRANCH  42  43
ATOM     43  C   UNL A   1      44.481  25.208  32.413  1.00  0.00     0.031 A 
ATOM     44  C   UNL A   1      44.090  26.565  32.878  1.00  0.00     0.074 A 
ATOM     45  C   UNL A   1      44.135  24.129  33.151  1.00  0.00     0.049 A 
ATOM     46  N   UNL A   1      43.766  26.857  34.095  1.00  0.00    -0.248 NA
ATOM     47  C   UNL A   1      44.108  27.737  31.999  1.00  0.00     0.031 C 
ATOM     48  C   UNL A   1      43.167  24.092  34.245  1.00  0.00     0.029 A 
ATOM     49  N   UNL A   1      44.768  22.886  33.224  1.00  0.00    -0.354 N 
ATOM     50  C   UNL A   1      43.197  28.110  34.068  1.00  0.00     0.074 A 
ATOM     51  C   UNL A   1      43.580  28.670  32.797  1.00  0.00     0.031 C 
ATOM     52  C   UNL A   1      43.463  23.060  35.048  1.00  0.00     0.029 A 
ATOM     53  C   UNL A   1      44.725  22.513  34.581  1.00  0.00     0.049 A 
ATOM     54  H   UNL A   1      45.162  22.375  32.480  1.00  0.00     0.167 HD
ATOM     55  C   UNL A   1      42.312  28.468  35.040  1.00  0.00     0.031 A 
ATOM     56  C   UNL A   1      45.826  22.313  35.364  1.00  0.00     0.031 A 
ATOM     57  C   UNL A   1      42.370  27.566  36.188  1.00  0.00     0.049 A 
ATOM     58  C   UNL A   1      45.840  23.163  36.616  1.00  0.00     0.074 A 
ATOM     59  C   UNL A   1      41.510  26.612  36.701  1.00  0.00     0.029 A 
ATOM     60  N   UNL A   1      43.576  27.417  36.866  1.00  0.00    -0.354 N 
ATOM     61  N   UNL A   1      45.063  24.192  36.805  1.00  0.00    -0.248 NA
ATOM     62  C   UNL A   1      46.765  22.956  37.728  1.00  0.00     0.031 C 
ATOM     63  C   UNL A   1      42.252  25.805  37.610  1.00  0.00     0.029 A 
ATOM     64  C   UNL A   1      43.541  26.304  37.681  1.00  0.00     0.049 A 
ATOM     65  H   UNL A   1      44.348  28.021  36.776  1.00  0.00     0.167 HD
ATOM     66  C   UNL A   1      45.365  24.786  37.999  1.00  0.00     0.074 A 
ATOM     67  C   UNL A   1      46.428  23.965  38.551  1.00  0.00     0.031 C 
ATOM     68  C   UNL A   1      44.728  25.914  38.430  1.00  0.00     0.031 A 
BRANCH  55  69
ATOM     69  C   UNL A   1      41.219  29.504  34.843  1.00  0.00    -0.014 A 
ATOM     70  C   UNL A   1      40.858  30.356  35.909  1.00  0.00     0.010 A 
ATOM     71  C   UNL A   1      40.412  29.592  33.688  1.00  0.00     0.010 A 
ATOM     72  C   UNL A   1      39.749  31.220  35.830  1.00  0.00     0.020 A 
ATOM     73  C   UNL A   1      39.328  30.473  33.582  1.00  0.00     0.020 A 
ATOM     74  C   UNL A   1      38.985  31.267  34.665  1.00  0.00     0.054 A 
BRANCH  74  75
ATOM     75  S   UNL A   1      37.529  32.342  34.577  1.00  0.00     0.124 S 
ATOM     76  O   UNL A   1      37.098  32.392  35.971  1.00  0.00    -0.237 OA
ATOM     77  O   UNL A   1      38.078  33.583  34.039  1.00  0.00    -0.237 OA
ATOM     78  O   UNL A   1      36.626  31.627  33.676  1.00  0.00    -0.744 OA
ENDBRANCH  74  75
ENDBRANCH  55  69
BRANCH  56  79
ATOM     79  C   UNL A   1      47.038  21.883  34.617  1.00  0.00    -0.014 A 
ATOM     80  C   UNL A   1      48.134  22.770  34.617  1.00  0.00     0.010 A 
ATOM     81  C   UNL A   1      47.259  20.515  34.372  1.00  0.00     0.010 A 
ATOM     82  C   UNL A   1      49.437  22.274  34.598  1.00  0.00     0.020 A 
ATOM     83  C   UNL A   1      48.569  20.018  34.340  1.00  0.00     0.020 A 
ATOM     84  C   UNL A   1      49.639  20.895  34.543  1.00  0.00     0.054 A 
BRANCH  84  85
ATOM     85  S   UNL A   1      51.287  20.265  34.986  1.00  0.00     0.124 S 
ATOM     86  O   UNL A   1      51.681  21.156  36.073  1.00  0.00    -0.237 OA
ATOM     87  O   UNL A   1      50.980  18.890  35.382  1.00  0.00    -0.237 OA
ATOM     88  O   UNL A   1      52.044  20.399  33.746  1.00  0.00    -0.744 OA
ENDBRANCH  84  85
ENDBRANCH  56  79
BRANCH  68  89
ATOM     89  C   UNL A   1      45.123  26.724  39.638  1.00  0.00    -0.014 A 
ATOM     90  C   UNL A   1      46.119  27.714  39.624  1.00  0.00     0.010 A 
ATOM     91  C   UNL A   1      44.374  26.579  40.830  1.00  0.00     0.010 A 
ATOM     92  C   UNL A   1      46.408  28.472  40.768  1.00  0.00     0.020 A 
ATOM     93  C   UNL A   1      44.628  27.357  41.963  1.00  0.00     0.020 A 
ATOM     94  C   UNL A   1      45.665  28.282  41.935  1.00  0.00     0.054 A 
BRANCH  94  95
ATOM     95  S   UNL A   1      46.010  29.296  43.395  1.00  0.00     0.124 S 
ATOM     96  O   UNL A   1      46.996  28.483  44.101  1.00  0.00    -0.237 OA
ATOM     97  O   UNL A   1      46.520  30.540  42.823  1.00  0.00    -0.237 OA
ATOM     98  O   UNL A   1      44.706  29.408  44.046  1.00  0.00    -0.744 OA
ENDBRANCH  94  95
ENDBRANCH  68  89
ENDBRANCH  42  43
ENDBRANCH  34  37
ENDBRANCH  32  33
ENDBRANCH  31  32
ENDBRANCH   1  31
TORSDOF 17
ENDMDL
