MODEL 1
REMARK VINA RESULT:     -11.4      0.000      0.000
REMARK SMILES O=C(CCC(=O)N1N=C(c2ccc(F)cc2)C[C@@H]1c1ccc2nccnc2c1)NCCCCNC(=O)c1ccc(-c2c3nc(c(-c4ccc(S(=O)(=O)[O-])cc4)c4ccc([nH]4)c(-c4ccc(S(=O)(=O)[O-])cc4)c4nc(c(-c5ccc(S(=O)(=O)[O-])cc5)c5ccc2[nH]5)C=C4)C=C3)cc1
REMARK SMILES IDX 31 1 30 2 29 3 1 4 2 5 3 7 4 8 5 9 6 10 7 11 8 12 18 13 9 14
REMARK SMILES IDX 17 15 19 16 20 17 28 18 21 19 27 20 22 21 26 22 23 23 25 24
REMARK SMILES IDX 24 25 10 26 11 27 16 28 12 29 15 30 13 31 14 32 32 33 33 34
REMARK SMILES IDX 34 35 35 36 36 38 37 39 38 40 96 41 39 42 95 43 40 44 41 45
REMARK SMILES IDX 42 46 89 47 43 48 94 49 88 50 90 51 44 52 93 53 87 54 86 55
REMARK SMILES IDX 45 57 75 58 56 59 74 60 57 61 60 62 73 63 91 64 58 65 59 66
REMARK SMILES IDX 72 68 92 69 61 70 46 71 47 72 55 73 48 74 54 75 49 76 50 77
REMARK SMILES IDX 51 78 52 79 53 80 76 81 77 82 85 83 78 84 84 85 79 86 80 87
REMARK SMILES IDX 81 88 82 89 83 90 62 91 63 92 71 93 64 94 70 95 65 96 66 97
REMARK SMILES IDX 67 98 68 99 69 100
REMARK H PARENT 29 6 34 37 90 56 60 67
REMARK Flexibility Score: inf
ROOT
ATOM      1  C   UNL A   1      40.357  22.591  27.340  1.00  0.00     0.023 C 
ENDROOT
BRANCH   1   2
ATOM      2  C   UNL A   1      39.038  23.157  26.584  1.00  0.00     0.116 C 
BRANCH   2   3
ATOM      3  N   UNL A   1      38.247  22.478  25.533  1.00  0.00    -0.356 N 
ATOM      4  O   UNL A   1      36.559  24.047  25.397  1.00  0.00    -0.275 OA
ATOM      5  C   UNL A   1      37.137  23.085  24.907  1.00  0.00     0.220 C 
ATOM      6  H   UNL A   1      38.505  21.568  25.259  1.00  0.00     0.163 HD
BRANCH   5   7
ATOM      7  C   UNL A   1      36.783  22.562  23.474  1.00  0.00     0.110 C 
BRANCH   7   8
ATOM      8  C   UNL A   1      35.777  23.471  22.701  1.00  0.00     0.112 C 
BRANCH   8   9
ATOM      9  C   UNL A   1      34.256  23.202  22.449  1.00  0.00     0.243 C 
ATOM     10  O   UNL A   1      33.789  23.457  21.332  1.00  0.00    -0.273 OA
BRANCH   9  11
ATOM     11  N   UNL A   1      33.520  22.495  23.388  1.00  0.00    -0.225 N 
ATOM     12  N   UNL A   1      33.268  21.121  23.155  1.00  0.00    -0.174 NA
ATOM     13  C   UNL A   1      33.521  22.807  24.784  1.00  0.00     0.147 C 
ATOM     14  C   UNL A   1      33.212  20.539  24.321  1.00  0.00     0.071 C 
ATOM     15  C   UNL A   1      33.436  21.470  25.467  1.00  0.00     0.091 C 
BRANCH  13  16
ATOM     16  C   UNL A   1      32.869  24.097  25.284  1.00  0.00    -0.021 A 
ATOM     17  C   UNL A   1      31.709  23.978  26.052  1.00  0.00     0.008 A 
ATOM     18  C   UNL A   1      33.412  25.384  25.264  1.00  0.00     0.036 A 
ATOM     19  C   UNL A   1      31.102  25.001  26.769  1.00  0.00     0.031 A 
ATOM     20  C   UNL A   1      32.829  26.461  25.983  1.00  0.00     0.089 A 
ATOM     21  C   UNL A   1      31.651  26.246  26.747  1.00  0.00     0.089 A 
ATOM     22  N   UNL A   1      33.383  27.688  25.990  1.00  0.00    -0.253 NA
ATOM     23  N   UNL A   1      31.038  27.189  27.482  1.00  0.00    -0.253 NA
ATOM     24  C   UNL A   1      32.751  28.647  26.719  1.00  0.00     0.132 A 
ATOM     25  C   UNL A   1      31.603  28.405  27.446  1.00  0.00     0.132 A 
ENDBRANCH  13  16
BRANCH  14  26
ATOM     26  C   UNL A   1      33.049  19.076  24.611  1.00  0.00    -0.002 A 
ATOM     27  C   UNL A   1      32.738  18.640  25.914  1.00  0.00     0.013 A 
ATOM     28  C   UNL A   1      33.229  18.108  23.624  1.00  0.00     0.013 A 
ATOM     29  C   UNL A   1      32.481  17.296  26.205  1.00  0.00     0.040 A 
ATOM     30  C   UNL A   1      33.032  16.747  23.926  1.00  0.00     0.040 A 
ATOM     31  C   UNL A   1      32.628  16.358  25.201  1.00  0.00     0.123 A 
ATOM     32  F   UNL A   1      32.396  15.068  25.470  1.00  0.00    -0.207 F 
ENDBRANCH  14  26
ENDBRANCH   9  11
ENDBRANCH   8   9
ENDBRANCH   7   8
ENDBRANCH   5   7
ENDBRANCH   2   3
ENDBRANCH   1   2
BRANCH   1  33
ATOM     33  C   UNL A   1      41.876  22.264  26.992  1.00  0.00     0.023 C 
BRANCH  33  34
ATOM     34  C   UNL A   1      43.127  23.207  26.988  1.00  0.00     0.116 C 
BRANCH  34  35
ATOM     35  N   UNL A   1      43.181  24.212  25.949  1.00  0.00    -0.352 N 
ATOM     36  C   UNL A   1      42.683  25.505  25.922  1.00  0.00     0.251 C 
ATOM     37  H   UNL A   1      43.647  23.932  25.128  1.00  0.00     0.163 HD
ATOM     38  O   UNL A   1      42.540  26.011  24.806  1.00  0.00    -0.269 OA
BRANCH  36  39
ATOM     39  C   UNL A   1      42.340  26.343  27.120  1.00  0.00     0.039 A 
ATOM     40  C   UNL A   1      43.234  27.372  27.474  1.00  0.00     0.014 A 
ATOM     41  C   UNL A   1      41.294  26.064  28.003  1.00  0.00     0.014 A 
ATOM     42  C   UNL A   1      43.079  28.099  28.667  1.00  0.00     0.010 A 
ATOM     43  C   UNL A   1      41.148  26.770  29.209  1.00  0.00     0.010 A 
ATOM     44  C   UNL A   1      42.034  27.800  29.549  1.00  0.00    -0.014 A 
BRANCH  44  45
ATOM     45  C   UNL A   1      41.738  28.675  30.715  1.00  0.00     0.031 A 
ATOM     46  C   UNL A   1      42.488  28.574  32.013  1.00  0.00     0.074 A 
ATOM     47  C   UNL A   1      40.701  29.526  30.594  1.00  0.00     0.049 A 
ATOM     48  N   UNL A   1      42.368  29.311  33.090  1.00  0.00    -0.248 NA
ATOM     49  C   UNL A   1      43.490  27.505  32.128  1.00  0.00     0.031 C 
ATOM     50  C   UNL A   1      39.862  29.649  29.398  1.00  0.00     0.029 A 
ATOM     51  N   UNL A   1      40.161  30.427  31.474  1.00  0.00    -0.354 N 
ATOM     52  C   UNL A   1      43.289  28.812  34.006  1.00  0.00     0.074 A 
ATOM     53  C   UNL A   1      43.929  27.677  33.370  1.00  0.00     0.031 C 
ATOM     54  C   UNL A   1      38.913  30.570  29.621  1.00  0.00     0.029 A 
ATOM     55  C   UNL A   1      39.069  31.095  30.972  1.00  0.00     0.049 A 
ATOM     56  H   UNL A   1      40.521  30.582  32.377  1.00  0.00     0.167 HD
ATOM     57  C   UNL A   1      43.575  29.267  35.253  1.00  0.00     0.031 A 
ATOM     58  C   UNL A   1      38.281  32.030  31.533  1.00  0.00     0.031 A 
ATOM     59  C   UNL A   1      42.882  30.368  35.883  1.00  0.00     0.049 A 
ATOM     60  C   UNL A   1      38.613  32.517  32.913  1.00  0.00     0.074 A 
ATOM     61  C   UNL A   1      43.124  30.950  37.116  1.00  0.00     0.029 A 
ATOM     62  N   UNL A   1      41.795  31.038  35.336  1.00  0.00    -0.354 N 
ATOM     63  N   UNL A   1      39.572  32.118  33.716  1.00  0.00    -0.248 NA
ATOM     64  C   UNL A   1      37.782  33.600  33.451  1.00  0.00     0.031 C 
ATOM     65  C   UNL A   1      42.145  31.927  37.340  1.00  0.00     0.029 A 
ATOM     66  C   UNL A   1      41.337  32.004  36.217  1.00  0.00     0.049 A 
ATOM     67  H   UNL A   1      41.406  30.852  34.451  1.00  0.00     0.167 HD
ATOM     68  C   UNL A   1      39.476  32.919  34.845  1.00  0.00     0.074 A 
ATOM     69  C   UNL A   1      38.378  33.838  34.612  1.00  0.00     0.031 C 
ATOM     70  C   UNL A   1      40.230  32.899  35.973  1.00  0.00     0.031 A 
BRANCH  57  71
ATOM     71  C   UNL A   1      44.680  28.581  36.025  1.00  0.00    -0.014 A 
ATOM     72  C   UNL A   1      46.011  29.031  35.936  1.00  0.00     0.010 A 
ATOM     73  C   UNL A   1      44.384  27.522  36.905  1.00  0.00     0.010 A 
ATOM     74  C   UNL A   1      47.026  28.411  36.674  1.00  0.00     0.020 A 
ATOM     75  C   UNL A   1      45.393  26.917  37.667  1.00  0.00     0.020 A 
ATOM     76  C   UNL A   1      46.711  27.356  37.534  1.00  0.00     0.054 A 
BRANCH  76  77
ATOM     77  S   UNL A   1      48.048  26.586  38.491  1.00  0.00     0.124 S 
ATOM     78  O   UNL A   1      49.054  26.338  37.461  1.00  0.00    -0.237 OA
ATOM     79  O   UNL A   1      48.387  27.625  39.460  1.00  0.00    -0.237 OA
ATOM     80  O   UNL A   1      47.429  25.389  39.056  1.00  0.00    -0.744 OA
ENDBRANCH  76  77
ENDBRANCH  57  71
BRANCH  58  81
ATOM     81  C   UNL A   1      37.137  32.583  30.759  1.00  0.00    -0.014 A 
ATOM     82  C   UNL A   1      35.854  32.021  30.875  1.00  0.00     0.010 A 
ATOM     83  C   UNL A   1      37.315  33.718  29.945  1.00  0.00     0.010 A 
ATOM     84  C   UNL A   1      34.774  32.574  30.181  1.00  0.00     0.020 A 
ATOM     85  C   UNL A   1      36.232  34.291  29.274  1.00  0.00     0.020 A 
ATOM     86  C   UNL A   1      34.969  33.710  29.389  1.00  0.00     0.054 A 
BRANCH  86  87
ATOM     87  S   UNL A   1      33.537  34.443  28.549  1.00  0.00     0.124 S 
ATOM     88  O   UNL A   1      34.156  35.494  27.753  1.00  0.00    -0.237 OA
ATOM     89  O   UNL A   1      32.997  33.312  27.803  1.00  0.00    -0.237 OA
ATOM     90  O   UNL A   1      32.694  34.907  29.655  1.00  0.00    -0.744 OA
ENDBRANCH  86  87
ENDBRANCH  58  81
BRANCH  70  91
ATOM     91  C   UNL A   1      39.903  33.920  37.032  1.00  0.00    -0.014 A 
ATOM     92  C   UNL A   1      39.244  33.554  38.220  1.00  0.00     0.010 A 
ATOM     93  C   UNL A   1      40.294  35.258  36.848  1.00  0.00     0.010 A 
ATOM     94  C   UNL A   1      38.949  34.517  39.189  1.00  0.00     0.020 A 
ATOM     95  C   UNL A   1      40.029  36.218  37.829  1.00  0.00     0.020 A 
ATOM     96  C   UNL A   1      39.344  35.843  38.986  1.00  0.00     0.054 A 
BRANCH  96  97
ATOM     97  S   UNL A   1      38.984  37.065  40.277  1.00  0.00     0.124 S 
ATOM     98  O   UNL A   1      38.086  36.322  41.157  1.00  0.00    -0.237 OA
ATOM     99  O   UNL A   1      40.308  37.351  40.825  1.00  0.00    -0.237 OA
ATOM    100  O   UNL A   1      38.366  38.170  39.547  1.00  0.00    -0.744 OA
ENDBRANCH  96  97
ENDBRANCH  70  91
ENDBRANCH  44  45
ENDBRANCH  36  39
ENDBRANCH  34  35
ENDBRANCH  33  34
ENDBRANCH   1  33
TORSDOF 19
ENDMDL
MODEL 2
REMARK VINA RESULT:     -11.3      6.258      9.023
REMARK SMILES O=C(CCC(=O)N1N=C(c2ccc(F)cc2)C[C@@H]1c1ccc2nccnc2c1)NCCCCNC(=O)c1ccc(-c2c3nc(c(-c4ccc(S(=O)(=O)[O-])cc4)c4ccc([nH]4)c(-c4ccc(S(=O)(=O)[O-])cc4)c4nc(c(-c5ccc(S(=O)(=O)[O-])cc5)c5ccc2[nH]5)C=C4)C=C3)cc1
REMARK SMILES IDX 31 1 30 2 29 3 1 4 2 5 3 7 4 8 5 9 6 10 7 11 8 12 18 13 9 14
REMARK SMILES IDX 17 15 19 16 20 17 28 18 21 19 27 20 22 21 26 22 23 23 25 24
REMARK SMILES IDX 24 25 10 26 11 27 16 28 12 29 15 30 13 31 14 32 32 33 33 34
REMARK SMILES IDX 34 35 35 36 36 38 37 39 38 40 96 41 39 42 95 43 40 44 41 45
REMARK SMILES IDX 42 46 89 47 43 48 94 49 88 50 90 51 44 52 93 53 87 54 86 55
REMARK SMILES IDX 45 57 75 58 56 59 74 60 57 61 60 62 73 63 91 64 58 65 59 66
REMARK SMILES IDX 72 68 92 69 61 70 46 71 47 72 55 73 48 74 54 75 49 76 50 77
REMARK SMILES IDX 51 78 52 79 53 80 76 81 77 82 85 83 78 84 84 85 79 86 80 87
REMARK SMILES IDX 81 88 82 89 83 90 62 91 63 92 71 93 64 94 70 95 65 96 66 97
REMARK SMILES IDX 67 98 68 99 69 100
REMARK H PARENT 29 6 34 37 90 56 60 67
REMARK Flexibility Score: inf
ROOT
ATOM      1  C   UNL A   1      39.594  21.111  26.126  1.00  0.00     0.023 C 
ENDROOT
BRANCH   1   2
ATOM      2  C   UNL A   1      38.234  21.712  25.477  1.00  0.00     0.116 C 
BRANCH   2   3
ATOM      3  N   UNL A   1      37.379  22.788  26.027  1.00  0.00    -0.356 N 
ATOM      4  O   UNL A   1      36.420  23.432  24.028  1.00  0.00    -0.275 OA
ATOM      5  C   UNL A   1      36.406  23.454  25.252  1.00  0.00     0.220 C 
ATOM      6  H   UNL A   1      37.493  23.049  26.970  1.00  0.00     0.163 HD
BRANCH   5   7
ATOM      7  C   UNL A   1      35.214  24.093  26.043  1.00  0.00     0.110 C 
BRANCH   7   8
ATOM      8  C   UNL A   1      34.333  23.055  26.805  1.00  0.00     0.112 C 
BRANCH   8   9
ATOM      9  C   UNL A   1      32.770  23.014  26.885  1.00  0.00     0.243 C 
ATOM     10  O   UNL A   1      32.238  22.989  28.001  1.00  0.00    -0.273 OA
BRANCH   9  11
ATOM     11  N   UNL A   1      32.020  23.221  25.738  1.00  0.00    -0.225 N 
ATOM     12  N   UNL A   1      31.241  24.399  25.643  1.00  0.00    -0.174 NA
ATOM     13  C   UNL A   1      32.401  22.729  24.450  1.00  0.00     0.147 C 
ATOM     14  C   UNL A   1      31.198  24.729  24.382  1.00  0.00     0.071 C 
ATOM     15  C   UNL A   1      31.962  23.803  23.494  1.00  0.00     0.091 C 
BRANCH  13  16
ATOM     16  C   UNL A   1      32.378  21.227  24.162  1.00  0.00    -0.021 A 
ATOM     17  C   UNL A   1      32.153  20.826  22.843  1.00  0.00     0.008 A 
ATOM     18  C   UNL A   1      32.779  20.194  25.013  1.00  0.00     0.036 A 
ATOM     19  C   UNL A   1      32.309  19.537  22.349  1.00  0.00     0.031 A 
ATOM     20  C   UNL A   1      32.955  18.862  24.554  1.00  0.00     0.089 A 
ATOM     21  C   UNL A   1      32.712  18.547  23.190  1.00  0.00     0.089 A 
ATOM     22  N   UNL A   1      33.382  17.882  25.372  1.00  0.00    -0.253 NA
ATOM     23  N   UNL A   1      32.874  17.327  22.651  1.00  0.00    -0.253 NA
ATOM     24  C   UNL A   1      33.527  16.644  24.830  1.00  0.00     0.132 A 
ATOM     25  C   UNL A   1      33.277  16.370  23.500  1.00  0.00     0.132 A 
ENDBRANCH  13  16
BRANCH  14  26
ATOM     26  C   UNL A   1      30.567  25.945  23.771  1.00  0.00    -0.002 A 
ATOM     27  C   UNL A   1      29.202  26.223  23.985  1.00  0.00     0.013 A 
ATOM     28  C   UNL A   1      31.289  26.814  22.953  1.00  0.00     0.013 A 
ATOM     29  C   UNL A   1      28.601  27.395  23.514  1.00  0.00     0.040 A 
ATOM     30  C   UNL A   1      30.672  27.964  22.427  1.00  0.00     0.040 A 
ATOM     31  C   UNL A   1      29.348  28.261  22.739  1.00  0.00     0.123 A 
ATOM     32  F   UNL A   1      28.781  29.381  22.275  1.00  0.00    -0.207 F 
ENDBRANCH  14  26
ENDBRANCH   9  11
ENDBRANCH   8   9
ENDBRANCH   7   8
ENDBRANCH   5   7
ENDBRANCH   2   3
ENDBRANCH   1   2
BRANCH   1  33
ATOM     33  C   UNL A   1      40.404  19.740  26.124  1.00  0.00     0.023 C 
BRANCH  33  34
ATOM     34  C   UNL A   1      41.846  19.429  26.650  1.00  0.00     0.116 C 
BRANCH  34  35
ATOM     35  N   UNL A   1      42.862  19.178  25.652  1.00  0.00    -0.352 N 
ATOM     36  C   UNL A   1      43.689  20.057  24.970  1.00  0.00     0.251 C 
ATOM     37  H   UNL A   1      42.987  18.230  25.419  1.00  0.00     0.163 HD
ATOM     38  O   UNL A   1      44.194  19.634  23.927  1.00  0.00    -0.269 OA
BRANCH  36  39
ATOM     39  C   UNL A   1      44.044  21.450  25.405  1.00  0.00     0.039 A 
ATOM     40  C   UNL A   1      43.720  22.508  24.535  1.00  0.00     0.014 A 
ATOM     41  C   UNL A   1      44.823  21.750  26.525  1.00  0.00     0.014 A 
ATOM     42  C   UNL A   1      44.155  23.821  24.784  1.00  0.00     0.010 A 
ATOM     43  C   UNL A   1      45.283  23.057  26.766  1.00  0.00     0.010 A 
ATOM     44  C   UNL A   1      44.945  24.106  25.903  1.00  0.00    -0.014 A 
BRANCH  44  45
ATOM     45  C   UNL A   1      45.256  25.509  26.289  1.00  0.00     0.031 A 
ATOM     46  C   UNL A   1      46.647  26.075  26.234  1.00  0.00     0.074 A 
ATOM     47  C   UNL A   1      44.240  26.250  26.772  1.00  0.00     0.049 A 
ATOM     48  N   UNL A   1      47.047  27.296  26.490  1.00  0.00    -0.248 NA
ATOM     49  C   UNL A   1      47.731  25.155  25.860  1.00  0.00     0.031 C 
ATOM     50  C   UNL A   1      42.864  25.770  26.933  1.00  0.00     0.029 A 
ATOM     51  N   UNL A   1      44.199  27.539  27.233  1.00  0.00    -0.354 N 
ATOM     52  C   UNL A   1      48.425  27.301  26.291  1.00  0.00     0.074 A 
ATOM     53  C   UNL A   1      48.796  25.945  25.937  1.00  0.00     0.031 C 
ATOM     54  C   UNL A   1      42.116  26.750  27.457  1.00  0.00     0.029 A 
ATOM     55  C   UNL A   1      42.955  27.922  27.678  1.00  0.00     0.049 A 
ATOM     56  H   UNL A   1      44.983  28.134  27.244  1.00  0.00     0.167 HD
ATOM     57  C   UNL A   1      49.291  28.344  26.388  1.00  0.00     0.031 A 
ATOM     58  C   UNL A   1      42.532  29.087  28.201  1.00  0.00     0.031 A 
ATOM     59  C   UNL A   1      48.900  29.674  26.797  1.00  0.00     0.049 A 
ATOM     60  C   UNL A   1      43.506  30.225  28.302  1.00  0.00     0.074 A 
ATOM     61  C   UNL A   1      49.678  30.817  26.876  1.00  0.00     0.029 A 
ATOM     62  N   UNL A   1      47.626  30.033  27.219  1.00  0.00    -0.354 N 
ATOM     63  N   UNL A   1      44.780  30.246  27.987  1.00  0.00    -0.248 NA
ATOM     64  C   UNL A   1      42.981  31.504  28.795  1.00  0.00     0.031 C 
ATOM     65  C   UNL A   1      48.890  31.848  27.404  1.00  0.00     0.029 A 
ATOM     66  C   UNL A   1      47.603  31.368  27.587  1.00  0.00     0.049 A 
ATOM     67  H   UNL A   1      46.852  29.425  27.251  1.00  0.00     0.167 HD
ATOM     68  C   UNL A   1      45.205  31.547  28.220  1.00  0.00     0.074 A 
ATOM     69  C   UNL A   1      44.045  32.287  28.682  1.00  0.00     0.031 C 
ATOM     70  C   UNL A   1      46.441  32.083  28.061  1.00  0.00     0.031 A 
BRANCH  57  71
ATOM     71  C   UNL A   1      50.743  28.097  26.049  1.00  0.00    -0.014 A 
ATOM     72  C   UNL A   1      51.658  27.688  27.039  1.00  0.00     0.010 A 
ATOM     73  C   UNL A   1      51.193  28.202  24.719  1.00  0.00     0.010 A 
ATOM     74  C   UNL A   1      52.995  27.434  26.715  1.00  0.00     0.020 A 
ATOM     75  C   UNL A   1      52.525  27.921  24.385  1.00  0.00     0.020 A 
ATOM     76  C   UNL A   1      53.421  27.554  25.390  1.00  0.00     0.054 A 
BRANCH  76  77
ATOM     77  S   UNL A   1      55.159  27.198  25.001  1.00  0.00     0.124 S 
ATOM     78  O   UNL A   1      55.524  26.268  26.067  1.00  0.00    -0.237 OA
ATOM     79  O   UNL A   1      55.076  26.617  23.664  1.00  0.00    -0.237 OA
ATOM     80  O   UNL A   1      55.807  28.507  25.069  1.00  0.00    -0.744 OA
ENDBRANCH  76  77
ENDBRANCH  57  71
BRANCH  58  81
ATOM     81  C   UNL A   1      41.112  29.228  28.622  1.00  0.00    -0.014 A 
ATOM     82  C   UNL A   1      40.766  29.246  29.983  1.00  0.00     0.010 A 
ATOM     83  C   UNL A   1      40.103  29.409  27.658  1.00  0.00     0.010 A 
ATOM     84  C   UNL A   1      39.437  29.425  30.374  1.00  0.00     0.020 A 
ATOM     85  C   UNL A   1      38.777  29.619  28.045  1.00  0.00     0.020 A 
ATOM     86  C   UNL A   1      38.450  29.616  29.401  1.00  0.00     0.054 A 
BRANCH  86  87
ATOM     87  S   UNL A   1      36.742  29.909  29.938  1.00  0.00     0.124 S 
ATOM     88  O   UNL A   1      36.703  31.361  30.054  1.00  0.00    -0.237 OA
ATOM     89  O   UNL A   1      35.965  29.336  28.844  1.00  0.00    -0.237 OA
ATOM     90  O   UNL A   1      36.651  29.176  31.204  1.00  0.00    -0.744 OA
ENDBRANCH  86  87
ENDBRANCH  58  81
BRANCH  70  91
ATOM     91  C   UNL A   1      46.595  33.549  28.373  1.00  0.00    -0.014 A 
ATOM     92  C   UNL A   1      46.970  33.988  29.656  1.00  0.00     0.010 A 
ATOM     93  C   UNL A   1      46.395  34.499  27.355  1.00  0.00     0.010 A 
ATOM     94  C   UNL A   1      47.107  35.352  29.924  1.00  0.00     0.020 A 
ATOM     95  C   UNL A   1      46.562  35.862  27.610  1.00  0.00     0.020 A 
ATOM     96  C   UNL A   1      46.902  36.281  28.898  1.00  0.00     0.054 A 
BRANCH  96  97
ATOM     97  S   UNL A   1      47.124  38.043  29.262  1.00  0.00     0.124 S 
ATOM     98  O   UNL A   1      46.330  38.205  30.478  1.00  0.00    -0.237 OA
ATOM     99  O   UNL A   1      48.570  38.154  29.435  1.00  0.00    -0.237 OA
ATOM    100  O   UNL A   1      46.590  38.713  28.078  1.00  0.00    -0.744 OA
ENDBRANCH  96  97
ENDBRANCH  70  91
ENDBRANCH  44  45
ENDBRANCH  36  39
ENDBRANCH  34  35
ENDBRANCH  33  34
ENDBRANCH   1  33
TORSDOF 19
ENDMDL
MODEL 3
REMARK VINA RESULT:     -10.7      2.363      8.662
REMARK SMILES O=C(CCC(=O)N1N=C(c2ccc(F)cc2)C[C@@H]1c1ccc2nccnc2c1)NCCCCNC(=O)c1ccc(-c2c3nc(c(-c4ccc(S(=O)(=O)[O-])cc4)c4ccc([nH]4)c(-c4ccc(S(=O)(=O)[O-])cc4)c4nc(c(-c5ccc(S(=O)(=O)[O-])cc5)c5ccc2[nH]5)C=C4)C=C3)cc1
REMARK SMILES IDX 31 1 30 2 29 3 1 4 2 5 3 7 4 8 5 9 6 10 7 11 8 12 18 13 9 14
REMARK SMILES IDX 17 15 19 16 20 17 28 18 21 19 27 20 22 21 26 22 23 23 25 24
REMARK SMILES IDX 24 25 10 26 11 27 16 28 12 29 15 30 13 31 14 32 32 33 33 34
REMARK SMILES IDX 34 35 35 36 36 38 37 39 38 40 96 41 39 42 95 43 40 44 41 45
REMARK SMILES IDX 42 46 89 47 43 48 94 49 88 50 90 51 44 52 93 53 87 54 86 55
REMARK SMILES IDX 45 57 75 58 56 59 74 60 57 61 60 62 73 63 91 64 58 65 59 66
REMARK SMILES IDX 72 68 92 69 61 70 46 71 47 72 55 73 48 74 54 75 49 76 50 77
REMARK SMILES IDX 51 78 52 79 53 80 76 81 77 82 85 83 78 84 84 85 79 86 80 87
REMARK SMILES IDX 81 88 82 89 83 90 62 91 63 92 71 93 64 94 70 95 65 96 66 97
REMARK SMILES IDX 67 98 68 99 69 100
REMARK H PARENT 29 6 34 37 90 56 60 67
REMARK Flexibility Score: inf
ROOT
ATOM      1  C   UNL A   1      32.870  28.566  24.519  1.00  0.00     0.023 C 
ENDROOT
BRANCH   1   2
ATOM      2  C   UNL A   1      32.189  28.054  23.139  1.00  0.00     0.116 C 
BRANCH   2   3
ATOM      3  N   UNL A   1      31.949  26.653  22.724  1.00  0.00    -0.356 N 
ATOM      4  O   UNL A   1      34.011  26.295  21.749  1.00  0.00    -0.275 OA
ATOM      5  C   UNL A   1      32.971  25.833  22.199  1.00  0.00     0.220 C 
ATOM      6  H   UNL A   1      31.044  26.278  22.818  1.00  0.00     0.163 HD
BRANCH   5   7
ATOM      7  C   UNL A   1      32.769  24.288  22.367  1.00  0.00     0.110 C 
BRANCH   7   8
ATOM      8  C   UNL A   1      34.006  23.552  22.969  1.00  0.00     0.112 C 
BRANCH   8   9
ATOM      9  C   UNL A   1      34.370  23.388  24.483  1.00  0.00     0.243 C 
ATOM     10  O   UNL A   1      34.066  24.298  25.263  1.00  0.00    -0.273 OA
BRANCH   9  11
ATOM     11  N   UNL A   1      34.821  22.163  24.950  1.00  0.00    -0.225 N 
ATOM     12  N   UNL A   1      33.879  21.123  25.139  1.00  0.00    -0.174 NA
ATOM     13  C   UNL A   1      36.130  21.653  24.683  1.00  0.00     0.147 C 
ATOM     14  C   UNL A   1      34.497  19.999  24.907  1.00  0.00     0.071 C 
ATOM     15  C   UNL A   1      35.929  20.172  24.522  1.00  0.00     0.091 C 
BRANCH  13  16
ATOM     16  C   UNL A   1      37.356  22.315  25.314  1.00  0.00    -0.021 A 
ATOM     17  C   UNL A   1      37.242  23.652  25.699  1.00  0.00     0.008 A 
ATOM     18  C   UNL A   1      38.519  21.687  25.769  1.00  0.00     0.036 A 
ATOM     19  C   UNL A   1      38.155  24.355  26.475  1.00  0.00     0.031 A 
ATOM     20  C   UNL A   1      39.480  22.362  26.566  1.00  0.00     0.089 A 
ATOM     21  C   UNL A   1      39.276  23.723  26.918  1.00  0.00     0.089 A 
ATOM     22  N   UNL A   1      40.577  21.737  27.033  1.00  0.00    -0.253 NA
ATOM     23  N   UNL A   1      40.109  24.443  27.688  1.00  0.00    -0.253 NA
ATOM     24  C   UNL A   1      41.429  22.471  27.796  1.00  0.00     0.132 A 
ATOM     25  C   UNL A   1      41.204  23.795  28.114  1.00  0.00     0.132 A 
ENDBRANCH  13  16
BRANCH  14  26
ATOM     26  C   UNL A   1      33.916  18.616  24.893  1.00  0.00    -0.002 A 
ATOM     27  C   UNL A   1      34.459  17.624  24.052  1.00  0.00     0.013 A 
ATOM     28  C   UNL A   1      32.813  18.275  25.676  1.00  0.00     0.013 A 
ATOM     29  C   UNL A   1      34.011  16.300  24.081  1.00  0.00     0.040 A 
ATOM     30  C   UNL A   1      32.320  16.957  25.664  1.00  0.00     0.040 A 
ATOM     31  C   UNL A   1      32.942  15.977  24.895  1.00  0.00     0.123 A 
ATOM     32  F   UNL A   1      32.497  14.715  24.923  1.00  0.00    -0.207 F 
ENDBRANCH  14  26
ENDBRANCH   9  11
ENDBRANCH   8   9
ENDBRANCH   7   8
ENDBRANCH   5   7
ENDBRANCH   2   3
ENDBRANCH   1   2
BRANCH   1  33
ATOM     33  C   UNL A   1      33.959  28.057  25.563  1.00  0.00     0.023 C 
BRANCH  33  34
ATOM     34  C   UNL A   1      34.544  28.773  26.828  1.00  0.00     0.116 C 
BRANCH  34  35
ATOM     35  N   UNL A   1      34.306  30.196  26.938  1.00  0.00    -0.352 N 
ATOM     36  C   UNL A   1      34.843  31.132  27.808  1.00  0.00     0.251 C 
ATOM     37  H   UNL A   1      33.659  30.557  26.290  1.00  0.00     0.163 HD
ATOM     38  O   UNL A   1      34.211  32.184  27.934  1.00  0.00    -0.269 OA
BRANCH  36  39
ATOM     39  C   UNL A   1      36.127  30.991  28.572  1.00  0.00     0.039 A 
ATOM     40  C   UNL A   1      36.232  29.920  29.480  1.00  0.00     0.014 A 
ATOM     41  C   UNL A   1      37.152  31.940  28.572  1.00  0.00     0.014 A 
ATOM     42  C   UNL A   1      37.328  29.802  30.351  1.00  0.00     0.010 A 
ATOM     43  C   UNL A   1      38.239  31.841  29.458  1.00  0.00     0.010 A 
ATOM     44  C   UNL A   1      38.343  30.767  30.350  1.00  0.00    -0.014 A 
BRANCH  44  45
ATOM     45  C   UNL A   1      39.598  30.565  31.122  1.00  0.00     0.031 A 
ATOM     46  C   UNL A   1      39.891  31.302  32.399  1.00  0.00     0.074 A 
ATOM     47  C   UNL A   1      40.518  29.740  30.588  1.00  0.00     0.049 A 
ATOM     48  N   UNL A   1      40.922  31.180  33.198  1.00  0.00    -0.248 NA
ATOM     49  C   UNL A   1      38.915  32.314  32.828  1.00  0.00     0.031 C 
ATOM     50  C   UNL A   1      40.360  29.031  29.314  1.00  0.00     0.029 A 
ATOM     51  N   UNL A   1      41.764  29.370  31.021  1.00  0.00    -0.354 N 
ATOM     52  C   UNL A   1      40.714  32.083  34.237  1.00  0.00     0.074 A 
ATOM     53  C   UNL A   1      39.477  32.778  33.938  1.00  0.00     0.031 C 
ATOM     54  C   UNL A   1      41.466  28.315  29.069  1.00  0.00     0.029 A 
ATOM     55  C   UNL A   1      42.414  28.518  30.159  1.00  0.00     0.049 A 
ATOM     56  H   UNL A   1      42.156  29.683  31.868  1.00  0.00     0.167 HD
ATOM     57  C   UNL A   1      41.481  32.299  35.337  1.00  0.00     0.031 A 
ATOM     58  C   UNL A   1      43.634  27.957  30.236  1.00  0.00     0.031 A 
ATOM     59  C   UNL A   1      42.738  31.629  35.582  1.00  0.00     0.049 A 
ATOM     60  C   UNL A   1      44.467  28.212  31.458  1.00  0.00     0.074 A 
ATOM     61  C   UNL A   1      43.570  31.727  36.685  1.00  0.00     0.029 A 
ATOM     62  N   UNL A   1      43.356  30.754  34.697  1.00  0.00    -0.354 N 
ATOM     63  N   UNL A   1      44.195  28.972  32.493  1.00  0.00    -0.248 NA
ATOM     64  C   UNL A   1      45.753  27.510  31.542  1.00  0.00     0.031 C 
ATOM     65  C   UNL A   1      44.717  30.961  36.439  1.00  0.00     0.029 A 
ATOM     66  C   UNL A   1      44.569  30.329  35.215  1.00  0.00     0.049 A 
ATOM     67  H   UNL A   1      42.985  30.476  33.828  1.00  0.00     0.167 HD
ATOM     68  C   UNL A   1      45.265  28.821  33.364  1.00  0.00     0.074 A 
ATOM     69  C   UNL A   1      46.178  27.880  32.742  1.00  0.00     0.031 C 
ATOM     70  C   UNL A   1      45.473  29.404  34.572  1.00  0.00     0.031 A 
BRANCH  57  71
ATOM     71  C   UNL A   1      40.991  33.298  36.361  1.00  0.00    -0.014 A 
ATOM     72  C   UNL A   1      40.154  32.898  37.420  1.00  0.00     0.010 A 
ATOM     73  C   UNL A   1      41.424  34.638  36.315  1.00  0.00     0.010 A 
ATOM     74  C   UNL A   1      39.726  33.820  38.381  1.00  0.00     0.020 A 
ATOM     75  C   UNL A   1      41.021  35.558  37.291  1.00  0.00     0.020 A 
ATOM     76  C   UNL A   1      40.161  35.146  38.310  1.00  0.00     0.054 A 
BRANCH  76  77
ATOM     77  S   UNL A   1      39.602  36.313  39.584  1.00  0.00     0.124 S 
ATOM     78  O   UNL A   1      40.851  36.632  40.271  1.00  0.00    -0.237 OA
ATOM     79  O   UNL A   1      39.026  37.398  38.794  1.00  0.00    -0.237 OA
ATOM     80  O   UNL A   1      38.641  35.539  40.368  1.00  0.00    -0.744 OA
ENDBRANCH  76  77
ENDBRANCH  57  71
BRANCH  58  81
ATOM     81  C   UNL A   1      44.104  27.072  29.136  1.00  0.00    -0.014 A 
ATOM     82  C   UNL A   1      44.717  27.612  27.993  1.00  0.00     0.010 A 
ATOM     83  C   UNL A   1      43.993  25.674  29.256  1.00  0.00     0.010 A 
ATOM     84  C   UNL A   1      45.198  26.773  26.984  1.00  0.00     0.020 A 
ATOM     85  C   UNL A   1      44.500  24.831  28.264  1.00  0.00     0.020 A 
ATOM     86  C   UNL A   1      45.091  25.386  27.129  1.00  0.00     0.054 A 
BRANCH  86  87
ATOM     87  S   UNL A   1      45.780  24.319  25.833  1.00  0.00     0.124 S 
ATOM     88  O   UNL A   1      45.795  25.210  24.681  1.00  0.00    -0.237 OA
ATOM     89  O   UNL A   1      47.084  23.961  26.379  1.00  0.00    -0.237 OA
ATOM     90  O   UNL A   1      44.822  23.212  25.758  1.00  0.00    -0.744 OA
ENDBRANCH  86  87
ENDBRANCH  58  81
BRANCH  70  91
ATOM     91  C   UNL A   1      46.730  29.021  35.308  1.00  0.00    -0.014 A 
ATOM     92  C   UNL A   1      46.769  27.896  36.152  1.00  0.00     0.010 A 
ATOM     93  C   UNL A   1      47.899  29.781  35.125  1.00  0.00     0.010 A 
ATOM     94  C   UNL A   1      47.945  27.560  36.827  1.00  0.00     0.020 A 
ATOM     95  C   UNL A   1      49.086  29.429  35.773  1.00  0.00     0.020 A 
ATOM     96  C   UNL A   1      49.096  28.329  36.633  1.00  0.00     0.054 A 
BRANCH  96  97
ATOM     97  S   UNL A   1      50.620  27.848  37.490  1.00  0.00     0.124 S 
ATOM     98  O   UNL A   1      51.016  26.649  36.755  1.00  0.00    -0.237 OA
ATOM     99  O   UNL A   1      51.478  29.015  37.298  1.00  0.00    -0.237 OA
ATOM    100  O   UNL A   1      50.187  27.619  38.867  1.00  0.00    -0.744 OA
ENDBRANCH  96  97
ENDBRANCH  70  91
ENDBRANCH  44  45
ENDBRANCH  36  39
ENDBRANCH  34  35
ENDBRANCH  33  34
ENDBRANCH   1  33
TORSDOF 19
ENDMDL
