MODEL 1
REMARK VINA RESULT:     -13.1      0.000      0.000
REMARK SMILES Cc1ccc(Oc2cc(C(=O)NCCCCNC(=O)c3ccc(-c4c5nc(c(-c6ccc(S(=O)(=O)[O-])cc6)c6ccc([nH]6)c(-c6ccc(S(=O)(=O)[O-])cc6)c6nc(c(-c7ccc(S(=O)(=O)[O-])cc7)c7ccc4[nH]7)C=C6)C=C5)cc3)nc3ccccc23)cc1
REMARK SMILES IDX 15 1 14 2 13 3 12 4 10 5 11 6 9 8 7 9 8 10 86 11 81 12 85 13
REMARK SMILES IDX 80 14 82 15 84 16 83 17 6 18 5 19 1 20 2 21 3 22 88 23 4 24
REMARK SMILES IDX 87 25 16 26 17 27 18 28 19 30 20 31 21 32 79 33 22 34 78 35
REMARK SMILES IDX 23 36 24 37 25 38 72 39 26 40 77 41 71 42 73 43 27 44 76 45
REMARK SMILES IDX 70 46 69 47 28 49 58 50 39 51 57 52 40 53 43 54 56 55 74 56
REMARK SMILES IDX 41 57 42 58 55 60 75 61 44 62 29 63 30 64 38 65 31 66 37 67
REMARK SMILES IDX 32 68 33 69 34 70 35 71 36 72 59 73 60 74 68 75 61 76 67 77
REMARK SMILES IDX 62 78 63 79 64 80 65 81 66 82 45 83 46 84 54 85 47 86 53 87
REMARK SMILES IDX 48 88 49 89 50 90 51 91 52 92
REMARK H PARENT 12 7 17 29 73 48 43 59
REMARK Flexibility Score: inf
ROOT
ATOM      1  C   UNL A   1      36.712  22.261  25.767  1.00  0.00     0.023 C 
ENDROOT
BRANCH   1   2
ATOM      2  C   UNL A   1      35.563  22.355  26.779  1.00  0.00     0.023 C 
BRANCH   2   3
ATOM      3  C   UNL A   1      34.312  21.541  26.414  1.00  0.00     0.116 C 
BRANCH   3   4
ATOM      4  N   UNL A   1      33.110  22.025  27.082  1.00  0.00    -0.351 N 
ATOM      5  C   UNL A   1      32.341  23.148  26.870  1.00  0.00     0.270 C 
ATOM      6  O   UNL A   1      31.332  23.295  27.566  1.00  0.00    -0.268 OA
ATOM      7  H   UNL A   1      32.792  21.448  27.815  1.00  0.00     0.163 HD
BRANCH   5   8
ATOM      8  C   UNL A   1      32.672  24.186  25.839  1.00  0.00     0.132 A 
ATOM      9  C   UNL A   1      33.567  26.321  25.282  1.00  0.00     0.139 A 
ATOM     10  C   UNL A   1      33.264  25.369  26.250  1.00  0.00     0.082 A 
ATOM     11  C   UNL A   1      33.323  26.065  23.915  1.00  0.00     0.043 A 
ATOM     12  C   UNL A   1      32.693  24.842  23.613  1.00  0.00     0.075 A 
ATOM     13  C   UNL A   1      33.651  26.942  22.853  1.00  0.00     0.014 A 
ATOM     14  N   UNL A   1      32.393  23.925  24.543  1.00  0.00    -0.242 NA
ATOM     15  C   UNL A   1      32.354  24.565  22.297  1.00  0.00     0.029 A 
ATOM     16  C   UNL A   1      33.300  26.644  21.538  1.00  0.00     0.001 A 
ATOM     17  C   UNL A   1      32.639  25.456  21.260  1.00  0.00     0.002 A 
BRANCH   9  18
ATOM     18  O   UNL A   1      34.172  27.473  25.741  1.00  0.00    -0.457 OA
BRANCH  18  19
ATOM     19  C   UNL A   1      33.394  28.587  25.983  1.00  0.00     0.127 A 
ATOM     20  C   UNL A   1      31.370  32.300  26.815  1.00  0.00     0.044 C 
ATOM     21  C   UNL A   1      32.061  30.998  26.536  1.00  0.00    -0.051 A 
ATOM     22  C   UNL A   1      33.252  30.680  27.198  1.00  0.00     0.007 A 
ATOM     23  C   UNL A   1      31.516  30.075  25.636  1.00  0.00     0.007 A 
ATOM     24  C   UNL A   1      33.914  29.483  26.921  1.00  0.00     0.047 A 
ATOM     25  C   UNL A   1      32.172  28.870  25.369  1.00  0.00     0.047 A 
ENDBRANCH  18  19
ENDBRANCH   9  18
ENDBRANCH   5   8
ENDBRANCH   3   4
ENDBRANCH   2   3
ENDBRANCH   1   2
BRANCH   1  26
ATOM     26  C   UNL A   1      37.800  23.311  25.968  1.00  0.00     0.116 C 
BRANCH  26  27
ATOM     27  N   UNL A   1      38.885  22.918  26.843  1.00  0.00    -0.352 N 
ATOM     28  C   UNL A   1      39.863  23.748  27.398  1.00  0.00     0.251 C 
ATOM     29  H   UNL A   1      38.939  21.962  27.073  1.00  0.00     0.163 HD
ATOM     30  O   UNL A   1      40.920  23.335  27.789  1.00  0.00    -0.269 OA
BRANCH  28  31
ATOM     31  C   UNL A   1      39.462  25.161  27.630  1.00  0.00     0.039 A 
ATOM     32  C   UNL A   1      40.019  26.123  26.776  1.00  0.00     0.014 A 
ATOM     33  C   UNL A   1      38.801  25.538  28.793  1.00  0.00     0.014 A 
ATOM     34  C   UNL A   1      40.071  27.456  27.182  1.00  0.00     0.010 A 
ATOM     35  C   UNL A   1      38.939  26.841  29.237  1.00  0.00     0.010 A 
ATOM     36  C   UNL A   1      39.617  27.790  28.456  1.00  0.00    -0.014 A 
BRANCH  36  37
ATOM     37  C   UNL A   1      39.868  29.073  29.109  1.00  0.00     0.031 A 
ATOM     38  C   UNL A   1      38.866  30.161  29.035  1.00  0.00     0.074 A 
ATOM     39  C   UNL A   1      40.942  29.227  29.915  1.00  0.00     0.049 A 
ATOM     40  N   UNL A   1      39.097  31.399  29.328  1.00  0.00    -0.248 NA
ATOM     41  C   UNL A   1      37.506  29.931  28.559  1.00  0.00     0.031 C 
ATOM     42  C   UNL A   1      41.124  30.256  30.938  1.00  0.00     0.029 A 
ATOM     43  N   UNL A   1      42.196  28.620  29.828  1.00  0.00    -0.354 N 
ATOM     44  C   UNL A   1      37.877  32.031  29.422  1.00  0.00     0.074 A 
ATOM     45  C   UNL A   1      36.939  31.111  28.822  1.00  0.00     0.031 C 
ATOM     46  C   UNL A   1      42.437  30.419  31.151  1.00  0.00     0.029 A 
ATOM     47  C   UNL A   1      43.132  29.616  30.160  1.00  0.00     0.049 A 
ATOM     48  H   UNL A   1      42.386  27.685  29.585  1.00  0.00     0.167 HD
ATOM     49  C   UNL A   1      37.770  33.192  30.132  1.00  0.00     0.031 A 
ATOM     50  C   UNL A   1      44.093  30.075  29.304  1.00  0.00     0.031 A 
ATOM     51  C   UNL A   1      39.075  33.712  30.556  1.00  0.00     0.049 A 
ATOM     52  C   UNL A   1      44.015  31.568  29.033  1.00  0.00     0.074 A 
ATOM     53  C   UNL A   1      39.738  33.828  31.767  1.00  0.00     0.029 A 
ATOM     54  N   UNL A   1      40.019  34.007  29.583  1.00  0.00    -0.354 N 
ATOM     55  N   UNL A   1      43.134  32.371  29.563  1.00  0.00    -0.248 NA
ATOM     56  C   UNL A   1      44.863  32.252  28.055  1.00  0.00     0.031 C 
ATOM     57  C   UNL A   1      41.090  34.196  31.506  1.00  0.00     0.029 A 
ATOM     58  C   UNL A   1      41.247  34.307  30.138  1.00  0.00     0.049 A 
ATOM     59  H   UNL A   1      39.835  34.003  28.615  1.00  0.00     0.167 HD
ATOM     60  C   UNL A   1      43.228  33.605  28.980  1.00  0.00     0.074 A 
ATOM     61  C   UNL A   1      44.340  33.491  28.055  1.00  0.00     0.031 C 
ATOM     62  C   UNL A   1      42.356  34.617  29.252  1.00  0.00     0.031 A 
BRANCH  49  63
ATOM     63  C   UNL A   1      36.449  33.728  30.659  1.00  0.00    -0.014 A 
ATOM     64  C   UNL A   1      35.426  34.086  29.756  1.00  0.00     0.010 A 
ATOM     65  C   UNL A   1      36.172  33.972  32.018  1.00  0.00     0.010 A 
ATOM     66  C   UNL A   1      34.258  34.749  30.170  1.00  0.00     0.020 A 
ATOM     67  C   UNL A   1      35.029  34.662  32.446  1.00  0.00     0.020 A 
ATOM     68  C   UNL A   1      34.082  35.064  31.515  1.00  0.00     0.054 A 
BRANCH  68  69
ATOM     69  S   UNL A   1      32.623  36.004  32.030  1.00  0.00     0.124 S 
ATOM     70  O   UNL A   1      33.167  36.897  33.050  1.00  0.00    -0.237 OA
ATOM     71  O   UNL A   1      32.207  36.644  30.786  1.00  0.00    -0.237 OA
ATOM     72  O   UNL A   1      31.711  34.979  32.535  1.00  0.00    -0.744 OA
ENDBRANCH  68  69
ENDBRANCH  49  63
BRANCH  50  73
ATOM     73  C   UNL A   1      44.563  29.055  28.326  1.00  0.00    -0.014 A 
ATOM     74  C   UNL A   1      45.494  28.103  28.793  1.00  0.00     0.010 A 
ATOM     75  C   UNL A   1      43.794  28.762  27.186  1.00  0.00     0.010 A 
ATOM     76  C   UNL A   1      45.512  26.814  28.257  1.00  0.00     0.020 A 
ATOM     77  C   UNL A   1      43.819  27.472  26.642  1.00  0.00     0.020 A 
ATOM     78  C   UNL A   1      44.620  26.490  27.235  1.00  0.00     0.054 A 
BRANCH  78  79
ATOM     79  S   UNL A   1      44.368  24.731  26.849  1.00  0.00     0.124 S 
ATOM     80  O   UNL A   1      44.065  24.163  28.159  1.00  0.00    -0.237 OA
ATOM     81  O   UNL A   1      43.246  24.792  25.913  1.00  0.00    -0.237 OA
ATOM     82  O   UNL A   1      45.646  24.332  26.268  1.00  0.00    -0.744 OA
ENDBRANCH  78  79
ENDBRANCH  50  73
BRANCH  62  83
ATOM     83  C   UNL A   1      42.460  35.991  28.650  1.00  0.00    -0.014 A 
ATOM     84  C   UNL A   1      42.020  36.276  27.346  1.00  0.00     0.010 A 
ATOM     85  C   UNL A   1      43.132  37.018  29.348  1.00  0.00     0.010 A 
ATOM     86  C   UNL A   1      42.189  37.550  26.788  1.00  0.00     0.020 A 
ATOM     87  C   UNL A   1      43.323  38.287  28.793  1.00  0.00     0.020 A 
ATOM     88  C   UNL A   1      42.833  38.551  27.521  1.00  0.00     0.054 A 
BRANCH  88  89
ATOM     89  S   UNL A   1      43.076  40.182  26.770  1.00  0.00     0.124 S 
ATOM     90  O   UNL A   1      43.193  41.058  27.934  1.00  0.00    -0.237 OA
ATOM     91  O   UNL A   1      44.306  39.983  26.009  1.00  0.00    -0.237 OA
ATOM     92  O   UNL A   1      41.870  40.379  25.969  1.00  0.00    -0.744 OA
ENDBRANCH  88  89
ENDBRANCH  62  83
ENDBRANCH  36  37
ENDBRANCH  28  31
ENDBRANCH  26  27
ENDBRANCH   1  26
TORSDOF 16
ENDMDL
MODEL 2
REMARK VINA RESULT:     -13.0      4.175     11.221
REMARK SMILES Cc1ccc(Oc2cc(C(=O)NCCCCNC(=O)c3ccc(-c4c5nc(c(-c6ccc(S(=O)(=O)[O-])cc6)c6ccc([nH]6)c(-c6ccc(S(=O)(=O)[O-])cc6)c6nc(c(-c7ccc(S(=O)(=O)[O-])cc7)c7ccc4[nH]7)C=C6)C=C5)cc3)nc3ccccc23)cc1
REMARK SMILES IDX 15 1 14 2 13 3 12 4 10 5 11 6 9 8 7 9 8 10 86 11 81 12 85 13
REMARK SMILES IDX 80 14 82 15 84 16 83 17 6 18 5 19 1 20 2 21 3 22 88 23 4 24
REMARK SMILES IDX 87 25 16 26 17 27 18 28 19 30 20 31 21 32 79 33 22 34 78 35
REMARK SMILES IDX 23 36 24 37 25 38 72 39 26 40 77 41 71 42 73 43 27 44 76 45
REMARK SMILES IDX 70 46 69 47 28 49 58 50 39 51 57 52 40 53 43 54 56 55 74 56
REMARK SMILES IDX 41 57 42 58 55 60 75 61 44 62 29 63 30 64 38 65 31 66 37 67
REMARK SMILES IDX 32 68 33 69 34 70 35 71 36 72 59 73 60 74 68 75 61 76 67 77
REMARK SMILES IDX 62 78 63 79 64 80 65 81 66 82 45 83 46 84 54 85 47 86 53 87
REMARK SMILES IDX 48 88 49 89 50 90 51 91 52 92
REMARK H PARENT 12 7 17 29 73 48 43 59
REMARK Flexibility Score: inf
ROOT
ATOM      1  C   UNL A   1      33.306  29.775  26.056  1.00  0.00     0.023 C 
ENDROOT
BRANCH   1   2
ATOM      2  C   UNL A   1      33.745  29.015  24.798  1.00  0.00     0.023 C 
BRANCH   2   3
ATOM      3  C   UNL A   1      32.613  28.688  23.812  1.00  0.00     0.116 C 
BRANCH   3   4
ATOM      4  N   UNL A   1      33.091  28.036  22.600  1.00  0.00    -0.351 N 
ATOM      5  C   UNL A   1      33.186  26.704  22.261  1.00  0.00     0.270 C 
ATOM      6  O   UNL A   1      33.595  26.426  21.130  1.00  0.00    -0.268 OA
ATOM      7  H   UNL A   1      33.402  28.655  21.901  1.00  0.00     0.163 HD
BRANCH   5   8
ATOM      8  C   UNL A   1      32.813  25.591  23.195  1.00  0.00     0.132 A 
ATOM      9  C   UNL A   1      33.187  23.392  24.029  1.00  0.00     0.139 A 
ATOM     10  C   UNL A   1      33.543  24.415  23.154  1.00  0.00     0.082 A 
ATOM     11  C   UNL A   1      32.144  23.571  24.964  1.00  0.00     0.043 A 
ATOM     12  C   UNL A   1      31.452  24.796  24.899  1.00  0.00     0.075 A 
ATOM     13  C   UNL A   1      31.748  22.616  25.932  1.00  0.00     0.014 A 
ATOM     14  N   UNL A   1      31.787  25.780  24.054  1.00  0.00    -0.242 NA
ATOM     15  C   UNL A   1      30.367  25.002  25.737  1.00  0.00     0.029 A 
ATOM     16  C   UNL A   1      30.654  22.845  26.764  1.00  0.00     0.001 A 
ATOM     17  C   UNL A   1      29.953  24.037  26.657  1.00  0.00     0.002 A 
BRANCH   9  18
ATOM     18  O   UNL A   1      33.957  22.249  23.961  1.00  0.00    -0.457 OA
BRANCH  18  19
ATOM     19  C   UNL A   1      35.202  22.244  24.557  1.00  0.00     0.127 A 
ATOM     20  C   UNL A   1      39.207  21.890  26.109  1.00  0.00     0.044 C 
ATOM     21  C   UNL A   1      37.806  22.014  25.587  1.00  0.00    -0.051 A 
ATOM     22  C   UNL A   1      37.142  20.889  25.087  1.00  0.00     0.007 A 
ATOM     23  C   UNL A   1      37.136  23.242  25.617  1.00  0.00     0.007 A 
ATOM     24  C   UNL A   1      35.848  21.006  24.573  1.00  0.00     0.047 A 
ATOM     25  C   UNL A   1      35.836  23.356  25.116  1.00  0.00     0.047 A 
ENDBRANCH  18  19
ENDBRANCH   9  18
ENDBRANCH   5   8
ENDBRANCH   3   4
ENDBRANCH   2   3
ENDBRANCH   1   2
BRANCH   1  26
ATOM     26  C   UNL A   1      34.330  29.739  27.188  1.00  0.00     0.116 C 
BRANCH  26  27
ATOM     27  N   UNL A   1      35.078  30.963  27.383  1.00  0.00    -0.352 N 
ATOM     28  C   UNL A   1      36.279  31.113  28.082  1.00  0.00     0.251 C 
ATOM     29  H   UNL A   1      34.701  31.778  26.980  1.00  0.00     0.163 HD
ATOM     30  O   UNL A   1      36.646  32.167  28.525  1.00  0.00    -0.269 OA
BRANCH  28  31
ATOM     31  C   UNL A   1      37.168  29.921  28.112  1.00  0.00     0.039 A 
ATOM     32  C   UNL A   1      37.220  29.204  29.315  1.00  0.00     0.014 A 
ATOM     33  C   UNL A   1      38.101  29.696  27.107  1.00  0.00     0.014 A 
ATOM     34  C   UNL A   1      38.319  28.388  29.583  1.00  0.00     0.010 A 
ATOM     35  C   UNL A   1      39.235  28.965  27.413  1.00  0.00     0.010 A 
ATOM     36  C   UNL A   1      39.368  28.351  28.668  1.00  0.00    -0.014 A 
BRANCH  36  37
ATOM     37  C   UNL A   1      40.682  27.773  28.946  1.00  0.00     0.031 A 
ATOM     38  C   UNL A   1      40.965  26.359  28.611  1.00  0.00     0.074 A 
ATOM     39  C   UNL A   1      41.697  28.562  29.364  1.00  0.00     0.049 A 
ATOM     40  N   UNL A   1      41.972  25.682  29.057  1.00  0.00    -0.248 NA
ATOM     41  C   UNL A   1      40.075  25.569  27.767  1.00  0.00     0.031 C 
ATOM     42  C   UNL A   1      43.125  28.255  29.295  1.00  0.00     0.029 A 
ATOM     43  N   UNL A   1      41.643  29.716  30.146  1.00  0.00    -0.354 N 
ATOM     44  C   UNL A   1      42.056  24.531  28.306  1.00  0.00     0.074 A 
ATOM     45  C   UNL A   1      40.794  24.455  27.607  1.00  0.00     0.031 C 
ATOM     46  C   UNL A   1      43.762  28.979  30.226  1.00  0.00     0.029 A 
ATOM     47  C   UNL A   1      42.744  29.645  31.019  1.00  0.00     0.049 A 
ATOM     48  H   UNL A   1      40.971  30.434  30.097  1.00  0.00     0.167 HD
ATOM     49  C   UNL A   1      43.239  23.853  28.238  1.00  0.00     0.031 A 
ATOM     50  C   UNL A   1      42.636  29.584  32.379  1.00  0.00     0.031 A 
ATOM     51  C   UNL A   1      44.241  24.379  29.171  1.00  0.00     0.049 A 
ATOM     52  C   UNL A   1      43.272  28.349  32.994  1.00  0.00     0.074 A 
ATOM     53  C   UNL A   1      45.423  25.090  29.041  1.00  0.00     0.029 A 
ATOM     54  N   UNL A   1      43.945  24.389  30.526  1.00  0.00    -0.354 N 
ATOM     55  N   UNL A   1      43.885  27.418  32.316  1.00  0.00    -0.248 NA
ATOM     56  C   UNL A   1      43.169  28.016  34.416  1.00  0.00     0.031 C 
ATOM     57  C   UNL A   1      45.830  25.526  30.336  1.00  0.00     0.029 A 
ATOM     58  C   UNL A   1      44.898  25.077  31.251  1.00  0.00     0.049 A 
ATOM     59  H   UNL A   1      43.152  23.959  30.921  1.00  0.00     0.167 HD
ATOM     60  C   UNL A   1      44.184  26.370  33.143  1.00  0.00     0.074 A 
ATOM     61  C   UNL A   1      43.735  26.797  34.455  1.00  0.00     0.031 C 
ATOM     62  C   UNL A   1      44.724  25.203  32.688  1.00  0.00     0.031 A 
BRANCH  49  63
ATOM     63  C   UNL A   1      43.568  22.858  27.136  1.00  0.00    -0.014 A 
ATOM     64  C   UNL A   1      42.830  21.661  27.028  1.00  0.00     0.010 A 
ATOM     65  C   UNL A   1      44.629  23.002  26.222  1.00  0.00     0.010 A 
ATOM     66  C   UNL A   1      43.200  20.629  26.148  1.00  0.00     0.020 A 
ATOM     67  C   UNL A   1      45.033  21.971  25.362  1.00  0.00     0.020 A 
ATOM     68  C   UNL A   1      44.324  20.779  25.341  1.00  0.00     0.054 A 
BRANCH  68  69
ATOM     69  S   UNL A   1      44.854  19.410  24.280  1.00  0.00     0.124 S 
ATOM     70  O   UNL A   1      46.295  19.368  24.516  1.00  0.00    -0.237 OA
ATOM     71  O   UNL A   1      44.092  18.286  24.816  1.00  0.00    -0.237 OA
ATOM     72  O   UNL A   1      44.463  19.840  22.939  1.00  0.00    -0.744 OA
ENDBRANCH  68  69
ENDBRANCH  49  63
BRANCH  50  73
ATOM     73  C   UNL A   1      41.437  30.283  32.919  1.00  0.00    -0.014 A 
ATOM     74  C   UNL A   1      41.549  31.674  33.133  1.00  0.00     0.010 A 
ATOM     75  C   UNL A   1      40.161  29.712  32.772  1.00  0.00     0.010 A 
ATOM     76  C   UNL A   1      40.430  32.499  33.002  1.00  0.00     0.020 A 
ATOM     77  C   UNL A   1      39.037  30.539  32.650  1.00  0.00     0.020 A 
ATOM     78  C   UNL A   1      39.197  31.928  32.687  1.00  0.00     0.054 A 
BRANCH  78  79
ATOM     79  S   UNL A   1      37.869  33.030  32.114  1.00  0.00     0.124 S 
ATOM     80  O   UNL A   1      38.417  33.560  30.869  1.00  0.00    -0.237 OA
ATOM     81  O   UNL A   1      36.754  32.095  31.965  1.00  0.00    -0.237 OA
ATOM     82  O   UNL A   1      37.739  33.989  33.205  1.00  0.00    -0.744 OA
ENDBRANCH  78  79
ENDBRANCH  50  73
BRANCH  62  83
ATOM     83  C   UNL A   1      45.091  24.051  33.582  1.00  0.00    -0.014 A 
ATOM     84  C   UNL A   1      46.405  23.840  34.033  1.00  0.00     0.010 A 
ATOM     85  C   UNL A   1      44.131  23.064  33.892  1.00  0.00     0.010 A 
ATOM     86  C   UNL A   1      46.731  22.721  34.812  1.00  0.00     0.020 A 
ATOM     87  C   UNL A   1      44.449  21.935  34.653  1.00  0.00     0.020 A 
ATOM     88  C   UNL A   1      45.746  21.780  35.125  1.00  0.00     0.054 A 
BRANCH  88  89
ATOM     89  S   UNL A   1      46.193  20.321  36.102  1.00  0.00     0.124 S 
ATOM     90  O   UNL A   1      45.785  20.701  37.453  1.00  0.00    -0.237 OA
ATOM     91  O   UNL A   1      45.387  19.279  35.474  1.00  0.00    -0.237 OA
ATOM     92  O   UNL A   1      47.635  20.199  35.905  1.00  0.00    -0.744 OA
ENDBRANCH  88  89
ENDBRANCH  62  83
ENDBRANCH  36  37
ENDBRANCH  28  31
ENDBRANCH  26  27
ENDBRANCH   1  26
TORSDOF 16
ENDMDL
MODEL 3
REMARK VINA RESULT:     -12.9      1.604      2.606
REMARK SMILES Cc1ccc(Oc2cc(C(=O)NCCCCNC(=O)c3ccc(-c4c5nc(c(-c6ccc(S(=O)(=O)[O-])cc6)c6ccc([nH]6)c(-c6ccc(S(=O)(=O)[O-])cc6)c6nc(c(-c7ccc(S(=O)(=O)[O-])cc7)c7ccc4[nH]7)C=C6)C=C5)cc3)nc3ccccc23)cc1
REMARK SMILES IDX 15 1 14 2 13 3 12 4 10 5 11 6 9 8 7 9 8 10 86 11 81 12 85 13
REMARK SMILES IDX 80 14 82 15 84 16 83 17 6 18 5 19 1 20 2 21 3 22 88 23 4 24
REMARK SMILES IDX 87 25 16 26 17 27 18 28 19 30 20 31 21 32 79 33 22 34 78 35
REMARK SMILES IDX 23 36 24 37 25 38 72 39 26 40 77 41 71 42 73 43 27 44 76 45
REMARK SMILES IDX 70 46 69 47 28 49 58 50 39 51 57 52 40 53 43 54 56 55 74 56
REMARK SMILES IDX 41 57 42 58 55 60 75 61 44 62 29 63 30 64 38 65 31 66 37 67
REMARK SMILES IDX 32 68 33 69 34 70 35 71 36 72 59 73 60 74 68 75 61 76 67 77
REMARK SMILES IDX 62 78 63 79 64 80 65 81 66 82 45 83 46 84 54 85 47 86 53 87
REMARK SMILES IDX 48 88 49 89 50 90 51 91 52 92
REMARK H PARENT 12 7 17 29 73 48 43 59
REMARK Flexibility Score: inf
ROOT
ATOM      1  C   UNL A   1      36.530  23.171  26.012  1.00  0.00     0.023 C 
ENDROOT
BRANCH   1   2
ATOM      2  C   UNL A   1      35.551  24.155  25.358  1.00  0.00     0.023 C 
BRANCH   2   3
ATOM      3  C   UNL A   1      34.373  23.500  24.620  1.00  0.00     0.116 C 
BRANCH   3   4
ATOM      4  N   UNL A   1      34.181  24.036  23.278  1.00  0.00    -0.351 N 
ATOM      5  C   UNL A   1      33.668  25.238  22.843  1.00  0.00     0.270 C 
ATOM      6  O   UNL A   1      33.661  25.455  21.628  1.00  0.00    -0.268 OA
ATOM      7  H   UNL A   1      34.469  23.432  22.555  1.00  0.00     0.163 HD
BRANCH   5   8
ATOM      8  C   UNL A   1      33.125  26.282  23.773  1.00  0.00     0.132 A 
ATOM      9  C   UNL A   1      31.270  27.481  24.664  1.00  0.00     0.139 A 
ATOM     10  C   UNL A   1      31.759  26.510  23.794  1.00  0.00     0.082 A 
ATOM     11  C   UNL A   1      32.140  28.176  25.533  1.00  0.00     0.043 A 
ATOM     12  C   UNL A   1      33.512  27.884  25.407  1.00  0.00     0.075 A 
ATOM     13  C   UNL A   1      31.733  29.135  26.492  1.00  0.00     0.014 A 
ATOM     14  N   UNL A   1      33.987  26.956  24.566  1.00  0.00    -0.242 NA
ATOM     15  C   UNL A   1      34.424  28.590  26.176  1.00  0.00     0.029 A 
ATOM     16  C   UNL A   1      32.667  29.833  27.255  1.00  0.00     0.001 A 
ATOM     17  C   UNL A   1      34.019  29.568  27.087  1.00  0.00     0.002 A 
BRANCH   9  18
ATOM     18  O   UNL A   1      29.902  27.656  24.660  1.00  0.00    -0.457 OA
BRANCH  18  19
ATOM     19  C   UNL A   1      29.340  28.516  23.738  1.00  0.00     0.127 A 
ATOM     20  C   UNL A   1      28.028  31.291  20.713  1.00  0.00     0.044 C 
ATOM     21  C   UNL A   1      28.471  30.334  21.778  1.00  0.00    -0.051 A 
ATOM     22  C   UNL A   1      29.687  30.535  22.441  1.00  0.00     0.007 A 
ATOM     23  C   UNL A   1      27.671  29.245  22.144  1.00  0.00     0.007 A 
ATOM     24  C   UNL A   1      30.119  29.630  23.413  1.00  0.00     0.047 A 
ATOM     25  C   UNL A   1      28.096  28.347  23.126  1.00  0.00     0.047 A 
ENDBRANCH  18  19
ENDBRANCH   9  18
ENDBRANCH   5   8
ENDBRANCH   3   4
ENDBRANCH   2   3
ENDBRANCH   1   2
BRANCH   1  26
ATOM     26  C   UNL A   1      37.997  23.468  25.711  1.00  0.00     0.116 C 
BRANCH  26  27
ATOM     27  N   UNL A   1      38.938  23.007  26.710  1.00  0.00    -0.352 N 
ATOM     28  C   UNL A   1      39.854  23.783  27.425  1.00  0.00     0.251 C 
ATOM     29  H   UNL A   1      38.933  22.042  26.906  1.00  0.00     0.163 HD
ATOM     30  O   UNL A   1      40.835  23.320  27.940  1.00  0.00    -0.269 OA
BRANCH  28  31
ATOM     31  C   UNL A   1      39.466  25.199  27.657  1.00  0.00     0.039 A 
ATOM     32  C   UNL A   1      40.046  26.157  26.814  1.00  0.00     0.014 A 
ATOM     33  C   UNL A   1      38.793  25.580  28.811  1.00  0.00     0.014 A 
ATOM     34  C   UNL A   1      40.107  27.488  27.225  1.00  0.00     0.010 A 
ATOM     35  C   UNL A   1      38.940  26.880  29.261  1.00  0.00     0.010 A 
ATOM     36  C   UNL A   1      39.639  27.824  28.493  1.00  0.00    -0.014 A 
BRANCH  36  37
ATOM     37  C   UNL A   1      39.896  29.102  29.154  1.00  0.00     0.031 A 
ATOM     38  C   UNL A   1      38.894  30.191  29.095  1.00  0.00     0.074 A 
ATOM     39  C   UNL A   1      40.975  29.249  29.955  1.00  0.00     0.049 A 
ATOM     40  N   UNL A   1      39.128  31.426  29.396  1.00  0.00    -0.248 NA
ATOM     41  C   UNL A   1      37.531  29.966  28.626  1.00  0.00     0.031 C 
ATOM     42  C   UNL A   1      41.164  30.270  30.984  1.00  0.00     0.029 A 
ATOM     43  N   UNL A   1      42.227  28.642  29.855  1.00  0.00    -0.354 N 
ATOM     44  C   UNL A   1      37.910  32.059  29.502  1.00  0.00     0.074 A 
ATOM     45  C   UNL A   1      36.967  31.145  28.901  1.00  0.00     0.031 C 
ATOM     46  C   UNL A   1      42.479  30.430  31.190  1.00  0.00     0.029 A 
ATOM     47  C   UNL A   1      43.167  29.635  30.188  1.00  0.00     0.049 A 
ATOM     48  H   UNL A   1      42.415  27.709  29.604  1.00  0.00     0.167 HD
ATOM     49  C   UNL A   1      37.808  33.214  30.222  1.00  0.00     0.031 A 
ATOM     50  C   UNL A   1      44.122  30.099  29.329  1.00  0.00     0.031 A 
ATOM     51  C   UNL A   1      39.116  33.730  30.640  1.00  0.00     0.049 A 
ATOM     52  C   UNL A   1      44.044  31.594  29.070  1.00  0.00     0.074 A 
ATOM     53  C   UNL A   1      39.787  33.837  31.848  1.00  0.00     0.029 A 
ATOM     54  N   UNL A   1      40.054  34.032  29.663  1.00  0.00    -0.354 N 
ATOM     55  N   UNL A   1      43.167  32.394  29.612  1.00  0.00    -0.248 NA
ATOM     56  C   UNL A   1      44.887  32.284  28.092  1.00  0.00     0.031 C 
ATOM     57  C   UNL A   1      41.138  34.206  31.581  1.00  0.00     0.029 A 
ATOM     58  C   UNL A   1      41.286  34.327  30.213  1.00  0.00     0.049 A 
ATOM     59  H   UNL A   1      39.863  34.035  28.698  1.00  0.00     0.167 HD
ATOM     60  C   UNL A   1      43.259  33.632  29.038  1.00  0.00     0.074 A 
ATOM     61  C   UNL A   1      44.365  33.523  28.104  1.00  0.00     0.031 C 
ATOM     62  C   UNL A   1      42.389  34.643  29.322  1.00  0.00     0.031 A 
BRANCH  49  63
ATOM     63  C   UNL A   1      36.491  33.748  30.761  1.00  0.00    -0.014 A 
ATOM     64  C   UNL A   1      35.423  34.007  29.877  1.00  0.00     0.010 A 
ATOM     65  C   UNL A   1      36.258  34.083  32.108  1.00  0.00     0.010 A 
ATOM     66  C   UNL A   1      34.250  34.663  30.288  1.00  0.00     0.020 A 
ATOM     67  C   UNL A   1      35.110  34.768  32.532  1.00  0.00     0.020 A 
ATOM     68  C   UNL A   1      34.115  35.071  31.613  1.00  0.00     0.054 A 
BRANCH  68  69
ATOM     69  S   UNL A   1      32.646  36.002  32.117  1.00  0.00     0.124 S 
ATOM     70  O   UNL A   1      33.151  36.814  33.221  1.00  0.00    -0.237 OA
ATOM     71  O   UNL A   1      32.305  36.732  30.899  1.00  0.00    -0.237 OA
ATOM     72  O   UNL A   1      31.694  34.963  32.504  1.00  0.00    -0.744 OA
ENDBRANCH  68  69
ENDBRANCH  49  63
BRANCH  50  73
ATOM     73  C   UNL A   1      44.585  29.086  28.341  1.00  0.00    -0.014 A 
ATOM     74  C   UNL A   1      45.472  28.092  28.810  1.00  0.00     0.010 A 
ATOM     75  C   UNL A   1      43.839  28.845  27.174  1.00  0.00     0.010 A 
ATOM     76  C   UNL A   1      45.461  26.816  28.245  1.00  0.00     0.020 A 
ATOM     77  C   UNL A   1      43.837  27.567  26.601  1.00  0.00     0.020 A 
ATOM     78  C   UNL A   1      44.588  26.545  27.192  1.00  0.00     0.054 A 
BRANCH  78  79
ATOM     79  S   UNL A   1      44.288  24.805  26.758  1.00  0.00     0.124 S 
ATOM     80  O   UNL A   1      44.017  24.200  28.058  1.00  0.00    -0.237 OA
ATOM     81  O   UNL A   1      43.138  24.918  25.863  1.00  0.00    -0.237 OA
ATOM     82  O   UNL A   1      45.538  24.401  26.123  1.00  0.00    -0.744 OA
ENDBRANCH  78  79
ENDBRANCH  50  73
BRANCH  62  83
ATOM     83  C   UNL A   1      42.491  36.021  28.730  1.00  0.00    -0.014 A 
ATOM     84  C   UNL A   1      43.030  37.106  29.441  1.00  0.00     0.010 A 
ATOM     85  C   UNL A   1      41.920  36.290  27.467  1.00  0.00     0.010 A 
ATOM     86  C   UNL A   1      43.053  38.394  28.887  1.00  0.00     0.020 A 
ATOM     87  C   UNL A   1      41.921  37.574  26.913  1.00  0.00     0.020 A 
ATOM     88  C   UNL A   1      42.505  38.617  27.621  1.00  0.00     0.054 A 
BRANCH  88  89
ATOM     89  S   UNL A   1      42.510  40.294  26.936  1.00  0.00     0.124 S 
ATOM     90  O   UNL A   1      43.447  40.183  25.820  1.00  0.00    -0.237 OA
ATOM     91  O   UNL A   1      41.110  40.471  26.563  1.00  0.00    -0.237 OA
ATOM     92  O   UNL A   1      42.970  41.122  28.048  1.00  0.00    -0.744 OA
ENDBRANCH  88  89
ENDBRANCH  62  83
ENDBRANCH  36  37
ENDBRANCH  28  31
ENDBRANCH  26  27
ENDBRANCH   1  26
TORSDOF 16
ENDMDL
