MODEL 1
REMARK VINA RESULT:     -11.0      0.000      0.000
REMARK SMILES CCCCCCNC(=O)Oc1cccc(-c2ccc([C@H](C)C(=O)NCCCCNC(=O)c3ccc(-c4c5nc(c(-c6ccc(S(=O)(=O)[O-])cc6)c6ccc([nH]6)c(-c6ccc(S(=O)(=O)[O-])cc6)c6nc(c(-c7ccc(S(=O)(=O)[O-])cc7)c7ccc4[nH]7)C=C6)C=C5)cc3)cc2F)c1
REMARK SMILES IDX 20 1 21 2 19 3 16 4 17 5 93 6 18 7 92 8 94 9 15 10 11 11
REMARK SMILES IDX 12 12 95 13 13 14 14 15 10 16 8 17 7 18 9 20 6 21 5 22 4 23
REMARK SMILES IDX 3 24 2 25 1 26 22 27 23 28 24 29 25 31 26 32 27 33 28 34
REMARK SMILES IDX 29 35 30 36 31 38 32 39 33 40 91 41 34 42 90 43 35 44 36 45
REMARK SMILES IDX 37 46 84 47 38 48 89 49 83 50 85 51 39 52 88 53 82 54 81 55
REMARK SMILES IDX 40 57 70 58 51 59 69 60 52 61 55 62 68 63 86 64 53 65 54 66
REMARK SMILES IDX 67 68 87 69 56 70 41 71 42 72 50 73 43 74 49 75 44 76 45 77
REMARK SMILES IDX 46 78 47 79 48 80 71 81 72 82 80 83 73 84 79 85 74 86 75 87
REMARK SMILES IDX 76 88 77 89 78 90 57 91 58 92 66 93 59 94 65 95 60 96 61 97
REMARK SMILES IDX 62 98 63 99 64 100
REMARK H PARENT 7 19 24 30 29 37 85 56 55 67
REMARK Flexibility Score: inf
ROOT
ATOM      1  C   UNL A   1      33.342  21.511  24.796  1.00  0.00     0.105 C 
ATOM      2  C   UNL A   1      32.514  20.239  24.559  1.00  0.00     0.023 C 
ENDROOT
BRANCH   1   3
ATOM      3  C   UNL A   1      32.551  22.800  24.603  1.00  0.00    -0.033 A 
ATOM      4  C   UNL A   1      30.940  25.109  24.097  1.00  0.00     0.018 A 
ATOM      5  C   UNL A   1      30.969  24.495  25.357  1.00  0.00     0.012 A 
ATOM      6  C   UNL A   1      31.799  24.582  23.122  1.00  0.00     0.131 A 
ATOM      7  C   UNL A   1      31.787  23.391  25.615  1.00  0.00     0.005 A 
ATOM      8  C   UNL A   1      32.583  23.450  23.361  1.00  0.00     0.044 A 
ATOM      9  F   UNL A   1      31.888  25.154  21.911  1.00  0.00    -0.206 F 
BRANCH   4  10
ATOM     10  C   UNL A   1      30.015  26.227  23.826  1.00  0.00    -0.012 A 
ATOM     11  C   UNL A   1      29.597  28.476  23.006  1.00  0.00     0.133 A 
ATOM     12  C   UNL A   1      28.228  28.333  23.207  1.00  0.00     0.047 A 
ATOM     13  C   UNL A   1      30.487  27.448  23.319  1.00  0.00     0.056 A 
ATOM     14  C   UNL A   1      27.740  27.132  23.710  1.00  0.00     0.004 A 
ATOM     15  C   UNL A   1      28.625  26.094  24.020  1.00  0.00     0.009 A 
BRANCH  11  16
ATOM     16  O   UNL A   1      30.053  29.734  22.588  1.00  0.00    -0.410 OA
BRANCH  16  17
ATOM     17  C   UNL A   1      29.515  30.860  23.189  1.00  0.00     0.412 C 
ATOM     18  N   UNL A   1      30.056  31.119  24.416  1.00  0.00    -0.321 N 
ATOM     19  H   UNL A   1      29.693  31.893  24.905  1.00  0.00     0.167 HD
ATOM     20  O   UNL A   1      28.637  31.584  22.725  1.00  0.00    -0.224 OA
BRANCH  18  21
ATOM     21  C   UNL A   1      31.109  30.369  25.069  1.00  0.00     0.119 C 
BRANCH  21  22
ATOM     22  C   UNL A   1      31.622  31.082  26.321  1.00  0.00     0.021 C 
BRANCH  22  23
ATOM     23  C   UNL A   1      32.857  30.437  26.964  1.00  0.00     0.002 C 
BRANCH  23  24
ATOM     24  C   UNL A   1      32.799  28.913  27.113  1.00  0.00    -0.000 C 
BRANCH  24  25
ATOM     25  C   UNL A   1      34.032  28.158  26.610  1.00  0.00    -0.003 C 
ATOM     26  C   UNL A   1      33.689  26.968  25.728  1.00  0.00     0.004 C 
ENDBRANCH  24  25
ENDBRANCH  23  24
ENDBRANCH  22  23
ENDBRANCH  21  22
ENDBRANCH  18  21
ENDBRANCH  16  17
ENDBRANCH  11  16
ENDBRANCH   4  10
ENDBRANCH   1   3
BRANCH   1  27
ATOM     27  C   UNL A   1      34.154  21.393  26.088  1.00  0.00     0.227 C 
ATOM     28  O   UNL A   1      33.583  21.363  27.183  1.00  0.00    -0.274 OA
ATOM     29  N   UNL A   1      35.516  21.338  26.095  1.00  0.00    -0.356 N 
ATOM     30  H   UNL A   1      35.929  21.419  26.985  1.00  0.00     0.163 HD
BRANCH  29  31
ATOM     31  C   UNL A   1      36.458  21.182  24.999  1.00  0.00     0.116 C 
BRANCH  31  32
ATOM     32  C   UNL A   1      37.577  22.213  25.043  1.00  0.00     0.023 C 
BRANCH  32  33
ATOM     33  C   UNL A   1      37.171  23.566  25.629  1.00  0.00     0.023 C 
BRANCH  33  34
ATOM     34  C   UNL A   1      38.168  24.185  26.605  1.00  0.00     0.116 C 
BRANCH  34  35
ATOM     35  N   UNL A   1      39.540  24.141  26.122  1.00  0.00    -0.352 N 
ATOM     36  C   UNL A   1      40.593  24.966  26.445  1.00  0.00     0.251 C 
ATOM     37  H   UNL A   1      39.744  23.424  25.480  1.00  0.00     0.163 HD
ATOM     38  O   UNL A   1      41.658  24.878  25.843  1.00  0.00    -0.269 OA
BRANCH  36  39
ATOM     39  C   UNL A   1      40.413  25.985  27.500  1.00  0.00     0.039 A 
ATOM     40  C   UNL A   1      39.507  25.740  28.533  1.00  0.00     0.014 A 
ATOM     41  C   UNL A   1      41.179  27.154  27.491  1.00  0.00     0.014 A 
ATOM     42  C   UNL A   1      39.424  26.635  29.602  1.00  0.00     0.010 A 
ATOM     43  C   UNL A   1      41.149  28.003  28.592  1.00  0.00     0.010 A 
ATOM     44  C   UNL A   1      40.275  27.751  29.662  1.00  0.00    -0.014 A 
BRANCH  44  45
ATOM     45  C   UNL A   1      40.272  28.665  30.833  1.00  0.00     0.031 A 
ATOM     46  C   UNL A   1      39.317  29.828  30.878  1.00  0.00     0.074 A 
ATOM     47  C   UNL A   1      41.171  28.490  31.824  1.00  0.00     0.049 A 
ATOM     48  N   UNL A   1      39.216  30.777  31.771  1.00  0.00    -0.248 NA
ATOM     49  C   UNL A   1      38.366  29.952  29.760  1.00  0.00     0.031 C 
ATOM     50  C   UNL A   1      42.174  27.423  31.882  1.00  0.00     0.029 A 
ATOM     51  N   UNL A   1      41.392  29.212  32.971  1.00  0.00    -0.354 N 
ATOM     52  C   UNL A   1      38.206  31.617  31.318  1.00  0.00     0.074 A 
ATOM     53  C   UNL A   1      37.760  31.096  30.045  1.00  0.00     0.031 C 
ATOM     54  C   UNL A   1      42.884  27.546  33.016  1.00  0.00     0.029 A 
ATOM     55  C   UNL A   1      42.420  28.723  33.744  1.00  0.00     0.049 A 
ATOM     56  H   UNL A   1      40.864  30.005  33.218  1.00  0.00     0.167 HD
ATOM     57  C   UNL A   1      37.679  32.712  31.917  1.00  0.00     0.031 A 
ATOM     58  C   UNL A   1      42.938  29.176  34.903  1.00  0.00     0.031 A 
ATOM     59  C   UNL A   1      38.114  33.221  33.190  1.00  0.00     0.049 A 
ATOM     60  C   UNL A   1      42.347  30.407  35.538  1.00  0.00     0.074 A 
ATOM     61  C   UNL A   1      37.611  34.297  33.902  1.00  0.00     0.029 A 
ATOM     62  N   UNL A   1      39.149  32.690  33.944  1.00  0.00    -0.354 N 
ATOM     63  N   UNL A   1      41.353  31.154  35.120  1.00  0.00    -0.248 NA
ATOM     64  C   UNL A   1      42.942  30.851  36.807  1.00  0.00     0.031 C 
ATOM     65  C   UNL A   1      38.376  34.448  35.063  1.00  0.00     0.029 A 
ATOM     66  C   UNL A   1      39.314  33.428  35.104  1.00  0.00     0.049 A 
ATOM     67  H   UNL A   1      39.687  31.906  33.692  1.00  0.00     0.167 HD
ATOM     68  C   UNL A   1      41.181  32.133  36.093  1.00  0.00     0.074 A 
ATOM     69  C   UNL A   1      42.165  31.877  37.124  1.00  0.00     0.031 C 
ATOM     70  C   UNL A   1      40.289  33.153  36.129  1.00  0.00     0.031 A 
BRANCH  57  71
ATOM     71  C   UNL A   1      36.565  33.431  31.204  1.00  0.00    -0.014 A 
ATOM     72  C   UNL A   1      36.732  33.898  29.888  1.00  0.00     0.010 A 
ATOM     73  C   UNL A   1      35.317  33.590  31.833  1.00  0.00     0.010 A 
ATOM     74  C   UNL A   1      35.682  34.541  29.226  1.00  0.00     0.020 A 
ATOM     75  C   UNL A   1      34.255  34.205  31.164  1.00  0.00     0.020 A 
ATOM     76  C   UNL A   1      34.449  34.688  29.868  1.00  0.00     0.054 A 
BRANCH  76  77
ATOM     77  S   UNL A   1      33.093  35.488  28.968  1.00  0.00     0.124 S 
ATOM     78  O   UNL A   1      32.303  36.058  30.057  1.00  0.00    -0.237 OA
ATOM     79  O   UNL A   1      33.795  36.456  28.128  1.00  0.00    -0.237 OA
ATOM     80  O   UNL A   1      32.457  34.389  28.247  1.00  0.00    -0.744 OA
ENDBRANCH  76  77
ENDBRANCH  57  71
BRANCH  58  81
ATOM     81  C   UNL A   1      44.076  28.461  35.548  1.00  0.00    -0.014 A 
ATOM     82  C   UNL A   1      43.840  27.450  36.497  1.00  0.00     0.010 A 
ATOM     83  C   UNL A   1      45.402  28.802  35.231  1.00  0.00     0.010 A 
ATOM     84  C   UNL A   1      44.907  26.816  37.140  1.00  0.00     0.020 A 
ATOM     85  C   UNL A   1      46.474  28.148  35.848  1.00  0.00     0.020 A 
ATOM     86  C   UNL A   1      46.218  27.172  36.812  1.00  0.00     0.054 A 
BRANCH  86  87
ATOM     87  S   UNL A   1      47.589  26.319  37.641  1.00  0.00     0.124 S 
ATOM     88  O   UNL A   1      48.040  27.327  38.595  1.00  0.00    -0.237 OA
ATOM     89  O   UNL A   1      46.931  25.150  38.218  1.00  0.00    -0.237 OA
ATOM     90  O   UNL A   1      48.518  26.027  36.551  1.00  0.00    -0.744 OA
ENDBRANCH  86  87
ENDBRANCH  58  81
BRANCH  70  91
ATOM     91  C   UNL A   1      40.294  34.041  37.344  1.00  0.00    -0.014 A 
ATOM     92  C   UNL A   1      41.076  35.209  37.395  1.00  0.00     0.010 A 
ATOM     93  C   UNL A   1      39.450  33.733  38.427  1.00  0.00     0.010 A 
ATOM     94  C   UNL A   1      41.034  36.036  38.521  1.00  0.00     0.020 A 
ATOM     95  C   UNL A   1      39.384  34.573  39.541  1.00  0.00     0.020 A 
ATOM     96  C   UNL A   1      40.188  35.714  39.586  1.00  0.00     0.054 A 
BRANCH  96  97
ATOM     97  S   UNL A   1      40.114  36.832  41.012  1.00  0.00     0.124 S 
ATOM     98  O   UNL A   1      40.302  38.137  40.386  1.00  0.00    -0.237 OA
ATOM     99  O   UNL A   1      38.778  36.579  41.548  1.00  0.00    -0.237 OA
ATOM    100  O   UNL A   1      41.214  36.383  41.863  1.00  0.00    -0.744 OA
ENDBRANCH  96  97
ENDBRANCH  70  91
ENDBRANCH  44  45
ENDBRANCH  36  39
ENDBRANCH  34  35
ENDBRANCH  33  34
ENDBRANCH  32  33
ENDBRANCH  31  32
ENDBRANCH  29  31
ENDBRANCH   1  27
TORSDOF 23
ENDMDL
MODEL 2
REMARK VINA RESULT:     -10.8      6.252     10.346
REMARK SMILES CCCCCCNC(=O)Oc1cccc(-c2ccc([C@H](C)C(=O)NCCCCNC(=O)c3ccc(-c4c5nc(c(-c6ccc(S(=O)(=O)[O-])cc6)c6ccc([nH]6)c(-c6ccc(S(=O)(=O)[O-])cc6)c6nc(c(-c7ccc(S(=O)(=O)[O-])cc7)c7ccc4[nH]7)C=C6)C=C5)cc3)cc2F)c1
REMARK SMILES IDX 20 1 21 2 19 3 16 4 17 5 93 6 18 7 92 8 94 9 15 10 11 11
REMARK SMILES IDX 12 12 95 13 13 14 14 15 10 16 8 17 7 18 9 20 6 21 5 22 4 23
REMARK SMILES IDX 3 24 2 25 1 26 22 27 23 28 24 29 25 31 26 32 27 33 28 34
REMARK SMILES IDX 29 35 30 36 31 38 32 39 33 40 91 41 34 42 90 43 35 44 36 45
REMARK SMILES IDX 37 46 84 47 38 48 89 49 83 50 85 51 39 52 88 53 82 54 81 55
REMARK SMILES IDX 40 57 70 58 51 59 69 60 52 61 55 62 68 63 86 64 53 65 54 66
REMARK SMILES IDX 67 68 87 69 56 70 41 71 42 72 50 73 43 74 49 75 44 76 45 77
REMARK SMILES IDX 46 78 47 79 48 80 71 81 72 82 80 83 73 84 79 85 74 86 75 87
REMARK SMILES IDX 76 88 77 89 78 90 57 91 58 92 66 93 59 94 65 95 60 96 61 97
REMARK SMILES IDX 62 98 63 99 64 100
REMARK H PARENT 7 19 24 30 29 37 85 56 55 67
REMARK Flexibility Score: inf
ROOT
ATOM      1  C   UNL A   1      33.761  22.085  24.044  1.00  0.00     0.105 C 
ATOM      2  C   UNL A   1      32.540  21.518  23.303  1.00  0.00     0.023 C 
ENDROOT
BRANCH   1   3
ATOM      3  C   UNL A   1      33.587  23.532  24.491  1.00  0.00    -0.033 A 
ATOM      4  C   UNL A   1      33.094  26.264  25.183  1.00  0.00     0.018 A 
ATOM      5  C   UNL A   1      32.901  25.226  26.106  1.00  0.00     0.012 A 
ATOM      6  C   UNL A   1      33.614  25.903  23.932  1.00  0.00     0.131 A 
ATOM      7  C   UNL A   1      33.180  23.895  25.779  1.00  0.00     0.005 A 
ATOM      8  C   UNL A   1      33.849  24.570  23.585  1.00  0.00     0.044 A 
ATOM      9  F   UNL A   1      33.897  26.842  23.015  1.00  0.00    -0.206 F 
BRANCH   4  10
ATOM     10  C   UNL A   1      32.723  27.651  25.524  1.00  0.00    -0.012 A 
ATOM     11  C   UNL A   1      33.098  29.691  26.791  1.00  0.00     0.133 A 
ATOM     12  C   UNL A   1      32.081  30.346  26.104  1.00  0.00     0.047 A 
ATOM     13  C   UNL A   1      33.414  28.359  26.520  1.00  0.00     0.056 A 
ATOM     14  C   UNL A   1      31.382  29.662  25.116  1.00  0.00     0.004 A 
ATOM     15  C   UNL A   1      31.698  28.329  24.834  1.00  0.00     0.009 A 
BRANCH  11  16
ATOM     16  O   UNL A   1      33.711  30.387  27.843  1.00  0.00    -0.410 OA
BRANCH  16  17
ATOM     17  C   UNL A   1      35.002  30.852  27.655  1.00  0.00     0.412 C 
ATOM     18  N   UNL A   1      35.102  32.209  27.765  1.00  0.00    -0.321 N 
ATOM     19  H   UNL A   1      35.992  32.602  27.615  1.00  0.00     0.167 HD
ATOM     20  O   UNL A   1      35.993  30.169  27.404  1.00  0.00    -0.224 OA
BRANCH  18  21
ATOM     21  C   UNL A   1      34.028  33.129  28.081  1.00  0.00     0.119 C 
BRANCH  21  22
ATOM     22  C   UNL A   1      34.487  34.585  28.008  1.00  0.00     0.021 C 
BRANCH  22  23
ATOM     23  C   UNL A   1      33.715  35.546  28.922  1.00  0.00     0.002 C 
BRANCH  23  24
ATOM     24  C   UNL A   1      33.319  34.977  30.289  1.00  0.00    -0.000 C 
BRANCH  24  25
ATOM     25  C   UNL A   1      34.438  34.938  31.332  1.00  0.00    -0.003 C 
ATOM     26  C   UNL A   1      33.998  34.348  32.663  1.00  0.00     0.004 C 
ENDBRANCH  24  25
ENDBRANCH  23  24
ENDBRANCH  22  23
ENDBRANCH  21  22
ENDBRANCH  18  21
ENDBRANCH  16  17
ENDBRANCH  11  16
ENDBRANCH   4  10
ENDBRANCH   1   3
BRANCH   1  27
ATOM     27  C   UNL A   1      34.255  21.097  25.103  1.00  0.00     0.227 C 
ATOM     28  O   UNL A   1      33.449  20.425  25.754  1.00  0.00    -0.274 OA
ATOM     29  N   UNL A   1      35.578  20.929  25.388  1.00  0.00    -0.356 N 
ATOM     30  H   UNL A   1      35.763  20.385  26.187  1.00  0.00     0.163 HD
BRANCH  29  31
ATOM     31  C   UNL A   1      36.759  21.426  24.702  1.00  0.00     0.116 C 
BRANCH  31  32
ATOM     32  C   UNL A   1      38.021  20.674  25.100  1.00  0.00     0.023 C 
BRANCH  32  33
ATOM     33  C   UNL A   1      39.086  21.535  25.782  1.00  0.00     0.023 C 
BRANCH  33  34
ATOM     34  C   UNL A   1      39.957  20.814  26.807  1.00  0.00     0.116 C 
BRANCH  34  35
ATOM     35  N   UNL A   1      40.871  19.855  26.204  1.00  0.00    -0.352 N 
ATOM     36  C   UNL A   1      42.164  20.049  25.776  1.00  0.00     0.251 C 
ATOM     37  H   UNL A   1      40.517  18.943  26.087  1.00  0.00     0.163 HD
ATOM     38  O   UNL A   1      42.754  19.167  25.163  1.00  0.00    -0.269 OA
BRANCH  36  39
ATOM     39  C   UNL A   1      42.821  21.348  26.034  1.00  0.00     0.039 A 
ATOM     40  C   UNL A   1      42.902  22.284  25.001  1.00  0.00     0.014 A 
ATOM     41  C   UNL A   1      43.307  21.654  27.308  1.00  0.00     0.014 A 
ATOM     42  C   UNL A   1      43.403  23.560  25.268  1.00  0.00     0.010 A 
ATOM     43  C   UNL A   1      43.733  22.948  27.588  1.00  0.00     0.010 A 
ATOM     44  C   UNL A   1      43.782  23.916  26.573  1.00  0.00    -0.014 A 
BRANCH  44  45
ATOM     45  C   UNL A   1      44.229  25.295  26.900  1.00  0.00     0.031 A 
ATOM     46  C   UNL A   1      45.656  25.703  26.649  1.00  0.00     0.074 A 
ATOM     47  C   UNL A   1      43.371  26.158  27.483  1.00  0.00     0.049 A 
ATOM     48  N   UNL A   1      46.254  26.829  26.940  1.00  0.00    -0.248 NA
ATOM     49  C   UNL A   1      46.532  24.706  26.011  1.00  0.00     0.031 C 
ATOM     50  C   UNL A   1      41.971  25.873  27.811  1.00  0.00     0.029 A 
ATOM     51  N   UNL A   1      43.552  27.450  27.911  1.00  0.00    -0.354 N 
ATOM     52  C   UNL A   1      47.573  26.673  26.535  1.00  0.00     0.074 A 
ATOM     53  C   UNL A   1      47.704  25.325  26.026  1.00  0.00     0.031 C 
ATOM     54  C   UNL A   1      41.417  26.965  28.364  1.00  0.00     0.029 A 
ATOM     55  C   UNL A   1      42.428  28.012  28.472  1.00  0.00     0.049 A 
ATOM     56  H   UNL A   1      44.407  27.931  27.823  1.00  0.00     0.167 HD
ATOM     57  C   UNL A   1      48.583  27.575  26.560  1.00  0.00     0.031 A 
ATOM     58  C   UNL A   1      42.235  29.227  29.020  1.00  0.00     0.031 A 
ATOM     59  C   UNL A   1      48.448  28.920  27.053  1.00  0.00     0.049 A 
ATOM     60  C   UNL A   1      43.380  30.206  29.056  1.00  0.00     0.074 A 
ATOM     61  C   UNL A   1      49.401  29.924  27.080  1.00  0.00     0.029 A 
ATOM     62  N   UNL A   1      47.291  29.451  27.602  1.00  0.00    -0.354 N 
ATOM     63  N   UNL A   1      44.606  30.055  28.614  1.00  0.00    -0.248 NA
ATOM     64  C   UNL A   1      43.111  31.521  29.654  1.00  0.00     0.031 C 
ATOM     65  C   UNL A   1      48.834  31.047  27.691  1.00  0.00     0.029 A 
ATOM     66  C   UNL A   1      47.511  30.762  27.988  1.00  0.00     0.049 A 
ATOM     67  H   UNL A   1      46.440  28.967  27.703  1.00  0.00     0.167 HD
ATOM     68  C   UNL A   1      45.243  31.269  28.849  1.00  0.00     0.074 A 
ATOM     69  C   UNL A   1      44.265  32.145  29.460  1.00  0.00     0.031 C 
ATOM     70  C   UNL A   1      46.523  31.626  28.584  1.00  0.00     0.031 A 
BRANCH  57  71
ATOM     71  C   UNL A   1      49.925  27.140  26.033  1.00  0.00    -0.014 A 
ATOM     72  C   UNL A   1      50.334  27.477  24.730  1.00  0.00     0.010 A 
ATOM     73  C   UNL A   1      50.812  26.438  26.869  1.00  0.00     0.010 A 
ATOM     74  C   UNL A   1      51.593  27.091  24.261  1.00  0.00     0.020 A 
ATOM     75  C   UNL A   1      52.084  26.076  26.414  1.00  0.00     0.020 A 
ATOM     76  C   UNL A   1      52.460  26.395  25.108  1.00  0.00     0.054 A 
BRANCH  76  77
ATOM     77  S   UNL A   1      54.103  25.945  24.484  1.00  0.00     0.124 S 
ATOM     78  O   UNL A   1      54.981  26.672  25.398  1.00  0.00    -0.237 OA
ATOM     79  O   UNL A   1      54.112  24.492  24.628  1.00  0.00    -0.237 OA
ATOM     80  O   UNL A   1      54.098  26.431  23.107  1.00  0.00    -0.744 OA
ENDBRANCH  76  77
ENDBRANCH  57  71
BRANCH  58  81
ATOM     81  C   UNL A   1      40.903  29.598  29.577  1.00  0.00    -0.014 A 
ATOM     82  C   UNL A   1      40.629  29.430  30.946  1.00  0.00     0.010 A 
ATOM     83  C   UNL A   1      39.895  30.104  28.737  1.00  0.00     0.010 A 
ATOM     84  C   UNL A   1      39.363  29.730  31.458  1.00  0.00     0.020 A 
ATOM     85  C   UNL A   1      38.638  30.436  29.251  1.00  0.00     0.020 A 
ATOM     86  C   UNL A   1      38.374  30.229  30.606  1.00  0.00     0.054 A 
BRANCH  86  87
ATOM     87  S   UNL A   1      36.746  30.634  31.297  1.00  0.00     0.124 S 
ATOM     88  O   UNL A   1      36.410  31.861  30.582  1.00  0.00    -0.237 OA
ATOM     89  O   UNL A   1      35.953  29.459  30.947  1.00  0.00    -0.237 OA
ATOM     90  O   UNL A   1      37.013  30.794  32.726  1.00  0.00    -0.744 OA
ENDBRANCH  86  87
ENDBRANCH  58  81
BRANCH  70  91
ATOM     91  C   UNL A   1      46.933  33.039  28.900  1.00  0.00    -0.014 A 
ATOM     92  C   UNL A   1      46.768  34.077  27.966  1.00  0.00     0.010 A 
ATOM     93  C   UNL A   1      47.432  33.343  30.181  1.00  0.00     0.010 A 
ATOM     94  C   UNL A   1      47.121  35.388  28.299  1.00  0.00     0.020 A 
ATOM     95  C   UNL A   1      47.759  34.656  30.526  1.00  0.00     0.020 A 
ATOM     96  C   UNL A   1      47.614  35.669  29.576  1.00  0.00     0.054 A 
BRANCH  96  97
ATOM     97  S   UNL A   1      48.017  37.386  29.999  1.00  0.00     0.124 S 
ATOM     98  O   UNL A   1      49.473  37.343  30.094  1.00  0.00    -0.237 OA
ATOM     99  O   UNL A   1      47.483  38.130  28.860  1.00  0.00    -0.237 OA
ATOM    100  O   UNL A   1      47.316  37.607  31.262  1.00  0.00    -0.744 OA
ENDBRANCH  96  97
ENDBRANCH  70  91
ENDBRANCH  44  45
ENDBRANCH  36  39
ENDBRANCH  34  35
ENDBRANCH  33  34
ENDBRANCH  32  33
ENDBRANCH  31  32
ENDBRANCH  29  31
ENDBRANCH   1  27
TORSDOF 23
ENDMDL
MODEL 3
REMARK VINA RESULT:     -10.8      4.958      8.864
REMARK SMILES CCCCCCNC(=O)Oc1cccc(-c2ccc([C@H](C)C(=O)NCCCCNC(=O)c3ccc(-c4c5nc(c(-c6ccc(S(=O)(=O)[O-])cc6)c6ccc([nH]6)c(-c6ccc(S(=O)(=O)[O-])cc6)c6nc(c(-c7ccc(S(=O)(=O)[O-])cc7)c7ccc4[nH]7)C=C6)C=C5)cc3)cc2F)c1
REMARK SMILES IDX 20 1 21 2 19 3 16 4 17 5 93 6 18 7 92 8 94 9 15 10 11 11
REMARK SMILES IDX 12 12 95 13 13 14 14 15 10 16 8 17 7 18 9 20 6 21 5 22 4 23
REMARK SMILES IDX 3 24 2 25 1 26 22 27 23 28 24 29 25 31 26 32 27 33 28 34
REMARK SMILES IDX 29 35 30 36 31 38 32 39 33 40 91 41 34 42 90 43 35 44 36 45
REMARK SMILES IDX 37 46 84 47 38 48 89 49 83 50 85 51 39 52 88 53 82 54 81 55
REMARK SMILES IDX 40 57 70 58 51 59 69 60 52 61 55 62 68 63 86 64 53 65 54 66
REMARK SMILES IDX 67 68 87 69 56 70 41 71 42 72 50 73 43 74 49 75 44 76 45 77
REMARK SMILES IDX 46 78 47 79 48 80 71 81 72 82 80 83 73 84 79 85 74 86 75 87
REMARK SMILES IDX 76 88 77 89 78 90 57 91 58 92 66 93 59 94 65 95 60 96 61 97
REMARK SMILES IDX 62 98 63 99 64 100
REMARK H PARENT 7 19 24 30 29 37 85 56 55 67
REMARK Flexibility Score: inf
ROOT
ATOM      1  C   UNL A   1      32.930  20.788  23.382  1.00  0.00     0.105 C 
ATOM      2  C   UNL A   1      32.001  20.086  22.380  1.00  0.00     0.023 C 
ENDROOT
BRANCH   1   3
ATOM      3  C   UNL A   1      32.606  22.264  23.585  1.00  0.00    -0.033 A 
ATOM      4  C   UNL A   1      31.889  25.027  23.771  1.00  0.00     0.018 A 
ATOM      5  C   UNL A   1      31.419  24.082  24.694  1.00  0.00     0.012 A 
ATOM      6  C   UNL A   1      32.789  24.563  22.801  1.00  0.00     0.131 A 
ATOM      7  C   UNL A   1      31.802  22.739  24.626  1.00  0.00     0.005 A 
ATOM      8  C   UNL A   1      33.137  23.214  22.700  1.00  0.00     0.044 A 
ATOM      9  F   UNL A   1      33.344  25.414  21.923  1.00  0.00    -0.206 F 
BRANCH   4  10
ATOM     10  C   UNL A   1      31.415  26.423  23.817  1.00  0.00    -0.012 A 
ATOM     11  C   UNL A   1      31.789  28.770  24.330  1.00  0.00     0.133 A 
ATOM     12  C   UNL A   1      30.547  29.118  23.810  1.00  0.00     0.047 A 
ATOM     13  C   UNL A   1      32.220  27.443  24.349  1.00  0.00     0.056 A 
ATOM     14  C   UNL A   1      29.732  28.123  23.280  1.00  0.00     0.004 A 
ATOM     15  C   UNL A   1      30.161  26.792  23.289  1.00  0.00     0.009 A 
BRANCH  11  16
ATOM     16  O   UNL A   1      32.536  29.789  24.939  1.00  0.00    -0.410 OA
BRANCH  16  17
ATOM     17  C   UNL A   1      31.998  30.423  26.046  1.00  0.00     0.412 C 
ATOM     18  N   UNL A   1      32.506  29.962  27.226  1.00  0.00    -0.321 N 
ATOM     19  H   UNL A   1      32.142  30.357  28.050  1.00  0.00     0.167 HD
ATOM     20  O   UNL A   1      31.143  31.307  26.034  1.00  0.00    -0.224 OA
BRANCH  18  21
ATOM     21  C   UNL A   1      33.529  28.948  27.385  1.00  0.00     0.119 C 
BRANCH  21  22
ATOM     22  C   UNL A   1      34.931  29.514  27.156  1.00  0.00     0.021 C 
BRANCH  22  23
ATOM     23  C   UNL A   1      35.814  29.563  28.409  1.00  0.00     0.002 C 
BRANCH  23  24
ATOM     24  C   UNL A   1      35.755  30.873  29.203  1.00  0.00    -0.000 C 
BRANCH  24  25
ATOM     25  C   UNL A   1      34.828  31.947  28.629  1.00  0.00    -0.003 C 
ATOM     26  C   UNL A   1      35.563  33.007  27.823  1.00  0.00     0.004 C 
ENDBRANCH  24  25
ENDBRANCH  23  24
ENDBRANCH  22  23
ENDBRANCH  21  22
ENDBRANCH  18  21
ENDBRANCH  16  17
ENDBRANCH  11  16
ENDBRANCH   4  10
ENDBRANCH   1   3
BRANCH   1  27
ATOM     27  C   UNL A   1      33.092  19.943  24.649  1.00  0.00     0.227 C 
ATOM     28  O   UNL A   1      32.179  19.201  25.024  1.00  0.00    -0.274 OA
ATOM     29  N   UNL A   1      34.218  19.985  25.417  1.00  0.00    -0.356 N 
ATOM     30  H   UNL A   1      34.145  19.520  26.282  1.00  0.00     0.163 HD
BRANCH  29  31
ATOM     31  C   UNL A   1      35.507  20.606  25.166  1.00  0.00     0.116 C 
BRANCH  31  32
ATOM     32  C   UNL A   1      35.753  21.815  26.059  1.00  0.00     0.023 C 
BRANCH  32  33
ATOM     33  C   UNL A   1      36.161  23.084  25.310  1.00  0.00     0.023 C 
BRANCH  33  34
ATOM     34  C   UNL A   1      37.485  23.707  25.746  1.00  0.00     0.116 C 
BRANCH  34  35
ATOM     35  N   UNL A   1      38.568  22.739  25.839  1.00  0.00    -0.352 N 
ATOM     36  C   UNL A   1      39.865  22.936  26.252  1.00  0.00     0.251 C 
ATOM     37  H   UNL A   1      38.341  21.819  25.573  1.00  0.00     0.163 HD
ATOM     38  O   UNL A   1      40.694  22.038  26.142  1.00  0.00    -0.269 OA
BRANCH  36  39
ATOM     39  C   UNL A   1      40.257  24.252  26.796  1.00  0.00     0.039 A 
ATOM     40  C   UNL A   1      40.554  24.364  28.156  1.00  0.00     0.014 A 
ATOM     41  C   UNL A   1      40.379  25.358  25.951  1.00  0.00     0.014 A 
ATOM     42  C   UNL A   1      41.049  25.571  28.655  1.00  0.00     0.010 A 
ATOM     43  C   UNL A   1      40.944  26.534  26.435  1.00  0.00     0.010 A 
ATOM     44  C   UNL A   1      41.289  26.652  27.790  1.00  0.00    -0.014 A 
BRANCH  44  45
ATOM     45  C   UNL A   1      41.904  27.913  28.280  1.00  0.00     0.031 A 
ATOM     46  C   UNL A   1      43.397  28.093  28.224  1.00  0.00     0.074 A 
ATOM     47  C   UNL A   1      41.127  28.867  28.834  1.00  0.00     0.049 A 
ATOM     48  N   UNL A   1      44.125  29.083  28.673  1.00  0.00    -0.248 NA
ATOM     49  C   UNL A   1      44.177  27.008  27.605  1.00  0.00     0.031 C 
ATOM     50  C   UNL A   1      39.671  28.798  28.980  1.00  0.00     0.029 A 
ATOM     51  N   UNL A   1      41.456  30.080  29.386  1.00  0.00    -0.354 N 
ATOM     52  C   UNL A   1      45.443  28.735  28.405  1.00  0.00     0.074 A 
ATOM     53  C   UNL A   1      45.421  27.420  27.803  1.00  0.00     0.031 C 
ATOM     54  C   UNL A   1      39.232  29.929  29.557  1.00  0.00     0.029 A 
ATOM     55  C   UNL A   1      40.374  30.784  29.865  1.00  0.00     0.049 A 
ATOM     56  H   UNL A   1      42.380  30.417  29.435  1.00  0.00     0.167 HD
ATOM     57  C   UNL A   1      46.571  29.453  28.619  1.00  0.00     0.031 A 
ATOM     58  C   UNL A   1      40.309  31.976  30.488  1.00  0.00     0.031 A 
ATOM     59  C   UNL A   1      46.591  30.767  29.205  1.00  0.00     0.049 A 
ATOM     60  C   UNL A   1      41.581  32.746  30.733  1.00  0.00     0.074 A 
ATOM     61  C   UNL A   1      47.679  31.594  29.421  1.00  0.00     0.029 A 
ATOM     62  N   UNL A   1      45.473  31.446  29.665  1.00  0.00    -0.354 N 
ATOM     63  N   UNL A   1      42.813  32.422  30.419  1.00  0.00    -0.248 NA
ATOM     64  C   UNL A   1      41.452  34.046  31.406  1.00  0.00     0.031 C 
ATOM     65  C   UNL A   1      47.226  32.754  30.058  1.00  0.00     0.029 A 
ATOM     66  C   UNL A   1      45.848  32.675  30.181  1.00  0.00     0.049 A 
ATOM     67  H   UNL A   1      44.551  31.105  29.629  1.00  0.00     0.167 HD
ATOM     68  C   UNL A   1      43.599  33.495  30.825  1.00  0.00     0.074 A 
ATOM     69  C   UNL A   1      42.704  34.480  31.395  1.00  0.00     0.031 C 
ATOM     70  C   UNL A   1      44.943  33.651  30.734  1.00  0.00     0.031 A 
BRANCH  57  71
ATOM     71  C   UNL A   1      47.882  28.836  28.209  1.00  0.00    -0.014 A 
ATOM     72  C   UNL A   1      48.405  29.038  26.919  1.00  0.00     0.010 A 
ATOM     73  C   UNL A   1      48.630  28.095  29.142  1.00  0.00     0.010 A 
ATOM     74  C   UNL A   1      49.636  28.483  26.559  1.00  0.00     0.020 A 
ATOM     75  C   UNL A   1      49.875  27.563  28.795  1.00  0.00     0.020 A 
ATOM     76  C   UNL A   1      50.364  27.750  27.501  1.00  0.00     0.054 A 
BRANCH  76  77
ATOM     77  S   UNL A   1      51.978  27.078  27.017  1.00  0.00     0.124 S 
ATOM     78  O   UNL A   1      52.754  28.295  26.788  1.00  0.00    -0.237 OA
ATOM     79  O   UNL A   1      52.363  26.298  28.189  1.00  0.00    -0.237 OA
ATOM     80  O   UNL A   1      51.684  26.294  25.820  1.00  0.00    -0.744 OA
ENDBRANCH  76  77
ENDBRANCH  57  71
BRANCH  58  81
ATOM     81  C   UNL A   1      38.994  32.527  30.923  1.00  0.00    -0.014 A 
ATOM     82  C   UNL A   1      38.342  32.010  32.057  1.00  0.00     0.010 A 
ATOM     83  C   UNL A   1      38.378  33.560  30.195  1.00  0.00     0.010 A 
ATOM     84  C   UNL A   1      37.085  32.491  32.434  1.00  0.00     0.020 A 
ATOM     85  C   UNL A   1      37.136  34.067  30.587  1.00  0.00     0.020 A 
ATOM     86  C   UNL A   1      36.489  33.517  31.694  1.00  0.00     0.054 A 
BRANCH  86  87
ATOM     87  S   UNL A   1      34.867  34.144  32.216  1.00  0.00     0.124 S 
ATOM     88  O   UNL A   1      34.133  32.908  32.469  1.00  0.00    -0.237 OA
ATOM     89  O   UNL A   1      35.200  34.936  33.396  1.00  0.00    -0.237 OA
ATOM     90  O   UNL A   1      34.414  34.918  31.062  1.00  0.00    -0.744 OA
ENDBRANCH  86  87
ENDBRANCH  58  81
BRANCH  70  91
ATOM     91  C   UNL A   1      45.528  34.953  31.212  1.00  0.00    -0.014 A 
ATOM     92  C   UNL A   1      45.996  35.106  32.529  1.00  0.00     0.010 A 
ATOM     93  C   UNL A   1      45.670  36.020  30.305  1.00  0.00     0.010 A 
ATOM     94  C   UNL A   1      46.570  36.313  32.937  1.00  0.00     0.020 A 
ATOM     95  C   UNL A   1      46.269  37.217  30.702  1.00  0.00     0.020 A 
ATOM     96  C   UNL A   1      46.703  37.361  32.021  1.00  0.00     0.054 A 
BRANCH  96  97
ATOM     97  S   UNL A   1      47.497  38.899  32.562  1.00  0.00     0.124 S 
ATOM     98  O   UNL A   1      48.692  38.936  31.725  1.00  0.00    -0.237 OA
ATOM     99  O   UNL A   1      46.485  39.907  32.256  1.00  0.00    -0.237 OA
ATOM    100  O   UNL A   1      47.740  38.682  33.986  1.00  0.00    -0.744 OA
ENDBRANCH  96  97
ENDBRANCH  70  91
ENDBRANCH  44  45
ENDBRANCH  36  39
ENDBRANCH  34  35
ENDBRANCH  33  34
ENDBRANCH  32  33
ENDBRANCH  31  32
ENDBRANCH  29  31
ENDBRANCH   1  27
TORSDOF 23
ENDMDL
