MODEL 1
REMARK VINA RESULT:     -11.1      0.000      0.000
REMARK SMILES C[C@H](C(=O)NCCCCNC(=O)c1ccc(-c2c3nc(c(-c4ccc(S(=O)(=O)[O-])cc4)c4ccc([nH]4)c(-c4ccc(S(=O)(=O)[O-])cc4)c4nc(c(-c5ccc(S(=O)(=O)[O-])cc5)c5ccc2[nH]5)C=C4)C=C3)cc1)[N@@H+]1CCc2ccccc2C1
REMARK SMILES IDX 8 1 7 2 6 3 5 4 3 5 4 6 2 8 1 9 73 10 74 11 82 12 75 14
REMARK SMILES IDX 81 15 76 16 80 17 77 18 79 19 78 20 9 21 10 22 11 23 12 25
REMARK SMILES IDX 13 26 14 27 72 28 15 29 71 30 16 31 17 32 18 33 65 34 19 35
REMARK SMILES IDX 70 36 64 37 66 38 20 39 69 40 63 41 62 42 21 44 51 45 32 46
REMARK SMILES IDX 50 47 33 48 36 49 49 50 67 51 34 52 35 53 48 55 68 56 37 57
REMARK SMILES IDX 22 58 23 59 31 60 24 61 30 62 25 63 26 64 27 65 28 66 29 67
REMARK SMILES IDX 52 68 53 69 61 70 54 71 60 72 55 73 56 74 57 75 58 76 59 77
REMARK SMILES IDX 38 78 39 79 47 80 40 81 46 82 41 83 42 84 43 85 44 86 45 87
REMARK H PARENT 5 7 73 13 10 24 66 43 36 54
REMARK Flexibility Score: inf
ROOT
ATOM      1  C   UNL A   1      32.302  28.512  26.306  1.00  0.00     0.023 C 
ENDROOT
BRANCH   1   2
ATOM      2  C   UNL A   1      31.451  27.315  26.729  1.00  0.00     0.023 C 
BRANCH   2   3
ATOM      3  C   UNL A   1      31.855  26.003  26.068  1.00  0.00     0.116 C 
BRANCH   3   4
ATOM      4  N   UNL A   1      31.070  24.888  26.562  1.00  0.00    -0.351 N 
ATOM      5  C   UNL A   1      31.496  23.625  26.899  1.00  0.00     0.278 C 
ATOM      6  O   UNL A   1      30.655  22.838  27.332  1.00  0.00    -0.268 OA
ATOM      7  H   UNL A   1      30.106  25.057  26.669  1.00  0.00     0.163 HD
BRANCH   5   8
ATOM      8  C   UNL A   1      33.006  23.326  26.773  1.00  0.00     0.271 C 
ATOM      9  C   UNL A   1      33.382  22.531  28.040  1.00  0.00     0.086 C 
BRANCH   8  10
ATOM     10  N   UNL A   1      33.469  22.741  25.488  1.00  0.00    -0.321 N 
ATOM     11  C   UNL A   1      33.729  21.275  25.496  1.00  0.00     0.267 C 
ATOM     12  C   UNL A   1      34.500  23.483  24.772  1.00  0.00     0.299 C 
ATOM     13  H   UNL A   1      32.627  22.861  24.925  1.00  0.00     0.349 HD
ATOM     14  C   UNL A   1      34.967  20.802  24.667  1.00  0.00     0.097 C 
ATOM     15  C   UNL A   1      35.874  23.045  25.172  1.00  0.00     0.010 A 
ATOM     16  C   UNL A   1      36.153  21.678  25.003  1.00  0.00    -0.034 A 
ATOM     17  C   UNL A   1      36.816  23.890  25.753  1.00  0.00     0.010 A 
ATOM     18  C   UNL A   1      37.438  21.199  25.238  1.00  0.00     0.004 A 
ATOM     19  C   UNL A   1      38.072  23.388  26.077  1.00  0.00     0.001 A 
ATOM     20  C   UNL A   1      38.397  22.062  25.775  1.00  0.00     0.000 A 
ENDBRANCH   8  10
ENDBRANCH   5   8
ENDBRANCH   3   4
ENDBRANCH   2   3
ENDBRANCH   1   2
BRANCH   1  21
ATOM     21  C   UNL A   1      33.485  28.820  27.219  1.00  0.00     0.116 C 
BRANCH  21  22
ATOM     22  N   UNL A   1      33.524  30.211  27.652  1.00  0.00    -0.352 N 
ATOM     23  C   UNL A   1      34.546  30.902  28.254  1.00  0.00     0.251 C 
ATOM     24  H   UNL A   1      32.702  30.729  27.489  1.00  0.00     0.163 HD
ATOM     25  O   UNL A   1      34.368  32.049  28.652  1.00  0.00    -0.269 OA
BRANCH  23  26
ATOM     26  C   UNL A   1      35.842  30.230  28.456  1.00  0.00     0.039 A 
ATOM     27  C   UNL A   1      36.763  30.224  27.407  1.00  0.00     0.014 A 
ATOM     28  C   UNL A   1      36.170  29.676  29.697  1.00  0.00     0.014 A 
ATOM     29  C   UNL A   1      38.051  29.739  27.630  1.00  0.00     0.010 A 
ATOM     30  C   UNL A   1      37.475  29.255  29.935  1.00  0.00     0.010 A 
ATOM     31  C   UNL A   1      38.432  29.301  28.910  1.00  0.00    -0.014 A 
BRANCH  31  32
ATOM     32  C   UNL A   1      39.842  28.946  29.205  1.00  0.00     0.031 A 
ATOM     33  C   UNL A   1      40.779  29.967  29.787  1.00  0.00     0.074 A 
ATOM     34  C   UNL A   1      40.292  27.717  28.877  1.00  0.00     0.049 A 
ATOM     35  N   UNL A   1      42.053  29.851  30.057  1.00  0.00    -0.248 NA
ATOM     36  C   UNL A   1      40.220  31.296  30.085  1.00  0.00     0.031 C 
ATOM     37  C   UNL A   1      39.488  26.656  28.261  1.00  0.00     0.029 A 
ATOM     38  N   UNL A   1      41.537  27.154  29.004  1.00  0.00    -0.354 N 
ATOM     39  C   UNL A   1      42.452  31.090  30.543  1.00  0.00     0.074 A 
ATOM     40  C   UNL A   1      41.295  31.956  30.496  1.00  0.00     0.031 C 
ATOM     41  C   UNL A   1      40.253  25.567  28.085  1.00  0.00     0.029 A 
ATOM     42  C   UNL A   1      41.611  25.863  28.530  1.00  0.00     0.049 A 
ATOM     43  H   UNL A   1      42.304  27.627  29.397  1.00  0.00     0.167 HD
ATOM     44  C   UNL A   1      43.670  31.465  31.001  1.00  0.00     0.031 A 
ATOM     45  C   UNL A   1      42.656  25.018  28.446  1.00  0.00     0.031 A 
ATOM     46  C   UNL A   1      44.814  30.593  31.055  1.00  0.00     0.049 A 
ATOM     47  C   UNL A   1      44.002  25.471  28.944  1.00  0.00     0.074 A 
ATOM     48  C   UNL A   1      46.070  30.861  31.571  1.00  0.00     0.029 A 
ATOM     49  N   UNL A   1      44.848  29.294  30.572  1.00  0.00    -0.354 N 
ATOM     50  N   UNL A   1      44.335  26.618  29.488  1.00  0.00    -0.248 NA
ATOM     51  C   UNL A   1      45.112  24.516  28.822  1.00  0.00     0.031 C 
ATOM     52  C   UNL A   1      46.883  29.746  31.341  1.00  0.00     0.029 A 
ATOM     53  C   UNL A   1      46.115  28.762  30.741  1.00  0.00     0.049 A 
ATOM     54  H   UNL A   1      44.084  28.821  30.169  1.00  0.00     0.167 HD
ATOM     55  C   UNL A   1      45.688  26.514  29.791  1.00  0.00     0.074 A 
ATOM     56  C   UNL A   1      46.105  25.184  29.396  1.00  0.00     0.031 C 
ATOM     57  C   UNL A   1      46.514  27.438  30.340  1.00  0.00     0.031 A 
BRANCH  44  58
ATOM     58  C   UNL A   1      43.840  32.881  31.481  1.00  0.00    -0.014 A 
ATOM     59  C   UNL A   1      44.326  33.885  30.624  1.00  0.00     0.010 A 
ATOM     60  C   UNL A   1      43.419  33.231  32.777  1.00  0.00     0.010 A 
ATOM     61  C   UNL A   1      44.402  35.210  31.061  1.00  0.00     0.020 A 
ATOM     62  C   UNL A   1      43.471  34.560  33.208  1.00  0.00     0.020 A 
ATOM     63  C   UNL A   1      43.969  35.540  32.348  1.00  0.00     0.054 A 
BRANCH  63  64
ATOM     64  S   UNL A   1      44.017  37.279  32.860  1.00  0.00     0.124 S 
ATOM     65  O   UNL A   1      42.942  37.333  33.848  1.00  0.00    -0.237 OA
ATOM     66  O   UNL A   1      45.369  37.416  33.396  1.00  0.00    -0.237 OA
ATOM     67  O   UNL A   1      43.763  38.013  31.623  1.00  0.00    -0.744 OA
ENDBRANCH  63  64
ENDBRANCH  44  58
BRANCH  45  68
ATOM     68  C   UNL A   1      42.485  23.664  27.848  1.00  0.00    -0.014 A 
ATOM     69  C   UNL A   1      42.101  22.570  28.642  1.00  0.00     0.010 A 
ATOM     70  C   UNL A   1      42.730  23.459  26.477  1.00  0.00     0.010 A 
ATOM     71  C   UNL A   1      42.002  21.291  28.087  1.00  0.00     0.020 A 
ATOM     72  C   UNL A   1      42.599  22.188  25.911  1.00  0.00     0.020 A 
ATOM     73  C   UNL A   1      42.255  21.108  26.725  1.00  0.00     0.054 A 
BRANCH  73  74
ATOM     74  S   UNL A   1      42.104  19.443  26.021  1.00  0.00     0.124 S 
ATOM     75  O   UNL A   1      42.615  18.609  27.104  1.00  0.00    -0.237 OA
ATOM     76  O   UNL A   1      40.670  19.338  25.763  1.00  0.00    -0.237 OA
ATOM     77  O   UNL A   1      42.942  19.501  24.825  1.00  0.00    -0.744 OA
ENDBRANCH  73  74
ENDBRANCH  45  68
BRANCH  57  78
ATOM     78  C   UNL A   1      47.949  27.037  30.563  1.00  0.00    -0.014 A 
ATOM     79  C   UNL A   1      48.941  27.335  29.612  1.00  0.00     0.010 A 
ATOM     80  C   UNL A   1      48.316  26.403  31.764  1.00  0.00     0.010 A 
ATOM     81  C   UNL A   1      50.272  26.977  29.845  1.00  0.00     0.020 A 
ATOM     82  C   UNL A   1      49.650  26.072  32.013  1.00  0.00     0.020 A 
ATOM     83  C   UNL A   1      50.618  26.350  31.046  1.00  0.00     0.054 A 
BRANCH  83  84
ATOM     84  S   UNL A   1      52.359  25.939  31.342  1.00  0.00     0.124 S 
ATOM     85  O   UNL A   1      52.264  24.587  31.886  1.00  0.00    -0.237 OA
ATOM     86  O   UNL A   1      52.943  26.040  30.006  1.00  0.00    -0.237 OA
ATOM     87  O   UNL A   1      52.801  26.961  32.288  1.00  0.00    -0.744 OA
ENDBRANCH  83  84
ENDBRANCH  57  78
ENDBRANCH  31  32
ENDBRANCH  23  26
ENDBRANCH  21  22
ENDBRANCH   1  21
TORSDOF 15
ENDMDL
MODEL 2
REMARK VINA RESULT:     -10.6      0.851      8.415
REMARK SMILES C[C@H](C(=O)NCCCCNC(=O)c1ccc(-c2c3nc(c(-c4ccc(S(=O)(=O)[O-])cc4)c4ccc([nH]4)c(-c4ccc(S(=O)(=O)[O-])cc4)c4nc(c(-c5ccc(S(=O)(=O)[O-])cc5)c5ccc2[nH]5)C=C4)C=C3)cc1)[N@@H+]1CCc2ccccc2C1
REMARK SMILES IDX 8 1 7 2 6 3 5 4 3 5 4 6 2 8 1 9 73 10 74 11 82 12 75 14
REMARK SMILES IDX 81 15 76 16 80 17 77 18 79 19 78 20 9 21 10 22 11 23 12 25
REMARK SMILES IDX 13 26 14 27 72 28 15 29 71 30 16 31 17 32 18 33 65 34 19 35
REMARK SMILES IDX 70 36 64 37 66 38 20 39 69 40 63 41 62 42 21 44 51 45 32 46
REMARK SMILES IDX 50 47 33 48 36 49 49 50 67 51 34 52 35 53 48 55 68 56 37 57
REMARK SMILES IDX 22 58 23 59 31 60 24 61 30 62 25 63 26 64 27 65 28 66 29 67
REMARK SMILES IDX 52 68 53 69 61 70 54 71 60 72 55 73 56 74 57 75 58 76 59 77
REMARK SMILES IDX 38 78 39 79 47 80 40 81 46 82 41 83 42 84 43 85 44 86 45 87
REMARK H PARENT 5 7 73 13 10 24 66 43 36 54
REMARK Flexibility Score: inf
ROOT
ATOM      1  C   UNL A   1      32.184  28.023  26.891  1.00  0.00     0.023 C 
ENDROOT
BRANCH   1   2
ATOM      2  C   UNL A   1      31.622  28.281  25.494  1.00  0.00     0.023 C 
BRANCH   2   3
ATOM      3  C   UNL A   1      31.167  27.022  24.767  1.00  0.00     0.116 C 
BRANCH   3   4
ATOM      4  N   UNL A   1      30.537  26.076  25.669  1.00  0.00    -0.351 N 
ATOM      5  C   UNL A   1      30.955  24.813  26.011  1.00  0.00     0.278 C 
ATOM      6  O   UNL A   1      30.278  24.192  26.829  1.00  0.00    -0.268 OA
ATOM      7  H   UNL A   1      29.701  26.380  26.091  1.00  0.00     0.163 HD
BRANCH   5   8
ATOM      8  C   UNL A   1      32.278  24.309  25.393  1.00  0.00     0.271 C 
ATOM      9  C   UNL A   1      33.388  24.736  26.376  1.00  0.00     0.086 C 
BRANCH   8  10
ATOM     10  N   UNL A   1      32.318  22.888  24.959  1.00  0.00    -0.321 N 
ATOM     11  C   UNL A   1      32.650  21.894  26.016  1.00  0.00     0.267 C 
ATOM     12  C   UNL A   1      33.004  22.614  23.703  1.00  0.00     0.299 C 
ATOM     13  H   UNL A   1      31.331  22.739  24.751  1.00  0.00     0.349 HD
ATOM     14  C   UNL A   1      33.565  20.709  25.567  1.00  0.00     0.097 C 
ATOM     15  C   UNL A   1      34.457  22.321  23.919  1.00  0.00     0.010 A 
ATOM     16  C   UNL A   1      34.742  21.256  24.791  1.00  0.00    -0.034 A 
ATOM     17  C   UNL A   1      35.487  23.083  23.375  1.00  0.00     0.010 A 
ATOM     18  C   UNL A   1      36.058  20.837  24.963  1.00  0.00     0.004 A 
ATOM     19  C   UNL A   1      36.807  22.720  23.626  1.00  0.00     0.001 A 
ATOM     20  C   UNL A   1      37.089  21.574  24.376  1.00  0.00     0.000 A 
ENDBRANCH   8  10
ENDBRANCH   5   8
ENDBRANCH   3   4
ENDBRANCH   2   3
ENDBRANCH   1   2
BRANCH   1  21
ATOM     21  C   UNL A   1      33.580  28.587  27.141  1.00  0.00     0.116 C 
BRANCH  21  22
ATOM     22  N   UNL A   1      33.560  29.957  27.639  1.00  0.00    -0.352 N 
ATOM     23  C   UNL A   1      34.561  30.670  28.251  1.00  0.00     0.251 C 
ATOM     24  H   UNL A   1      32.710  30.439  27.519  1.00  0.00     0.163 HD
ATOM     25  O   UNL A   1      34.336  31.787  28.707  1.00  0.00    -0.269 OA
BRANCH  23  26
ATOM     26  C   UNL A   1      35.894  30.057  28.391  1.00  0.00     0.039 A 
ATOM     27  C   UNL A   1      36.781  30.129  27.316  1.00  0.00     0.014 A 
ATOM     28  C   UNL A   1      36.287  29.479  29.603  1.00  0.00     0.014 A 
ATOM     29  C   UNL A   1      38.097  29.701  27.485  1.00  0.00     0.010 A 
ATOM     30  C   UNL A   1      37.616  29.115  29.788  1.00  0.00     0.010 A 
ATOM     31  C   UNL A   1      38.538  29.241  28.737  1.00  0.00    -0.014 A 
BRANCH  31  32
ATOM     32  C   UNL A   1      39.972  28.947  28.979  1.00  0.00     0.031 A 
ATOM     33  C   UNL A   1      40.548  27.609  28.612  1.00  0.00     0.074 A 
ATOM     34  C   UNL A   1      40.736  29.871  29.598  1.00  0.00     0.049 A 
ATOM     35  N   UNL A   1      41.761  27.158  28.800  1.00  0.00    -0.248 NA
ATOM     36  C   UNL A   1      39.642  26.642  27.971  1.00  0.00     0.031 C 
ATOM     37  C   UNL A   1      40.276  31.190  30.047  1.00  0.00     0.029 A 
ATOM     38  N   UNL A   1      42.057  29.841  29.969  1.00  0.00    -0.354 N 
ATOM     39  C   UNL A   1      41.762  25.857  28.314  1.00  0.00     0.074 A 
ATOM     40  C   UNL A   1      40.419  25.574  27.858  1.00  0.00     0.031 C 
ATOM     41  C   UNL A   1      41.301  31.847  30.610  1.00  0.00     0.029 A 
ATOM     42  C   UNL A   1      42.478  30.985  30.608  1.00  0.00     0.049 A 
ATOM     43  H   UNL A   1      42.647  29.074  29.795  1.00  0.00     0.167 HD
ATOM     44  C   UNL A   1      42.794  24.983  28.243  1.00  0.00     0.031 A 
ATOM     45  C   UNL A   1      43.672  31.300  31.147  1.00  0.00     0.031 A 
ATOM     46  C   UNL A   1      44.131  25.276  28.689  1.00  0.00     0.049 A 
ATOM     47  C   UNL A   1      44.793  30.300  31.070  1.00  0.00     0.074 A 
ATOM     48  C   UNL A   1      45.260  24.481  28.591  1.00  0.00     0.029 A 
ATOM     49  N   UNL A   1      44.519  26.446  29.324  1.00  0.00    -0.354 N 
ATOM     50  N   UNL A   1      44.797  29.109  30.520  1.00  0.00    -0.248 NA
ATOM     51  C   UNL A   1      46.072  30.688  31.680  1.00  0.00     0.031 C 
ATOM     52  C   UNL A   1      46.317  25.143  29.224  1.00  0.00     0.029 A 
ATOM     53  C   UNL A   1      45.861  26.377  29.659  1.00  0.00     0.049 A 
ATOM     54  H   UNL A   1      43.928  27.212  29.509  1.00  0.00     0.167 HD
ATOM     55  C   UNL A   1      46.084  28.613  30.703  1.00  0.00     0.074 A 
ATOM     56  C   UNL A   1      46.837  29.644  31.387  1.00  0.00     0.031 C 
ATOM     57  C   UNL A   1      46.595  27.410  30.343  1.00  0.00     0.031 A 
BRANCH  44  58
ATOM     58  C   UNL A   1      42.528  23.620  27.663  1.00  0.00    -0.014 A 
ATOM     59  C   UNL A   1      42.803  23.338  26.313  1.00  0.00     0.010 A 
ATOM     60  C   UNL A   1      42.086  22.582  28.504  1.00  0.00     0.010 A 
ATOM     61  C   UNL A   1      42.626  22.046  25.811  1.00  0.00     0.020 A 
ATOM     62  C   UNL A   1      41.932  21.282  28.010  1.00  0.00     0.020 A 
ATOM     63  C   UNL A   1      42.197  21.025  26.665  1.00  0.00     0.054 A 
BRANCH  63  64
ATOM     64  S   UNL A   1      42.042  19.346  25.998  1.00  0.00     0.124 S 
ATOM     65  O   UNL A   1      42.885  19.415  24.806  1.00  0.00    -0.237 OA
ATOM     66  O   UNL A   1      42.561  18.522  27.086  1.00  0.00    -0.237 OA
ATOM     67  O   UNL A   1      40.611  19.204  25.741  1.00  0.00    -0.744 OA
ENDBRANCH  63  64
ENDBRANCH  44  58
BRANCH  45  68
ATOM     68  C   UNL A   1      43.868  32.611  31.828  1.00  0.00    -0.014 A 
ATOM     69  C   UNL A   1      43.632  32.747  33.207  1.00  0.00     0.010 A 
ATOM     70  C   UNL A   1      44.271  33.740  31.091  1.00  0.00     0.010 A 
ATOM     71  C   UNL A   1      43.758  33.993  33.829  1.00  0.00     0.020 A 
ATOM     72  C   UNL A   1      44.432  34.980  31.715  1.00  0.00     0.020 A 
ATOM     73  C   UNL A   1      44.155  35.102  33.077  1.00  0.00     0.054 A 
BRANCH  73  74
ATOM     74  S   UNL A   1      44.330  36.706  33.907  1.00  0.00     0.124 S 
ATOM     75  O   UNL A   1      44.426  36.313  35.309  1.00  0.00    -0.237 OA
ATOM     76  O   UNL A   1      45.554  37.237  33.312  1.00  0.00    -0.237 OA
ATOM     77  O   UNL A   1      43.107  37.416  33.536  1.00  0.00    -0.744 OA
ENDBRANCH  73  74
ENDBRANCH  45  68
BRANCH  57  78
ATOM     78  C   UNL A   1      48.042  27.149  30.666  1.00  0.00    -0.014 A 
ATOM     79  C   UNL A   1      49.063  27.528  29.777  1.00  0.00     0.010 A 
ATOM     80  C   UNL A   1      48.386  26.567  31.900  1.00  0.00     0.010 A 
ATOM     81  C   UNL A   1      50.403  27.300  30.102  1.00  0.00     0.020 A 
ATOM     82  C   UNL A   1      49.726  26.366  32.241  1.00  0.00     0.020 A 
ATOM     83  C   UNL A   1      50.725  26.722  31.334  1.00  0.00     0.054 A 
BRANCH  83  84
ATOM     84  S   UNL A   1      52.474  26.480  31.751  1.00  0.00     0.124 S 
ATOM     85  O   UNL A   1      53.143  26.974  30.551  1.00  0.00    -0.237 OA
ATOM     86  O   UNL A   1      52.635  27.304  32.946  1.00  0.00    -0.237 OA
ATOM     87  O   UNL A   1      52.581  25.039  31.975  1.00  0.00    -0.744 OA
ENDBRANCH  83  84
ENDBRANCH  57  78
ENDBRANCH  31  32
ENDBRANCH  23  26
ENDBRANCH  21  22
ENDBRANCH   1  21
TORSDOF 15
ENDMDL
MODEL 3
REMARK VINA RESULT:     -10.6      2.734      9.516
REMARK SMILES C[C@H](C(=O)NCCCCNC(=O)c1ccc(-c2c3nc(c(-c4ccc(S(=O)(=O)[O-])cc4)c4ccc([nH]4)c(-c4ccc(S(=O)(=O)[O-])cc4)c4nc(c(-c5ccc(S(=O)(=O)[O-])cc5)c5ccc2[nH]5)C=C4)C=C3)cc1)[N@@H+]1CCc2ccccc2C1
REMARK SMILES IDX 8 1 7 2 6 3 5 4 3 5 4 6 2 8 1 9 73 10 74 11 82 12 75 14
REMARK SMILES IDX 81 15 76 16 80 17 77 18 79 19 78 20 9 21 10 22 11 23 12 25
REMARK SMILES IDX 13 26 14 27 72 28 15 29 71 30 16 31 17 32 18 33 65 34 19 35
REMARK SMILES IDX 70 36 64 37 66 38 20 39 69 40 63 41 62 42 21 44 51 45 32 46
REMARK SMILES IDX 50 47 33 48 36 49 49 50 67 51 34 52 35 53 48 55 68 56 37 57
REMARK SMILES IDX 22 58 23 59 31 60 24 61 30 62 25 63 26 64 27 65 28 66 29 67
REMARK SMILES IDX 52 68 53 69 61 70 54 71 60 72 55 73 56 74 57 75 58 76 59 77
REMARK SMILES IDX 38 78 39 79 47 80 40 81 46 82 41 83 42 84 43 85 44 86 45 87
REMARK H PARENT 5 7 73 13 10 24 66 43 36 54
REMARK Flexibility Score: inf
ROOT
ATOM      1  C   UNL A   1      36.269  22.917  23.839  1.00  0.00     0.023 C 
ENDROOT
BRANCH   1   2
ATOM      2  C   UNL A   1      35.176  21.978  24.348  1.00  0.00     0.023 C 
BRANCH   2   3
ATOM      3  C   UNL A   1      33.762  22.429  24.005  1.00  0.00     0.116 C 
BRANCH   3   4
ATOM      4  N   UNL A   1      33.710  23.114  22.727  1.00  0.00    -0.351 N 
ATOM      5  C   UNL A   1      33.287  24.393  22.459  1.00  0.00     0.278 C 
ATOM      6  O   UNL A   1      33.361  24.785  21.295  1.00  0.00    -0.268 OA
ATOM      7  H   UNL A   1      34.018  22.593  21.950  1.00  0.00     0.163 HD
BRANCH   5   8
ATOM      8  C   UNL A   1      32.822  25.254  23.654  1.00  0.00     0.271 C 
ATOM      9  C   UNL A   1      34.108  25.848  24.267  1.00  0.00     0.086 C 
BRANCH   8  10
ATOM     10  N   UNL A   1      31.727  26.225  23.397  1.00  0.00    -0.321 N 
ATOM     11  C   UNL A   1      32.133  27.513  22.772  1.00  0.00     0.267 C 
ATOM     12  C   UNL A   1      30.759  26.410  24.472  1.00  0.00     0.299 C 
ATOM     13  H   UNL A   1      31.213  25.725  22.672  1.00  0.00     0.349 HD
ATOM     14  C   UNL A   1      31.388  28.784  23.295  1.00  0.00     0.097 C 
ATOM     15  C   UNL A   1      31.169  27.510  25.401  1.00  0.00     0.010 A 
ATOM     16  C   UNL A   1      31.376  28.767  24.807  1.00  0.00    -0.034 A 
ATOM     17  C   UNL A   1      31.419  27.321  26.758  1.00  0.00     0.010 A 
ATOM     18  C   UNL A   1      31.646  29.874  25.605  1.00  0.00     0.004 A 
ATOM     19  C   UNL A   1      31.783  28.413  27.540  1.00  0.00     0.001 A 
ATOM     20  C   UNL A   1      31.848  29.691  26.976  1.00  0.00     0.000 A 
ENDBRANCH   8  10
ENDBRANCH   5   8
ENDBRANCH   3   4
ENDBRANCH   2   3
ENDBRANCH   1   2
BRANCH   1  21
ATOM     21  C   UNL A   1      37.158  23.522  24.922  1.00  0.00     0.116 C 
BRANCH  21  22
ATOM     22  N   UNL A   1      38.152  22.586  25.432  1.00  0.00    -0.352 N 
ATOM     23  C   UNL A   1      39.225  22.826  26.254  1.00  0.00     0.251 C 
ATOM     24  H   UNL A   1      38.038  21.650  25.147  1.00  0.00     0.163 HD
ATOM     25  O   UNL A   1      40.029  21.932  26.499  1.00  0.00    -0.269 OA
BRANCH  23  26
ATOM     26  C   UNL A   1      39.420  24.181  26.799  1.00  0.00     0.039 A 
ATOM     27  C   UNL A   1      38.957  24.457  28.087  1.00  0.00     0.014 A 
ATOM     28  C   UNL A   1      40.119  25.147  26.069  1.00  0.00     0.014 A 
ATOM     29  C   UNL A   1      39.274  25.679  28.680  1.00  0.00     0.010 A 
ATOM     30  C   UNL A   1      40.491  26.336  26.688  1.00  0.00     0.010 A 
ATOM     31  C   UNL A   1      40.089  26.605  28.006  1.00  0.00    -0.014 A 
BRANCH  31  32
ATOM     32  C   UNL A   1      40.577  27.828  28.688  1.00  0.00     0.031 A 
ATOM     33  C   UNL A   1      41.953  27.868  29.289  1.00  0.00     0.074 A 
ATOM     34  C   UNL A   1      39.742  28.879  28.826  1.00  0.00     0.049 A 
ATOM     35  N   UNL A   1      42.525  28.829  29.967  1.00  0.00    -0.248 NA
ATOM     36  C   UNL A   1      42.791  26.669  29.125  1.00  0.00     0.031 C 
ATOM     37  C   UNL A   1      38.364  28.940  28.328  1.00  0.00     0.029 A 
ATOM     38  N   UNL A   1      39.924  30.096  29.435  1.00  0.00    -0.354 N 
ATOM     39  C   UNL A   1      43.779  28.348  30.322  1.00  0.00     0.074 A 
ATOM     40  C   UNL A   1      43.873  26.996  29.818  1.00  0.00     0.031 C 
ATOM     41  C   UNL A   1      37.836  30.136  28.632  1.00  0.00     0.029 A 
ATOM     42  C   UNL A   1      38.816  30.910  29.386  1.00  0.00     0.049 A 
ATOM     43  H   UNL A   1      40.768  30.361  29.867  1.00  0.00     0.167 HD
ATOM     44  C   UNL A   1      44.767  28.984  30.995  1.00  0.00     0.031 A 
ATOM     45  C   UNL A   1      38.604  32.136  29.904  1.00  0.00     0.031 A 
ATOM     46  C   UNL A   1      44.670  30.334  31.485  1.00  0.00     0.049 A 
ATOM     47  C   UNL A   1      39.714  32.808  30.665  1.00  0.00     0.074 A 
ATOM     48  C   UNL A   1      45.645  31.089  32.114  1.00  0.00     0.029 A 
ATOM     49  N   UNL A   1      43.535  31.128  31.410  1.00  0.00    -0.354 N 
ATOM     50  N   UNL A   1      40.927  32.371  30.907  1.00  0.00    -0.248 NA
ATOM     51  C   UNL A   1      39.431  34.139  31.217  1.00  0.00     0.031 C 
ATOM     52  C   UNL A   1      45.080  32.316  32.478  1.00  0.00     0.029 A 
ATOM     53  C   UNL A   1      43.773  32.349  32.019  1.00  0.00     0.049 A 
ATOM     54  H   UNL A   1      42.686  30.861  30.988  1.00  0.00     0.167 HD
ATOM     55  C   UNL A   1      41.557  33.383  31.624  1.00  0.00     0.074 A 
ATOM     56  C   UNL A   1      40.601  34.464  31.751  1.00  0.00     0.031 C 
ATOM     57  C   UNL A   1      42.811  33.413  32.138  1.00  0.00     0.031 A 
BRANCH  44  58
ATOM     58  C   UNL A   1      46.046  28.233  31.251  1.00  0.00    -0.014 A 
ATOM     59  C   UNL A   1      47.123  28.305  30.351  1.00  0.00     0.010 A 
ATOM     60  C   UNL A   1      46.205  27.520  32.455  1.00  0.00     0.010 A 
ATOM     61  C   UNL A   1      48.332  27.666  30.642  1.00  0.00     0.020 A 
ATOM     62  C   UNL A   1      47.421  26.901  32.761  1.00  0.00     0.020 A 
ATOM     63  C   UNL A   1      48.474  26.973  31.848  1.00  0.00     0.054 A 
BRANCH  63  64
ATOM     64  S   UNL A   1      50.077  26.213  32.227  1.00  0.00     0.124 S 
ATOM     65  O   UNL A   1      50.263  26.583  33.628  1.00  0.00    -0.237 OA
ATOM     66  O   UNL A   1      49.823  24.796  31.981  1.00  0.00    -0.237 OA
ATOM     67  O   UNL A   1      50.995  26.851  31.287  1.00  0.00    -0.744 OA
ENDBRANCH  63  64
ENDBRANCH  44  58
BRANCH  45  68
ATOM     68  C   UNL A   1      37.281  32.803  29.743  1.00  0.00    -0.014 A 
ATOM     69  C   UNL A   1      36.979  33.529  28.578  1.00  0.00     0.010 A 
ATOM     70  C   UNL A   1      36.324  32.735  30.772  1.00  0.00     0.010 A 
ATOM     71  C   UNL A   1      35.760  34.205  28.460  1.00  0.00     0.020 A 
ATOM     72  C   UNL A   1      35.091  33.380  30.643  1.00  0.00     0.020 A 
ATOM     73  C   UNL A   1      34.825  34.127  29.495  1.00  0.00     0.054 A 
BRANCH  73  74
ATOM     74  S   UNL A   1      33.243  34.997  29.314  1.00  0.00     0.124 S 
ATOM     75  O   UNL A   1      32.701  34.924  30.667  1.00  0.00    -0.237 OA
ATOM     76  O   UNL A   1      33.662  36.325  28.870  1.00  0.00    -0.237 OA
ATOM     77  O   UNL A   1      32.533  34.208  28.310  1.00  0.00    -0.744 OA
ENDBRANCH  73  74
ENDBRANCH  45  68
BRANCH  57  78
ATOM     78  C   UNL A   1      43.229  34.661  32.870  1.00  0.00    -0.014 A 
ATOM     79  C   UNL A   1      43.737  35.772  32.176  1.00  0.00     0.010 A 
ATOM     80  C   UNL A   1      43.059  34.740  34.264  1.00  0.00     0.010 A 
ATOM     81  C   UNL A   1      44.098  36.932  32.867  1.00  0.00     0.020 A 
ATOM     82  C   UNL A   1      43.390  35.909  34.954  1.00  0.00     0.020 A 
ATOM     83  C   UNL A   1      43.920  36.993  34.252  1.00  0.00     0.054 A 
BRANCH  83  84
ATOM     84  S   UNL A   1      44.354  38.527  35.118  1.00  0.00     0.124 S 
ATOM     85  O   UNL A   1      43.604  39.525  34.362  1.00  0.00    -0.237 OA
ATOM     86  O   UNL A   1      43.875  38.273  36.475  1.00  0.00    -0.237 OA
ATOM     87  O   UNL A   1      45.807  38.604  34.981  1.00  0.00    -0.744 OA
ENDBRANCH  83  84
ENDBRANCH  57  78
ENDBRANCH  31  32
ENDBRANCH  23  26
ENDBRANCH  21  22
ENDBRANCH   1  21
TORSDOF 15
ENDMDL
