MODEL 1
REMARK VINA RESULT:      -8.3      0.000      0.000
REMARK SMILES O=C(CS(=O)(=O)NCc1ccc(N2CCOCC2)nc1)NCCCCNC(=O)c1ccc(-c2c3nc(c(-c4ccc(S(=O)(=O)[O-])cc4)c4ccc([nH]4)c(-c4ccc(S(=O)(=O)[O-])cc4)c4nc(c(-c5ccc(S(=O)(=O)[O-])cc5)c5ccc2[nH]5)C=C4)C=C3)cc1
REMARK SMILES IDX 22 1 21 2 1 3 2 4 3 6 4 7 5 8 6 9 7 10 8 12 9 13 10 14 20 15
REMARK SMILES IDX 11 16 19 17 12 18 13 19 14 20 18 21 15 22 17 23 16 24 23 25
REMARK SMILES IDX 24 26 25 27 26 28 27 29 28 31 29 32 30 33 88 34 31 35 87 36
REMARK SMILES IDX 32 37 33 38 34 39 81 40 35 41 86 42 80 43 82 44 36 45 85 46
REMARK SMILES IDX 79 47 78 48 37 50 67 51 48 52 66 53 49 54 52 55 65 56 83 57
REMARK SMILES IDX 50 58 51 59 64 61 84 62 53 63 38 64 39 65 47 66 40 67 46 68
REMARK SMILES IDX 41 69 42 70 43 71 44 72 45 73 68 74 69 75 77 76 70 77 76 78
REMARK SMILES IDX 71 79 72 80 73 81 74 82 75 83 54 84 55 85 63 86 56 87 62 88
REMARK SMILES IDX 57 89 58 90 59 91 60 92 61 93
REMARK H PARENT 21 5 7 11 26 30 82 49 52 60
REMARK Flexibility Score: inf
ROOT
ATOM      1  C   UNL A   1      44.865  24.477  25.947  1.00  0.00     0.116 C 
ENDROOT
BRANCH   1   2
ATOM      2  N   UNL A   1      43.908  23.480  26.392  1.00  0.00    -0.355 N 
ATOM      3  O   UNL A   1      43.468  22.624  24.311  1.00  0.00    -0.274 OA
ATOM      4  C   UNL A   1      43.295  22.594  25.529  1.00  0.00     0.236 C 
ATOM      5  H   UNL A   1      43.686  23.434  27.349  1.00  0.00     0.163 HD
BRANCH   4   6
ATOM      6  C   UNL A   1      42.337  21.622  26.147  1.00  0.00     0.253 C 
BRANCH   6   7
ATOM      7  S   UNL A   1      41.061  22.444  27.056  1.00  0.00     0.220 S 
ATOM      8  O   UNL A   1      39.813  21.742  26.829  1.00  0.00    -0.212 OA
ATOM      9  O   UNL A   1      41.551  22.622  28.404  1.00  0.00    -0.212 OA
BRANCH   7  10
ATOM     10  N   UNL A   1      40.978  23.993  26.446  1.00  0.00    -0.210 NA
ATOM     11  H   UNL A   1      41.214  23.916  25.457  1.00  0.00     0.141 HD
BRANCH  10  12
ATOM     12  C   UNL A   1      39.771  24.823  26.507  1.00  0.00     0.135 C 
BRANCH  12  13
ATOM     13  C   UNL A   1      39.868  26.053  27.352  1.00  0.00    -0.015 A 
ATOM     14  C   UNL A   1      40.463  27.219  26.873  1.00  0.00     0.010 A 
ATOM     15  C   UNL A   1      39.343  26.099  28.636  1.00  0.00     0.118 A 
ATOM     16  C   UNL A   1      40.442  28.373  27.653  1.00  0.00     0.047 A 
ATOM     17  N   UNL A   1      39.310  27.209  29.403  1.00  0.00    -0.239 NA
ATOM     18  C   UNL A   1      39.836  28.342  28.905  1.00  0.00     0.128 A 
BRANCH  18  19
ATOM     19  N   UNL A   1      39.659  29.490  29.617  1.00  0.00    -0.352 N 
ATOM     20  C   UNL A   1      40.455  29.703  30.817  1.00  0.00     0.146 C 
ATOM     21  C   UNL A   1      38.650  30.490  29.313  1.00  0.00     0.146 C 
ATOM     22  C   UNL A   1      39.489  29.961  31.978  1.00  0.00     0.181 C 
ATOM     23  C   UNL A   1      37.770  30.721  30.551  1.00  0.00     0.181 C 
ATOM     24  O   UNL A   1      38.563  31.025  31.712  1.00  0.00    -0.378 OA
ENDBRANCH  18  19
ENDBRANCH  12  13
ENDBRANCH  10  12
ENDBRANCH   7  10
ENDBRANCH   6   7
ENDBRANCH   4   6
ENDBRANCH   1   2
BRANCH   1  25
ATOM     25  C   UNL A   1      46.295  23.952  25.870  1.00  0.00     0.023 C 
BRANCH  25  26
ATOM     26  C   UNL A   1      47.082  24.343  24.617  1.00  0.00     0.023 C 
BRANCH  26  27
ATOM     27  C   UNL A   1      48.108  25.466  24.761  1.00  0.00     0.116 C 
BRANCH  27  28
ATOM     28  N   UNL A   1      47.916  26.570  23.837  1.00  0.00    -0.352 N 
ATOM     29  C   UNL A   1      47.195  27.742  23.929  1.00  0.00     0.251 C 
ATOM     30  H   UNL A   1      48.392  26.462  22.982  1.00  0.00     0.163 HD
ATOM     31  O   UNL A   1      47.185  28.468  22.933  1.00  0.00    -0.269 OA
BRANCH  29  32
ATOM     32  C   UNL A   1      46.445  28.176  25.149  1.00  0.00     0.039 A 
ATOM     33  C   UNL A   1      47.152  28.835  26.174  1.00  0.00     0.014 A 
ATOM     34  C   UNL A   1      45.095  27.906  25.359  1.00  0.00     0.014 A 
ATOM     35  C   UNL A   1      46.517  29.224  27.367  1.00  0.00     0.010 A 
ATOM     36  C   UNL A   1      44.455  28.306  26.530  1.00  0.00     0.010 A 
ATOM     37  C   UNL A   1      45.158  28.958  27.547  1.00  0.00    -0.014 A 
BRANCH  37  38
ATOM     38  C   UNL A   1      44.364  29.437  28.698  1.00  0.00     0.031 A 
ATOM     39  C   UNL A   1      43.945  30.874  28.818  1.00  0.00     0.074 A 
ATOM     40  C   UNL A   1      44.279  28.609  29.756  1.00  0.00     0.049 A 
ATOM     41  N   UNL A   1      43.368  31.477  29.825  1.00  0.00    -0.248 NA
ATOM     42  C   UNL A   1      44.238  31.754  27.676  1.00  0.00     0.031 C 
ATOM     43  C   UNL A   1      44.780  27.231  29.779  1.00  0.00     0.029 A 
ATOM     44  N   UNL A   1      43.835  28.827  31.032  1.00  0.00    -0.354 N 
ATOM     45  C   UNL A   1      43.205  32.801  29.437  1.00  0.00     0.074 A 
ATOM     46  C   UNL A   1      43.794  32.925  28.120  1.00  0.00     0.031 C 
ATOM     47  C   UNL A   1      44.686  26.754  31.029  1.00  0.00     0.029 A 
ATOM     48  C   UNL A   1      44.100  27.781  31.882  1.00  0.00     0.049 A 
ATOM     49  H   UNL A   1      43.373  29.650  31.312  1.00  0.00     0.167 HD
ATOM     50  C   UNL A   1      42.605  33.811  30.118  1.00  0.00     0.031 A 
ATOM     51  C   UNL A   1      43.899  27.661  33.207  1.00  0.00     0.031 A 
ATOM     52  C   UNL A   1      42.073  33.670  31.453  1.00  0.00     0.049 A 
ATOM     53  C   UNL A   1      43.209  28.773  33.936  1.00  0.00     0.074 A 
ATOM     54  C   UNL A   1      41.340  34.582  32.193  1.00  0.00     0.029 A 
ATOM     55  N   UNL A   1      42.245  32.554  32.260  1.00  0.00    -0.354 N 
ATOM     56  N   UNL A   1      42.884  29.965  33.495  1.00  0.00    -0.248 NA
ATOM     57  C   UNL A   1      42.806  28.503  35.320  1.00  0.00     0.031 C 
ATOM     58  C   UNL A   1      41.118  34.040  33.465  1.00  0.00     0.029 A 
ATOM     59  C   UNL A   1      41.659  32.764  33.498  1.00  0.00     0.049 A 
ATOM     60  H   UNL A   1      42.716  31.731  31.992  1.00  0.00     0.167 HD
ATOM     61  C   UNL A   1      42.198  30.575  34.537  1.00  0.00     0.074 A 
ATOM     62  C   UNL A   1      42.153  29.617  35.625  1.00  0.00     0.031 C 
ATOM     63  C   UNL A   1      41.640  31.811  34.580  1.00  0.00     0.031 A 
BRANCH  50  64
ATOM     64  C   UNL A   1      42.457  35.148  29.431  1.00  0.00    -0.014 A 
ATOM     65  C   UNL A   1      43.400  36.172  29.645  1.00  0.00     0.010 A 
ATOM     66  C   UNL A   1      41.436  35.359  28.485  1.00  0.00     0.010 A 
ATOM     67  C   UNL A   1      43.311  37.382  28.950  1.00  0.00     0.020 A 
ATOM     68  C   UNL A   1      41.357  36.559  27.769  1.00  0.00     0.020 A 
ATOM     69  C   UNL A   1      42.290  37.569  28.015  1.00  0.00     0.054 A 
BRANCH  69  70
ATOM     70  S   UNL A   1      42.236  39.130  27.090  1.00  0.00     0.124 S 
ATOM     71  O   UNL A   1      41.957  40.098  28.146  1.00  0.00    -0.237 OA
ATOM     72  O   UNL A   1      43.573  39.204  26.508  1.00  0.00    -0.237 OA
ATOM     73  O   UNL A   1      41.153  38.928  26.129  1.00  0.00    -0.744 OA
ENDBRANCH  69  70
ENDBRANCH  50  64
BRANCH  51  74
ATOM     74  C   UNL A   1      44.272  26.393  33.881  1.00  0.00    -0.014 A 
ATOM     75  C   UNL A   1      43.375  25.311  33.877  1.00  0.00     0.010 A 
ATOM     76  C   UNL A   1      45.551  26.227  34.444  1.00  0.00     0.010 A 
ATOM     77  C   UNL A   1      43.745  24.086  34.434  1.00  0.00     0.020 A 
ATOM     78  C   UNL A   1      45.932  24.996  34.984  1.00  0.00     0.020 A 
ATOM     79  C   UNL A   1      45.023  23.933  34.979  1.00  0.00     0.054 A 
BRANCH  79  80
ATOM     80  S   UNL A   1      45.502  22.307  35.622  1.00  0.00     0.124 S 
ATOM     81  O   UNL A   1      45.358  22.494  37.061  1.00  0.00    -0.237 OA
ATOM     82  O   UNL A   1      44.524  21.420  34.997  1.00  0.00    -0.237 OA
ATOM     83  O   UNL A   1      46.874  22.141  35.146  1.00  0.00    -0.744 OA
ENDBRANCH  79  80
ENDBRANCH  51  74
BRANCH  63  84
ATOM     84  C   UNL A   1      40.908  32.184  35.842  1.00  0.00    -0.014 A 
ATOM     85  C   UNL A   1      41.574  32.807  36.913  1.00  0.00     0.010 A 
ATOM     86  C   UNL A   1      39.530  31.924  35.946  1.00  0.00     0.010 A 
ATOM     87  C   UNL A   1      40.880  33.124  38.084  1.00  0.00     0.020 A 
ATOM     88  C   UNL A   1      38.828  32.267  37.104  1.00  0.00     0.020 A 
ATOM     89  C   UNL A   1      39.512  32.849  38.173  1.00  0.00     0.054 A 
BRANCH  89  90
ATOM     90  S   UNL A   1      38.631  33.292  39.694  1.00  0.00     0.124 S 
ATOM     91  O   UNL A   1      39.328  32.490  40.695  1.00  0.00    -0.237 OA
ATOM     92  O   UNL A   1      38.848  34.734  39.783  1.00  0.00    -0.237 OA
ATOM     93  O   UNL A   1      37.252  32.892  39.425  1.00  0.00    -0.744 OA
ENDBRANCH  89  90
ENDBRANCH  63  84
ENDBRANCH  37  38
ENDBRANCH  29  32
ENDBRANCH  27  28
ENDBRANCH  26  27
ENDBRANCH  25  26
ENDBRANCH   1  25
TORSDOF 19
ENDMDL
MODEL 2
REMARK VINA RESULT:      -8.2      3.444     10.681
REMARK SMILES O=C(CS(=O)(=O)NCc1ccc(N2CCOCC2)nc1)NCCCCNC(=O)c1ccc(-c2c3nc(c(-c4ccc(S(=O)(=O)[O-])cc4)c4ccc([nH]4)c(-c4ccc(S(=O)(=O)[O-])cc4)c4nc(c(-c5ccc(S(=O)(=O)[O-])cc5)c5ccc2[nH]5)C=C4)C=C3)cc1
REMARK SMILES IDX 22 1 21 2 1 3 2 4 3 6 4 7 5 8 6 9 7 10 8 12 9 13 10 14 20 15
REMARK SMILES IDX 11 16 19 17 12 18 13 19 14 20 18 21 15 22 17 23 16 24 23 25
REMARK SMILES IDX 24 26 25 27 26 28 27 29 28 31 29 32 30 33 88 34 31 35 87 36
REMARK SMILES IDX 32 37 33 38 34 39 81 40 35 41 86 42 80 43 82 44 36 45 85 46
REMARK SMILES IDX 79 47 78 48 37 50 67 51 48 52 66 53 49 54 52 55 65 56 83 57
REMARK SMILES IDX 50 58 51 59 64 61 84 62 53 63 38 64 39 65 47 66 40 67 46 68
REMARK SMILES IDX 41 69 42 70 43 71 44 72 45 73 68 74 69 75 77 76 70 77 76 78
REMARK SMILES IDX 71 79 72 80 73 81 74 82 75 83 54 84 55 85 63 86 56 87 62 88
REMARK SMILES IDX 57 89 58 90 59 91 60 92 61 93
REMARK H PARENT 21 5 7 11 26 30 82 49 52 60
REMARK Flexibility Score: inf
ROOT
ATOM      1  C   UNL A   1      35.244  32.673  30.632  1.00  0.00     0.116 C 
ENDROOT
BRANCH   1   2
ATOM      2  N   UNL A   1      35.998  32.902  31.852  1.00  0.00    -0.355 N 
ATOM      3  O   UNL A   1      34.179  32.997  33.244  1.00  0.00    -0.274 OA
ATOM      4  C   UNL A   1      35.400  33.018  33.090  1.00  0.00     0.236 C 
ATOM      5  H   UNL A   1      36.977  32.978  31.793  1.00  0.00     0.163 HD
BRANCH   4   6
ATOM      6  C   UNL A   1      36.318  33.245  34.251  1.00  0.00     0.253 C 
BRANCH   6   7
ATOM      7  S   UNL A   1      37.539  34.474  33.894  1.00  0.00     0.220 S 
ATOM      8  O   UNL A   1      36.985  35.404  32.931  1.00  0.00    -0.212 OA
ATOM      9  O   UNL A   1      38.031  34.961  35.163  1.00  0.00    -0.212 OA
BRANCH   7  10
ATOM     10  N   UNL A   1      38.840  33.661  33.239  1.00  0.00    -0.210 NA
ATOM     11  H   UNL A   1      38.464  33.113  32.466  1.00  0.00     0.141 HD
BRANCH  10  12
ATOM     12  C   UNL A   1      40.032  34.334  32.714  1.00  0.00     0.135 C 
BRANCH  12  13
ATOM     13  C   UNL A   1      41.044  33.448  32.060  1.00  0.00    -0.015 A 
ATOM     14  C   UNL A   1      40.973  33.141  30.703  1.00  0.00     0.010 A 
ATOM     15  C   UNL A   1      42.116  32.920  32.766  1.00  0.00     0.118 A 
ATOM     16  C   UNL A   1      41.991  32.397  30.110  1.00  0.00     0.047 A 
ATOM     17  N   UNL A   1      43.112  32.202  32.208  1.00  0.00    -0.239 NA
ATOM     18  C   UNL A   1      43.061  31.962  30.886  1.00  0.00     0.128 A 
BRANCH  18  19
ATOM     19  N   UNL A   1      44.144  31.375  30.305  1.00  0.00    -0.352 N 
ATOM     20  C   UNL A   1      44.007  30.808  28.972  1.00  0.00     0.146 C 
ATOM     21  C   UNL A   1      45.422  31.186  30.969  1.00  0.00     0.146 C 
ATOM     22  C   UNL A   1      44.441  29.341  29.041  1.00  0.00     0.181 C 
ATOM     23  C   UNL A   1      45.800  29.696  30.938  1.00  0.00     0.181 C 
ATOM     24  O   UNL A   1      45.753  29.170  29.601  1.00  0.00    -0.378 OA
ENDBRANCH  18  19
ENDBRANCH  12  13
ENDBRANCH  10  12
ENDBRANCH   7  10
ENDBRANCH   6   7
ENDBRANCH   4   6
ENDBRANCH   1   2
BRANCH   1  25
ATOM     25  C   UNL A   1      35.912  33.252  29.389  1.00  0.00     0.023 C 
BRANCH  25  26
ATOM     26  C   UNL A   1      35.080  33.212  28.106  1.00  0.00     0.023 C 
BRANCH  26  27
ATOM     27  C   UNL A   1      33.682  32.604  28.201  1.00  0.00     0.116 C 
BRANCH  27  28
ATOM     28  N   UNL A   1      33.465  31.467  27.324  1.00  0.00    -0.352 N 
ATOM     29  C   UNL A   1      34.221  30.346  27.054  1.00  0.00     0.251 C 
ATOM     30  H   UNL A   1      32.615  31.504  26.826  1.00  0.00     0.163 HD
ATOM     31  O   UNL A   1      33.783  29.572  26.200  1.00  0.00    -0.269 OA
BRANCH  29  32
ATOM     32  C   UNL A   1      35.515  30.019  27.731  1.00  0.00     0.039 A 
ATOM     33  C   UNL A   1      36.714  30.211  27.016  1.00  0.00     0.014 A 
ATOM     34  C   UNL A   1      35.599  29.469  29.007  1.00  0.00     0.014 A 
ATOM     35  C   UNL A   1      37.960  29.875  27.575  1.00  0.00     0.010 A 
ATOM     36  C   UNL A   1      36.832  29.154  29.575  1.00  0.00     0.010 A 
ATOM     37  C   UNL A   1      38.020  29.343  28.864  1.00  0.00    -0.014 A 
BRANCH  37  38
ATOM     38  C   UNL A   1      39.278  29.081  29.596  1.00  0.00     0.031 A 
ATOM     39  C   UNL A   1      40.249  28.033  29.133  1.00  0.00     0.074 A 
ATOM     40  C   UNL A   1      39.377  29.611  30.829  1.00  0.00     0.049 A 
ATOM     41  N   UNL A   1      41.323  27.591  29.736  1.00  0.00    -0.248 NA
ATOM     42  C   UNL A   1      39.965  27.377  27.848  1.00  0.00     0.031 C 
ATOM     43  C   UNL A   1      38.407  30.539  31.420  1.00  0.00     0.029 A 
ATOM     44  N   UNL A   1      40.274  29.376  31.836  1.00  0.00    -0.354 N 
ATOM     45  C   UNL A   1      41.860  26.621  28.898  1.00  0.00     0.074 A 
ATOM     46  C   UNL A   1      40.962  26.502  27.768  1.00  0.00     0.031 C 
ATOM     47  C   UNL A   1      38.720  30.734  32.709  1.00  0.00     0.029 A 
ATOM     48  C   UNL A   1      39.919  29.965  33.024  1.00  0.00     0.049 A 
ATOM     49  H   UNL A   1      41.091  28.840  31.719  1.00  0.00     0.167 HD
ATOM     50  C   UNL A   1      43.005  25.909  29.058  1.00  0.00     0.031 A 
ATOM     51  C   UNL A   1      40.491  29.892  34.240  1.00  0.00     0.031 A 
ATOM     52  C   UNL A   1      43.854  26.011  30.222  1.00  0.00     0.049 A 
ATOM     53  C   UNL A   1      41.770  29.127  34.391  1.00  0.00     0.074 A 
ATOM     54  C   UNL A   1      45.093  25.434  30.442  1.00  0.00     0.029 A 
ATOM     55  N   UNL A   1      43.534  26.713  31.376  1.00  0.00    -0.354 N 
ATOM     56  N   UNL A   1      42.373  28.358  33.517  1.00  0.00    -0.248 NA
ATOM     57  C   UNL A   1      42.474  29.266  35.670  1.00  0.00     0.031 C 
ATOM     58  C   UNL A   1      45.496  25.743  31.747  1.00  0.00     0.029 A 
ATOM     59  C   UNL A   1      44.537  26.562  32.320  1.00  0.00     0.049 A 
ATOM     60  H   UNL A   1      42.714  27.243  31.505  1.00  0.00     0.167 HD
ATOM     61  C   UNL A   1      43.555  27.955  34.125  1.00  0.00     0.074 A 
ATOM     62  C   UNL A   1      43.578  28.569  35.439  1.00  0.00     0.031 C 
ATOM     63  C   UNL A   1      44.538  27.162  33.632  1.00  0.00     0.031 A 
BRANCH  50  64
ATOM     64  C   UNL A   1      43.433  24.982  27.945  1.00  0.00    -0.014 A 
ATOM     65  C   UNL A   1      44.271  25.441  26.912  1.00  0.00     0.010 A 
ATOM     66  C   UNL A   1      43.088  23.617  27.979  1.00  0.00     0.010 A 
ATOM     67  C   UNL A   1      44.734  24.565  25.925  1.00  0.00     0.020 A 
ATOM     68  C   UNL A   1      43.569  22.731  27.007  1.00  0.00     0.020 A 
ATOM     69  C   UNL A   1      44.381  23.214  25.978  1.00  0.00     0.054 A 
BRANCH  69  70
ATOM     70  S   UNL A   1      45.044  22.093  24.714  1.00  0.00     0.124 S 
ATOM     71  O   UNL A   1      43.985  21.092  24.611  1.00  0.00    -0.237 OA
ATOM     72  O   UNL A   1      45.193  22.969  23.555  1.00  0.00    -0.237 OA
ATOM     73  O   UNL A   1      46.298  21.615  25.294  1.00  0.00    -0.744 OA
ENDBRANCH  69  70
ENDBRANCH  50  64
BRANCH  51  74
ATOM     74  C   UNL A   1      39.894  30.655  35.365  1.00  0.00    -0.014 A 
ATOM     75  C   UNL A   1      40.490  31.855  35.787  1.00  0.00     0.010 A 
ATOM     76  C   UNL A   1      38.686  30.239  35.954  1.00  0.00     0.010 A 
ATOM     77  C   UNL A   1      39.893  32.625  36.787  1.00  0.00     0.020 A 
ATOM     78  C   UNL A   1      38.076  31.018  36.941  1.00  0.00     0.020 A 
ATOM     79  C   UNL A   1      38.687  32.205  37.354  1.00  0.00     0.054 A 
BRANCH  79  80
ATOM     80  S   UNL A   1      37.897  33.267  38.594  1.00  0.00     0.124 S 
ATOM     81  O   UNL A   1      38.145  32.530  39.828  1.00  0.00    -0.237 OA
ATOM     82  O   UNL A   1      38.630  34.522  38.446  1.00  0.00    -0.237 OA
ATOM     83  O   UNL A   1      36.501  33.316  38.162  1.00  0.00    -0.744 OA
ENDBRANCH  79  80
ENDBRANCH  51  74
BRANCH  63  84
ATOM     84  C   UNL A   1      45.738  26.936  34.513  1.00  0.00    -0.014 A 
ATOM     85  C   UNL A   1      45.711  25.989  35.553  1.00  0.00     0.010 A 
ATOM     86  C   UNL A   1      46.915  27.672  34.283  1.00  0.00     0.010 A 
ATOM     87  C   UNL A   1      46.828  25.813  36.374  1.00  0.00     0.020 A 
ATOM     88  C   UNL A   1      48.043  27.476  35.084  1.00  0.00     0.020 A 
ATOM     89  C   UNL A   1      47.986  26.560  36.136  1.00  0.00     0.054 A 
BRANCH  89  90
ATOM     90  S   UNL A   1      49.430  26.295  37.200  1.00  0.00     0.124 S 
ATOM     91  O   UNL A   1      49.845  24.947  36.819  1.00  0.00    -0.237 OA
ATOM     92  O   UNL A   1      50.332  27.368  36.791  1.00  0.00    -0.237 OA
ATOM     93  O   UNL A   1      48.892  26.422  38.552  1.00  0.00    -0.744 OA
ENDBRANCH  89  90
ENDBRANCH  63  84
ENDBRANCH  37  38
ENDBRANCH  29  32
ENDBRANCH  27  28
ENDBRANCH  26  27
ENDBRANCH  25  26
ENDBRANCH   1  25
TORSDOF 19
ENDMDL
MODEL 3
REMARK VINA RESULT:      -7.7      4.678     11.492
REMARK SMILES O=C(CS(=O)(=O)NCc1ccc(N2CCOCC2)nc1)NCCCCNC(=O)c1ccc(-c2c3nc(c(-c4ccc(S(=O)(=O)[O-])cc4)c4ccc([nH]4)c(-c4ccc(S(=O)(=O)[O-])cc4)c4nc(c(-c5ccc(S(=O)(=O)[O-])cc5)c5ccc2[nH]5)C=C4)C=C3)cc1
REMARK SMILES IDX 22 1 21 2 1 3 2 4 3 6 4 7 5 8 6 9 7 10 8 12 9 13 10 14 20 15
REMARK SMILES IDX 11 16 19 17 12 18 13 19 14 20 18 21 15 22 17 23 16 24 23 25
REMARK SMILES IDX 24 26 25 27 26 28 27 29 28 31 29 32 30 33 88 34 31 35 87 36
REMARK SMILES IDX 32 37 33 38 34 39 81 40 35 41 86 42 80 43 82 44 36 45 85 46
REMARK SMILES IDX 79 47 78 48 37 50 67 51 48 52 66 53 49 54 52 55 65 56 83 57
REMARK SMILES IDX 50 58 51 59 64 61 84 62 53 63 38 64 39 65 47 66 40 67 46 68
REMARK SMILES IDX 41 69 42 70 43 71 44 72 45 73 68 74 69 75 77 76 70 77 76 78
REMARK SMILES IDX 71 79 72 80 73 81 74 82 75 83 54 84 55 85 63 86 56 87 62 88
REMARK SMILES IDX 57 89 58 90 59 91 60 92 61 93
REMARK H PARENT 21 5 7 11 26 30 82 49 52 60
REMARK Flexibility Score: inf
ROOT
ATOM      1  C   UNL A   1      39.896  28.474  29.594  1.00  0.00     0.116 C 
ENDROOT
BRANCH   1   2
ATOM      2  N   UNL A   1      40.328  28.281  28.221  1.00  0.00    -0.355 N 
ATOM      3  O   UNL A   1      42.062  29.777  28.302  1.00  0.00    -0.274 OA
ATOM      4  C   UNL A   1      41.415  28.935  27.680  1.00  0.00     0.236 C 
ATOM      5  H   UNL A   1      39.822  27.657  27.652  1.00  0.00     0.163 HD
BRANCH   4   6
ATOM      6  C   UNL A   1      41.734  28.621  26.251  1.00  0.00     0.253 C 
BRANCH   6   7
ATOM      7  S   UNL A   1      42.495  27.032  26.080  1.00  0.00     0.220 S 
ATOM      8  O   UNL A   1      42.623  26.736  24.667  1.00  0.00    -0.212 OA
ATOM      9  O   UNL A   1      43.668  27.033  26.925  1.00  0.00    -0.212 OA
BRANCH   7  10
ATOM     10  N   UNL A   1      41.467  25.943  26.814  1.00  0.00    -0.210 NA
ATOM     11  H   UNL A   1      40.891  25.557  26.066  1.00  0.00     0.141 HD
BRANCH  10  12
ATOM     12  C   UNL A   1      41.932  24.795  27.598  1.00  0.00     0.135 C 
BRANCH  12  13
ATOM     13  C   UNL A   1      42.635  23.722  26.827  1.00  0.00    -0.015 A 
ATOM     14  C   UNL A   1      44.024  23.623  26.823  1.00  0.00     0.010 A 
ATOM     15  C   UNL A   1      41.935  22.762  26.111  1.00  0.00     0.118 A 
ATOM     16  C   UNL A   1      44.636  22.550  26.178  1.00  0.00     0.047 A 
ATOM     17  N   UNL A   1      42.510  21.715  25.483  1.00  0.00    -0.239 NA
ATOM     18  C   UNL A   1      43.849  21.598  25.537  1.00  0.00     0.128 A 
BRANCH  18  19
ATOM     19  N   UNL A   1      44.407  20.460  25.038  1.00  0.00    -0.352 N 
ATOM     20  C   UNL A   1      43.615  19.240  25.013  1.00  0.00     0.146 C 
ATOM     21  C   UNL A   1      45.791  20.352  24.610  1.00  0.00     0.146 C 
ATOM     22  C   UNL A   1      44.398  18.159  25.765  1.00  0.00     0.181 C 
ATOM     23  C   UNL A   1      46.476  19.208  25.375  1.00  0.00     0.181 C 
ATOM     24  O   UNL A   1      45.733  17.982  25.264  1.00  0.00    -0.378 OA
ENDBRANCH  18  19
ENDBRANCH  12  13
ENDBRANCH  10  12
ENDBRANCH   7  10
ENDBRANCH   6   7
ENDBRANCH   4   6
ENDBRANCH   1   2
BRANCH   1  25
ATOM     25  C   UNL A   1      38.488  27.954  29.866  1.00  0.00     0.023 C 
BRANCH  25  26
ATOM     26  C   UNL A   1      37.463  29.003  30.302  1.00  0.00     0.023 C 
BRANCH  26  27
ATOM     27  C   UNL A   1      37.884  30.469  30.209  1.00  0.00     0.116 C 
BRANCH  27  28
ATOM     28  N   UNL A   1      37.719  31.216  31.443  1.00  0.00    -0.352 N 
ATOM     29  C   UNL A   1      38.433  31.227  32.623  1.00  0.00     0.251 C 
ATOM     30  H   UNL A   1      36.951  31.833  31.437  1.00  0.00     0.163 HD
ATOM     31  O   UNL A   1      38.002  31.946  33.527  1.00  0.00    -0.269 OA
BRANCH  29  32
ATOM     32  C   UNL A   1      39.681  30.436  32.861  1.00  0.00     0.039 A 
ATOM     33  C   UNL A   1      40.925  31.071  32.674  1.00  0.00     0.014 A 
ATOM     34  C   UNL A   1      39.684  29.083  33.191  1.00  0.00     0.014 A 
ATOM     35  C   UNL A   1      42.134  30.371  32.831  1.00  0.00     0.010 A 
ATOM     36  C   UNL A   1      40.879  28.389  33.368  1.00  0.00     0.010 A 
ATOM     37  C   UNL A   1      42.112  29.020  33.182  1.00  0.00    -0.014 A 
BRANCH  37  38
ATOM     38  C   UNL A   1      43.317  28.225  33.501  1.00  0.00     0.031 A 
ATOM     39  C   UNL A   1      43.880  28.180  34.892  1.00  0.00     0.074 A 
ATOM     40  C   UNL A   1      44.040  27.783  32.454  1.00  0.00     0.049 A 
ATOM     41  N   UNL A   1      45.001  27.644  35.304  1.00  0.00    -0.248 NA
ATOM     42  C   UNL A   1      43.105  28.845  35.950  1.00  0.00     0.031 C 
ATOM     43  C   UNL A   1      43.635  27.903  31.050  1.00  0.00     0.029 A 
ATOM     44  N   UNL A   1      45.294  27.239  32.397  1.00  0.00    -0.354 N 
ATOM     45  C   UNL A   1      45.060  27.884  36.672  1.00  0.00     0.074 A 
ATOM     46  C   UNL A   1      43.885  28.662  37.010  1.00  0.00     0.031 C 
ATOM     47  C   UNL A   1      44.654  27.517  30.269  1.00  0.00     0.029 A 
ATOM     48  C   UNL A   1      45.767  27.105  31.116  1.00  0.00     0.049 A 
ATOM     49  H   UNL A   1      45.805  26.972  33.195  1.00  0.00     0.167 HD
ATOM     50  C   UNL A   1      46.003  27.478  37.558  1.00  0.00     0.031 A 
ATOM     51  C   UNL A   1      46.968  26.698  30.666  1.00  0.00     0.031 A 
ATOM     52  C   UNL A   1      47.192  26.748  37.183  1.00  0.00     0.049 A 
ATOM     53  C   UNL A   1      47.987  26.224  31.657  1.00  0.00     0.074 A 
ATOM     54  C   UNL A   1      48.154  26.181  38.002  1.00  0.00     0.029 A 
ATOM     55  N   UNL A   1      47.597  26.512  35.876  1.00  0.00    -0.354 N 
ATOM     56  N   UNL A   1      47.946  26.283  32.967  1.00  0.00    -0.248 NA
ATOM     57  C   UNL A   1      49.186  25.578  31.113  1.00  0.00     0.031 C 
ATOM     58  C   UNL A   1      49.166  25.652  37.190  1.00  0.00     0.029 A 
ATOM     59  C   UNL A   1      48.806  25.835  35.865  1.00  0.00     0.049 A 
ATOM     60  H   UNL A   1      47.097  26.787  35.073  1.00  0.00     0.167 HD
ATOM     61  C   UNL A   1      49.095  25.641  33.407  1.00  0.00     0.074 A 
ATOM     62  C   UNL A   1      49.807  25.200  32.222  1.00  0.00     0.031 C 
ATOM     63  C   UNL A   1      49.514  25.420  34.679  1.00  0.00     0.031 A 
BRANCH  50  64
ATOM     64  C   UNL A   1      45.786  27.777  39.023  1.00  0.00    -0.014 A 
ATOM     65  C   UNL A   1      45.053  26.891  39.835  1.00  0.00     0.010 A 
ATOM     66  C   UNL A   1      46.402  28.891  39.624  1.00  0.00     0.010 A 
ATOM     67  C   UNL A   1      44.919  27.124  41.207  1.00  0.00     0.020 A 
ATOM     68  C   UNL A   1      46.291  29.115  41.002  1.00  0.00     0.020 A 
ATOM     69  C   UNL A   1      45.540  28.235  41.783  1.00  0.00     0.054 A 
BRANCH  69  70
ATOM     70  S   UNL A   1      45.392  28.479  43.576  1.00  0.00     0.124 S 
ATOM     71  O   UNL A   1      45.384  29.935  43.684  1.00  0.00    -0.237 OA
ATOM     72  O   UNL A   1      44.126  27.821  43.886  1.00  0.00    -0.237 OA
ATOM     73  O   UNL A   1      46.580  27.822  44.117  1.00  0.00    -0.744 OA
ENDBRANCH  69  70
ENDBRANCH  50  64
BRANCH  51  74
ATOM     74  C   UNL A   1      47.207  26.634  29.203  1.00  0.00    -0.014 A 
ATOM     75  C   UNL A   1      46.848  25.479  28.488  1.00  0.00     0.010 A 
ATOM     76  C   UNL A   1      47.704  27.750  28.506  1.00  0.00     0.010 A 
ATOM     77  C   UNL A   1      46.989  25.436  27.100  1.00  0.00     0.020 A 
ATOM     78  C   UNL A   1      47.828  27.718  27.114  1.00  0.00     0.020 A 
ATOM     79  C   UNL A   1      47.473  26.557  26.420  1.00  0.00     0.054 A 
BRANCH  79  80
ATOM     80  S   UNL A   1      47.570  26.499  24.610  1.00  0.00     0.124 S 
ATOM     81  O   UNL A   1      47.605  25.064  24.354  1.00  0.00    -0.237 OA
ATOM     82  O   UNL A   1      46.345  27.185  24.207  1.00  0.00    -0.237 OA
ATOM     83  O   UNL A   1      48.805  27.221  24.311  1.00  0.00    -0.744 OA
ENDBRANCH  79  80
ENDBRANCH  51  74
BRANCH  63  84
ATOM     84  C   UNL A   1      50.791  24.643  34.850  1.00  0.00    -0.014 A 
ATOM     85  C   UNL A   1      52.043  25.282  34.815  1.00  0.00     0.010 A 
ATOM     86  C   UNL A   1      50.733  23.255  35.070  1.00  0.00     0.010 A 
ATOM     87  C   UNL A   1      53.218  24.538  34.954  1.00  0.00     0.020 A 
ATOM     88  C   UNL A   1      51.905  22.512  35.238  1.00  0.00     0.020 A 
ATOM     89  C   UNL A   1      53.141  23.157  35.161  1.00  0.00     0.054 A 
BRANCH  89  90
ATOM     90  S   UNL A   1      54.679  22.218  35.362  1.00  0.00     0.124 S 
ATOM     91  O   UNL A   1      55.191  22.740  36.626  1.00  0.00    -0.237 OA
ATOM     92  O   UNL A   1      54.209  20.835  35.398  1.00  0.00    -0.237 OA
ATOM     93  O   UNL A   1      55.459  22.573  34.179  1.00  0.00    -0.744 OA
ENDBRANCH  89  90
ENDBRANCH  63  84
ENDBRANCH  37  38
ENDBRANCH  29  32
ENDBRANCH  27  28
ENDBRANCH  26  27
ENDBRANCH  25  26
ENDBRANCH   1  25
TORSDOF 19
ENDMDL
