MODEL 1
REMARK VINA RESULT:     -11.4      0.000      0.000
REMARK SMILES O=C(NCCCCNC(=O)[C@H]1CCCN(C(=O)C2CCN(S(=O)(=O)c3ccccc3)CC2)C1)c1ccc(-c2c3nc(c(-c4ccc(S(=O)(=O)[O-])cc4)c4ccc([nH]4)c(-c4ccc(S(=O)(=O)[O-])cc4)c4nc(c(-c5ccc(S(=O)(=O)[O-])cc5)c5ccc2[nH]5)C=C4)C=C3)cc1
REMARK SMILES IDX 6 1 5 2 4 3 3 4 1 5 2 6 34 8 35 9 93 10 36 11 92 12 37 13
REMARK SMILES IDX 38 14 39 15 86 16 40 17 91 18 85 19 87 20 41 21 90 22 84 23
REMARK SMILES IDX 83 24 42 26 72 27 53 28 71 29 54 30 57 31 70 32 88 33 55 34
REMARK SMILES IDX 56 35 69 37 89 38 58 39 43 40 44 41 52 42 45 43 51 44 46 45
REMARK SMILES IDX 47 46 48 47 49 48 50 49 73 50 74 51 82 52 75 53 81 54 76 55
REMARK SMILES IDX 77 56 78 57 79 58 80 59 59 60 60 61 68 62 61 63 67 64 62 65
REMARK SMILES IDX 63 66 64 67 65 68 66 69 7 70 8 71 9 72 10 74 11 75 12 76
REMARK SMILES IDX 33 77 13 78 15 79 14 80 16 81 17 82 18 83 19 84 32 85 20 86
REMARK SMILES IDX 31 87 21 88 22 89 23 90 24 91 25 92 26 93 30 94 27 95 29 96
REMARK SMILES IDX 28 97
REMARK H PARENT 3 7 87 25 57 36 8 73
REMARK Flexibility Score: inf
ROOT
ATOM      1  C   UNL A   1      35.526  31.513  28.017  1.00  0.00     0.023 C 
ENDROOT
BRANCH   1   2
ATOM      2  C   UNL A   1      35.539  31.841  29.507  1.00  0.00     0.023 C 
BRANCH   2   3
ATOM      3  C   UNL A   1      36.187  30.782  30.381  1.00  0.00     0.116 C 
BRANCH   3   4
ATOM      4  N   UNL A   1      36.454  31.244  31.734  1.00  0.00    -0.352 N 
ATOM      5  O   UNL A   1      37.707  31.522  33.594  1.00  0.00    -0.269 OA
ATOM      6  C   UNL A   1      37.650  31.206  32.411  1.00  0.00     0.251 C 
ATOM      7  H   UNL A   1      35.690  31.629  32.221  1.00  0.00     0.163 HD
BRANCH   6   8
ATOM      8  C   UNL A   1      38.855  30.747  31.691  1.00  0.00     0.039 A 
ATOM      9  C   UNL A   1      39.105  31.191  30.390  1.00  0.00     0.014 A 
ATOM     10  C   UNL A   1      39.717  29.843  32.314  1.00  0.00     0.014 A 
ATOM     11  C   UNL A   1      40.161  30.650  29.670  1.00  0.00     0.010 A 
ATOM     12  C   UNL A   1      40.823  29.357  31.615  1.00  0.00     0.010 A 
ATOM     13  C   UNL A   1      41.046  29.751  30.287  1.00  0.00    -0.014 A 
BRANCH  13  14
ATOM     14  C   UNL A   1      42.274  29.344  29.568  1.00  0.00     0.031 A 
ATOM     15  C   UNL A   1      42.412  27.981  28.956  1.00  0.00     0.074 A 
ATOM     16  C   UNL A   1      43.276  30.243  29.487  1.00  0.00     0.049 A 
ATOM     17  N   UNL A   1      43.433  27.477  28.313  1.00  0.00    -0.248 NA
ATOM     18  C   UNL A   1      41.269  27.063  29.083  1.00  0.00     0.031 C 
ATOM     19  C   UNL A   1      43.246  31.590  30.067  1.00  0.00     0.029 A 
ATOM     20  N   UNL A   1      44.504  30.168  28.887  1.00  0.00    -0.354 N 
ATOM     21  C   UNL A   1      43.072  26.178  27.980  1.00  0.00     0.074 A 
ATOM     22  C   UNL A   1      41.735  25.967  28.493  1.00  0.00     0.031 C 
ATOM     23  C   UNL A   1      44.390  32.222  29.774  1.00  0.00     0.029 A 
ATOM     24  C   UNL A   1      45.257  31.307  29.042  1.00  0.00     0.049 A 
ATOM     25  H   UNL A   1      44.818  29.376  28.394  1.00  0.00     0.167 HD
ATOM     26  C   UNL A   1      43.795  25.252  27.307  1.00  0.00     0.031 A 
ATOM     27  C   UNL A   1      46.520  31.578  28.669  1.00  0.00     0.031 A 
ATOM     28  C   UNL A   1      45.120  25.483  26.791  1.00  0.00     0.049 A 
ATOM     29  C   UNL A   1      47.304  30.520  27.952  1.00  0.00     0.074 A 
ATOM     30  C   UNL A   1      45.907  24.632  26.033  1.00  0.00     0.029 A 
ATOM     31  N   UNL A   1      45.860  26.638  26.991  1.00  0.00    -0.354 N 
ATOM     32  N   UNL A   1      46.916  29.322  27.586  1.00  0.00    -0.248 NA
ATOM     33  C   UNL A   1      48.693  30.844  27.606  1.00  0.00     0.031 C 
ATOM     34  C   UNL A   1      47.142  25.251  25.821  1.00  0.00     0.029 A 
ATOM     35  C   UNL A   1      47.109  26.507  26.409  1.00  0.00     0.049 A 
ATOM     36  H   UNL A   1      45.543  27.435  27.476  1.00  0.00     0.167 HD
ATOM     37  C   UNL A   1      48.018  28.744  26.971  1.00  0.00     0.074 A 
ATOM     38  C   UNL A   1      49.075  29.738  26.984  1.00  0.00     0.031 C 
ATOM     39  C   UNL A   1      48.149  27.501  26.451  1.00  0.00     0.031 A 
BRANCH  26  40
ATOM     40  C   UNL A   1      43.196  23.887  27.103  1.00  0.00    -0.014 A 
ATOM     41  C   UNL A   1      42.598  23.530  25.882  1.00  0.00     0.010 A 
ATOM     42  C   UNL A   1      43.334  22.913  28.110  1.00  0.00     0.010 A 
ATOM     43  C   UNL A   1      42.141  22.224  25.675  1.00  0.00     0.020 A 
ATOM     44  C   UNL A   1      42.893  21.604  27.901  1.00  0.00     0.020 A 
ATOM     45  C   UNL A   1      42.294  21.268  26.685  1.00  0.00     0.054 A 
BRANCH  45  46
ATOM     46  S   UNL A   1      41.753  19.565  26.365  1.00  0.00     0.124 S 
ATOM     47  O   UNL A   1      42.204  18.874  27.570  1.00  0.00    -0.237 OA
ATOM     48  O   UNL A   1      40.305  19.709  26.231  1.00  0.00    -0.237 OA
ATOM     49  O   UNL A   1      42.456  19.202  25.138  1.00  0.00    -0.744 OA
ENDBRANCH  45  46
ENDBRANCH  26  40
BRANCH  27  50
ATOM     50  C   UNL A   1      47.133  32.883  29.028  1.00  0.00    -0.014 A 
ATOM     51  C   UNL A   1      47.082  33.971  28.141  1.00  0.00     0.010 A 
ATOM     52  C   UNL A   1      47.758  33.045  30.279  1.00  0.00     0.010 A 
ATOM     53  C   UNL A   1      47.665  35.192  28.490  1.00  0.00     0.020 A 
ATOM     54  C   UNL A   1      48.317  34.271  30.642  1.00  0.00     0.020 A 
ATOM     55  C   UNL A   1      48.281  35.334  29.738  1.00  0.00     0.054 A 
BRANCH  55  56
ATOM     56  S   UNL A   1      48.998  36.936  30.193  1.00  0.00     0.124 S 
ATOM     57  O   UNL A   1      50.371  36.796  29.721  1.00  0.00    -0.237 OA
ATOM     58  O   UNL A   1      48.166  37.882  29.453  1.00  0.00    -0.237 OA
ATOM     59  O   UNL A   1      48.834  36.980  31.645  1.00  0.00    -0.744 OA
ENDBRANCH  55  56
ENDBRANCH  27  50
BRANCH  39  60
ATOM     60  C   UNL A   1      49.485  27.149  25.863  1.00  0.00    -0.014 A 
ATOM     61  C   UNL A   1      50.422  26.413  26.608  1.00  0.00     0.010 A 
ATOM     62  C   UNL A   1      49.792  27.524  24.543  1.00  0.00     0.010 A 
ATOM     63  C   UNL A   1      51.658  26.080  26.052  1.00  0.00     0.020 A 
ATOM     64  C   UNL A   1      51.018  27.173  23.976  1.00  0.00     0.020 A 
ATOM     65  C   UNL A   1      51.949  26.464  24.739  1.00  0.00     0.054 A 
BRANCH  65  66
ATOM     66  S   UNL A   1      53.544  25.983  24.022  1.00  0.00     0.124 S 
ATOM     67  O   UNL A   1      53.233  25.938  22.596  1.00  0.00    -0.237 OA
ATOM     68  O   UNL A   1      54.427  27.068  24.439  1.00  0.00    -0.237 OA
ATOM     69  O   UNL A   1      53.823  24.688  24.640  1.00  0.00    -0.744 OA
ENDBRANCH  65  66
ENDBRANCH  39  60
ENDBRANCH  13  14
ENDBRANCH   6   8
ENDBRANCH   3   4
ENDBRANCH   2   3
ENDBRANCH   1   2
BRANCH   1  70
ATOM     70  C   UNL A   1      34.482  30.476  27.594  1.00  0.00     0.116 C 
BRANCH  70  71
ATOM     71  N   UNL A   1      33.193  31.086  27.319  1.00  0.00    -0.356 N 
ATOM     72  C   UNL A   1      32.140  30.664  26.562  1.00  0.00     0.224 C 
ATOM     73  H   UNL A   1      33.054  31.957  27.755  1.00  0.00     0.163 HD
ATOM     74  O   UNL A   1      31.174  31.424  26.455  1.00  0.00    -0.275 OA
BRANCH  72  75
ATOM     75  C   UNL A   1      32.116  29.296  25.889  1.00  0.00     0.098 C 
ATOM     76  C   UNL A   1      31.828  28.155  26.875  1.00  0.00     0.017 C 
ATOM     77  C   UNL A   1      31.231  29.344  24.633  1.00  0.00     0.133 C 
ATOM     78  C   UNL A   1      31.408  26.861  26.197  1.00  0.00     0.022 C 
ATOM     79  N   UNL A   1      30.898  28.005  24.124  1.00  0.00    -0.342 N 
ATOM     80  C   UNL A   1      30.348  27.139  25.144  1.00  0.00     0.119 C 
BRANCH  79  81
ATOM     81  C   UNL A   1      31.170  27.694  22.808  1.00  0.00     0.225 C 
ATOM     82  O   UNL A   1      30.341  27.968  21.929  1.00  0.00    -0.275 OA
BRANCH  81  83
ATOM     83  C   UNL A   1      32.476  27.018  22.334  1.00  0.00     0.081 C 
ATOM     84  C   UNL A   1      32.380  25.652  21.674  1.00  0.00     0.030 C 
ATOM     85  C   UNL A   1      33.689  27.160  23.237  1.00  0.00     0.030 C 
ATOM     86  C   UNL A   1      32.770  24.445  22.510  1.00  0.00     0.103 C 
ATOM     87  C   UNL A   1      33.968  25.983  24.147  1.00  0.00     0.103 C 
ATOM     88  N   UNL A   1      33.890  24.652  23.486  1.00  0.00    -0.198 NA
BRANCH  88  89
ATOM     89  S   UNL A   1      33.898  23.323  24.622  1.00  0.00     0.243 S 
ATOM     90  O   UNL A   1      33.327  23.823  25.862  1.00  0.00    -0.207 OA
ATOM     91  O   UNL A   1      33.317  22.184  23.956  1.00  0.00    -0.207 OA
BRANCH  89  92
ATOM     92  C   UNL A   1      35.611  22.969  24.931  1.00  0.00     0.082 A 
ATOM     93  C   UNL A   1      36.148  21.752  24.501  1.00  0.00     0.022 A 
ATOM     94  C   UNL A   1      36.371  23.835  25.726  1.00  0.00     0.022 A 
ATOM     95  C   UNL A   1      37.462  21.423  24.836  1.00  0.00     0.001 A 
ATOM     96  C   UNL A   1      37.691  23.511  26.035  1.00  0.00     0.001 A 
ATOM     97  C   UNL A   1      38.235  22.306  25.592  1.00  0.00     0.000 A 
ENDBRANCH  89  92
ENDBRANCH  88  89
ENDBRANCH  81  83
ENDBRANCH  79  81
ENDBRANCH  72  75
ENDBRANCH  70  71
ENDBRANCH   1  70
TORSDOF 18
ENDMDL
MODEL 2
REMARK VINA RESULT:     -11.2      2.041      8.365
REMARK SMILES O=C(NCCCCNC(=O)[C@H]1CCCN(C(=O)C2CCN(S(=O)(=O)c3ccccc3)CC2)C1)c1ccc(-c2c3nc(c(-c4ccc(S(=O)(=O)[O-])cc4)c4ccc([nH]4)c(-c4ccc(S(=O)(=O)[O-])cc4)c4nc(c(-c5ccc(S(=O)(=O)[O-])cc5)c5ccc2[nH]5)C=C4)C=C3)cc1
REMARK SMILES IDX 6 1 5 2 4 3 3 4 1 5 2 6 34 8 35 9 93 10 36 11 92 12 37 13
REMARK SMILES IDX 38 14 39 15 86 16 40 17 91 18 85 19 87 20 41 21 90 22 84 23
REMARK SMILES IDX 83 24 42 26 72 27 53 28 71 29 54 30 57 31 70 32 88 33 55 34
REMARK SMILES IDX 56 35 69 37 89 38 58 39 43 40 44 41 52 42 45 43 51 44 46 45
REMARK SMILES IDX 47 46 48 47 49 48 50 49 73 50 74 51 82 52 75 53 81 54 76 55
REMARK SMILES IDX 77 56 78 57 79 58 80 59 59 60 60 61 68 62 61 63 67 64 62 65
REMARK SMILES IDX 63 66 64 67 65 68 66 69 7 70 8 71 9 72 10 74 11 75 12 76
REMARK SMILES IDX 33 77 13 78 15 79 14 80 16 81 17 82 18 83 19 84 32 85 20 86
REMARK SMILES IDX 31 87 21 88 22 89 23 90 24 91 25 92 26 93 30 94 27 95 29 96
REMARK SMILES IDX 28 97
REMARK H PARENT 3 7 87 25 57 36 8 73
REMARK Flexibility Score: inf
ROOT
ATOM      1  C   UNL A   1      34.242  29.100  26.873  1.00  0.00     0.023 C 
ENDROOT
BRANCH   1   2
ATOM      2  C   UNL A   1      34.790  30.152  27.833  1.00  0.00     0.023 C 
BRANCH   2   3
ATOM      3  C   UNL A   1      35.750  29.613  28.880  1.00  0.00     0.116 C 
BRANCH   3   4
ATOM      4  N   UNL A   1      35.734  30.379  30.115  1.00  0.00    -0.352 N 
ATOM      5  O   UNL A   1      36.638  31.267  31.986  1.00  0.00    -0.269 OA
ATOM      6  C   UNL A   1      36.808  30.718  30.905  1.00  0.00     0.251 C 
ATOM      7  H   UNL A   1      34.853  30.692  30.422  1.00  0.00     0.163 HD
BRANCH   6   8
ATOM      8  C   UNL A   1      38.166  30.376  30.434  1.00  0.00     0.039 A 
ATOM      9  C   UNL A   1      39.095  29.823  31.321  1.00  0.00     0.014 A 
ATOM     10  C   UNL A   1      38.515  30.642  29.110  1.00  0.00     0.014 A 
ATOM     11  C   UNL A   1      40.407  29.633  30.910  1.00  0.00     0.010 A 
ATOM     12  C   UNL A   1      39.815  30.379  28.677  1.00  0.00     0.010 A 
ATOM     13  C   UNL A   1      40.771  29.882  29.577  1.00  0.00    -0.014 A 
BRANCH  13  14
ATOM     14  C   UNL A   1      42.120  29.484  29.113  1.00  0.00     0.031 A 
ATOM     15  C   UNL A   1      43.249  30.469  29.041  1.00  0.00     0.074 A 
ATOM     16  C   UNL A   1      42.298  28.198  28.748  1.00  0.00     0.049 A 
ATOM     17  N   UNL A   1      44.477  30.271  28.639  1.00  0.00    -0.248 NA
ATOM     18  C   UNL A   1      42.971  31.850  29.467  1.00  0.00     0.031 C 
ATOM     19  C   UNL A   1      41.255  27.166  28.764  1.00  0.00     0.029 A 
ATOM     20  N   UNL A   1      43.410  27.538  28.299  1.00  0.00    -0.354 N 
ATOM     21  C   UNL A   1      45.114  31.501  28.736  1.00  0.00     0.074 A 
ATOM     22  C   UNL A   1      44.136  32.445  29.234  1.00  0.00     0.031 C 
ATOM     23  C   UNL A   1      41.783  26.000  28.368  1.00  0.00     0.029 A 
ATOM     24  C   UNL A   1      43.180  26.214  28.012  1.00  0.00     0.049 A 
ATOM     25  H   UNL A   1      44.288  27.969  28.193  1.00  0.00     0.167 HD
ATOM     26  C   UNL A   1      46.398  31.807  28.434  1.00  0.00     0.031 A 
ATOM     27  C   UNL A   1      43.991  25.279  27.486  1.00  0.00     0.031 A 
ATOM     28  C   UNL A   1      47.362  30.852  27.951  1.00  0.00     0.049 A 
ATOM     29  C   UNL A   1      45.398  25.659  27.136  1.00  0.00     0.074 A 
ATOM     30  C   UNL A   1      48.708  31.049  27.686  1.00  0.00     0.029 A 
ATOM     31  N   UNL A   1      47.086  29.529  27.647  1.00  0.00    -0.354 N 
ATOM     32  N   UNL A   1      45.999  26.813  27.300  1.00  0.00    -0.248 NA
ATOM     33  C   UNL A   1      46.232  24.619  26.521  1.00  0.00     0.031 C 
ATOM     34  C   UNL A   1      49.230  29.859  27.169  1.00  0.00     0.029 A 
ATOM     35  C   UNL A   1      48.222  28.908  27.156  1.00  0.00     0.049 A 
ATOM     36  H   UNL A   1      46.209  29.093  27.763  1.00  0.00     0.167 HD
ATOM     37  C   UNL A   1      47.284  26.639  26.804  1.00  0.00     0.074 A 
ATOM     38  C   UNL A   1      47.382  25.261  26.365  1.00  0.00     0.031 C 
ATOM     39  C   UNL A   1      48.289  27.542  26.709  1.00  0.00     0.031 A 
BRANCH  26  40
ATOM     40  C   UNL A   1      46.847  33.235  28.585  1.00  0.00    -0.014 A 
ATOM     41  C   UNL A   1      46.533  34.203  27.617  1.00  0.00     0.010 A 
ATOM     42  C   UNL A   1      47.499  33.633  29.767  1.00  0.00     0.010 A 
ATOM     43  C   UNL A   1      46.868  35.545  27.826  1.00  0.00     0.020 A 
ATOM     44  C   UNL A   1      47.822  34.975  29.987  1.00  0.00     0.020 A 
ATOM     45  C   UNL A   1      47.508  35.923  29.011  1.00  0.00     0.054 A 
BRANCH  45  46
ATOM     46  S   UNL A   1      47.873  37.681  29.285  1.00  0.00     0.124 S 
ATOM     47  O   UNL A   1      48.232  38.127  27.942  1.00  0.00    -0.237 OA
ATOM     48  O   UNL A   1      46.604  38.194  29.798  1.00  0.00    -0.237 OA
ATOM     49  O   UNL A   1      48.969  37.661  30.250  1.00  0.00    -0.744 OA
ENDBRANCH  45  46
ENDBRANCH  26  40
BRANCH  27  50
ATOM     50  C   UNL A   1      43.465  23.919  27.204  1.00  0.00    -0.014 A 
ATOM     51  C   UNL A   1      43.508  22.912  28.182  1.00  0.00     0.010 A 
ATOM     52  C   UNL A   1      42.897  23.632  25.947  1.00  0.00     0.010 A 
ATOM     53  C   UNL A   1      43.012  21.636  27.902  1.00  0.00     0.020 A 
ATOM     54  C   UNL A   1      42.376  22.368  25.674  1.00  0.00     0.020 A 
ATOM     55  C   UNL A   1      42.452  21.371  26.648  1.00  0.00     0.054 A 
BRANCH  55  56
ATOM     56  S   UNL A   1      41.776  19.722  26.313  1.00  0.00     0.124 S 
ATOM     57  O   UNL A   1      42.560  19.305  25.155  1.00  0.00    -0.237 OA
ATOM     58  O   UNL A   1      42.050  19.004  27.556  1.00  0.00    -0.237 OA
ATOM     59  O   UNL A   1      40.361  19.981  26.054  1.00  0.00    -0.744 OA
ENDBRANCH  55  56
ENDBRANCH  27  50
BRANCH  39  60
ATOM     60  C   UNL A   1      49.575  27.062  26.100  1.00  0.00    -0.014 A 
ATOM     61  C   UNL A   1      49.899  27.382  24.770  1.00  0.00     0.010 A 
ATOM     62  C   UNL A   1      50.484  26.317  26.873  1.00  0.00     0.010 A 
ATOM     63  C   UNL A   1      51.101  26.942  24.212  1.00  0.00     0.020 A 
ATOM     64  C   UNL A   1      51.697  25.896  26.326  1.00  0.00     0.020 A 
ATOM     65  C   UNL A   1      51.992  26.199  24.995  1.00  0.00     0.054 A 
BRANCH  65  66
ATOM     66  S   UNL A   1      53.566  25.675  24.263  1.00  0.00     0.124 S 
ATOM     67  O   UNL A   1      53.691  24.308  24.761  1.00  0.00    -0.237 OA
ATOM     68  O   UNL A   1      53.316  25.802  22.830  1.00  0.00    -0.237 OA
ATOM     69  O   UNL A   1      54.532  26.627  24.807  1.00  0.00    -0.744 OA
ENDBRANCH  65  66
ENDBRANCH  39  60
ENDBRANCH  13  14
ENDBRANCH   6   8
ENDBRANCH   3   4
ENDBRANCH   2   3
ENDBRANCH   1   2
BRANCH   1  70
ATOM     70  C   UNL A   1      33.278  29.636  25.812  1.00  0.00     0.116 C 
BRANCH  70  71
ATOM     71  N   UNL A   1      33.775  29.413  24.465  1.00  0.00    -0.356 N 
ATOM     72  C   UNL A   1      33.447  28.479  23.528  1.00  0.00     0.224 C 
ATOM     73  H   UNL A   1      34.471  30.048  24.178  1.00  0.00     0.163 HD
ATOM     74  O   UNL A   1      34.081  28.487  22.469  1.00  0.00    -0.275 OA
BRANCH  72  75
ATOM     75  C   UNL A   1      32.321  27.473  23.738  1.00  0.00     0.098 C 
ATOM     76  C   UNL A   1      31.792  26.889  22.420  1.00  0.00     0.017 C 
ATOM     77  C   UNL A   1      32.722  26.454  24.816  1.00  0.00     0.133 C 
ATOM     78  C   UNL A   1      30.972  25.623  22.605  1.00  0.00     0.022 C 
ATOM     79  N   UNL A   1      31.839  25.278  24.840  1.00  0.00    -0.342 N 
ATOM     80  C   UNL A   1      31.691  24.662  23.539  1.00  0.00     0.119 C 
BRANCH  79  81
ATOM     81  C   UNL A   1      31.226  24.916  26.021  1.00  0.00     0.225 C 
ATOM     82  O   UNL A   1      30.421  25.691  26.558  1.00  0.00    -0.275 OA
BRANCH  81  83
ATOM     83  C   UNL A   1      31.466  23.569  26.740  1.00  0.00     0.081 C 
ATOM     84  C   UNL A   1      32.880  23.235  27.188  1.00  0.00     0.030 C 
ATOM     85  C   UNL A   1      30.707  22.365  26.212  1.00  0.00     0.030 C 
ATOM     86  C   UNL A   1      33.659  22.236  26.349  1.00  0.00     0.103 C 
ATOM     87  C   UNL A   1      31.483  21.463  25.276  1.00  0.00     0.103 C 
ATOM     88  N   UNL A   1      32.859  21.127  25.734  1.00  0.00    -0.198 NA
BRANCH  88  89
ATOM     89  S   UNL A   1      33.824  20.361  24.492  1.00  0.00     0.243 S 
ATOM     90  O   UNL A   1      33.205  20.684  23.217  1.00  0.00    -0.207 OA
ATOM     91  O   UNL A   1      35.201  20.704  24.745  1.00  0.00    -0.207 OA
BRANCH  89  92
ATOM     92  C   UNL A   1      33.632  18.613  24.749  1.00  0.00     0.082 A 
ATOM     93  C   UNL A   1      34.347  17.720  23.945  1.00  0.00     0.022 A 
ATOM     94  C   UNL A   1      32.666  18.141  25.644  1.00  0.00     0.022 A 
ATOM     95  C   UNL A   1      34.119  16.349  24.068  1.00  0.00     0.001 A 
ATOM     96  C   UNL A   1      32.462  16.768  25.780  1.00  0.00     0.001 A 
ATOM     97  C   UNL A   1      33.186  15.874  24.992  1.00  0.00     0.000 A 
ENDBRANCH  89  92
ENDBRANCH  88  89
ENDBRANCH  81  83
ENDBRANCH  79  81
ENDBRANCH  72  75
ENDBRANCH  70  71
ENDBRANCH   1  70
TORSDOF 18
ENDMDL
MODEL 3
REMARK VINA RESULT:     -11.1      1.432      2.181
REMARK SMILES O=C(NCCCCNC(=O)[C@H]1CCCN(C(=O)C2CCN(S(=O)(=O)c3ccccc3)CC2)C1)c1ccc(-c2c3nc(c(-c4ccc(S(=O)(=O)[O-])cc4)c4ccc([nH]4)c(-c4ccc(S(=O)(=O)[O-])cc4)c4nc(c(-c5ccc(S(=O)(=O)[O-])cc5)c5ccc2[nH]5)C=C4)C=C3)cc1
REMARK SMILES IDX 6 1 5 2 4 3 3 4 1 5 2 6 34 8 35 9 93 10 36 11 92 12 37 13
REMARK SMILES IDX 38 14 39 15 86 16 40 17 91 18 85 19 87 20 41 21 90 22 84 23
REMARK SMILES IDX 83 24 42 26 72 27 53 28 71 29 54 30 57 31 70 32 88 33 55 34
REMARK SMILES IDX 56 35 69 37 89 38 58 39 43 40 44 41 52 42 45 43 51 44 46 45
REMARK SMILES IDX 47 46 48 47 49 48 50 49 73 50 74 51 82 52 75 53 81 54 76 55
REMARK SMILES IDX 77 56 78 57 79 58 80 59 59 60 60 61 68 62 61 63 67 64 62 65
REMARK SMILES IDX 63 66 64 67 65 68 66 69 7 70 8 71 9 72 10 74 11 75 12 76
REMARK SMILES IDX 33 77 13 78 15 79 14 80 16 81 17 82 18 83 19 84 32 85 20 86
REMARK SMILES IDX 31 87 21 88 22 89 23 90 24 91 25 92 26 93 30 94 27 95 29 96
REMARK SMILES IDX 28 97
REMARK H PARENT 3 7 87 25 57 36 8 73
REMARK Flexibility Score: inf
ROOT
ATOM      1  C   UNL A   1      34.332  29.216  26.833  1.00  0.00     0.023 C 
ENDROOT
BRANCH   1   2
ATOM      2  C   UNL A   1      35.120  30.106  27.790  1.00  0.00     0.023 C 
BRANCH   2   3
ATOM      3  C   UNL A   1      35.847  29.358  28.894  1.00  0.00     0.116 C 
BRANCH   3   4
ATOM      4  N   UNL A   1      35.918  30.105  30.139  1.00  0.00    -0.352 N 
ATOM      5  O   UNL A   1      36.944  30.948  31.967  1.00  0.00    -0.269 OA
ATOM      6  C   UNL A   1      37.041  30.411  30.870  1.00  0.00     0.251 C 
ATOM      7  H   UNL A   1      35.062  30.431  30.500  1.00  0.00     0.163 HD
BRANCH   6   8
ATOM      8  C   UNL A   1      38.362  30.049  30.319  1.00  0.00     0.039 A 
ATOM      9  C   UNL A   1      39.347  29.515  31.155  1.00  0.00     0.014 A 
ATOM     10  C   UNL A   1      38.623  30.278  28.967  1.00  0.00     0.014 A 
ATOM     11  C   UNL A   1      40.627  29.306  30.662  1.00  0.00     0.010 A 
ATOM     12  C   UNL A   1      39.890  29.997  28.455  1.00  0.00     0.010 A 
ATOM     13  C   UNL A   1      40.902  29.518  29.301  1.00  0.00    -0.014 A 
BRANCH  13  14
ATOM     14  C   UNL A   1      42.215  29.100  28.759  1.00  0.00     0.031 A 
ATOM     15  C   UNL A   1      42.455  27.701  28.273  1.00  0.00     0.074 A 
ATOM     16  C   UNL A   1      43.196  30.023  28.722  1.00  0.00     0.049 A 
ATOM     17  N   UNL A   1      43.555  27.185  27.790  1.00  0.00    -0.248 NA
ATOM     18  C   UNL A   1      41.327  26.758  28.340  1.00  0.00     0.031 C 
ATOM     19  C   UNL A   1      43.067  31.408  29.190  1.00  0.00     0.029 A 
ATOM     20  N   UNL A   1      44.487  29.946  28.273  1.00  0.00    -0.354 N 
ATOM     21  C   UNL A   1      43.266  25.854  27.519  1.00  0.00     0.074 A 
ATOM     22  C   UNL A   1      41.885  25.637  27.894  1.00  0.00     0.031 C 
ATOM     23  C   UNL A   1      44.222  32.054  28.980  1.00  0.00     0.029 A 
ATOM     24  C   UNL A   1      45.189  31.117  28.423  1.00  0.00     0.049 A 
ATOM     25  H   UNL A   1      44.874  29.130  27.880  1.00  0.00     0.167 HD
ATOM     26  C   UNL A   1      44.084  24.905  27.006  1.00  0.00     0.031 A 
ATOM     27  C   UNL A   1      46.480  31.402  28.175  1.00  0.00     0.031 A 
ATOM     28  C   UNL A   1      45.453  25.141  26.626  1.00  0.00     0.049 A 
ATOM     29  C   UNL A   1      47.366  30.320  27.634  1.00  0.00     0.074 A 
ATOM     30  C   UNL A   1      46.343  24.263  26.029  1.00  0.00     0.029 A 
ATOM     31  N   UNL A   1      46.137  26.331  26.818  1.00  0.00    -0.354 N 
ATOM     32  N   UNL A   1      47.053  29.086  27.321  1.00  0.00    -0.248 NA
ATOM     33  C   UNL A   1      48.777  30.663  27.424  1.00  0.00     0.031 C 
ATOM     34  C   UNL A   1      47.579  24.906  25.911  1.00  0.00     0.029 A 
ATOM     35  C   UNL A   1      47.448  26.199  26.392  1.00  0.00     0.049 A 
ATOM     36  H   UNL A   1      45.748  27.151  27.202  1.00  0.00     0.167 HD
ATOM     37  C   UNL A   1      48.232  28.501  26.880  1.00  0.00     0.074 A 
ATOM     38  C   UNL A   1      49.255  29.527  26.935  1.00  0.00     0.031 C 
ATOM     39  C   UNL A   1      48.451  27.228  26.475  1.00  0.00     0.031 A 
BRANCH  26  40
ATOM     40  C   UNL A   1      43.547  23.510  26.841  1.00  0.00    -0.014 A 
ATOM     41  C   UNL A   1      43.282  22.978  25.567  1.00  0.00     0.010 A 
ATOM     42  C   UNL A   1      43.409  22.683  27.972  1.00  0.00     0.010 A 
ATOM     43  C   UNL A   1      42.883  21.644  25.428  1.00  0.00     0.020 A 
ATOM     44  C   UNL A   1      43.025  21.346  27.836  1.00  0.00     0.020 A 
ATOM     45  C   UNL A   1      42.760  20.836  26.564  1.00  0.00     0.054 A 
BRANCH  45  46
ATOM     46  S   UNL A   1      42.304  19.092  26.349  1.00  0.00     0.124 S 
ATOM     47  O   UNL A   1      42.349  18.597  27.722  1.00  0.00    -0.237 OA
ATOM     48  O   UNL A   1      40.970  19.180  25.757  1.00  0.00    -0.237 OA
ATOM     49  O   UNL A   1      43.341  18.569  25.464  1.00  0.00    -0.744 OA
ENDBRANCH  45  46
ENDBRANCH  26  40
BRANCH  27  50
ATOM     50  C   UNL A   1      47.015  32.749  28.499  1.00  0.00    -0.014 A 
ATOM     51  C   UNL A   1      46.882  33.814  27.593  1.00  0.00     0.010 A 
ATOM     52  C   UNL A   1      47.649  32.974  29.736  1.00  0.00     0.010 A 
ATOM     53  C   UNL A   1      47.393  35.076  27.910  1.00  0.00     0.020 A 
ATOM     54  C   UNL A   1      48.135  34.239  30.067  1.00  0.00     0.020 A 
ATOM     55  C   UNL A   1      48.019  35.279  29.144  1.00  0.00     0.054 A 
BRANCH  55  56
ATOM     56  S   UNL A   1      48.641  36.932  29.557  1.00  0.00     0.124 S 
ATOM     57  O   UNL A   1      47.569  37.456  30.397  1.00  0.00    -0.237 OA
ATOM     58  O   UNL A   1      49.898  36.639  30.243  1.00  0.00    -0.237 OA
ATOM     59  O   UNL A   1      48.789  37.574  28.253  1.00  0.00    -0.744 OA
ENDBRANCH  55  56
ENDBRANCH  27  50
BRANCH  39  60
ATOM     60  C   UNL A   1      49.855  26.878  26.070  1.00  0.00    -0.014 A 
ATOM     61  C   UNL A   1      50.706  26.197  26.957  1.00  0.00     0.010 A 
ATOM     62  C   UNL A   1      50.314  27.199  24.780  1.00  0.00     0.010 A 
ATOM     63  C   UNL A   1      52.005  25.865  26.571  1.00  0.00     0.020 A 
ATOM     64  C   UNL A   1      51.605  26.848  24.383  1.00  0.00     0.020 A 
ATOM     65  C   UNL A   1      52.447  26.195  25.286  1.00  0.00     0.054 A 
BRANCH  65  66
ATOM     66  S   UNL A   1      54.124  25.715  24.791  1.00  0.00     0.124 S 
ATOM     67  O   UNL A   1      54.153  26.119  23.387  1.00  0.00    -0.237 OA
ATOM     68  O   UNL A   1      54.965  26.502  25.689  1.00  0.00    -0.237 OA
ATOM     69  O   UNL A   1      54.154  24.273  25.025  1.00  0.00    -0.744 OA
ENDBRANCH  65  66
ENDBRANCH  39  60
ENDBRANCH  13  14
ENDBRANCH   6   8
ENDBRANCH   3   4
ENDBRANCH   2   3
ENDBRANCH   1   2
BRANCH   1  70
ATOM     70  C   UNL A   1      33.162  29.906  26.128  1.00  0.00     0.116 C 
BRANCH  70  71
ATOM     71  N   UNL A   1      33.226  29.743  24.685  1.00  0.00    -0.356 N 
ATOM     72  C   UNL A   1      32.438  29.039  23.823  1.00  0.00     0.224 C 
ATOM     73  H   UNL A   1      33.968  30.225  24.254  1.00  0.00     0.163 HD
ATOM     74  O   UNL A   1      32.763  29.030  22.633  1.00  0.00    -0.275 OA
BRANCH  72  75
ATOM     75  C   UNL A   1      31.179  28.311  24.279  1.00  0.00     0.098 C 
ATOM     76  C   UNL A   1      29.973  28.582  23.368  1.00  0.00     0.017 C 
ATOM     77  C   UNL A   1      31.498  26.832  24.555  1.00  0.00     0.133 C 
ATOM     78  C   UNL A   1      28.840  27.586  23.551  1.00  0.00     0.022 C 
ATOM     79  N   UNL A   1      30.288  26.006  24.678  1.00  0.00    -0.342 N 
ATOM     80  C   UNL A   1      29.384  26.167  23.560  1.00  0.00     0.119 C 
BRANCH  79  81
ATOM     81  C   UNL A   1      30.108  25.232  25.806  1.00  0.00     0.225 C 
ATOM     82  O   UNL A   1      29.361  25.632  26.710  1.00  0.00    -0.275 OA
BRANCH  81  83
ATOM     83  C   UNL A   1      30.780  23.859  26.026  1.00  0.00     0.081 C 
ATOM     84  C   UNL A   1      31.925  23.770  27.022  1.00  0.00     0.030 C 
ATOM     85  C   UNL A   1      30.990  22.993  24.796  1.00  0.00     0.030 C 
ATOM     86  C   UNL A   1      33.334  23.692  26.459  1.00  0.00     0.103 C 
ATOM     87  C   UNL A   1      32.376  23.044  24.191  1.00  0.00     0.103 C 
ATOM     88  N   UNL A   1      33.489  22.937  25.173  1.00  0.00    -0.198 NA
BRANCH  88  89
ATOM     89  S   UNL A   1      35.049  23.319  24.481  1.00  0.00     0.243 S 
ATOM     90  O   UNL A   1      34.858  23.434  23.045  1.00  0.00    -0.207 OA
ATOM     91  O   UNL A   1      35.597  24.418  25.237  1.00  0.00    -0.207 OA
BRANCH  89  92
ATOM     92  C   UNL A   1      36.064  21.889  24.769  1.00  0.00     0.082 A 
ATOM     93  C   UNL A   1      37.445  22.047  24.910  1.00  0.00     0.022 A 
ATOM     94  C   UNL A   1      35.500  20.610  24.707  1.00  0.00     0.022 A 
ATOM     95  C   UNL A   1      38.258  20.918  25.028  1.00  0.00     0.001 A 
ATOM     96  C   UNL A   1      36.315  19.488  24.851  1.00  0.00     0.001 A 
ATOM     97  C   UNL A   1      37.692  19.642  25.010  1.00  0.00     0.000 A 
ENDBRANCH  89  92
ENDBRANCH  88  89
ENDBRANCH  81  83
ENDBRANCH  79  81
ENDBRANCH  72  75
ENDBRANCH  70  71
ENDBRANCH   1  70
TORSDOF 18
ENDMDL
