MODEL 1
REMARK VINA RESULT:     -12.1      0.000      0.000
REMARK SMILES O=C(NCCCCNC(=O)[C@H]1CCCCN1c1cc(-c2ccccc2)nc(-c2cccc(Cl)c2)n1)c1ccc(-c2c3nc(c(-c4ccc(S(=O)(=O)[O-])cc4)c4ccc([nH]4)c(-c4ccc(S(=O)(=O)[O-])cc4)c4nc(c(-c5ccc(S(=O)(=O)[O-])cc5)c5ccc2[nH]5)C=C4)C=C3)cc1
REMARK SMILES IDX 5 1 4 2 3 3 1 4 2 5 36 7 37 8 95 9 38 10 94 11 39 12 40 13
REMARK SMILES IDX 41 14 88 15 42 16 93 17 87 18 89 19 43 20 92 21 86 22 85 23
REMARK SMILES IDX 44 25 74 26 55 27 73 28 56 29 59 30 72 31 90 32 57 33 58 34
REMARK SMILES IDX 71 36 91 37 60 38 45 39 46 40 54 41 47 42 53 43 48 44 49 45
REMARK SMILES IDX 50 46 51 47 52 48 75 49 76 50 84 51 77 52 83 53 78 54 79 55
REMARK SMILES IDX 80 56 81 57 82 58 61 59 62 60 70 61 63 62 69 63 64 64 65 65
REMARK SMILES IDX 66 66 67 67 68 68 6 69 7 70 8 71 9 72 10 74 11 75 12 76
REMARK SMILES IDX 16 77 13 78 15 79 14 80 17 81 18 82 35 83 19 84 27 85 26 86
REMARK SMILES IDX 20 87 21 88 25 89 22 90 24 91 23 92 28 93 29 94 34 95 30 96
REMARK SMILES IDX 32 97 31 98 33 99
REMARK H PARENT 3 6 89 24 59 35 8 73
REMARK Flexibility Score: inf
ROOT
ATOM      1  C   UNL A   1      37.621  21.148  24.979  1.00  0.00     0.023 C 
ENDROOT
BRANCH   1   2
ATOM      2  C   UNL A   1      38.831  21.423  25.863  1.00  0.00     0.116 C 
BRANCH   2   3
ATOM      3  N   UNL A   1      39.753  20.301  25.913  1.00  0.00    -0.352 N 
ATOM      4  O   UNL A   1      41.759  19.277  25.993  1.00  0.00    -0.269 OA
ATOM      5  C   UNL A   1      41.107  20.307  26.146  1.00  0.00     0.251 C 
ATOM      6  H   UNL A   1      39.352  19.415  25.757  1.00  0.00     0.163 HD
BRANCH   5   7
ATOM      7  C   UNL A   1      41.777  21.559  26.560  1.00  0.00     0.039 A 
ATOM      8  C   UNL A   1      42.163  21.755  27.888  1.00  0.00     0.014 A 
ATOM      9  C   UNL A   1      42.031  22.543  25.601  1.00  0.00     0.014 A 
ATOM     10  C   UNL A   1      42.696  22.980  28.280  1.00  0.00     0.010 A 
ATOM     11  C   UNL A   1      42.633  23.745  25.983  1.00  0.00     0.010 A 
ATOM     12  C   UNL A   1      42.952  23.980  27.329  1.00  0.00    -0.014 A 
BRANCH  12  13
ATOM     13  C   UNL A   1      43.627  25.235  27.749  1.00  0.00     0.031 A 
ATOM     14  C   UNL A   1      42.875  26.326  28.460  1.00  0.00     0.074 A 
ATOM     15  C   UNL A   1      44.941  25.377  27.484  1.00  0.00     0.049 A 
ATOM     16  N   UNL A   1      43.319  27.479  28.892  1.00  0.00    -0.248 NA
ATOM     17  C   UNL A   1      41.444  26.100  28.716  1.00  0.00     0.031 C 
ATOM     18  C   UNL A   1      45.772  24.389  26.792  1.00  0.00     0.029 A 
ATOM     19  N   UNL A   1      45.809  26.398  27.770  1.00  0.00    -0.354 N 
ATOM     20  C   UNL A   1      42.223  28.125  29.451  1.00  0.00     0.074 A 
ATOM     21  C   UNL A   1      41.087  27.243  29.289  1.00  0.00     0.031 C 
ATOM     22  C   UNL A   1      47.034  24.835  26.738  1.00  0.00     0.029 A 
ATOM     23  C   UNL A   1      47.092  26.164  27.336  1.00  0.00     0.049 A 
ATOM     24  H   UNL A   1      45.541  27.220  28.242  1.00  0.00     0.167 HD
ATOM     25  C   UNL A   1      42.171  29.342  30.047  1.00  0.00     0.031 A 
ATOM     26  C   UNL A   1      48.192  26.939  27.388  1.00  0.00     0.031 A 
ATOM     27  C   UNL A   1      43.306  30.215  30.204  1.00  0.00     0.049 A 
ATOM     28  C   UNL A   1      48.098  28.296  28.023  1.00  0.00     0.074 A 
ATOM     29  C   UNL A   1      43.362  31.449  30.829  1.00  0.00     0.029 A 
ATOM     30  N   UNL A   1      44.581  29.955  29.723  1.00  0.00    -0.354 N 
ATOM     31  N   UNL A   1      47.061  28.868  28.586  1.00  0.00    -0.248 NA
ATOM     32  C   UNL A   1      49.320  29.110  28.028  1.00  0.00     0.031 C 
ATOM     33  C   UNL A   1      44.657  31.958  30.681  1.00  0.00     0.029 A 
ATOM     34  C   UNL A   1      45.422  31.017  30.011  1.00  0.00     0.049 A 
ATOM     35  H   UNL A   1      44.849  29.136  29.247  1.00  0.00     0.167 HD
ATOM     36  C   UNL A   1      47.509  30.109  29.024  1.00  0.00     0.074 A 
ATOM     37  C   UNL A   1      48.913  30.193  28.679  1.00  0.00     0.031 C 
ATOM     38  C   UNL A   1      46.817  31.090  29.652  1.00  0.00     0.031 A 
BRANCH  25  39
ATOM     39  C   UNL A   1      40.835  29.820  30.553  1.00  0.00    -0.014 A 
ATOM     40  C   UNL A   1      40.426  29.577  31.876  1.00  0.00     0.010 A 
ATOM     41  C   UNL A   1      40.001  30.575  29.707  1.00  0.00     0.010 A 
ATOM     42  C   UNL A   1      39.192  30.050  32.333  1.00  0.00     0.020 A 
ATOM     43  C   UNL A   1      38.777  31.071  30.168  1.00  0.00     0.020 A 
ATOM     44  C   UNL A   1      38.373  30.791  31.475  1.00  0.00     0.054 A 
BRANCH  44  45
ATOM     45  S   UNL A   1      36.788  31.411  32.102  1.00  0.00     0.124 S 
ATOM     46  O   UNL A   1      36.617  32.636  31.324  1.00  0.00    -0.237 OA
ATOM     47  O   UNL A   1      35.866  30.326  31.774  1.00  0.00    -0.237 OA
ATOM     48  O   UNL A   1      37.031  31.608  33.529  1.00  0.00    -0.744 OA
ENDBRANCH  44  45
ENDBRANCH  25  39
BRANCH  26  49
ATOM     49  C   UNL A   1      49.464  26.449  26.796  1.00  0.00    -0.014 A 
ATOM     50  C   UNL A   1      49.771  26.699  25.448  1.00  0.00     0.010 A 
ATOM     51  C   UNL A   1      50.394  25.757  27.595  1.00  0.00     0.010 A 
ATOM     52  C   UNL A   1      50.983  26.259  24.907  1.00  0.00     0.020 A 
ATOM     53  C   UNL A   1      51.616  25.340  27.064  1.00  0.00     0.020 A 
ATOM     54  C   UNL A   1      51.898  25.584  25.720  1.00  0.00     0.054 A 
BRANCH  54  55
ATOM     55  S   UNL A   1      53.490  25.075  25.014  1.00  0.00     0.124 S 
ATOM     56  O   UNL A   1      54.438  25.818  25.839  1.00  0.00    -0.237 OA
ATOM     57  O   UNL A   1      53.477  23.629  25.211  1.00  0.00    -0.237 OA
ATOM     58  O   UNL A   1      53.398  25.507  23.621  1.00  0.00    -0.744 OA
ENDBRANCH  54  55
ENDBRANCH  26  49
BRANCH  38  59
ATOM     59  C   UNL A   1      47.574  32.334  30.023  1.00  0.00    -0.014 A 
ATOM     60  C   UNL A   1      47.590  33.453  29.171  1.00  0.00     0.010 A 
ATOM     61  C   UNL A   1      48.237  32.403  31.262  1.00  0.00     0.010 A 
ATOM     62  C   UNL A   1      48.279  34.611  29.542  1.00  0.00     0.020 A 
ATOM     63  C   UNL A   1      48.905  33.568  31.646  1.00  0.00     0.020 A 
ATOM     64  C   UNL A   1      48.932  34.662  30.778  1.00  0.00     0.054 A 
BRANCH  64  65
ATOM     65  S   UNL A   1      49.777  36.192  31.258  1.00  0.00     0.124 S 
ATOM     66  O   UNL A   1      51.108  35.707  31.608  1.00  0.00    -0.237 OA
ATOM     67  O   UNL A   1      49.702  36.996  30.040  1.00  0.00    -0.237 OA
ATOM     68  O   UNL A   1      48.980  36.691  32.376  1.00  0.00    -0.744 OA
ENDBRANCH  64  65
ENDBRANCH  38  59
ENDBRANCH  12  13
ENDBRANCH   5   7
ENDBRANCH   2   3
ENDBRANCH   1   2
BRANCH   1  69
ATOM     69  C   UNL A   1      36.978  22.386  24.347  1.00  0.00     0.023 C 
BRANCH  69  70
ATOM     70  C   UNL A   1      36.618  23.497  25.333  1.00  0.00     0.116 C 
BRANCH  70  71
ATOM     71  N   UNL A   1      35.416  23.175  26.076  1.00  0.00    -0.354 N 
ATOM     72  C   UNL A   1      34.153  23.680  25.959  1.00  0.00     0.242 C 
ATOM     73  H   UNL A   1      35.528  22.486  26.771  1.00  0.00     0.163 HD
ATOM     74  O   UNL A   1      33.327  23.299  26.793  1.00  0.00    -0.273 OA
BRANCH  72  75
ATOM     75  C   UNL A   1      33.813  24.644  24.792  1.00  0.00     0.173 C 
ATOM     76  C   UNL A   1      33.965  23.925  23.446  1.00  0.00     0.035 C 
ATOM     77  N   UNL A   1      32.447  25.171  24.913  1.00  0.00    -0.344 N 
ATOM     78  C   UNL A   1      32.844  22.910  23.215  1.00  0.00     0.004 C 
ATOM     79  C   UNL A   1      31.309  24.292  24.688  1.00  0.00     0.119 C 
ATOM     80  C   UNL A   1      31.472  23.569  23.350  1.00  0.00     0.022 C 
BRANCH  77  81
ATOM     81  C   UNL A   1      32.271  26.524  25.070  1.00  0.00     0.133 A 
ATOM     82  C   UNL A   1      33.112  27.244  25.892  1.00  0.00     0.076 A 
ATOM     83  N   UNL A   1      31.282  27.119  24.386  1.00  0.00    -0.211 NA
ATOM     84  C   UNL A   1      32.912  28.608  25.969  1.00  0.00     0.076 A 
ATOM     85  C   UNL A   1      31.137  28.446  24.546  1.00  0.00     0.162 A 
ATOM     86  N   UNL A   1      31.915  29.227  25.310  1.00  0.00    -0.228 NA
BRANCH  84  87
ATOM     87  C   UNL A   1      33.783  29.473  26.772  1.00  0.00     0.000 A 
ATOM     88  C   UNL A   1      35.069  29.049  27.144  1.00  0.00     0.010 A 
ATOM     89  C   UNL A   1      33.358  30.745  27.189  1.00  0.00     0.010 A 
ATOM     90  C   UNL A   1      35.909  29.876  27.894  1.00  0.00     0.001 A 
ATOM     91  C   UNL A   1      34.192  31.570  27.947  1.00  0.00     0.001 A 
ATOM     92  C   UNL A   1      35.471  31.137  28.294  1.00  0.00     0.000 A 
ENDBRANCH  84  87
BRANCH  85  93
ATOM     93  C   UNL A   1      30.025  29.089  23.843  1.00  0.00     0.021 A 
ATOM     94  C   UNL A   1      29.068  28.324  23.153  1.00  0.00     0.012 A 
ATOM     95  C   UNL A   1      29.882  30.487  23.845  1.00  0.00     0.032 A 
ATOM     96  C   UNL A   1      27.996  28.931  22.492  1.00  0.00     0.002 A 
ATOM     97  C   UNL A   1      28.822  31.091  23.169  1.00  0.00     0.041 A 
ATOM     98  C   UNL A   1      27.876  30.320  22.497  1.00  0.00     0.020 A 
ATOM     99  Cl  UNL A   1      28.682  32.807  23.157  1.00  0.00    -0.084 Cl
ENDBRANCH  85  93
ENDBRANCH  77  81
ENDBRANCH  72  75
ENDBRANCH  70  71
ENDBRANCH  69  70
ENDBRANCH   1  69
TORSDOF 17
ENDMDL
MODEL 2
REMARK VINA RESULT:     -11.7      0.709      7.863
REMARK SMILES O=C(NCCCCNC(=O)[C@H]1CCCCN1c1cc(-c2ccccc2)nc(-c2cccc(Cl)c2)n1)c1ccc(-c2c3nc(c(-c4ccc(S(=O)(=O)[O-])cc4)c4ccc([nH]4)c(-c4ccc(S(=O)(=O)[O-])cc4)c4nc(c(-c5ccc(S(=O)(=O)[O-])cc5)c5ccc2[nH]5)C=C4)C=C3)cc1
REMARK SMILES IDX 5 1 4 2 3 3 1 4 2 5 36 7 37 8 95 9 38 10 94 11 39 12 40 13
REMARK SMILES IDX 41 14 88 15 42 16 93 17 87 18 89 19 43 20 92 21 86 22 85 23
REMARK SMILES IDX 44 25 74 26 55 27 73 28 56 29 59 30 72 31 90 32 57 33 58 34
REMARK SMILES IDX 71 36 91 37 60 38 45 39 46 40 54 41 47 42 53 43 48 44 49 45
REMARK SMILES IDX 50 46 51 47 52 48 75 49 76 50 84 51 77 52 83 53 78 54 79 55
REMARK SMILES IDX 80 56 81 57 82 58 61 59 62 60 70 61 63 62 69 63 64 64 65 65
REMARK SMILES IDX 66 66 67 67 68 68 6 69 7 70 8 71 9 72 10 74 11 75 12 76
REMARK SMILES IDX 16 77 13 78 15 79 14 80 17 81 18 82 35 83 19 84 27 85 26 86
REMARK SMILES IDX 20 87 21 88 25 89 22 90 24 91 23 92 28 93 29 94 34 95 30 96
REMARK SMILES IDX 32 97 31 98 33 99
REMARK H PARENT 3 6 89 24 59 35 8 73
REMARK Flexibility Score: inf
ROOT
ATOM      1  C   UNL A   1      37.865  20.940  25.047  1.00  0.00     0.023 C 
ENDROOT
BRANCH   1   2
ATOM      2  C   UNL A   1      39.114  21.447  25.758  1.00  0.00     0.116 C 
BRANCH   2   3
ATOM      3  N   UNL A   1      40.015  20.372  26.139  1.00  0.00    -0.352 N 
ATOM      4  O   UNL A   1      41.985  19.422  26.681  1.00  0.00    -0.269 OA
ATOM      5  C   UNL A   1      41.323  20.448  26.552  1.00  0.00     0.251 C 
ATOM      6  H   UNL A   1      39.635  19.464  26.094  1.00  0.00     0.163 HD
BRANCH   5   7
ATOM      7  C   UNL A   1      41.934  21.768  26.819  1.00  0.00     0.039 A 
ATOM      8  C   UNL A   1      42.018  22.732  25.811  1.00  0.00     0.014 A 
ATOM      9  C   UNL A   1      42.417  22.048  28.100  1.00  0.00     0.014 A 
ATOM     10  C   UNL A   1      42.689  23.927  26.050  1.00  0.00     0.010 A 
ATOM     11  C   UNL A   1      43.027  23.279  28.359  1.00  0.00     0.010 A 
ATOM     12  C   UNL A   1      43.185  24.220  27.331  1.00  0.00    -0.014 A 
BRANCH  12  13
ATOM     13  C   UNL A   1      43.796  25.548  27.594  1.00  0.00     0.031 A 
ATOM     14  C   UNL A   1      45.213  25.849  27.193  1.00  0.00     0.074 A 
ATOM     15  C   UNL A   1      43.047  26.490  28.200  1.00  0.00     0.049 A 
ATOM     16  N   UNL A   1      45.891  26.957  27.352  1.00  0.00    -0.248 NA
ATOM     17  C   UNL A   1      45.969  24.773  26.535  1.00  0.00     0.031 C 
ATOM     18  C   UNL A   1      41.661  26.309  28.643  1.00  0.00     0.029 A 
ATOM     19  N   UNL A   1      43.336  27.786  28.541  1.00  0.00    -0.354 N 
ATOM     20  C   UNL A   1      47.157  26.709  26.835  1.00  0.00     0.074 A 
ATOM     21  C   UNL A   1      47.159  25.337  26.371  1.00  0.00     0.031 C 
ATOM     22  C   UNL A   1      41.212  27.459  29.163  1.00  0.00     0.029 A 
ATOM     23  C   UNL A   1      42.291  28.439  29.148  1.00  0.00     0.049 A 
ATOM     24  H   UNL A   1      44.209  28.208  28.368  1.00  0.00     0.167 HD
ATOM     25  C   UNL A   1      48.218  27.549  26.752  1.00  0.00     0.031 A 
ATOM     26  C   UNL A   1      42.211  29.682  29.660  1.00  0.00     0.031 A 
ATOM     27  C   UNL A   1      48.208  28.913  27.216  1.00  0.00     0.049 A 
ATOM     28  C   UNL A   1      43.412  30.580  29.586  1.00  0.00     0.074 A 
ATOM     29  C   UNL A   1      49.220  29.854  27.139  1.00  0.00     0.029 A 
ATOM     30  N   UNL A   1      47.140  29.527  27.853  1.00  0.00    -0.354 N 
ATOM     31  N   UNL A   1      44.584  30.339  29.052  1.00  0.00    -0.248 NA
ATOM     32  C   UNL A   1      43.278  31.914  30.184  1.00  0.00     0.031 C 
ATOM     33  C   UNL A   1      48.782  31.021  27.776  1.00  0.00     0.029 A 
ATOM     34  C   UNL A   1      47.478  30.825  28.202  1.00  0.00     0.049 A 
ATOM     35  H   UNL A   1      46.269  29.104  28.031  1.00  0.00     0.167 HD
ATOM     36  C   UNL A   1      45.328  31.497  29.239  1.00  0.00     0.074 A 
ATOM     37  C   UNL A   1      44.465  32.443  29.917  1.00  0.00     0.031 C 
ATOM     38  C   UNL A   1      46.611  31.752  28.884  1.00  0.00     0.031 A 
BRANCH  25  39
ATOM     39  C   UNL A   1      49.495  27.012  26.161  1.00  0.00    -0.014 A 
ATOM     40  C   UNL A   1      49.779  27.148  24.790  1.00  0.00     0.010 A 
ATOM     41  C   UNL A   1      50.452  26.413  27.002  1.00  0.00     0.010 A 
ATOM     42  C   UNL A   1      50.981  26.664  24.266  1.00  0.00     0.020 A 
ATOM     43  C   UNL A   1      51.666  25.950  26.484  1.00  0.00     0.020 A 
ATOM     44  C   UNL A   1      51.916  26.064  25.115  1.00  0.00     0.054 A 
BRANCH  44  45
ATOM     45  S   UNL A   1      53.477  25.465  24.411  1.00  0.00     0.124 S 
ATOM     46  O   UNL A   1      53.307  25.779  22.995  1.00  0.00    -0.237 OA
ATOM     47  O   UNL A   1      54.476  26.265  25.116  1.00  0.00    -0.237 OA
ATOM     48  O   UNL A   1      53.482  24.040  24.737  1.00  0.00    -0.744 OA
ENDBRANCH  44  45
ENDBRANCH  25  39
BRANCH  26  49
ATOM     49  C   UNL A   1      40.950  30.129  30.308  1.00  0.00    -0.014 A 
ATOM     50  C   UNL A   1      40.774  30.006  31.697  1.00  0.00     0.010 A 
ATOM     51  C   UNL A   1      39.930  30.717  29.537  1.00  0.00     0.010 A 
ATOM     52  C   UNL A   1      39.597  30.454  32.302  1.00  0.00     0.020 A 
ATOM     53  C   UNL A   1      38.764  31.191  30.142  1.00  0.00     0.020 A 
ATOM     54  C   UNL A   1      38.600  31.047  31.520  1.00  0.00     0.054 A 
BRANCH  54  55
ATOM     55  S   UNL A   1      37.107  31.678  32.334  1.00  0.00     0.124 S 
ATOM     56  O   UNL A   1      36.054  31.216  31.434  1.00  0.00    -0.237 OA
ATOM     57  O   UNL A   1      37.156  31.025  33.639  1.00  0.00    -0.237 OA
ATOM     58  O   UNL A   1      37.320  33.124  32.361  1.00  0.00    -0.744 OA
ENDBRANCH  54  55
ENDBRANCH  26  49
BRANCH  38  59
ATOM     59  C   UNL A   1      47.155  33.116  29.208  1.00  0.00    -0.014 A 
ATOM     60  C   UNL A   1      47.845  33.353  30.410  1.00  0.00     0.010 A 
ATOM     61  C   UNL A   1      47.016  34.160  28.275  1.00  0.00     0.010 A 
ATOM     62  C   UNL A   1      48.366  34.621  30.684  1.00  0.00     0.020 A 
ATOM     63  C   UNL A   1      47.557  35.420  28.536  1.00  0.00     0.020 A 
ATOM     64  C   UNL A   1      48.219  35.647  29.745  1.00  0.00     0.054 A 
BRANCH  64  65
ATOM     65  S   UNL A   1      48.945  37.269  30.102  1.00  0.00     0.124 S 
ATOM     66  O   UNL A   1      49.662  37.561  28.865  1.00  0.00    -0.237 OA
ATOM     67  O   UNL A   1      47.769  38.099  30.358  1.00  0.00    -0.237 OA
ATOM     68  O   UNL A   1      49.789  37.021  31.269  1.00  0.00    -0.744 OA
ENDBRANCH  64  65
ENDBRANCH  38  59
ENDBRANCH  12  13
ENDBRANCH   5   7
ENDBRANCH   2   3
ENDBRANCH   1   2
BRANCH   1  69
ATOM     69  C   UNL A   1      37.041  22.012  24.328  1.00  0.00     0.023 C 
BRANCH  69  70
ATOM     70  C   UNL A   1      36.698  23.235  25.178  1.00  0.00     0.116 C 
BRANCH  70  71
ATOM     71  N   UNL A   1      35.516  23.004  25.984  1.00  0.00    -0.354 N 
ATOM     72  C   UNL A   1      34.284  23.589  25.917  1.00  0.00     0.242 C 
ATOM     73  H   UNL A   1      35.617  22.321  26.687  1.00  0.00     0.163 HD
ATOM     74  O   UNL A   1      33.476  23.276  26.796  1.00  0.00    -0.273 OA
BRANCH  72  75
ATOM     75  C   UNL A   1      33.950  24.554  24.748  1.00  0.00     0.173 C 
ATOM     76  C   UNL A   1      34.176  23.857  23.401  1.00  0.00     0.035 C 
ATOM     77  N   UNL A   1      32.562  25.028  24.826  1.00  0.00    -0.344 N 
ATOM     78  C   UNL A   1      33.104  22.803  23.120  1.00  0.00     0.004 C 
ATOM     79  C   UNL A   1      31.466  24.110  24.550  1.00  0.00     0.119 C 
ATOM     80  C   UNL A   1      31.704  23.410  23.211  1.00  0.00     0.022 C 
BRANCH  77  81
ATOM     81  C   UNL A   1      32.330  26.372  24.990  1.00  0.00     0.133 A 
ATOM     82  C   UNL A   1      33.161  27.128  25.789  1.00  0.00     0.076 A 
ATOM     83  N   UNL A   1      31.296  26.923  24.335  1.00  0.00    -0.211 NA
ATOM     84  C   UNL A   1      32.902  28.482  25.875  1.00  0.00     0.076 A 
ATOM     85  C   UNL A   1      31.097  28.242  24.503  1.00  0.00     0.162 A 
ATOM     86  N   UNL A   1      31.860  29.056  25.245  1.00  0.00    -0.228 NA
BRANCH  84  87
ATOM     87  C   UNL A   1      33.757  29.385  26.654  1.00  0.00     0.000 A 
ATOM     88  C   UNL A   1      35.068  29.016  26.994  1.00  0.00     0.010 A 
ATOM     89  C   UNL A   1      33.289  30.639  27.081  1.00  0.00     0.010 A 
ATOM     90  C   UNL A   1      35.891  29.879  27.722  1.00  0.00     0.001 A 
ATOM     91  C   UNL A   1      34.107  31.499  27.816  1.00  0.00     0.001 A 
ATOM     92  C   UNL A   1      35.411  31.121  28.131  1.00  0.00     0.000 A 
ENDBRANCH  84  87
BRANCH  85  93
ATOM     93  C   UNL A   1      29.937  28.835  23.833  1.00  0.00     0.021 A 
ATOM     94  C   UNL A   1      28.847  28.039  23.437  1.00  0.00     0.012 A 
ATOM     95  C   UNL A   1      29.881  30.215  23.573  1.00  0.00     0.032 A 
ATOM     96  C   UNL A   1      27.731  28.602  22.811  1.00  0.00     0.002 A 
ATOM     97  C   UNL A   1      28.775  30.770  22.931  1.00  0.00     0.041 A 
ATOM     98  C   UNL A   1      27.698  29.971  22.553  1.00  0.00     0.020 A 
ATOM     99  Cl  UNL A   1      28.740  32.458  22.594  1.00  0.00    -0.084 Cl
ENDBRANCH  85  93
ENDBRANCH  77  81
ENDBRANCH  72  75
ENDBRANCH  70  71
ENDBRANCH  69  70
ENDBRANCH   1  69
TORSDOF 17
ENDMDL
MODEL 3
REMARK VINA RESULT:     -11.4      4.986      8.910
REMARK SMILES O=C(NCCCCNC(=O)[C@H]1CCCCN1c1cc(-c2ccccc2)nc(-c2cccc(Cl)c2)n1)c1ccc(-c2c3nc(c(-c4ccc(S(=O)(=O)[O-])cc4)c4ccc([nH]4)c(-c4ccc(S(=O)(=O)[O-])cc4)c4nc(c(-c5ccc(S(=O)(=O)[O-])cc5)c5ccc2[nH]5)C=C4)C=C3)cc1
REMARK SMILES IDX 5 1 4 2 3 3 1 4 2 5 36 7 37 8 95 9 38 10 94 11 39 12 40 13
REMARK SMILES IDX 41 14 88 15 42 16 93 17 87 18 89 19 43 20 92 21 86 22 85 23
REMARK SMILES IDX 44 25 74 26 55 27 73 28 56 29 59 30 72 31 90 32 57 33 58 34
REMARK SMILES IDX 71 36 91 37 60 38 45 39 46 40 54 41 47 42 53 43 48 44 49 45
REMARK SMILES IDX 50 46 51 47 52 48 75 49 76 50 84 51 77 52 83 53 78 54 79 55
REMARK SMILES IDX 80 56 81 57 82 58 61 59 62 60 70 61 63 62 69 63 64 64 65 65
REMARK SMILES IDX 66 66 67 67 68 68 6 69 7 70 8 71 9 72 10 74 11 75 12 76
REMARK SMILES IDX 16 77 13 78 15 79 14 80 17 81 18 82 35 83 19 84 27 85 26 86
REMARK SMILES IDX 20 87 21 88 25 89 22 90 24 91 23 92 28 93 29 94 34 95 30 96
REMARK SMILES IDX 32 97 31 98 33 99
REMARK H PARENT 3 6 89 24 59 35 8 73
REMARK Flexibility Score: inf
ROOT
ATOM      1  C   UNL A   1      34.817  29.340  27.612  1.00  0.00     0.023 C 
ENDROOT
BRANCH   1   2
ATOM      2  C   UNL A   1      35.324  30.777  27.605  1.00  0.00     0.116 C 
BRANCH   2   3
ATOM      3  N   UNL A   1      34.695  31.596  28.628  1.00  0.00    -0.352 N 
ATOM      4  O   UNL A   1      34.369  32.429  30.696  1.00  0.00    -0.269 OA
ATOM      5  C   UNL A   1      35.110  31.838  29.915  1.00  0.00     0.251 C 
ATOM      6  H   UNL A   1      33.856  32.037  28.361  1.00  0.00     0.163 HD
BRANCH   5   7
ATOM      7  C   UNL A   1      36.438  31.365  30.360  1.00  0.00     0.039 A 
ATOM      8  C   UNL A   1      37.595  32.076  30.030  1.00  0.00     0.014 A 
ATOM      9  C   UNL A   1      36.524  30.201  31.129  1.00  0.00     0.014 A 
ATOM     10  C   UNL A   1      38.844  31.561  30.368  1.00  0.00     0.010 A 
ATOM     11  C   UNL A   1      37.775  29.724  31.530  1.00  0.00     0.010 A 
ATOM     12  C   UNL A   1      38.946  30.389  31.135  1.00  0.00    -0.014 A 
BRANCH  12  13
ATOM     13  C   UNL A   1      40.282  29.921  31.582  1.00  0.00     0.031 A 
ATOM     14  C   UNL A   1      40.924  30.465  32.828  1.00  0.00     0.074 A 
ATOM     15  C   UNL A   1      40.914  28.986  30.845  1.00  0.00     0.049 A 
ATOM     16  N   UNL A   1      42.084  30.160  33.351  1.00  0.00    -0.248 NA
ATOM     17  C   UNL A   1      40.176  31.482  33.581  1.00  0.00     0.031 C 
ATOM     18  C   UNL A   1      40.392  28.390  29.612  1.00  0.00     0.029 A 
ATOM     19  N   UNL A   1      42.122  28.364  31.027  1.00  0.00    -0.354 N 
ATOM     20  C   UNL A   1      42.216  30.958  34.481  1.00  0.00     0.074 A 
ATOM     21  C   UNL A   1      41.023  31.776  34.559  1.00  0.00     0.031 C 
ATOM     22  C   UNL A   1      41.257  27.468  29.168  1.00  0.00     0.029 A 
ATOM     23  C   UNL A   1      42.420  27.448  30.047  1.00  0.00     0.049 A 
ATOM     24  H   UNL A   1      42.720  28.556  31.786  1.00  0.00     0.167 HD
ATOM     25  C   UNL A   1      43.236  31.003  35.372  1.00  0.00     0.031 A 
ATOM     26  C   UNL A   1      43.515  26.688  29.859  1.00  0.00     0.031 A 
ATOM     27  C   UNL A   1      44.420  30.187  35.287  1.00  0.00     0.049 A 
ATOM     28  C   UNL A   1      44.646  26.783  30.842  1.00  0.00     0.074 A 
ATOM     29  C   UNL A   1      45.490  30.131  36.164  1.00  0.00     0.029 A 
ATOM     30  N   UNL A   1      44.698  29.293  34.264  1.00  0.00    -0.354 N 
ATOM     31  N   UNL A   1      44.729  27.512  31.929  1.00  0.00    -0.248 NA
ATOM     32  C   UNL A   1      45.828  25.954  30.574  1.00  0.00     0.031 C 
ATOM     33  C   UNL A   1      46.438  29.242  35.643  1.00  0.00     0.029 A 
ATOM     34  C   UNL A   1      45.935  28.704  34.470  1.00  0.00     0.049 A 
ATOM     35  H   UNL A   1      44.103  29.104  33.502  1.00  0.00     0.167 HD
ATOM     36  C   UNL A   1      45.970  27.222  32.481  1.00  0.00     0.074 A 
ATOM     37  C   UNL A   1      46.592  26.236  31.621  1.00  0.00     0.031 C 
ATOM     38  C   UNL A   1      46.543  27.730  33.599  1.00  0.00     0.031 A 
BRANCH  25  39
ATOM     39  C   UNL A   1      43.136  31.989  36.507  1.00  0.00    -0.014 A 
ATOM     40  C   UNL A   1      43.584  33.314  36.365  1.00  0.00     0.010 A 
ATOM     41  C   UNL A   1      42.529  31.598  37.715  1.00  0.00     0.010 A 
ATOM     42  C   UNL A   1      43.460  34.220  37.422  1.00  0.00     0.020 A 
ATOM     43  C   UNL A   1      42.382  32.508  38.767  1.00  0.00     0.020 A 
ATOM     44  C   UNL A   1      42.863  33.810  38.619  1.00  0.00     0.054 A 
BRANCH  44  45
ATOM     45  S   UNL A   1      42.694  35.013  39.966  1.00  0.00     0.124 S 
ATOM     46  O   UNL A   1      41.246  35.193  40.028  1.00  0.00    -0.237 OA
ATOM     47  O   UNL A   1      43.289  34.310  41.101  1.00  0.00    -0.237 OA
ATOM     48  O   UNL A   1      43.447  36.173  39.494  1.00  0.00    -0.744 OA
ENDBRANCH  44  45
ENDBRANCH  25  39
BRANCH  26  49
ATOM     49  C   UNL A   1      43.595  25.795  28.673  1.00  0.00    -0.014 A 
ATOM     50  C   UNL A   1      44.028  26.289  27.431  1.00  0.00     0.010 A 
ATOM     51  C   UNL A   1      43.271  24.431  28.794  1.00  0.00     0.010 A 
ATOM     52  C   UNL A   1      44.126  25.436  26.328  1.00  0.00     0.020 A 
ATOM     53  C   UNL A   1      43.394  23.571  27.700  1.00  0.00     0.020 A 
ATOM     54  C   UNL A   1      43.811  24.082  26.471  1.00  0.00     0.054 A 
BRANCH  54  55
ATOM     55  S   UNL A   1      44.005  22.980  25.043  1.00  0.00     0.124 S 
ATOM     56  O   UNL A   1      44.982  23.703  24.234  1.00  0.00    -0.237 OA
ATOM     57  O   UNL A   1      44.481  21.744  25.657  1.00  0.00    -0.237 OA
ATOM     58  O   UNL A   1      42.656  22.909  24.483  1.00  0.00    -0.744 OA
ENDBRANCH  54  55
ENDBRANCH  26  49
BRANCH  38  59
ATOM     59  C   UNL A   1      47.907  27.214  33.966  1.00  0.00    -0.014 A 
ATOM     60  C   UNL A   1      48.057  26.063  34.761  1.00  0.00     0.010 A 
ATOM     61  C   UNL A   1      49.053  27.861  33.469  1.00  0.00     0.010 A 
ATOM     62  C   UNL A   1      49.332  25.583  35.073  1.00  0.00     0.020 A 
ATOM     63  C   UNL A   1      50.328  27.369  33.758  1.00  0.00     0.020 A 
ATOM     64  C   UNL A   1      50.460  26.239  34.569  1.00  0.00     0.054 A 
BRANCH  64  65
ATOM     65  S   UNL A   1      52.102  25.569  34.947  1.00  0.00     0.124 S 
ATOM     66  O   UNL A   1      52.942  26.759  34.863  1.00  0.00    -0.237 OA
ATOM     67  O   UNL A   1      51.923  25.019  36.289  1.00  0.00    -0.237 OA
ATOM     68  O   UNL A   1      52.320  24.576  33.897  1.00  0.00    -0.744 OA
ENDBRANCH  64  65
ENDBRANCH  38  59
ENDBRANCH  12  13
ENDBRANCH   5   7
ENDBRANCH   2   3
ENDBRANCH   1   2
BRANCH   1  69
ATOM     69  C   UNL A   1      33.764  29.013  26.549  1.00  0.00     0.023 C 
BRANCH  69  70
ATOM     70  C   UNL A   1      33.629  27.528  26.213  1.00  0.00     0.116 C 
BRANCH  70  71
ATOM     71  N   UNL A   1      33.632  27.308  24.781  1.00  0.00    -0.354 N 
ATOM     72  C   UNL A   1      33.388  26.167  24.071  1.00  0.00     0.242 C 
ATOM     73  H   UNL A   1      33.840  28.102  24.236  1.00  0.00     0.163 HD
ATOM     74  O   UNL A   1      33.554  26.231  22.850  1.00  0.00    -0.273 OA
BRANCH  72  75
ATOM     75  C   UNL A   1      32.884  24.895  24.804  1.00  0.00     0.173 C 
ATOM     76  C   UNL A   1      31.407  25.051  25.186  1.00  0.00     0.035 C 
ATOM     77  N   UNL A   1      33.050  23.697  23.971  1.00  0.00    -0.344 N 
ATOM     78  C   UNL A   1      30.493  24.967  23.962  1.00  0.00     0.004 C 
ATOM     79  C   UNL A   1      32.210  23.508  22.797  1.00  0.00     0.119 C 
ATOM     80  C   UNL A   1      30.739  23.677  23.182  1.00  0.00     0.022 C 
BRANCH  77  81
ATOM     81  C   UNL A   1      33.878  22.693  24.412  1.00  0.00     0.133 A 
ATOM     82  C   UNL A   1      33.443  21.385  24.417  1.00  0.00     0.076 A 
ATOM     83  N   UNL A   1      35.117  23.021  24.809  1.00  0.00    -0.211 NA
ATOM     84  C   UNL A   1      34.339  20.418  24.827  1.00  0.00     0.076 A 
ATOM     85  C   UNL A   1      35.913  22.020  25.225  1.00  0.00     0.162 A 
ATOM     86  N   UNL A   1      35.581  20.721  25.249  1.00  0.00    -0.228 NA
BRANCH  84  87
ATOM     87  C   UNL A   1      33.995  18.992  24.818  1.00  0.00     0.000 A 
ATOM     88  C   UNL A   1      34.879  18.044  24.277  1.00  0.00     0.010 A 
ATOM     89  C   UNL A   1      32.778  18.536  25.349  1.00  0.00     0.010 A 
ATOM     90  C   UNL A   1      34.564  16.683  24.282  1.00  0.00     0.001 A 
ATOM     91  C   UNL A   1      32.456  17.176  25.346  1.00  0.00     0.001 A 
ATOM     92  C   UNL A   1      33.353  16.250  24.817  1.00  0.00     0.000 A 
ENDBRANCH  84  87
BRANCH  85  93
ATOM     93  C   UNL A   1      37.246  22.381  25.710  1.00  0.00     0.021 A 
ATOM     94  C   UNL A   1      37.528  23.689  26.144  1.00  0.00     0.012 A 
ATOM     95  C   UNL A   1      38.278  21.428  25.760  1.00  0.00     0.032 A 
ATOM     96  C   UNL A   1      38.795  24.035  26.621  1.00  0.00     0.002 A 
ATOM     97  C   UNL A   1      39.547  21.782  26.220  1.00  0.00     0.041 A 
ATOM     98  C   UNL A   1      39.808  23.079  26.655  1.00  0.00     0.020 A 
ATOM     99  Cl  UNL A   1      40.806  20.608  26.244  1.00  0.00    -0.084 Cl
ENDBRANCH  85  93
ENDBRANCH  77  81
ENDBRANCH  72  75
ENDBRANCH  70  71
ENDBRANCH  69  70
ENDBRANCH   1  69
TORSDOF 17
ENDMDL
