MODEL 1
REMARK VINA RESULT:     -11.9      0.000      0.000
REMARK SMILES CC(C)[C@H](NC(=O)[C@H](Cc1ccccc1)n1c(=O)[nH]c2ccccc2c1=O)C(=O)NCCCCNC(=O)c1ccc(-c2c3nc(c(-c4ccc(S(=O)(=O)[O-])cc4)c4ccc([nH]4)c(-c4ccc(S(=O)(=O)[O-])cc4)c4nc(c(-c5ccc(S(=O)(=O)[O-])cc5)c5ccc2[nH]5)C=C4)C=C3)cc1
REMARK SMILES IDX 32 1 31 2 30 3 28 4 29 5 4 7 2 8 1 9 3 10 5 11 6 12 7 14
REMARK SMILES IDX 8 15 16 16 17 17 26 18 18 19 19 20 25 21 27 22 20 23 24 25
REMARK SMILES IDX 21 26 23 27 22 28 9 29 10 30 11 31 15 32 12 33 14 34 13 35
REMARK SMILES IDX 33 36 34 37 35 38 36 39 37 41 38 42 39 43 97 44 40 45 96 46
REMARK SMILES IDX 41 47 42 48 43 49 90 50 44 51 95 52 89 53 91 54 45 55 94 56
REMARK SMILES IDX 88 57 87 58 46 60 76 61 57 62 75 63 58 64 61 65 74 66 92 67
REMARK SMILES IDX 59 68 60 69 73 71 93 72 62 73 47 74 48 75 56 76 49 77 55 78
REMARK SMILES IDX 50 79 51 80 52 81 53 82 54 83 77 84 78 85 86 86 79 87 85 88
REMARK SMILES IDX 80 89 81 90 82 91 83 92 84 93 63 94 64 95 72 96 65 97 71 98
REMARK SMILES IDX 66 99 67 100 68 101 69 102 70 103
REMARK H PARENT 30 6 5 13 19 24 35 40 91 59 61 70
REMARK Flexibility Score: inf
ROOT
ATOM      1  C   UNL A   1      38.056  22.576  25.582  1.00  0.00     0.023 C 
ENDROOT
BRANCH   1   2
ATOM      2  C   UNL A   1      36.736  22.771  24.837  1.00  0.00     0.116 C 
BRANCH   2   3
ATOM      3  N   UNL A   1      35.981  21.542  24.805  1.00  0.00    -0.354 N 
ATOM      4  C   UNL A   1      34.635  21.355  24.802  1.00  0.00     0.242 C 
ATOM      5  O   UNL A   1      34.230  20.188  24.852  1.00  0.00    -0.273 OA
ATOM      6  H   UNL A   1      36.520  20.718  24.782  1.00  0.00     0.163 HD
BRANCH   4   7
ATOM      7  C   UNL A   1      33.627  22.515  24.575  1.00  0.00     0.173 C 
BRANCH   7   8
ATOM      8  C   UNL A   1      32.169  22.131  24.786  1.00  0.00     0.015 C 
ATOM      9  C   UNL A   1      31.327  23.014  25.710  1.00  0.00     0.010 C 
ATOM     10  C   UNL A   1      31.480  21.997  23.422  1.00  0.00     0.010 C 
ENDBRANCH   7   8
BRANCH   7  11
ATOM     11  N   UNL A   1      33.894  23.281  23.337  1.00  0.00    -0.342 N 
ATOM     12  C   UNL A   1      33.763  24.505  22.791  1.00  0.00     0.244 C 
ATOM     13  H   UNL A   1      34.318  22.684  22.680  1.00  0.00     0.164 HD
ATOM     14  O   UNL A   1      33.634  24.387  21.555  1.00  0.00    -0.273 OA
BRANCH  12  15
ATOM     15  C   UNL A   1      33.570  25.950  23.416  1.00  0.00     0.189 C 
BRANCH  15  16
ATOM     16  N   UNL A   1      32.555  27.000  23.034  1.00  0.00    -0.247 N 
ATOM     17  C   UNL A   1      32.941  28.213  22.490  1.00  0.00     0.329 A 
ATOM     18  C   UNL A   1      31.196  26.633  23.031  1.00  0.00     0.264 A 
ATOM     19  O   UNL A   1      34.078  28.573  22.229  1.00  0.00    -0.248 OA
ATOM     20  N   UNL A   1      31.975  29.117  22.173  1.00  0.00    -0.307 N 
ATOM     21  C   UNL A   1      30.193  27.717  22.885  1.00  0.00     0.064 A 
ATOM     22  O   UNL A   1      30.790  25.482  23.187  1.00  0.00    -0.268 OA
ATOM     23  C   UNL A   1      30.630  28.946  22.422  1.00  0.00     0.055 A 
ATOM     24  H   UNL A   1      32.257  29.952  21.735  1.00  0.00     0.171 HD
ATOM     25  C   UNL A   1      28.855  27.563  23.256  1.00  0.00     0.016 A 
ATOM     26  C   UNL A   1      29.753  30.018  22.263  1.00  0.00     0.027 A 
ATOM     27  C   UNL A   1      27.977  28.648  23.155  1.00  0.00     0.001 A 
ATOM     28  C   UNL A   1      28.422  29.869  22.645  1.00  0.00     0.002 A 
ENDBRANCH  15  16
BRANCH  15  29
ATOM     29  C   UNL A   1      33.732  25.796  24.975  1.00  0.00     0.071 C 
BRANCH  29  30
ATOM     30  C   UNL A   1      33.133  26.827  25.932  1.00  0.00    -0.045 A 
ATOM     31  C   UNL A   1      33.893  27.962  26.246  1.00  0.00     0.004 A 
ATOM     32  C   UNL A   1      31.855  26.720  26.506  1.00  0.00     0.004 A 
ATOM     33  C   UNL A   1      33.373  28.968  27.067  1.00  0.00     0.000 A 
ATOM     34  C   UNL A   1      31.326  27.730  27.309  1.00  0.00     0.000 A 
ATOM     35  C   UNL A   1      32.085  28.858  27.586  1.00  0.00     0.000 A 
ENDBRANCH  29  30
ENDBRANCH  15  29
ENDBRANCH  12  15
ENDBRANCH   7  11
ENDBRANCH   4   7
ENDBRANCH   2   3
ENDBRANCH   1   2
BRANCH   1  36
ATOM     36  C   UNL A   1      38.668  21.188  25.403  1.00  0.00     0.023 C 
BRANCH  36  37
ATOM     37  C   UNL A   1      39.483  20.707  26.593  1.00  0.00     0.116 C 
BRANCH  37  38
ATOM     38  N   UNL A   1      40.436  19.663  26.245  1.00  0.00    -0.352 N 
ATOM     39  C   UNL A   1      41.790  19.796  26.047  1.00  0.00     0.251 C 
ATOM     40  H   UNL A   1      40.069  18.756  26.141  1.00  0.00     0.163 HD
ATOM     41  O   UNL A   1      42.458  18.862  25.621  1.00  0.00    -0.269 OA
BRANCH  39  42
ATOM     42  C   UNL A   1      42.412  21.105  26.326  1.00  0.00     0.039 A 
ATOM     43  C   UNL A   1      42.609  22.003  25.277  1.00  0.00     0.014 A 
ATOM     44  C   UNL A   1      42.731  21.463  27.639  1.00  0.00     0.014 A 
ATOM     45  C   UNL A   1      43.084  23.285  25.555  1.00  0.00     0.010 A 
ATOM     46  C   UNL A   1      43.112  22.767  27.922  1.00  0.00     0.010 A 
ATOM     47  C   UNL A   1      43.313  23.686  26.882  1.00  0.00    -0.014 A 
BRANCH  47  48
ATOM     48  C   UNL A   1      43.810  25.047  27.203  1.00  0.00     0.031 A 
ATOM     49  C   UNL A   1      45.269  25.369  27.011  1.00  0.00     0.074 A 
ATOM     50  C   UNL A   1      42.971  25.971  27.710  1.00  0.00     0.049 A 
ATOM     51  N   UNL A   1      45.911  26.477  27.277  1.00  0.00    -0.248 NA
ATOM     52  C   UNL A   1      46.126  24.295  26.477  1.00  0.00     0.031 C 
ATOM     53  C   UNL A   1      41.545  25.767  27.980  1.00  0.00     0.029 A 
ATOM     54  N   UNL A   1      43.196  27.271  28.090  1.00  0.00    -0.354 N 
ATOM     55  C   UNL A   1      47.242  26.227  26.961  1.00  0.00     0.074 A 
ATOM     56  C   UNL A   1      47.328  24.845  26.548  1.00  0.00     0.031 C 
ATOM     57  C   UNL A   1      41.018  26.911  28.448  1.00  0.00     0.029 A 
ATOM     58  C   UNL A   1      42.072  27.915  28.555  1.00  0.00     0.049 A 
ATOM     59  H   UNL A   1      44.080  27.701  28.036  1.00  0.00     0.167 HD
ATOM     60  C   UNL A   1      48.295  27.077  26.987  1.00  0.00     0.031 A 
ATOM     61  C   UNL A   1      41.912  29.171  29.017  1.00  0.00     0.031 A 
ATOM     62  C   UNL A   1      48.201  28.455  27.384  1.00  0.00     0.049 A 
ATOM     63  C   UNL A   1      43.100  30.094  29.048  1.00  0.00     0.074 A 
ATOM     64  C   UNL A   1      49.195  29.416  27.394  1.00  0.00     0.029 A 
ATOM     65  N   UNL A   1      47.043  29.070  27.839  1.00  0.00    -0.354 N 
ATOM     66  N   UNL A   1      44.339  29.857  28.683  1.00  0.00    -0.248 NA
ATOM     67  C   UNL A   1      42.867  31.459  29.537  1.00  0.00     0.031 C 
ATOM     68  C   UNL A   1      48.654  30.597  27.912  1.00  0.00     0.029 A 
ATOM     69  C   UNL A   1      47.306  30.391  28.156  1.00  0.00     0.049 A 
ATOM     70  H   UNL A   1      46.167  28.631  27.924  1.00  0.00     0.167 HD
ATOM     71  C   UNL A   1      45.023  31.055  28.866  1.00  0.00     0.074 A 
ATOM     72  C   UNL A   1      44.057  32.016  29.360  1.00  0.00     0.031 C 
ATOM     73  C   UNL A   1      46.331  31.335  28.642  1.00  0.00     0.031 A 
BRANCH  60  74
ATOM     74  C   UNL A   1      49.640  26.534  26.577  1.00  0.00    -0.014 A 
ATOM     75  C   UNL A   1      50.510  25.956  27.520  1.00  0.00     0.010 A 
ATOM     76  C   UNL A   1      50.024  26.569  25.225  1.00  0.00     0.010 A 
ATOM     77  C   UNL A   1      51.757  25.465  27.125  1.00  0.00     0.020 A 
ATOM     78  C   UNL A   1      51.256  26.048  24.820  1.00  0.00     0.020 A 
ATOM     79  C   UNL A   1      52.123  25.513  25.777  1.00  0.00     0.054 A 
BRANCH  79  80
ATOM     80  S   UNL A   1      53.735  24.842  25.289  1.00  0.00     0.124 S 
ATOM     81  O   UNL A   1      53.409  23.444  25.016  1.00  0.00    -0.237 OA
ATOM     82  O   UNL A   1      54.075  25.648  24.120  1.00  0.00    -0.237 OA
ATOM     83  O   UNL A   1      54.574  25.067  26.464  1.00  0.00    -0.744 OA
ENDBRANCH  79  80
ENDBRANCH  60  74
BRANCH  61  84
ATOM     84  C   UNL A   1      40.571  29.634  29.471  1.00  0.00    -0.014 A 
ATOM     85  C   UNL A   1      40.294  29.791  30.841  1.00  0.00     0.010 A 
ATOM     86  C   UNL A   1      39.561  29.922  28.535  1.00  0.00     0.010 A 
ATOM     87  C   UNL A   1      39.028  30.202  31.267  1.00  0.00     0.020 A 
ATOM     88  C   UNL A   1      38.303  30.365  28.955  1.00  0.00     0.020 A 
ATOM     89  C   UNL A   1      38.039  30.488  30.320  1.00  0.00     0.054 A 
BRANCH  89  90
ATOM     90  S   UNL A   1      36.416  31.058  30.895  1.00  0.00     0.124 S 
ATOM     91  O   UNL A   1      35.986  29.947  31.739  1.00  0.00    -0.237 OA
ATOM     92  O   UNL A   1      36.747  32.296  31.596  1.00  0.00    -0.237 OA
ATOM     93  O   UNL A   1      35.658  31.234  29.658  1.00  0.00    -0.744 OA
ENDBRANCH  89  90
ENDBRANCH  61  84
BRANCH  73  94
ATOM     94  C   UNL A   1      46.790  32.751  28.880  1.00  0.00    -0.014 A 
ATOM     95  C   UNL A   1      47.321  33.153  30.118  1.00  0.00     0.010 A 
ATOM     96  C   UNL A   1      46.744  33.676  27.820  1.00  0.00     0.010 A 
ATOM     97  C   UNL A   1      47.764  34.466  30.302  1.00  0.00     0.020 A 
ATOM     98  C   UNL A   1      47.217  34.978  27.990  1.00  0.00     0.020 A 
ATOM     99  C   UNL A   1      47.711  35.370  29.236  1.00  0.00     0.054 A 
BRANCH  99 100
ATOM    100  S   UNL A   1      48.333  37.054  29.489  1.00  0.00     0.124 S 
ATOM    101  O   UNL A   1      47.295  37.638  30.333  1.00  0.00    -0.237 OA
ATOM    102  O   UNL A   1      49.620  36.825  30.141  1.00  0.00    -0.237 OA
ATOM    103  O   UNL A   1      48.415  37.601  28.136  1.00  0.00    -0.744 OA
ENDBRANCH  99 100
ENDBRANCH  73  94
ENDBRANCH  47  48
ENDBRANCH  39  42
ENDBRANCH  37  38
ENDBRANCH  36  37
ENDBRANCH   1  36
TORSDOF 20
ENDMDL
MODEL 2
REMARK VINA RESULT:     -11.8      5.343      7.253
REMARK SMILES CC(C)[C@H](NC(=O)[C@H](Cc1ccccc1)n1c(=O)[nH]c2ccccc2c1=O)C(=O)NCCCCNC(=O)c1ccc(-c2c3nc(c(-c4ccc(S(=O)(=O)[O-])cc4)c4ccc([nH]4)c(-c4ccc(S(=O)(=O)[O-])cc4)c4nc(c(-c5ccc(S(=O)(=O)[O-])cc5)c5ccc2[nH]5)C=C4)C=C3)cc1
REMARK SMILES IDX 32 1 31 2 30 3 28 4 29 5 4 7 2 8 1 9 3 10 5 11 6 12 7 14
REMARK SMILES IDX 8 15 16 16 17 17 26 18 18 19 19 20 25 21 27 22 20 23 24 25
REMARK SMILES IDX 21 26 23 27 22 28 9 29 10 30 11 31 15 32 12 33 14 34 13 35
REMARK SMILES IDX 33 36 34 37 35 38 36 39 37 41 38 42 39 43 97 44 40 45 96 46
REMARK SMILES IDX 41 47 42 48 43 49 90 50 44 51 95 52 89 53 91 54 45 55 94 56
REMARK SMILES IDX 88 57 87 58 46 60 76 61 57 62 75 63 58 64 61 65 74 66 92 67
REMARK SMILES IDX 59 68 60 69 73 71 93 72 62 73 47 74 48 75 56 76 49 77 55 78
REMARK SMILES IDX 50 79 51 80 52 81 53 82 54 83 77 84 78 85 86 86 79 87 85 88
REMARK SMILES IDX 80 89 81 90 82 91 83 92 84 93 63 94 64 95 72 96 65 97 71 98
REMARK SMILES IDX 66 99 67 100 68 101 69 102 70 103
REMARK H PARENT 30 6 5 13 19 24 35 40 91 59 61 70
REMARK Flexibility Score: inf
ROOT
ATOM      1  C   UNL A   1      38.642  23.925  26.705  1.00  0.00     0.023 C 
ENDROOT
BRANCH   1   2
ATOM      2  C   UNL A   1      37.250  23.724  26.110  1.00  0.00     0.116 C 
BRANCH   2   3
ATOM      3  N   UNL A   1      37.338  23.335  24.724  1.00  0.00    -0.354 N 
ATOM      4  C   UNL A   1      36.344  23.114  23.824  1.00  0.00     0.242 C 
ATOM      5  O   UNL A   1      36.678  22.708  22.706  1.00  0.00    -0.273 OA
ATOM      6  H   UNL A   1      38.252  23.212  24.379  1.00  0.00     0.163 HD
BRANCH   4   7
ATOM      7  C   UNL A   1      34.865  23.503  24.095  1.00  0.00     0.173 C 
BRANCH   7   8
ATOM      8  C   UNL A   1      34.039  22.410  24.758  1.00  0.00     0.015 C 
ATOM      9  C   UNL A   1      33.068  22.825  25.867  1.00  0.00     0.010 C 
ATOM     10  C   UNL A   1      33.290  21.617  23.679  1.00  0.00     0.010 C 
ENDBRANCH   7   8
BRANCH   7  11
ATOM     11  N   UNL A   1      34.214  24.154  22.935  1.00  0.00    -0.342 N 
ATOM     12  C   UNL A   1      33.430  25.195  22.598  1.00  0.00     0.244 C 
ATOM     13  H   UNL A   1      34.432  23.644  22.122  1.00  0.00     0.164 HD
ATOM     14  O   UNL A   1      32.759  24.890  21.591  1.00  0.00    -0.273 OA
BRANCH  12  15
ATOM     15  C   UNL A   1      33.098  26.571  23.313  1.00  0.00     0.189 C 
BRANCH  15  16
ATOM     16  N   UNL A   1      32.057  27.594  22.925  1.00  0.00    -0.247 N 
ATOM     17  C   UNL A   1      32.413  28.818  22.385  1.00  0.00     0.329 A 
ATOM     18  C   UNL A   1      30.709  27.189  22.911  1.00  0.00     0.264 A 
ATOM     19  O   UNL A   1      33.541  29.210  22.134  1.00  0.00    -0.248 OA
ATOM     20  N   UNL A   1      31.425  29.694  22.063  1.00  0.00    -0.307 N 
ATOM     21  C   UNL A   1      29.677  28.244  22.759  1.00  0.00     0.064 A 
ATOM     22  O   UNL A   1      30.334  26.027  23.063  1.00  0.00    -0.268 OA
ATOM     23  C   UNL A   1      30.083  29.486  22.301  1.00  0.00     0.055 A 
ATOM     24  H   UNL A   1      31.686  30.538  21.628  1.00  0.00     0.171 HD
ATOM     25  C   UNL A   1      28.341  28.052  23.120  1.00  0.00     0.016 A 
ATOM     26  C   UNL A   1      29.178  30.533  22.137  1.00  0.00     0.027 A 
ATOM     27  C   UNL A   1      27.434  29.112  23.013  1.00  0.00     0.001 A 
ATOM     28  C   UNL A   1      27.848  30.347  22.509  1.00  0.00     0.002 A 
ENDBRANCH  15  16
BRANCH  15  29
ATOM     29  C   UNL A   1      33.137  26.299  24.864  1.00  0.00     0.071 C 
BRANCH  29  30
ATOM     30  C   UNL A   1      32.993  27.443  25.866  1.00  0.00    -0.045 A 
ATOM     31  C   UNL A   1      34.031  28.381  25.957  1.00  0.00     0.004 A 
ATOM     32  C   UNL A   1      31.873  27.631  26.695  1.00  0.00     0.004 A 
ATOM     33  C   UNL A   1      33.929  29.483  26.812  1.00  0.00     0.000 A 
ATOM     34  C   UNL A   1      31.760  28.738  27.534  1.00  0.00     0.000 A 
ATOM     35  C   UNL A   1      32.788  29.670  27.588  1.00  0.00     0.000 A 
ENDBRANCH  29  30
ENDBRANCH  15  29
ENDBRANCH  12  15
ENDBRANCH   7  11
ENDBRANCH   4   7
ENDBRANCH   2   3
ENDBRANCH   1   2
BRANCH   1  36
ATOM     36  C   UNL A   1      39.594  22.755  26.461  1.00  0.00     0.023 C 
BRANCH  36  37
ATOM     37  C   UNL A   1      41.022  23.005  26.922  1.00  0.00     0.116 C 
BRANCH  37  38
ATOM     38  N   UNL A   1      41.863  23.579  25.882  1.00  0.00    -0.352 N 
ATOM     39  C   UNL A   1      42.416  24.838  25.851  1.00  0.00     0.251 C 
ATOM     40  H   UNL A   1      42.060  22.999  25.112  1.00  0.00     0.163 HD
ATOM     41  O   UNL A   1      42.991  25.247  24.849  1.00  0.00    -0.269 OA
BRANCH  39  42
ATOM     42  C   UNL A   1      42.266  25.698  27.041  1.00  0.00     0.039 A 
ATOM     43  C   UNL A   1      42.795  26.988  27.021  1.00  0.00     0.014 A 
ATOM     44  C   UNL A   1      41.538  25.243  28.145  1.00  0.00     0.014 A 
ATOM     45  C   UNL A   1      42.551  27.844  28.095  1.00  0.00     0.010 A 
ATOM     46  C   UNL A   1      41.217  26.127  29.167  1.00  0.00     0.010 A 
ATOM     47  C   UNL A   1      41.737  27.430  29.163  1.00  0.00    -0.014 A 
BRANCH  47  48
ATOM     48  C   UNL A   1      41.456  28.325  30.312  1.00  0.00     0.031 A 
ATOM     49  C   UNL A   1      42.292  28.216  31.561  1.00  0.00     0.074 A 
ATOM     50  C   UNL A   1      40.428  29.194  30.256  1.00  0.00     0.049 A 
ATOM     51  N   UNL A   1      42.179  28.868  32.688  1.00  0.00    -0.248 NA
ATOM     52  C   UNL A   1      43.380  27.222  31.551  1.00  0.00     0.031 C 
ATOM     53  C   UNL A   1      39.520  29.365  29.119  1.00  0.00     0.029 A 
ATOM     54  N   UNL A   1      39.971  30.100  31.181  1.00  0.00    -0.354 N 
ATOM     55  C   UNL A   1      43.164  28.352  33.523  1.00  0.00     0.074 A 
ATOM     56  C   UNL A   1      43.822  27.290  32.797  1.00  0.00     0.031 C 
ATOM     57  C   UNL A   1      38.640  30.339  29.401  1.00  0.00     0.029 A 
ATOM     58  C   UNL A   1      38.889  30.832  30.752  1.00  0.00     0.049 A 
ATOM     59  H   UNL A   1      40.380  30.213  32.071  1.00  0.00     0.167 HD
ATOM     60  C   UNL A   1      43.511  28.744  34.772  1.00  0.00     0.031 A 
ATOM     61  C   UNL A   1      38.177  31.791  31.378  1.00  0.00     0.031 A 
ATOM     62  C   UNL A   1      42.864  29.812  35.483  1.00  0.00     0.049 A 
ATOM     63  C   UNL A   1      38.574  32.201  32.771  1.00  0.00     0.074 A 
ATOM     64  C   UNL A   1      43.173  30.325  36.730  1.00  0.00     0.029 A 
ATOM     65  N   UNL A   1      41.779  30.535  35.009  1.00  0.00    -0.354 N 
ATOM     66  N   UNL A   1      39.551  31.745  33.519  1.00  0.00    -0.248 NA
ATOM     67  C   UNL A   1      37.781  33.266  33.399  1.00  0.00     0.031 C 
ATOM     68  C   UNL A   1      42.237  31.317  37.036  1.00  0.00     0.029 A 
ATOM     69  C   UNL A   1      41.390  31.472  35.950  1.00  0.00     0.049 A 
ATOM     70  H   UNL A   1      41.349  30.400  34.134  1.00  0.00     0.167 HD
ATOM     71  C   UNL A   1      39.512  32.494  34.692  1.00  0.00     0.074 A 
ATOM     72  C   UNL A   1      38.424  33.439  34.546  1.00  0.00     0.031 C 
ATOM     73  C   UNL A   1      40.307  32.409  35.787  1.00  0.00     0.031 A 
BRANCH  60  74
ATOM     74  C   UNL A   1      44.639  28.006  35.446  1.00  0.00    -0.014 A 
ATOM     75  C   UNL A   1      45.958  28.496  35.404  1.00  0.00     0.010 A 
ATOM     76  C   UNL A   1      44.372  26.826  36.163  1.00  0.00     0.010 A 
ATOM     77  C   UNL A   1      46.994  27.796  36.026  1.00  0.00     0.020 A 
ATOM     78  C   UNL A   1      45.401  26.142  36.817  1.00  0.00     0.020 A 
ATOM     79  C   UNL A   1      46.709  26.623  36.730  1.00  0.00     0.054 A 
BRANCH  79  80
ATOM     80  S   UNL A   1      48.069  25.752  37.553  1.00  0.00     0.124 S 
ATOM     81  O   UNL A   1      48.858  25.282  36.416  1.00  0.00    -0.237 OA
ATOM     82  O   UNL A   1      48.686  26.807  38.352  1.00  0.00    -0.237 OA
ATOM     83  O   UNL A   1      47.399  24.704  38.319  1.00  0.00    -0.744 OA
ENDBRANCH  79  80
ENDBRANCH  60  74
BRANCH  61  84
ATOM     84  C   UNL A   1      37.029  32.440  30.687  1.00  0.00    -0.014 A 
ATOM     85  C   UNL A   1      37.243  33.479  29.764  1.00  0.00     0.010 A 
ATOM     86  C   UNL A   1      35.711  32.021  30.947  1.00  0.00     0.010 A 
ATOM     87  C   UNL A   1      36.162  34.104  29.134  1.00  0.00     0.020 A 
ATOM     88  C   UNL A   1      34.629  32.621  30.296  1.00  0.00     0.020 A 
ATOM     89  C   UNL A   1      34.861  33.669  29.403  1.00  0.00     0.054 A 
BRANCH  89  90
ATOM     90  S   UNL A   1      33.477  34.469  28.545  1.00  0.00     0.124 S 
ATOM     91  O   UNL A   1      32.993  33.394  27.683  1.00  0.00    -0.237 OA
ATOM     92  O   UNL A   1      32.596  34.844  29.648  1.00  0.00    -0.237 OA
ATOM     93  O   UNL A   1      34.107  35.591  27.852  1.00  0.00    -0.744 OA
ENDBRANCH  89  90
ENDBRANCH  61  84
BRANCH  73  94
ATOM     94  C   UNL A   1      40.066  33.396  36.900  1.00  0.00    -0.014 A 
ATOM     95  C   UNL A   1      39.207  33.098  37.973  1.00  0.00     0.010 A 
ATOM     96  C   UNL A   1      40.763  34.618  36.898  1.00  0.00     0.010 A 
ATOM     97  C   UNL A   1      39.024  34.022  39.006  1.00  0.00     0.020 A 
ATOM     98  C   UNL A   1      40.608  35.529  37.945  1.00  0.00     0.020 A 
ATOM     99  C   UNL A   1      39.726  35.232  38.986  1.00  0.00     0.054 A 
BRANCH  99 100
ATOM    100  S   UNL A   1      39.504  36.393  40.360  1.00  0.00     0.124 S 
ATOM    101  O   UNL A   1      40.859  36.498  40.892  1.00  0.00    -0.237 OA
ATOM    102  O   UNL A   1      38.996  37.588  39.689  1.00  0.00    -0.237 OA
ATOM    103  O   UNL A   1      38.543  35.720  41.231  1.00  0.00    -0.744 OA
ENDBRANCH  99 100
ENDBRANCH  73  94
ENDBRANCH  47  48
ENDBRANCH  39  42
ENDBRANCH  37  38
ENDBRANCH  36  37
ENDBRANCH   1  36
TORSDOF 20
ENDMDL
MODEL 3
REMARK VINA RESULT:     -11.8      5.745     11.512
REMARK SMILES CC(C)[C@H](NC(=O)[C@H](Cc1ccccc1)n1c(=O)[nH]c2ccccc2c1=O)C(=O)NCCCCNC(=O)c1ccc(-c2c3nc(c(-c4ccc(S(=O)(=O)[O-])cc4)c4ccc([nH]4)c(-c4ccc(S(=O)(=O)[O-])cc4)c4nc(c(-c5ccc(S(=O)(=O)[O-])cc5)c5ccc2[nH]5)C=C4)C=C3)cc1
REMARK SMILES IDX 32 1 31 2 30 3 28 4 29 5 4 7 2 8 1 9 3 10 5 11 6 12 7 14
REMARK SMILES IDX 8 15 16 16 17 17 26 18 18 19 19 20 25 21 27 22 20 23 24 25
REMARK SMILES IDX 21 26 23 27 22 28 9 29 10 30 11 31 15 32 12 33 14 34 13 35
REMARK SMILES IDX 33 36 34 37 35 38 36 39 37 41 38 42 39 43 97 44 40 45 96 46
REMARK SMILES IDX 41 47 42 48 43 49 90 50 44 51 95 52 89 53 91 54 45 55 94 56
REMARK SMILES IDX 88 57 87 58 46 60 76 61 57 62 75 63 58 64 61 65 74 66 92 67
REMARK SMILES IDX 59 68 60 69 73 71 93 72 62 73 47 74 48 75 56 76 49 77 55 78
REMARK SMILES IDX 50 79 51 80 52 81 53 82 54 83 77 84 78 85 86 86 79 87 85 88
REMARK SMILES IDX 80 89 81 90 82 91 83 92 84 93 63 94 64 95 72 96 65 97 71 98
REMARK SMILES IDX 66 99 67 100 68 101 69 102 70 103
REMARK H PARENT 30 6 5 13 19 24 35 40 91 59 61 70
REMARK Flexibility Score: inf
ROOT
ATOM      1  C   UNL A   1      34.798  30.492  27.641  1.00  0.00     0.023 C 
ENDROOT
BRANCH   1   2
ATOM      2  C   UNL A   1      34.417  29.082  27.190  1.00  0.00     0.116 C 
BRANCH   2   3
ATOM      3  N   UNL A   1      33.184  28.663  27.811  1.00  0.00    -0.354 N 
ATOM      4  C   UNL A   1      32.085  28.095  27.249  1.00  0.00     0.242 C 
ATOM      5  O   UNL A   1      31.114  27.898  27.989  1.00  0.00    -0.273 OA
ATOM      6  H   UNL A   1      33.132  28.810  28.783  1.00  0.00     0.163 HD
BRANCH   4   7
ATOM      7  C   UNL A   1      32.072  27.550  25.794  1.00  0.00     0.173 C 
BRANCH   7   8
ATOM      8  C   UNL A   1      31.770  28.599  24.733  1.00  0.00     0.015 C 
ATOM      9  C   UNL A   1      32.915  29.030  23.813  1.00  0.00     0.010 C 
ATOM     10  C   UNL A   1      30.571  28.139  23.894  1.00  0.00     0.010 C 
ENDBRANCH   7   8
BRANCH   7  11
ATOM     11  N   UNL A   1      31.309  26.289  25.654  1.00  0.00    -0.342 N 
ATOM     12  C   UNL A   1      31.461  24.969  25.436  1.00  0.00     0.244 C 
ATOM     13  H   UNL A   1      30.350  26.486  25.756  1.00  0.00     0.164 HD
ATOM     14  O   UNL A   1      30.446  24.533  24.855  1.00  0.00    -0.273 OA
BRANCH  12  15
ATOM     15  C   UNL A   1      32.691  23.982  25.608  1.00  0.00     0.189 C 
BRANCH  15  16
ATOM     16  N   UNL A   1      32.687  22.473  25.552  1.00  0.00    -0.247 N 
ATOM     17  C   UNL A   1      32.967  21.709  26.672  1.00  0.00     0.329 A 
ATOM     18  C   UNL A   1      32.172  21.858  24.396  1.00  0.00     0.264 A 
ATOM     19  O   UNL A   1      33.211  22.115  27.797  1.00  0.00    -0.248 OA
ATOM     20  N   UNL A   1      32.952  20.355  26.551  1.00  0.00    -0.307 N 
ATOM     21  C   UNL A   1      32.382  20.396  24.245  1.00  0.00     0.064 A 
ATOM     22  O   UNL A   1      31.602  22.460  23.487  1.00  0.00    -0.268 OA
ATOM     23  C   UNL A   1      32.749  19.676  25.369  1.00  0.00     0.055 A 
ATOM     24  H   UNL A   1      33.097  19.821  27.365  1.00  0.00     0.171 HD
ATOM     25  C   UNL A   1      32.290  19.743  23.013  1.00  0.00     0.016 A 
ATOM     26  C   UNL A   1      32.972  18.301  25.310  1.00  0.00     0.027 A 
ATOM     27  C   UNL A   1      32.566  18.374  22.931  1.00  0.00     0.001 A 
ATOM     28  C   UNL A   1      32.893  17.651  24.081  1.00  0.00     0.002 A 
ENDBRANCH  15  16
BRANCH  15  29
ATOM     29  C   UNL A   1      33.898  24.619  24.821  1.00  0.00     0.071 C 
BRANCH  29  30
ATOM     30  C   UNL A   1      35.229  23.879  24.693  1.00  0.00    -0.045 A 
ATOM     31  C   UNL A   1      36.125  23.933  25.771  1.00  0.00     0.004 A 
ATOM     32  C   UNL A   1      35.609  23.129  23.568  1.00  0.00     0.004 A 
ATOM     33  C   UNL A   1      37.331  23.226  25.735  1.00  0.00     0.000 A 
ATOM     34  C   UNL A   1      36.802  22.408  23.537  1.00  0.00     0.000 A 
ATOM     35  C   UNL A   1      37.662  22.452  24.626  1.00  0.00     0.000 A 
ENDBRANCH  29  30
ENDBRANCH  15  29
ENDBRANCH  12  15
ENDBRANCH   7  11
ENDBRANCH   4   7
ENDBRANCH   2   3
ENDBRANCH   1   2
BRANCH   1  36
ATOM     36  C   UNL A   1      33.634  31.481  27.627  1.00  0.00     0.023 C 
BRANCH  36  37
ATOM     37  C   UNL A   1      34.025  32.900  27.246  1.00  0.00     0.116 C 
BRANCH  37  38
ATOM     38  N   UNL A   1      33.251  33.913  27.950  1.00  0.00    -0.352 N 
ATOM     39  C   UNL A   1      33.411  34.337  29.247  1.00  0.00     0.251 C 
ATOM     40  H   UNL A   1      32.530  34.344  27.437  1.00  0.00     0.163 HD
ATOM     41  O   UNL A   1      32.602  35.099  29.764  1.00  0.00    -0.269 OA
BRANCH  39  42
ATOM     42  C   UNL A   1      34.562  33.824  30.015  1.00  0.00     0.039 A 
ATOM     43  C   UNL A   1      34.357  32.818  30.960  1.00  0.00     0.014 A 
ATOM     44  C   UNL A   1      35.851  34.292  29.741  1.00  0.00     0.014 A 
ATOM     45  C   UNL A   1      35.458  32.247  31.600  1.00  0.00     0.010 A 
ATOM     46  C   UNL A   1      36.947  33.656  30.308  1.00  0.00     0.010 A 
ATOM     47  C   UNL A   1      36.762  32.642  31.258  1.00  0.00    -0.014 A 
BRANCH  47  48
ATOM     48  C   UNL A   1      37.948  32.042  31.918  1.00  0.00     0.031 A 
ATOM     49  C   UNL A   1      38.392  32.560  33.261  1.00  0.00     0.074 A 
ATOM     50  C   UNL A   1      38.651  31.075  31.296  1.00  0.00     0.049 A 
ATOM     51  N   UNL A   1      39.426  32.209  33.980  1.00  0.00    -0.248 NA
ATOM     52  C   UNL A   1      37.585  33.637  33.862  1.00  0.00     0.031 C 
ATOM     53  C   UNL A   1      38.345  30.518  29.976  1.00  0.00     0.029 A 
ATOM     54  N   UNL A   1      39.771  30.388  31.693  1.00  0.00    -0.354 N 
ATOM     55  C   UNL A   1      39.402  33.029  35.102  1.00  0.00     0.074 A 
ATOM     56  C   UNL A   1      38.293  33.940  34.938  1.00  0.00     0.031 C 
ATOM     57  C   UNL A   1      39.235  29.552  29.690  1.00  0.00     0.029 A 
ATOM     58  C   UNL A   1      40.199  29.451  30.781  1.00  0.00     0.049 A 
ATOM     59  H   UNL A   1      40.228  30.553  32.550  1.00  0.00     0.167 HD
ATOM     60  C   UNL A   1      40.214  33.011  36.186  1.00  0.00     0.031 A 
ATOM     61  C   UNL A   1      41.250  28.609  30.820  1.00  0.00     0.031 A 
ATOM     62  C   UNL A   1      41.306  32.091  36.351  1.00  0.00     0.049 A 
ATOM     63  C   UNL A   1      42.145  28.615  32.030  1.00  0.00     0.074 A 
ATOM     64  C   UNL A   1      42.155  31.952  37.434  1.00  0.00     0.029 A 
ATOM     65  N   UNL A   1      41.699  31.152  35.409  1.00  0.00    -0.354 N 
ATOM     66  N   UNL A   1      42.067  29.355  33.111  1.00  0.00    -0.248 NA
ATOM     67  C   UNL A   1      43.262  27.660  32.033  1.00  0.00     0.031 C 
ATOM     68  C   UNL A   1      43.100  30.970  37.122  1.00  0.00     0.029 A 
ATOM     69  C   UNL A   1      42.795  30.447  35.875  1.00  0.00     0.049 A 
ATOM     70  H   UNL A   1      41.264  31.010  34.537  1.00  0.00     0.167 HD
ATOM     71  C   UNL A   1      43.103  28.930  33.937  1.00  0.00     0.074 A 
ATOM     72  C   UNL A   1      43.783  27.860  33.235  1.00  0.00     0.031 C 
ATOM     73  C   UNL A   1      43.457  29.382  35.166  1.00  0.00     0.031 A 
BRANCH  60  74
ATOM     74  C   UNL A   1      39.948  34.020  37.273  1.00  0.00    -0.014 A 
ATOM     75  C   UNL A   1      39.111  33.714  38.362  1.00  0.00     0.010 A 
ATOM     76  C   UNL A   1      40.573  35.279  37.225  1.00  0.00     0.010 A 
ATOM     77  C   UNL A   1      38.868  34.664  39.357  1.00  0.00     0.020 A 
ATOM     78  C   UNL A   1      40.360  36.220  38.237  1.00  0.00     0.020 A 
ATOM     79  C   UNL A   1      39.495  35.911  39.289  1.00  0.00     0.054 A 
BRANCH  79  80
ATOM     80  S   UNL A   1      39.184  37.113  40.610  1.00  0.00     0.124 S 
ATOM     81  O   UNL A   1      38.155  37.960  40.012  1.00  0.00    -0.237 OA
ATOM     82  O   UNL A   1      38.736  36.265  41.713  1.00  0.00    -0.237 OA
ATOM     83  O   UNL A   1      40.481  37.756  40.809  1.00  0.00    -0.744 OA
ENDBRANCH  79  80
ENDBRANCH  60  74
BRANCH  61  84
ATOM     84  C   UNL A   1      41.503  27.677  29.685  1.00  0.00    -0.014 A 
ATOM     85  C   UNL A   1      40.639  26.595  29.441  1.00  0.00     0.010 A 
ATOM     86  C   UNL A   1      42.611  27.869  28.840  1.00  0.00     0.010 A 
ATOM     87  C   UNL A   1      40.892  25.707  28.390  1.00  0.00     0.020 A 
ATOM     88  C   UNL A   1      42.850  27.003  27.768  1.00  0.00     0.020 A 
ATOM     89  C   UNL A   1      41.996  25.918  27.559  1.00  0.00     0.054 A 
BRANCH  89  90
ATOM     90  S   UNL A   1      42.281  24.777  26.178  1.00  0.00     0.124 S 
ATOM     91  O   UNL A   1      43.626  24.286  26.463  1.00  0.00    -0.237 OA
ATOM     92  O   UNL A   1      41.202  23.805  26.345  1.00  0.00    -0.237 OA
ATOM     93  O   UNL A   1      42.163  25.631  24.998  1.00  0.00    -0.744 OA
ENDBRANCH  89  90
ENDBRANCH  61  84
BRANCH  73  94
ATOM     94  C   UNL A   1      44.602  28.690  35.859  1.00  0.00    -0.014 A 
ATOM     95  C   UNL A   1      45.931  29.116  35.688  1.00  0.00     0.010 A 
ATOM     96  C   UNL A   1      44.330  27.631  36.745  1.00  0.00     0.010 A 
ATOM     97  C   UNL A   1      46.971  28.472  36.364  1.00  0.00     0.020 A 
ATOM     98  C   UNL A   1      45.363  27.007  37.449  1.00  0.00     0.020 A 
ATOM     99  C   UNL A   1      46.680  27.422  37.242  1.00  0.00     0.054 A 
BRANCH  99 100
ATOM    100  S   UNL A   1      48.043  26.634  38.141  1.00  0.00     0.124 S 
ATOM    101  O   UNL A   1      47.439  26.379  39.446  1.00  0.00    -0.237 OA
ATOM    102  O   UNL A   1      48.315  25.448  37.331  1.00  0.00    -0.237 OA
ATOM    103  O   UNL A   1      49.097  27.645  38.129  1.00  0.00    -0.744 OA
ENDBRANCH  99 100
ENDBRANCH  73  94
ENDBRANCH  47  48
ENDBRANCH  39  42
ENDBRANCH  37  38
ENDBRANCH  36  37
ENDBRANCH   1  36
TORSDOF 20
ENDMDL
