MODEL 1
REMARK VINA RESULT:     -10.0      0.000      0.000
REMARK SMILES CC(C)CCN(C(=O)N[C@H](C(=O)NCCCCNC(=O)c1ccc(-c2c3nc(c(-c4ccc(S(=O)(=O)[O-])cc4)c4ccc([nH]4)c(-c4ccc(S(=O)(=O)[O-])cc4)c4nc(c(-c5ccc(S(=O)(=O)[O-])cc5)c5ccc2[nH]5)C=C4)C=C3)cc1)[C@H](C)O)C1CCCC1
REMARK SMILES IDX 14 1 13 2 11 3 12 4 10 6 9 7 7 8 8 9 6 11 5 12 4 13 2 14
REMARK SMILES IDX 1 15 3 16 84 17 85 18 88 19 86 20 87 21 81 22 82 23 83 24
REMARK SMILES IDX 15 26 16 27 17 28 18 29 19 30 20 32 21 33 22 34 80 35 23 36
REMARK SMILES IDX 79 37 24 38 25 39 26 40 73 41 27 42 78 43 72 44 74 45 28 46
REMARK SMILES IDX 77 47 71 48 70 49 29 51 59 52 40 53 58 54 41 55 44 56 57 57
REMARK SMILES IDX 75 58 42 59 43 60 56 62 76 63 45 64 30 65 31 66 39 67 32 68
REMARK SMILES IDX 38 69 33 70 34 71 35 72 36 73 37 74 60 75 61 76 69 77 62 78
REMARK SMILES IDX 68 79 63 80 64 81 65 82 66 83 67 84 46 85 47 86 55 87 48 88
REMARK SMILES IDX 54 89 49 90 50 91 51 92 52 93 53 94
REMARK H PARENT 13 5 9 10 83 25 18 31 74 50 44 61
REMARK Flexibility Score: inf
ROOT
ATOM      1  C   UNL A   1      37.522  23.575  25.919  1.00  0.00     0.116 C 
ENDROOT
BRANCH   1   2
ATOM      2  N   UNL A   1      37.170  23.494  24.519  1.00  0.00    -0.354 N 
ATOM      3  C   UNL A   1      36.141  22.914  23.858  1.00  0.00     0.245 C 
ATOM      4  O   UNL A   1      36.300  22.845  22.628  1.00  0.00    -0.273 OA
ATOM      5  H   UNL A   1      37.808  23.955  23.926  1.00  0.00     0.163 HD
BRANCH   3   6
ATOM      6  C   UNL A   1      34.781  22.469  24.475  1.00  0.00     0.201 C 
BRANCH   6   7
ATOM      7  N   UNL A   1      33.939  22.150  23.288  1.00  0.00    -0.324 N 
ATOM      8  C   UNL A   1      32.759  22.615  22.827  1.00  0.00     0.318 C 
ATOM      9  O   UNL A   1      32.064  21.857  22.152  1.00  0.00    -0.249 OA
ATOM     10  H   UNL A   1      34.327  21.448  22.717  1.00  0.00     0.166 HD
BRANCH   8  11
ATOM     11  N   UNL A   1      32.333  23.865  23.223  1.00  0.00    -0.322 N 
BRANCH  11  12
ATOM     12  C   UNL A   1      32.384  25.004  22.282  1.00  0.00     0.122 C 
BRANCH  12  13
ATOM     13  C   UNL A   1      33.569  25.976  22.418  1.00  0.00     0.024 C 
BRANCH  13  14
ATOM     14  C   UNL A   1      33.227  27.426  22.799  1.00  0.00    -0.016 C 
ATOM     15  C   UNL A   1      31.723  27.705  22.804  1.00  0.00     0.007 C 
ATOM     16  C   UNL A   1      33.818  27.768  24.169  1.00  0.00     0.007 C 
ENDBRANCH  13  14
ENDBRANCH  12  13
ENDBRANCH  11  12
BRANCH  11  17
ATOM     17  C   UNL A   1      31.533  23.909  24.457  1.00  0.00     0.087 C 
ATOM     18  C   UNL A   1      31.185  22.559  25.079  1.00  0.00     0.025 C 
ATOM     19  C   UNL A   1      32.089  24.781  25.589  1.00  0.00     0.025 C 
ATOM     20  C   UNL A   1      30.827  22.896  26.517  1.00  0.00     0.002 C 
ATOM     21  C   UNL A   1      31.705  24.083  26.894  1.00  0.00     0.002 C 
ENDBRANCH  11  17
ENDBRANCH   8  11
ENDBRANCH   6   7
BRANCH   6  22
ATOM     22  C   UNL A   1      34.742  21.332  25.518  1.00  0.00     0.143 C 
ATOM     23  C   UNL A   1      34.534  21.770  26.958  1.00  0.00     0.041 C 
BRANCH  22  24
ATOM     24  O   UNL A   1      35.950  20.554  25.462  1.00  0.00    -0.391 OA
ATOM     25  H   UNL A   1      36.530  20.806  26.197  1.00  0.00     0.211 HD
ENDBRANCH  22  24
ENDBRANCH   6  22
ENDBRANCH   3   6
ENDBRANCH   1   2
BRANCH   1  26
ATOM     26  C   UNL A   1      38.771  22.734  26.197  1.00  0.00     0.023 C 
BRANCH  26  27
ATOM     27  C   UNL A   1      39.838  23.448  27.026  1.00  0.00     0.023 C 
BRANCH  27  28
ATOM     28  C   UNL A   1      39.940  24.946  26.780  1.00  0.00     0.116 C 
BRANCH  28  29
ATOM     29  N   UNL A   1      40.949  25.311  25.797  1.00  0.00    -0.352 N 
ATOM     30  C   UNL A   1      41.891  26.309  25.898  1.00  0.00     0.251 C 
ATOM     31  H   UNL A   1      40.959  24.784  24.965  1.00  0.00     0.163 HD
ATOM     32  O   UNL A   1      42.640  26.566  24.966  1.00  0.00    -0.269 OA
BRANCH  30  33
ATOM     33  C   UNL A   1      41.934  27.093  27.147  1.00  0.00     0.039 A 
ATOM     34  C   UNL A   1      41.829  28.482  27.072  1.00  0.00     0.014 A 
ATOM     35  C   UNL A   1      41.952  26.438  28.381  1.00  0.00     0.014 A 
ATOM     36  C   UNL A   1      41.665  29.216  28.246  1.00  0.00     0.010 A 
ATOM     37  C   UNL A   1      41.712  27.164  29.540  1.00  0.00     0.010 A 
ATOM     38  C   UNL A   1      41.563  28.558  29.483  1.00  0.00    -0.014 A 
BRANCH  38  39
ATOM     39  C   UNL A   1      41.307  29.308  30.737  1.00  0.00     0.031 A 
ATOM     40  C   UNL A   1      40.144  30.258  30.809  1.00  0.00     0.074 A 
ATOM     41  C   UNL A   1      42.159  29.188  31.776  1.00  0.00     0.049 A 
ATOM     42  N   UNL A   1      39.802  31.069  31.775  1.00  0.00    -0.248 NA
ATOM     43  C   UNL A   1      39.269  30.329  29.626  1.00  0.00     0.031 C 
ATOM     44  C   UNL A   1      43.350  28.336  31.808  1.00  0.00     0.029 A 
ATOM     45  N   UNL A   1      42.152  29.792  33.008  1.00  0.00    -0.354 N 
ATOM     46  C   UNL A   1      38.689  31.759  31.312  1.00  0.00     0.074 A 
ATOM     47  C   UNL A   1      38.443  31.310  29.959  1.00  0.00     0.031 C 
ATOM     48  C   UNL A   1      43.943  28.450  33.009  1.00  0.00     0.029 A 
ATOM     49  C   UNL A   1      43.196  29.407  33.818  1.00  0.00     0.049 A 
ATOM     50  H   UNL A   1      41.465  30.439  33.286  1.00  0.00     0.167 HD
ATOM     51  C   UNL A   1      37.922  32.665  31.962  1.00  0.00     0.031 A 
ATOM     52  C   UNL A   1      43.513  29.785  35.071  1.00  0.00     0.031 A 
ATOM     53  C   UNL A   1      38.150  33.084  33.316  1.00  0.00     0.049 A 
ATOM     54  C   UNL A   1      42.631  30.778  35.780  1.00  0.00     0.074 A 
ATOM     55  C   UNL A   1      37.403  33.962  34.083  1.00  0.00     0.029 A 
ATOM     56  N   UNL A   1      39.196  32.645  34.113  1.00  0.00    -0.354 N 
ATOM     57  N   UNL A   1      41.553  31.383  35.339  1.00  0.00    -0.248 NA
ATOM     58  C   UNL A   1      43.003  31.131  37.156  1.00  0.00     0.031 C 
ATOM     59  C   UNL A   1      38.015  34.075  35.336  1.00  0.00     0.029 A 
ATOM     60  C   UNL A   1      39.117  33.236  35.362  1.00  0.00     0.049 A 
ATOM     61  H   UNL A   1      39.891  32.007  33.831  1.00  0.00     0.167 HD
ATOM     62  C   UNL A   1      41.103  32.167  36.394  1.00  0.00     0.074 A 
ATOM     63  C   UNL A   1      42.016  31.949  37.498  1.00  0.00     0.031 C 
ATOM     64  C   UNL A   1      40.030  32.994  36.448  1.00  0.00     0.031 A 
BRANCH  51  65
ATOM     65  C   UNL A   1      36.755  33.248  31.214  1.00  0.00    -0.014 A 
ATOM     66  C   UNL A   1      35.490  33.347  31.822  1.00  0.00     0.010 A 
ATOM     67  C   UNL A   1      36.929  33.733  29.906  1.00  0.00     0.010 A 
ATOM     68  C   UNL A   1      34.410  33.888  31.121  1.00  0.00     0.020 A 
ATOM     69  C   UNL A   1      35.856  34.299  29.210  1.00  0.00     0.020 A 
ATOM     70  C   UNL A   1      34.599  34.358  29.818  1.00  0.00     0.054 A 
BRANCH  70  71
ATOM     71  S   UNL A   1      33.186  35.083  28.942  1.00  0.00     0.124 S 
ATOM     72  O   UNL A   1      32.255  35.340  30.038  1.00  0.00    -0.237 OA
ATOM     73  O   UNL A   1      33.766  36.269  28.320  1.00  0.00    -0.237 OA
ATOM     74  O   UNL A   1      32.780  34.031  28.013  1.00  0.00    -0.744 OA
ENDBRANCH  70  71
ENDBRANCH  51  65
BRANCH  52  75
ATOM     75  C   UNL A   1      44.704  29.209  35.752  1.00  0.00    -0.014 A 
ATOM     76  C   UNL A   1      44.575  28.068  36.563  1.00  0.00     0.010 A 
ATOM     77  C   UNL A   1      45.968  29.808  35.608  1.00  0.00     0.010 A 
ATOM     78  C   UNL A   1      45.683  27.555  37.246  1.00  0.00     0.020 A 
ATOM     79  C   UNL A   1      47.082  29.283  36.267  1.00  0.00     0.020 A 
ATOM     80  C   UNL A   1      46.929  28.169  37.097  1.00  0.00     0.054 A 
BRANCH  80  81
ATOM     81  S   UNL A   1      48.360  27.475  37.970  1.00  0.00     0.124 S 
ATOM     82  O   UNL A   1      47.722  26.606  38.953  1.00  0.00    -0.237 OA
ATOM     83  O   UNL A   1      49.087  26.794  36.900  1.00  0.00    -0.237 OA
ATOM     84  O   UNL A   1      49.031  28.654  38.513  1.00  0.00    -0.744 OA
ENDBRANCH  80  81
ENDBRANCH  52  75
BRANCH  64  85
ATOM     85  C   UNL A   1      39.763  33.693  37.750  1.00  0.00    -0.014 A 
ATOM     86  C   UNL A   1      38.996  33.083  38.758  1.00  0.00     0.010 A 
ATOM     87  C   UNL A   1      40.338  34.955  37.989  1.00  0.00     0.010 A 
ATOM     88  C   UNL A   1      38.787  33.737  39.975  1.00  0.00     0.020 A 
ATOM     89  C   UNL A   1      40.150  35.601  39.212  1.00  0.00     0.020 A 
ATOM     90  C   UNL A   1      39.364  34.992  40.194  1.00  0.00     0.054 A 
BRANCH  90  91
ATOM     91  S   UNL A   1      39.120  35.799  41.799  1.00  0.00     0.124 S 
ATOM     92  O   UNL A   1      37.736  35.450  42.107  1.00  0.00    -0.237 OA
ATOM     93  O   UNL A   1      40.131  35.161  42.639  1.00  0.00    -0.237 OA
ATOM     94  O   UNL A   1      39.358  37.212  41.514  1.00  0.00    -0.744 OA
ENDBRANCH  90  91
ENDBRANCH  64  85
ENDBRANCH  38  39
ENDBRANCH  30  33
ENDBRANCH  28  29
ENDBRANCH  27  28
ENDBRANCH  26  27
ENDBRANCH   1  26
TORSDOF 22
ENDMDL
MODEL 2
REMARK VINA RESULT:      -9.7      6.444     11.119
REMARK SMILES CC(C)CCN(C(=O)N[C@H](C(=O)NCCCCNC(=O)c1ccc(-c2c3nc(c(-c4ccc(S(=O)(=O)[O-])cc4)c4ccc([nH]4)c(-c4ccc(S(=O)(=O)[O-])cc4)c4nc(c(-c5ccc(S(=O)(=O)[O-])cc5)c5ccc2[nH]5)C=C4)C=C3)cc1)[C@H](C)O)C1CCCC1
REMARK SMILES IDX 14 1 13 2 11 3 12 4 10 6 9 7 7 8 8 9 6 11 5 12 4 13 2 14
REMARK SMILES IDX 1 15 3 16 84 17 85 18 88 19 86 20 87 21 81 22 82 23 83 24
REMARK SMILES IDX 15 26 16 27 17 28 18 29 19 30 20 32 21 33 22 34 80 35 23 36
REMARK SMILES IDX 79 37 24 38 25 39 26 40 73 41 27 42 78 43 72 44 74 45 28 46
REMARK SMILES IDX 77 47 71 48 70 49 29 51 59 52 40 53 58 54 41 55 44 56 57 57
REMARK SMILES IDX 75 58 42 59 43 60 56 62 76 63 45 64 30 65 31 66 39 67 32 68
REMARK SMILES IDX 38 69 33 70 34 71 35 72 36 73 37 74 60 75 61 76 69 77 62 78
REMARK SMILES IDX 68 79 63 80 64 81 65 82 66 83 67 84 46 85 47 86 55 87 48 88
REMARK SMILES IDX 54 89 49 90 50 91 51 92 52 93 53 94
REMARK H PARENT 13 5 9 10 83 25 18 31 74 50 44 61
REMARK Flexibility Score: inf
ROOT
ATOM      1  C   UNL A   1      41.134  22.019  26.254  1.00  0.00     0.116 C 
ENDROOT
BRANCH   1   2
ATOM      2  N   UNL A   1      40.099  22.884  26.773  1.00  0.00    -0.354 N 
ATOM      3  C   UNL A   1      38.799  23.067  26.443  1.00  0.00     0.245 C 
ATOM      4  O   UNL A   1      38.282  24.076  26.950  1.00  0.00    -0.273 OA
ATOM      5  H   UNL A   1      40.401  23.456  27.517  1.00  0.00     0.163 HD
BRANCH   3   6
ATOM      6  C   UNL A   1      37.907  22.086  25.625  1.00  0.00     0.201 C 
BRANCH   6   7
ATOM      7  N   UNL A   1      37.603  22.839  24.376  1.00  0.00    -0.324 N 
ATOM      8  C   UNL A   1      36.471  23.077  23.680  1.00  0.00     0.318 C 
ATOM      9  O   UNL A   1      36.568  23.269  22.469  1.00  0.00    -0.249 OA
ATOM     10  H   UNL A   1      38.399  23.251  23.969  1.00  0.00     0.166 HD
BRANCH   8  11
ATOM     11  N   UNL A   1      35.257  22.982  24.326  1.00  0.00    -0.322 N 
BRANCH  11  12
ATOM     12  C   UNL A   1      34.794  24.073  25.209  1.00  0.00     0.122 C 
BRANCH  12  13
ATOM     13  C   UNL A   1      34.040  23.670  26.488  1.00  0.00     0.024 C 
BRANCH  13  14
ATOM     14  C   UNL A   1      32.601  24.196  26.632  1.00  0.00    -0.016 C 
ATOM     15  C   UNL A   1      32.159  25.060  25.450  1.00  0.00     0.007 C 
ATOM     16  C   UNL A   1      31.626  23.031  26.811  1.00  0.00     0.007 C 
ENDBRANCH  13  14
ENDBRANCH  12  13
ENDBRANCH  11  12
BRANCH  11  17
ATOM     17  C   UNL A   1      34.343  21.944  23.824  1.00  0.00     0.087 C 
ATOM     18  C   UNL A   1      33.902  20.890  24.836  1.00  0.00     0.025 C 
ATOM     19  C   UNL A   1      33.070  22.445  23.132  1.00  0.00     0.025 C 
ATOM     20  C   UNL A   1      32.646  20.293  24.225  1.00  0.00     0.002 C 
ATOM     21  C   UNL A   1      31.976  21.431  23.462  1.00  0.00     0.002 C 
ENDBRANCH  11  17
ENDBRANCH   8  11
ENDBRANCH   6   7
BRANCH   6  22
ATOM     22  C   UNL A   1      38.410  20.660  25.316  1.00  0.00     0.143 C 
ATOM     23  C   UNL A   1      37.383  19.720  24.706  1.00  0.00     0.041 C 
BRANCH  22  24
ATOM     24  O   UNL A   1      38.926  20.039  26.506  1.00  0.00    -0.391 OA
ATOM     25  H   UNL A   1      38.736  19.088  26.482  1.00  0.00     0.211 HD
ENDBRANCH  22  24
ENDBRANCH   6  22
ENDBRANCH   3   6
ENDBRANCH   1   2
BRANCH   1  26
ATOM     26  C   UNL A   1      41.710  21.154  27.379  1.00  0.00     0.023 C 
BRANCH  26  27
ATOM     27  C   UNL A   1      42.329  19.838  26.907  1.00  0.00     0.023 C 
BRANCH  27  28
ATOM     28  C   UNL A   1      42.337  19.643  25.398  1.00  0.00     0.116 C 
BRANCH  28  29
ATOM     29  N   UNL A   1      43.628  19.232  24.868  1.00  0.00    -0.352 N 
ATOM     30  C   UNL A   1      44.761  20.002  24.734  1.00  0.00     0.251 C 
ATOM     31  H   UNL A   1      43.700  18.296  24.571  1.00  0.00     0.163 HD
ATOM     32  O   UNL A   1      45.767  19.557  24.202  1.00  0.00    -0.269 OA
BRANCH  30  33
ATOM     33  C   UNL A   1      44.704  21.399  25.207  1.00  0.00     0.039 A 
ATOM     34  C   UNL A   1      45.143  21.689  26.499  1.00  0.00     0.014 A 
ATOM     35  C   UNL A   1      44.334  22.418  24.326  1.00  0.00     0.014 A 
ATOM     36  C   UNL A   1      45.284  23.022  26.886  1.00  0.00     0.010 A 
ATOM     37  C   UNL A   1      44.549  23.741  24.688  1.00  0.00     0.010 A 
ATOM     38  C   UNL A   1      45.028  24.055  25.969  1.00  0.00    -0.014 A 
BRANCH  38  39
ATOM     39  C   UNL A   1      45.247  25.477  26.330  1.00  0.00     0.031 A 
ATOM     40  C   UNL A   1      46.625  26.067  26.216  1.00  0.00     0.074 A 
ATOM     41  C   UNL A   1      44.228  26.209  26.823  1.00  0.00     0.049 A 
ATOM     42  N   UNL A   1      47.043  27.256  26.563  1.00  0.00    -0.248 NA
ATOM     43  C   UNL A   1      47.680  25.194  25.671  1.00  0.00     0.031 C 
ATOM     44  C   UNL A   1      42.857  25.733  27.027  1.00  0.00     0.029 A 
ATOM     45  N   UNL A   1      44.191  27.513  27.249  1.00  0.00    -0.354 N 
ATOM     46  C   UNL A   1      48.407  27.268  26.298  1.00  0.00     0.074 A 
ATOM     47  C   UNL A   1      48.757  25.952  25.811  1.00  0.00     0.031 C 
ATOM     48  C   UNL A   1      42.108  26.738  27.511  1.00  0.00     0.029 A 
ATOM     49  C   UNL A   1      42.950  27.917  27.685  1.00  0.00     0.049 A 
ATOM     50  H   UNL A   1      44.978  28.103  27.243  1.00  0.00     0.167 HD
ATOM     51  C   UNL A   1      49.285  28.290  26.423  1.00  0.00     0.031 A 
ATOM     52  C   UNL A   1      42.540  29.105  28.170  1.00  0.00     0.031 A 
ATOM     53  C   UNL A   1      48.928  29.605  26.876  1.00  0.00     0.049 A 
ATOM     54  C   UNL A   1      43.533  30.231  28.279  1.00  0.00     0.074 A 
ATOM     55  C   UNL A   1      49.734  30.724  26.993  1.00  0.00     0.029 A 
ATOM     56  N   UNL A   1      47.655  29.983  27.274  1.00  0.00    -0.354 N 
ATOM     57  N   UNL A   1      44.810  30.235  27.977  1.00  0.00    -0.248 NA
ATOM     58  C   UNL A   1      43.026  31.515  28.782  1.00  0.00     0.031 C 
ATOM     59  C   UNL A   1      48.953  31.773  27.489  1.00  0.00     0.029 A 
ATOM     60  C   UNL A   1      47.653  31.317  27.641  1.00  0.00     0.049 A 
ATOM     61  H   UNL A   1      46.869  29.390  27.292  1.00  0.00     0.167 HD
ATOM     62  C   UNL A   1      45.252  31.528  28.228  1.00  0.00     0.074 A 
ATOM     63  C   UNL A   1      44.106  32.281  28.693  1.00  0.00     0.031 C 
ATOM     64  C   UNL A   1      46.496  32.048  28.088  1.00  0.00     0.031 A 
BRANCH  51  65
ATOM     65  C   UNL A   1      50.717  28.022  26.045  1.00  0.00    -0.014 A 
ATOM     66  C   UNL A   1      51.647  27.598  27.013  1.00  0.00     0.010 A 
ATOM     67  C   UNL A   1      51.130  28.163  24.709  1.00  0.00     0.010 A 
ATOM     68  C   UNL A   1      52.974  27.353  26.656  1.00  0.00     0.020 A 
ATOM     69  C   UNL A   1      52.452  27.894  24.344  1.00  0.00     0.020 A 
ATOM     70  C   UNL A   1      53.370  27.507  25.324  1.00  0.00     0.054 A 
BRANCH  70  71
ATOM     71  S   UNL A   1      55.094  27.153  24.884  1.00  0.00     0.124 S 
ATOM     72  O   UNL A   1      55.741  27.142  26.194  1.00  0.00    -0.237 OA
ATOM     73  O   UNL A   1      54.998  25.856  24.220  1.00  0.00    -0.237 OA
ATOM     74  O   UNL A   1      55.464  28.268  24.015  1.00  0.00    -0.744 OA
ENDBRANCH  70  71
ENDBRANCH  51  65
BRANCH  52  75
ATOM     75  C   UNL A   1      41.121  29.305  28.570  1.00  0.00    -0.014 A 
ATOM     76  C   UNL A   1      40.745  29.215  29.921  1.00  0.00     0.010 A 
ATOM     77  C   UNL A   1      40.136  29.569  27.602  1.00  0.00     0.010 A 
ATOM     78  C   UNL A   1      39.405  29.352  30.296  1.00  0.00     0.020 A 
ATOM     79  C   UNL A   1      38.799  29.732  27.974  1.00  0.00     0.020 A 
ATOM     80  C   UNL A   1      38.439  29.605  29.317  1.00  0.00     0.054 A 
BRANCH  80  81
ATOM     81  S   UNL A   1      36.708  29.805  29.823  1.00  0.00     0.124 S 
ATOM     82  O   UNL A   1      35.992  29.325  28.646  1.00  0.00    -0.237 OA
ATOM     83  O   UNL A   1      36.622  28.953  31.008  1.00  0.00    -0.237 OA
ATOM     84  O   UNL A   1      36.595  31.237  30.088  1.00  0.00    -0.744 OA
ENDBRANCH  80  81
ENDBRANCH  52  75
BRANCH  64  85
ATOM     85  C   UNL A   1      46.674  33.505  28.404  1.00  0.00    -0.014 A 
ATOM     86  C   UNL A   1      46.488  34.490  27.418  1.00  0.00     0.010 A 
ATOM     87  C   UNL A   1      46.974  33.897  29.721  1.00  0.00     0.010 A 
ATOM     88  C   UNL A   1      46.626  35.843  27.739  1.00  0.00     0.020 A 
ATOM     89  C   UNL A   1      47.089  35.249  30.051  1.00  0.00     0.020 A 
ATOM     90  C   UNL A   1      46.927  36.213  29.054  1.00  0.00     0.054 A 
BRANCH  90  91
ATOM     91  S   UNL A   1      47.052  37.976  29.459  1.00  0.00     0.124 S 
ATOM     92  O   UNL A   1      45.773  38.227  30.119  1.00  0.00    -0.237 OA
ATOM     93  O   UNL A   1      48.227  38.027  30.325  1.00  0.00    -0.237 OA
ATOM     94  O   UNL A   1      47.218  38.618  28.157  1.00  0.00    -0.744 OA
ENDBRANCH  90  91
ENDBRANCH  64  85
ENDBRANCH  38  39
ENDBRANCH  30  33
ENDBRANCH  28  29
ENDBRANCH  27  28
ENDBRANCH  26  27
ENDBRANCH   1  26
TORSDOF 22
ENDMDL
MODEL 3
REMARK VINA RESULT:      -9.6      0.998      8.100
REMARK SMILES CC(C)CCN(C(=O)N[C@H](C(=O)NCCCCNC(=O)c1ccc(-c2c3nc(c(-c4ccc(S(=O)(=O)[O-])cc4)c4ccc([nH]4)c(-c4ccc(S(=O)(=O)[O-])cc4)c4nc(c(-c5ccc(S(=O)(=O)[O-])cc5)c5ccc2[nH]5)C=C4)C=C3)cc1)[C@H](C)O)C1CCCC1
REMARK SMILES IDX 14 1 13 2 11 3 12 4 10 6 9 7 7 8 8 9 6 11 5 12 4 13 2 14
REMARK SMILES IDX 1 15 3 16 84 17 85 18 88 19 86 20 87 21 81 22 82 23 83 24
REMARK SMILES IDX 15 26 16 27 17 28 18 29 19 30 20 32 21 33 22 34 80 35 23 36
REMARK SMILES IDX 79 37 24 38 25 39 26 40 73 41 27 42 78 43 72 44 74 45 28 46
REMARK SMILES IDX 77 47 71 48 70 49 29 51 59 52 40 53 58 54 41 55 44 56 57 57
REMARK SMILES IDX 75 58 42 59 43 60 56 62 76 63 45 64 30 65 31 66 39 67 32 68
REMARK SMILES IDX 38 69 33 70 34 71 35 72 36 73 37 74 60 75 61 76 69 77 62 78
REMARK SMILES IDX 68 79 63 80 64 81 65 82 66 83 67 84 46 85 47 86 55 87 48 88
REMARK SMILES IDX 54 89 49 90 50 91 51 92 52 93 53 94
REMARK H PARENT 13 5 9 10 83 25 18 31 74 50 44 61
REMARK Flexibility Score: inf
ROOT
ATOM      1  C   UNL A   1      37.478  23.771  25.989  1.00  0.00     0.116 C 
ENDROOT
BRANCH   1   2
ATOM      2  N   UNL A   1      37.159  23.631  24.586  1.00  0.00    -0.354 N 
ATOM      3  C   UNL A   1      36.154  23.008  23.927  1.00  0.00     0.245 C 
ATOM      4  O   UNL A   1      36.342  22.894  22.704  1.00  0.00    -0.273 OA
ATOM      5  H   UNL A   1      37.803  24.079  23.990  1.00  0.00     0.163 HD
BRANCH   3   6
ATOM      6  C   UNL A   1      34.788  22.565  24.531  1.00  0.00     0.201 C 
BRANCH   6   7
ATOM      7  N   UNL A   1      33.974  22.197  23.339  1.00  0.00    -0.324 N 
ATOM      8  C   UNL A   1      32.781  22.609  22.859  1.00  0.00     0.318 C 
ATOM      9  O   UNL A   1      32.125  21.815  22.186  1.00  0.00    -0.249 OA
ATOM     10  H   UNL A   1      34.396  21.506  22.780  1.00  0.00     0.166 HD
BRANCH   8  11
ATOM     11  N   UNL A   1      32.300  23.845  23.236  1.00  0.00    -0.322 N 
BRANCH  11  12
ATOM     12  C   UNL A   1      32.362  24.987  22.299  1.00  0.00     0.122 C 
BRANCH  12  13
ATOM     13  C   UNL A   1      33.579  25.922  22.413  1.00  0.00     0.024 C 
BRANCH  13  14
ATOM     14  C   UNL A   1      33.292  27.374  22.833  1.00  0.00    -0.016 C 
ATOM     15  C   UNL A   1      31.822  27.766  22.665  1.00  0.00     0.007 C 
ATOM     16  C   UNL A   1      33.722  27.600  24.284  1.00  0.00     0.007 C 
ENDBRANCH  13  14
ENDBRANCH  12  13
ENDBRANCH  11  12
BRANCH  11  17
ATOM     17  C   UNL A   1      31.440  23.862  24.430  1.00  0.00     0.087 C 
ATOM     18  C   UNL A   1      31.150  22.505  25.067  1.00  0.00     0.025 C 
ATOM     19  C   UNL A   1      31.884  24.792  25.565  1.00  0.00     0.025 C 
ATOM     20  C   UNL A   1      30.703  22.848  26.478  1.00  0.00     0.002 C 
ATOM     21  C   UNL A   1      31.483  24.098  26.867  1.00  0.00     0.002 C 
ENDBRANCH  11  17
ENDBRANCH   8  11
ENDBRANCH   6   7
BRANCH   6  22
ATOM     22  C   UNL A   1      34.743  21.460  25.608  1.00  0.00     0.143 C 
ATOM     23  C   UNL A   1      34.534  21.942  27.034  1.00  0.00     0.041 C 
BRANCH  22  24
ATOM     24  O   UNL A   1      35.948  20.677  25.578  1.00  0.00    -0.391 OA
ATOM     25  H   UNL A   1      36.706  21.257  25.407  1.00  0.00     0.211 HD
ENDBRANCH  22  24
ENDBRANCH   6  22
ENDBRANCH   3   6
ENDBRANCH   1   2
BRANCH   1  26
ATOM     26  C   UNL A   1      38.756  22.996  26.319  1.00  0.00     0.023 C 
BRANCH  26  27
ATOM     27  C   UNL A   1      39.734  23.748  27.222  1.00  0.00     0.023 C 
BRANCH  27  28
ATOM     28  C   UNL A   1      39.757  25.255  27.019  1.00  0.00     0.116 C 
BRANCH  28  29
ATOM     29  N   UNL A   1      40.638  25.688  25.945  1.00  0.00    -0.352 N 
ATOM     30  C   UNL A   1      41.548  26.721  25.975  1.00  0.00     0.251 C 
ATOM     31  H   UNL A   1      40.578  25.185  25.101  1.00  0.00     0.163 HD
ATOM     32  O   UNL A   1      42.179  27.034  24.976  1.00  0.00    -0.269 OA
BRANCH  30  33
ATOM     33  C   UNL A   1      41.696  27.472  27.237  1.00  0.00     0.039 A 
ATOM     34  C   UNL A   1      41.539  28.858  27.216  1.00  0.00     0.014 A 
ATOM     35  C   UNL A   1      41.867  26.784  28.441  1.00  0.00     0.014 A 
ATOM     36  C   UNL A   1      41.476  29.553  28.423  1.00  0.00     0.010 A 
ATOM     37  C   UNL A   1      41.727  27.469  29.641  1.00  0.00     0.010 A 
ATOM     38  C   UNL A   1      41.527  28.858  29.643  1.00  0.00    -0.014 A 
BRANCH  38  39
ATOM     39  C   UNL A   1      41.381  29.564  30.939  1.00  0.00     0.031 A 
ATOM     40  C   UNL A   1      42.387  29.327  32.031  1.00  0.00     0.074 A 
ATOM     41  C   UNL A   1      40.312  30.358  31.153  1.00  0.00     0.049 A 
ATOM     42  N   UNL A   1      42.390  29.776  33.259  1.00  0.00    -0.248 NA
ATOM     43  C   UNL A   1      43.520  28.443  31.711  1.00  0.00     0.031 C 
ATOM     44  C   UNL A   1      39.243  30.627  30.188  1.00  0.00     0.029 A 
ATOM     45  N   UNL A   1      39.946  31.081  32.261  1.00  0.00    -0.354 N 
ATOM     46  C   UNL A   1      43.509  29.215  33.862  1.00  0.00     0.074 A 
ATOM     47  C   UNL A   1      44.132  28.352  32.883  1.00  0.00     0.031 C 
ATOM     48  C   UNL A   1      38.358  31.478  30.735  1.00  0.00     0.029 A 
ATOM     49  C   UNL A   1      38.776  31.787  32.098  1.00  0.00     0.049 A 
ATOM     50  H   UNL A   1      40.472  31.094  33.092  1.00  0.00     0.167 HD
ATOM     51  C   UNL A   1      43.991  29.419  35.110  1.00  0.00     0.031 A 
ATOM     52  C   UNL A   1      38.117  32.591  32.954  1.00  0.00     0.031 A 
ATOM     53  C   UNL A   1      43.388  30.302  36.069  1.00  0.00     0.049 A 
ATOM     54  C   UNL A   1      38.686  32.819  34.329  1.00  0.00     0.074 A 
ATOM     55  C   UNL A   1      43.825  30.616  37.344  1.00  0.00     0.029 A 
ATOM     56  N   UNL A   1      42.224  31.024  35.853  1.00  0.00    -0.354 N 
ATOM     57  N   UNL A   1      39.774  32.314  34.863  1.00  0.00    -0.248 NA
ATOM     58  C   UNL A   1      37.945  33.731  35.211  1.00  0.00     0.031 C 
ATOM     59  C   UNL A   1      42.908  31.508  37.911  1.00  0.00     0.029 A 
ATOM     60  C   UNL A   1      41.925  31.780  36.973  1.00  0.00     0.049 A 
ATOM     61  H   UNL A   1      41.691  31.002  35.026  1.00  0.00     0.167 HD
ATOM     62  C   UNL A   1      39.862  32.871  36.133  1.00  0.00     0.074 A 
ATOM     63  C   UNL A   1      38.727  33.758  36.283  1.00  0.00     0.031 C 
ATOM     64  C   UNL A   1      40.797  32.666  37.093  1.00  0.00     0.031 A 
BRANCH  51  65
ATOM     65  C   UNL A   1      45.245  28.683  35.497  1.00  0.00    -0.014 A 
ATOM     66  C   UNL A   1      45.174  27.418  36.108  1.00  0.00     0.010 A 
ATOM     67  C   UNL A   1      46.503  29.243  35.219  1.00  0.00     0.010 A 
ATOM     68  C   UNL A   1      46.341  26.741  36.467  1.00  0.00     0.020 A 
ATOM     69  C   UNL A   1      47.675  28.556  35.553  1.00  0.00     0.020 A 
ATOM     70  C   UNL A   1      47.585  27.316  36.190  1.00  0.00     0.054 A 
BRANCH  70  71
ATOM     71  S   UNL A   1      49.085  26.401  36.640  1.00  0.00     0.124 S 
ATOM     72  O   UNL A   1      49.749  26.259  35.346  1.00  0.00    -0.237 OA
ATOM     73  O   UNL A   1      49.739  27.299  37.586  1.00  0.00    -0.237 OA
ATOM     74  O   UNL A   1      48.571  25.160  37.217  1.00  0.00    -0.744 OA
ENDBRANCH  70  71
ENDBRANCH  51  65
BRANCH  52  75
ATOM     75  C   UNL A   1      36.857  33.263  32.536  1.00  0.00    -0.014 A 
ATOM     76  C   UNL A   1      36.850  34.636  32.236  1.00  0.00     0.010 A 
ATOM     77  C   UNL A   1      35.655  32.538  32.452  1.00  0.00     0.010 A 
ATOM     78  C   UNL A   1      35.658  35.282  31.893  1.00  0.00     0.020 A 
ATOM     79  C   UNL A   1      34.466  33.173  32.084  1.00  0.00     0.020 A 
ATOM     80  C   UNL A   1      34.472  34.546  31.824  1.00  0.00     0.054 A 
BRANCH  80  81
ATOM     81  S   UNL A   1      32.939  35.394  31.352  1.00  0.00     0.124 S 
ATOM     82  O   UNL A   1      32.640  34.782  30.061  1.00  0.00    -0.237 OA
ATOM     83  O   UNL A   1      32.032  35.045  32.444  1.00  0.00    -0.237 OA
ATOM     84  O   UNL A   1      33.330  36.801  31.306  1.00  0.00    -0.744 OA
ENDBRANCH  80  81
ENDBRANCH  52  75
BRANCH  64  85
ATOM     85  C   UNL A   1      40.655  33.442  38.371  1.00  0.00    -0.014 A 
ATOM     86  C   UNL A   1      41.290  34.684  38.541  1.00  0.00     0.010 A 
ATOM     87  C   UNL A   1      39.826  32.946  39.394  1.00  0.00     0.010 A 
ATOM     88  C   UNL A   1      41.119  35.406  39.725  1.00  0.00     0.020 A 
ATOM     89  C   UNL A   1      39.633  33.675  40.568  1.00  0.00     0.020 A 
ATOM     90  C   UNL A   1      40.292  34.896  40.732  1.00  0.00     0.054 A 
BRANCH  90  91
ATOM     91  S   UNL A   1      40.045  35.873  42.239  1.00  0.00     0.124 S 
ATOM     92  O   UNL A   1      40.745  35.071  43.239  1.00  0.00    -0.237 OA
ATOM     93  O   UNL A   1      40.673  37.149  41.904  1.00  0.00    -0.237 OA
ATOM     94  O   UNL A   1      38.592  35.921  42.384  1.00  0.00    -0.744 OA
ENDBRANCH  90  91
ENDBRANCH  64  85
ENDBRANCH  38  39
ENDBRANCH  30  33
ENDBRANCH  28  29
ENDBRANCH  27  28
ENDBRANCH  26  27
ENDBRANCH   1  26
TORSDOF 22
ENDMDL
