MODEL 1
REMARK VINA RESULT:      -9.8      0.000      0.000
REMARK SMILES CC(C)C[C@H](NC(=O)CNC(=O)[C@@H](NC(=O)OCc1ccccc1)C(C)C)C(=O)N[C@@H](C)C(=O)NCCCCNC(=O)c1ccc(-c2c3nc(c(-c4ccc(S(=O)(=O)[O-])cc4)c4ccc([nH]4)c(-c4ccc(S(=O)(=O)[O-])cc4)c4nc(c(-c5ccc(S(=O)(=O)[O-])cc5)c5ccc2[nH]5)C=C4)C=C3)cc1
REMARK SMILES IDX 31 1 32 2 30 3 28 4 29 5 5 7 4 8 2 9 1 10 3 11 6 12 7 13
REMARK SMILES IDX 8 15 9 16 10 17 11 18 12 20 13 21 14 22 15 23 16 25 17 26
REMARK SMILES IDX 18 27 19 28 20 29 24 30 21 31 23 32 22 33 25 34 26 35 27 36
REMARK SMILES IDX 33 37 34 38 35 39 36 41 37 42 38 43 39 44 40 45 41 46 42 48
REMARK SMILES IDX 43 49 44 50 102 51 45 52 101 53 46 54 47 55 48 56 95 57
REMARK SMILES IDX 49 58 100 59 94 60 96 61 50 62 99 63 93 64 92 65 51 67 81 68
REMARK SMILES IDX 62 69 80 70 63 71 66 72 79 73 97 74 64 75 65 76 78 78 98 79
REMARK SMILES IDX 67 80 52 81 53 82 61 83 54 84 60 85 55 86 56 87 57 88 58 89
REMARK SMILES IDX 59 90 82 91 83 92 91 93 84 94 90 95 85 96 86 97 87 98 88 99
REMARK SMILES IDX 89 100 68 101 69 102 77 103 70 104 76 105 71 106 72 107
REMARK SMILES IDX 73 108 74 109 75 110
REMARK H PARENT 30 6 6 14 10 19 14 24 35 40 40 47 96 66 66 77
REMARK Flexibility Score: inf
ROOT
ATOM      1  C   UNL A   1      29.593  29.847  22.680  1.00  0.00     0.168 C 
ATOM      2  C   UNL A   1      29.368  30.183  21.214  1.00  0.00     0.041 C 
ENDROOT
BRANCH   1   3
ATOM      3  N   UNL A   1      28.934  28.586  23.036  1.00  0.00    -0.343 N 
ATOM      4  C   UNL A   1      29.482  27.378  23.348  1.00  0.00     0.243 C 
ATOM      5  O   UNL A   1      28.742  26.516  23.823  1.00  0.00    -0.273 OA
ATOM      6  H   UNL A   1      27.950  28.617  23.052  1.00  0.00     0.164 HD
BRANCH   4   7
ATOM      7  C   UNL A   1      30.991  27.142  23.171  1.00  0.00     0.171 C 
BRANCH   7   8
ATOM      8  C   UNL A   1      31.252  25.769  22.554  1.00  0.00     0.038 C 
BRANCH   8   9
ATOM      9  C   UNL A   1      32.515  25.555  21.705  1.00  0.00    -0.015 C 
ATOM     10  C   UNL A   1      32.324  25.963  20.241  1.00  0.00     0.007 C 
ATOM     11  C   UNL A   1      33.647  26.397  22.310  1.00  0.00     0.007 C 
ENDBRANCH   8   9
ENDBRANCH   7   8
BRANCH   7  12
ATOM     12  N   UNL A   1      31.620  27.381  24.489  1.00  0.00    -0.343 N 
ATOM     13  C   UNL A   1      32.020  26.672  25.567  1.00  0.00     0.240 C 
ATOM     14  H   UNL A   1      31.801  28.339  24.618  1.00  0.00     0.164 HD
ATOM     15  O   UNL A   1      32.667  27.321  26.402  1.00  0.00    -0.273 OA
BRANCH  13  16
ATOM     16  C   UNL A   1      31.869  25.161  25.781  1.00  0.00     0.216 C 
BRANCH  16  17
ATOM     17  N   UNL A   1      32.923  24.427  26.440  1.00  0.00    -0.345 N 
ATOM     18  C   UNL A   1      33.724  23.411  26.031  1.00  0.00     0.243 C 
ATOM     19  H   UNL A   1      33.093  24.721  27.363  1.00  0.00     0.164 HD
ATOM     20  O   UNL A   1      34.676  23.146  26.775  1.00  0.00    -0.273 OA
BRANCH  18  21
ATOM     21  C   UNL A   1      33.531  22.608  24.706  1.00  0.00     0.177 C 
BRANCH  21  22
ATOM     22  N   UNL A   1      34.607  22.808  23.725  1.00  0.00    -0.309 N 
ATOM     23  C   UNL A   1      35.928  22.498  23.709  1.00  0.00     0.408 C 
ATOM     24  H   UNL A   1      34.305  23.264  22.907  1.00  0.00     0.167 HD
ATOM     25  O   UNL A   1      36.683  23.041  22.921  1.00  0.00    -0.225 OA
BRANCH  23  26
ATOM     26  O   UNL A   1      36.274  21.524  24.577  1.00  0.00    -0.445 OA
BRANCH  26  27
ATOM     27  C   UNL A   1      37.684  21.317  24.728  1.00  0.00     0.270 C 
BRANCH  27  28
ATOM     28  C   UNL A   1      38.380  22.203  25.747  1.00  0.00    -0.011 A 
ATOM     29  C   UNL A   1      37.855  23.482  25.981  1.00  0.00     0.007 A 
ATOM     30  C   UNL A   1      39.559  21.840  26.418  1.00  0.00     0.007 A 
ATOM     31  C   UNL A   1      38.508  24.378  26.832  1.00  0.00     0.000 A 
ATOM     32  C   UNL A   1      40.222  22.741  27.250  1.00  0.00     0.000 A 
ATOM     33  C   UNL A   1      39.698  24.012  27.455  1.00  0.00     0.000 A 
ENDBRANCH  27  28
ENDBRANCH  26  27
ENDBRANCH  23  26
ENDBRANCH  21  22
BRANCH  21  34
ATOM     34  C   UNL A   1      33.051  21.163  24.944  1.00  0.00     0.015 C 
ATOM     35  C   UNL A   1      31.864  21.106  25.917  1.00  0.00     0.010 C 
ATOM     36  C   UNL A   1      32.594  20.507  23.633  1.00  0.00     0.010 C 
ENDBRANCH  21  34
ENDBRANCH  18  21
ENDBRANCH  16  17
ENDBRANCH  13  16
ENDBRANCH   7  12
ENDBRANCH   4   7
ENDBRANCH   1   3
BRANCH   1  37
ATOM     37  C   UNL A   1      29.224  31.030  23.596  1.00  0.00     0.242 C 
ATOM     38  O   UNL A   1      28.182  31.666  23.409  1.00  0.00    -0.273 OA
ATOM     39  N   UNL A   1      29.960  31.345  24.695  1.00  0.00    -0.354 N 
ATOM     40  H   UNL A   1      29.636  32.124  25.203  1.00  0.00     0.163 HD
BRANCH  39  41
ATOM     41  C   UNL A   1      31.142  30.714  25.234  1.00  0.00     0.116 C 
BRANCH  41  42
ATOM     42  C   UNL A   1      31.584  31.379  26.533  1.00  0.00     0.023 C 
BRANCH  42  43
ATOM     43  C   UNL A   1      32.897  30.830  27.095  1.00  0.00     0.023 C 
BRANCH  43  44
ATOM     44  C   UNL A   1      33.965  31.885  27.360  1.00  0.00     0.116 C 
BRANCH  44  45
ATOM     45  N   UNL A   1      33.434  33.074  28.010  1.00  0.00    -0.352 N 
ATOM     46  C   UNL A   1      33.858  33.683  29.163  1.00  0.00     0.251 C 
ATOM     47  H   UNL A   1      32.667  33.497  27.562  1.00  0.00     0.163 HD
ATOM     48  O   UNL A   1      33.208  34.605  29.644  1.00  0.00    -0.269 OA
BRANCH  46  49
ATOM     49  C   UNL A   1      35.084  33.200  29.827  1.00  0.00     0.039 A 
ATOM     50  C   UNL A   1      36.270  33.909  29.643  1.00  0.00     0.014 A 
ATOM     51  C   UNL A   1      35.056  32.059  30.636  1.00  0.00     0.014 A 
ATOM     52  C   UNL A   1      37.428  33.487  30.295  1.00  0.00     0.010 A 
ATOM     53  C   UNL A   1      36.186  31.698  31.358  1.00  0.00     0.010 A 
ATOM     54  C   UNL A   1      37.391  32.387  31.169  1.00  0.00    -0.014 A 
BRANCH  54  55
ATOM     55  C   UNL A   1      38.624  31.920  31.846  1.00  0.00     0.031 A 
ATOM     56  C   UNL A   1      38.945  32.397  33.239  1.00  0.00     0.074 A 
ATOM     57  C   UNL A   1      39.464  31.085  31.205  1.00  0.00     0.049 A 
ATOM     58  N   UNL A   1      39.955  32.078  34.006  1.00  0.00    -0.248 NA
ATOM     59  C   UNL A   1      38.025  33.380  33.835  1.00  0.00     0.031 C 
ATOM     60  C   UNL A   1      39.293  30.602  29.832  1.00  0.00     0.029 A 
ATOM     61  N   UNL A   1      40.626  30.491  31.625  1.00  0.00    -0.354 N 
ATOM     62  C   UNL A   1      39.794  32.824  35.169  1.00  0.00     0.074 A 
ATOM     63  C   UNL A   1      38.637  33.669  34.973  1.00  0.00     0.031 C 
ATOM     64  C   UNL A   1      40.293  29.756  29.538  1.00  0.00     0.029 A 
ATOM     65  C   UNL A   1      41.191  29.663  30.685  1.00  0.00     0.049 A 
ATOM     66  H   UNL A   1      41.018  30.643  32.515  1.00  0.00     0.167 HD
ATOM     67  C   UNL A   1      40.519  32.787  36.312  1.00  0.00     0.031 A 
ATOM     68  C   UNL A   1      42.305  28.908  30.743  1.00  0.00     0.031 A 
ATOM     69  C   UNL A   1      41.674  31.949  36.498  1.00  0.00     0.049 A 
ATOM     70  C   UNL A   1      43.095  28.872  32.021  1.00  0.00     0.074 A 
ATOM     71  C   UNL A   1      42.463  31.807  37.625  1.00  0.00     0.029 A 
ATOM     72  N   UNL A   1      42.205  31.110  35.528  1.00  0.00    -0.354 N 
ATOM     73  N   UNL A   1      42.891  29.534  33.135  1.00  0.00    -0.248 NA
ATOM     74  C   UNL A   1      44.247  27.963  32.059  1.00  0.00     0.031 C 
ATOM     75  C   UNL A   1      43.504  30.922  37.318  1.00  0.00     0.029 A 
ATOM     76  C   UNL A   1      43.321  30.458  36.024  1.00  0.00     0.049 A 
ATOM     77  H   UNL A   1      41.841  30.996  34.620  1.00  0.00     0.167 HD
ATOM     78  C   UNL A   1      43.873  29.099  34.019  1.00  0.00     0.074 A 
ATOM     79  C   UNL A   1      44.657  28.106  33.313  1.00  0.00     0.031 C 
ATOM     80  C   UNL A   1      44.099  29.482  35.303  1.00  0.00     0.031 A 
BRANCH  67  81
ATOM     81  C   UNL A   1      40.076  33.689  37.436  1.00  0.00    -0.014 A 
ATOM     82  C   UNL A   1      40.478  35.039  37.487  1.00  0.00     0.010 A 
ATOM     83  C   UNL A   1      39.258  33.185  38.462  1.00  0.00     0.010 A 
ATOM     84  C   UNL A   1      40.127  35.844  38.574  1.00  0.00     0.020 A 
ATOM     85  C   UNL A   1      38.873  33.998  39.533  1.00  0.00     0.020 A 
ATOM     86  C   UNL A   1      39.332  35.315  39.594  1.00  0.00     0.054 A 
BRANCH  86  87
ATOM     87  S   UNL A   1      38.904  36.379  40.999  1.00  0.00     0.124 S 
ATOM     88  O   UNL A   1      37.848  35.608  41.650  1.00  0.00    -0.237 OA
ATOM     89  O   UNL A   1      40.163  36.463  41.733  1.00  0.00    -0.237 OA
ATOM     90  O   UNL A   1      38.468  37.624  40.370  1.00  0.00    -0.744 OA
ENDBRANCH  86  87
ENDBRANCH  67  81
BRANCH  68  91
ATOM     91  C   UNL A   1      42.706  28.103  29.556  1.00  0.00    -0.014 A 
ATOM     92  C   UNL A   1      43.621  28.608  28.615  1.00  0.00     0.010 A 
ATOM     93  C   UNL A   1      42.207  26.797  29.391  1.00  0.00     0.010 A 
ATOM     94  C   UNL A   1      44.023  27.826  27.528  1.00  0.00     0.020 A 
ATOM     95  C   UNL A   1      42.628  26.003  28.322  1.00  0.00     0.020 A 
ATOM     96  C   UNL A   1      43.529  26.525  27.393  1.00  0.00     0.054 A 
BRANCH  96  97
ATOM     97  S   UNL A   1      44.125  25.501  26.018  1.00  0.00     0.124 S 
ATOM     98  O   UNL A   1      45.373  26.167  25.661  1.00  0.00    -0.237 OA
ATOM     99  O   UNL A   1      44.264  24.187  26.643  1.00  0.00    -0.237 OA
ATOM    100  O   UNL A   1      43.055  25.600  25.028  1.00  0.00    -0.744 OA
ENDBRANCH  96  97
ENDBRANCH  68  91
BRANCH  80 101
ATOM    101  C   UNL A   1      45.217  28.789  36.040  1.00  0.00    -0.014 A 
ATOM    102  C   UNL A   1      46.538  29.268  36.000  1.00  0.00     0.010 A 
ATOM    103  C   UNL A   1      44.927  27.645  36.806  1.00  0.00     0.010 A 
ATOM    104  C   UNL A   1      47.558  28.583  36.667  1.00  0.00     0.020 A 
ATOM    105  C   UNL A   1      45.936  26.977  37.503  1.00  0.00     0.020 A 
ATOM    106  C   UNL A   1      47.250  27.437  37.408  1.00  0.00     0.054 A 
BRANCH 106 107
ATOM    107  S   UNL A   1      48.590  26.566  38.267  1.00  0.00     0.124 S 
ATOM    108  O   UNL A   1      47.911  26.065  39.457  1.00  0.00    -0.237 OA
ATOM    109  O   UNL A   1      48.986  25.551  37.294  1.00  0.00    -0.237 OA
ATOM    110  O   UNL A   1      49.583  27.610  38.508  1.00  0.00    -0.744 OA
ENDBRANCH 106 107
ENDBRANCH  80 101
ENDBRANCH  54  55
ENDBRANCH  46  49
ENDBRANCH  44  45
ENDBRANCH  43  44
ENDBRANCH  42  43
ENDBRANCH  41  42
ENDBRANCH  39  41
ENDBRANCH   1  37
TORSDOF 27
ENDMDL
MODEL 2
REMARK VINA RESULT:      -9.6      1.869      8.397
REMARK SMILES CC(C)C[C@H](NC(=O)CNC(=O)[C@@H](NC(=O)OCc1ccccc1)C(C)C)C(=O)N[C@@H](C)C(=O)NCCCCNC(=O)c1ccc(-c2c3nc(c(-c4ccc(S(=O)(=O)[O-])cc4)c4ccc([nH]4)c(-c4ccc(S(=O)(=O)[O-])cc4)c4nc(c(-c5ccc(S(=O)(=O)[O-])cc5)c5ccc2[nH]5)C=C4)C=C3)cc1
REMARK SMILES IDX 31 1 32 2 30 3 28 4 29 5 5 7 4 8 2 9 1 10 3 11 6 12 7 13
REMARK SMILES IDX 8 15 9 16 10 17 11 18 12 20 13 21 14 22 15 23 16 25 17 26
REMARK SMILES IDX 18 27 19 28 20 29 24 30 21 31 23 32 22 33 25 34 26 35 27 36
REMARK SMILES IDX 33 37 34 38 35 39 36 41 37 42 38 43 39 44 40 45 41 46 42 48
REMARK SMILES IDX 43 49 44 50 102 51 45 52 101 53 46 54 47 55 48 56 95 57
REMARK SMILES IDX 49 58 100 59 94 60 96 61 50 62 99 63 93 64 92 65 51 67 81 68
REMARK SMILES IDX 62 69 80 70 63 71 66 72 79 73 97 74 64 75 65 76 78 78 98 79
REMARK SMILES IDX 67 80 52 81 53 82 61 83 54 84 60 85 55 86 56 87 57 88 58 89
REMARK SMILES IDX 59 90 82 91 83 92 91 93 84 94 90 95 85 96 86 97 87 98 88 99
REMARK SMILES IDX 89 100 68 101 69 102 77 103 70 104 76 105 71 106 72 107
REMARK SMILES IDX 73 108 74 109 75 110
REMARK H PARENT 30 6 6 14 10 19 14 24 35 40 40 47 96 66 66 77
REMARK Flexibility Score: inf
ROOT
ATOM      1  C   UNL A   1      33.586  27.459  26.492  1.00  0.00     0.168 C 
ATOM      2  C   UNL A   1      34.627  28.472  26.941  1.00  0.00     0.041 C 
ENDROOT
BRANCH   1   3
ATOM      3  N   UNL A   1      33.843  27.017  25.116  1.00  0.00    -0.343 N 
ATOM      4  C   UNL A   1      34.201  25.787  24.653  1.00  0.00     0.243 C 
ATOM      5  O   UNL A   1      34.154  25.595  23.437  1.00  0.00    -0.273 OA
ATOM      6  H   UNL A   1      33.743  27.713  24.427  1.00  0.00     0.164 HD
BRANCH   4   7
ATOM      7  C   UNL A   1      34.580  24.667  25.636  1.00  0.00     0.171 C 
BRANCH   7   8
ATOM      8  C   UNL A   1      35.562  23.693  24.989  1.00  0.00     0.038 C 
BRANCH   8   9
ATOM      9  C   UNL A   1      36.783  23.214  25.792  1.00  0.00    -0.015 C 
ATOM     10  C   UNL A   1      37.815  22.485  24.926  1.00  0.00     0.007 C 
ATOM     11  C   UNL A   1      37.449  24.442  26.429  1.00  0.00     0.007 C 
ENDBRANCH   8   9
ENDBRANCH   7   8
BRANCH   7  12
ATOM     12  N   UNL A   1      33.313  24.072  26.117  1.00  0.00    -0.343 N 
ATOM     13  C   UNL A   1      32.904  23.041  26.887  1.00  0.00     0.240 C 
ATOM     14  H   UNL A   1      32.541  24.577  25.775  1.00  0.00     0.164 HD
ATOM     15  O   UNL A   1      31.690  23.036  27.143  1.00  0.00    -0.273 OA
BRANCH  13  16
ATOM     16  C   UNL A   1      33.792  21.990  27.564  1.00  0.00     0.216 C 
BRANCH  16  17
ATOM     17  N   UNL A   1      34.579  21.094  26.751  1.00  0.00    -0.345 N 
ATOM     18  C   UNL A   1      34.393  20.587  25.505  1.00  0.00     0.243 C 
ATOM     19  H   UNL A   1      35.410  20.793  27.183  1.00  0.00     0.164 HD
ATOM     20  O   UNL A   1      35.368  20.008  25.011  1.00  0.00    -0.273 OA
BRANCH  18  21
ATOM     21  C   UNL A   1      33.073  20.719  24.682  1.00  0.00     0.177 C 
BRANCH  21  22
ATOM     22  N   UNL A   1      33.220  21.479  23.434  1.00  0.00    -0.309 N 
ATOM     23  C   UNL A   1      32.557  22.536  22.898  1.00  0.00     0.408 C 
ATOM     24  H   UNL A   1      33.955  21.154  22.866  1.00  0.00     0.167 HD
ATOM     25  O   UNL A   1      32.659  22.795  21.711  1.00  0.00    -0.225 OA
BRANCH  23  26
ATOM     26  O   UNL A   1      31.863  23.262  23.799  1.00  0.00    -0.445 OA
BRANCH  26  27
ATOM     27  C   UNL A   1      30.625  23.803  23.320  1.00  0.00     0.270 C 
BRANCH  27  28
ATOM     28  C   UNL A   1      30.543  25.319  23.258  1.00  0.00    -0.011 A 
ATOM     29  C   UNL A   1      29.624  25.967  24.096  1.00  0.00     0.007 A 
ATOM     30  C   UNL A   1      31.286  26.104  22.363  1.00  0.00     0.007 A 
ATOM     31  C   UNL A   1      29.432  27.349  24.014  1.00  0.00     0.000 A 
ATOM     32  C   UNL A   1      31.080  27.480  22.265  1.00  0.00     0.000 A 
ATOM     33  C   UNL A   1      30.151  28.102  23.089  1.00  0.00     0.000 A 
ENDBRANCH  27  28
ENDBRANCH  26  27
ENDBRANCH  23  26
ENDBRANCH  21  22
BRANCH  21  34
ATOM     34  C   UNL A   1      32.271  19.404  24.619  1.00  0.00     0.015 C 
ATOM     35  C   UNL A   1      32.483  18.668  23.288  1.00  0.00     0.010 C 
ATOM     36  C   UNL A   1      32.689  18.443  25.740  1.00  0.00     0.010 C 
ENDBRANCH  21  34
ENDBRANCH  18  21
ENDBRANCH  16  17
ENDBRANCH  13  16
ENDBRANCH   7  12
ENDBRANCH   4   7
ENDBRANCH   1   3
BRANCH   1  37
ATOM     37  C   UNL A   1      32.153  27.974  26.729  1.00  0.00     0.242 C 
ATOM     38  O   UNL A   1      31.270  27.206  27.123  1.00  0.00    -0.273 OA
ATOM     39  N   UNL A   1      31.836  29.291  26.626  1.00  0.00    -0.354 N 
ATOM     40  H   UNL A   1      30.889  29.505  26.793  1.00  0.00     0.163 HD
BRANCH  39  41
ATOM     41  C   UNL A   1      32.671  30.427  26.311  1.00  0.00     0.116 C 
BRANCH  41  42
ATOM     42  C   UNL A   1      32.953  31.271  27.549  1.00  0.00     0.023 C 
BRANCH  42  43
ATOM     43  C   UNL A   1      32.836  32.778  27.313  1.00  0.00     0.023 C 
BRANCH  43  44
ATOM     44  C   UNL A   1      33.764  33.630  28.172  1.00  0.00     0.116 C 
BRANCH  44  45
ATOM     45  N   UNL A   1      33.044  34.463  29.123  1.00  0.00    -0.352 N 
ATOM     46  C   UNL A   1      33.302  34.665  30.454  1.00  0.00     0.251 C 
ATOM     47  H   UNL A   1      32.266  34.947  28.762  1.00  0.00     0.163 HD
ATOM     48  O   UNL A   1      32.509  35.298  31.144  1.00  0.00    -0.269 OA
BRANCH  46  49
ATOM     49  C   UNL A   1      34.524  34.091  31.048  1.00  0.00     0.039 A 
ATOM     50  C   UNL A   1      35.683  34.865  31.078  1.00  0.00     0.014 A 
ATOM     51  C   UNL A   1      34.519  32.799  31.584  1.00  0.00     0.014 A 
ATOM     52  C   UNL A   1      36.835  34.351  31.671  1.00  0.00     0.010 A 
ATOM     53  C   UNL A   1      35.639  32.327  32.258  1.00  0.00     0.010 A 
ATOM     54  C   UNL A   1      36.817  33.084  32.279  1.00  0.00    -0.014 A 
BRANCH  54  55
ATOM     55  C   UNL A   1      38.046  32.522  32.890  1.00  0.00     0.031 A 
ATOM     56  C   UNL A   1      38.968  31.660  32.068  1.00  0.00     0.074 A 
ATOM     57  C   UNL A   1      38.323  32.769  34.184  1.00  0.00     0.049 A 
ATOM     58  N   UNL A   1      40.101  31.106  32.412  1.00  0.00    -0.248 NA
ATOM     59  C   UNL A   1      38.548  31.360  30.688  1.00  0.00     0.031 C 
ATOM     60  C   UNL A   1      37.476  33.540  35.098  1.00  0.00     0.029 A 
ATOM     61  N   UNL A   1      39.397  32.405  34.953  1.00  0.00    -0.354 N 
ATOM     62  C   UNL A   1      40.524  30.391  31.296  1.00  0.00     0.074 A 
ATOM     63  C   UNL A   1      39.487  30.514  30.296  1.00  0.00     0.031 C 
ATOM     64  C   UNL A   1      38.082  33.620  36.294  1.00  0.00     0.029 A 
ATOM     65  C   UNL A   1      39.341  32.882  36.239  1.00  0.00     0.049 A 
ATOM     66  H   UNL A   1      40.139  31.853  34.615  1.00  0.00     0.167 HD
ATOM     67  C   UNL A   1      41.684  29.718  31.105  1.00  0.00     0.031 A 
ATOM     68  C   UNL A   1      40.208  32.747  37.261  1.00  0.00     0.031 A 
ATOM     69  C   UNL A   1      42.709  29.592  32.107  1.00  0.00     0.049 A 
ATOM     70  C   UNL A   1      41.494  32.005  37.030  1.00  0.00     0.074 A 
ATOM     71  C   UNL A   1      43.937  28.963  32.010  1.00  0.00     0.029 A 
ATOM     72  N   UNL A   1      42.621  30.106  33.394  1.00  0.00    -0.354 N 
ATOM     73  N   UNL A   1      41.909  31.390  35.948  1.00  0.00    -0.248 NA
ATOM     74  C   UNL A   1      42.444  31.966  38.150  1.00  0.00     0.031 C 
ATOM     75  C   UNL A   1      44.569  29.051  33.256  1.00  0.00     0.029 A 
ATOM     76  C   UNL A   1      43.767  29.796  34.107  1.00  0.00     0.049 A 
ATOM     77  H   UNL A   1      41.857  30.615  33.747  1.00  0.00     0.167 HD
ATOM     78  C   UNL A   1      43.181  30.915  36.246  1.00  0.00     0.074 A 
ATOM     79  C   UNL A   1      43.472  31.330  37.603  1.00  0.00     0.031 C 
ATOM     80  C   UNL A   1      44.035  30.206  35.463  1.00  0.00     0.031 A 
BRANCH  67  81
ATOM     81  C   UNL A   1      41.887  29.068  29.760  1.00  0.00    -0.014 A 
ATOM     82  C   UNL A   1      42.342  29.812  28.653  1.00  0.00     0.010 A 
ATOM     83  C   UNL A   1      41.611  27.699  29.591  1.00  0.00     0.010 A 
ATOM     84  C   UNL A   1      42.450  29.217  27.393  1.00  0.00     0.020 A 
ATOM     85  C   UNL A   1      41.754  27.091  28.340  1.00  0.00     0.020 A 
ATOM     86  C   UNL A   1      42.148  27.861  27.244  1.00  0.00     0.054 A 
BRANCH  86  87
ATOM     87  S   UNL A   1      42.285  27.118  25.595  1.00  0.00     0.124 S 
ATOM     88  O   UNL A   1      42.296  28.298  24.733  1.00  0.00    -0.237 OA
ATOM     89  O   UNL A   1      43.546  26.387  25.675  1.00  0.00    -0.237 OA
ATOM     90  O   UNL A   1      41.090  26.284  25.491  1.00  0.00    -0.744 OA
ENDBRANCH  86  87
ENDBRANCH  67  81
BRANCH  68  91
ATOM     91  C   UNL A   1      39.890  33.363  38.579  1.00  0.00    -0.014 A 
ATOM     92  C   UNL A   1      39.125  32.672  39.535  1.00  0.00     0.010 A 
ATOM     93  C   UNL A   1      40.400  34.635  38.901  1.00  0.00     0.010 A 
ATOM     94  C   UNL A   1      38.869  33.244  40.785  1.00  0.00     0.020 A 
ATOM     95  C   UNL A   1      40.170  35.197  40.159  1.00  0.00     0.020 A 
ATOM     96  C   UNL A   1      39.400  34.500  41.092  1.00  0.00     0.054 A 
BRANCH  96  97
ATOM     97  S   UNL A   1      39.121  35.188  42.748  1.00  0.00     0.124 S 
ATOM     98  O   UNL A   1      39.537  34.086  43.609  1.00  0.00    -0.237 OA
ATOM     99  O   UNL A   1      39.994  36.360  42.752  1.00  0.00    -0.237 OA
ATOM    100  O   UNL A   1      37.691  35.487  42.759  1.00  0.00    -0.744 OA
ENDBRANCH  96  97
ENDBRANCH  68  91
BRANCH  80 101
ATOM    101  C   UNL A   1      45.386  29.873  36.044  1.00  0.00    -0.014 A 
ATOM    102  C   UNL A   1      45.610  28.686  36.763  1.00  0.00     0.010 A 
ATOM    103  C   UNL A   1      46.457  30.763  35.844  1.00  0.00     0.010 A 
ATOM    104  C   UNL A   1      46.865  28.423  37.319  1.00  0.00     0.020 A 
ATOM    105  C   UNL A   1      47.722  30.488  36.367  1.00  0.00     0.020 A 
ATOM    106  C   UNL A   1      47.911  29.330  37.122  1.00  0.00     0.054 A 
BRANCH 106 107
ATOM    107  S   UNL A   1      49.532  28.967  37.852  1.00  0.00     0.124 S 
ATOM    108  O   UNL A   1      50.153  30.287  37.883  1.00  0.00    -0.237 OA
ATOM    109  O   UNL A   1      49.179  28.406  39.153  1.00  0.00    -0.237 OA
ATOM    110  O   UNL A   1      50.129  28.019  36.913  1.00  0.00    -0.744 OA
ENDBRANCH 106 107
ENDBRANCH  80 101
ENDBRANCH  54  55
ENDBRANCH  46  49
ENDBRANCH  44  45
ENDBRANCH  43  44
ENDBRANCH  42  43
ENDBRANCH  41  42
ENDBRANCH  39  41
ENDBRANCH   1  37
TORSDOF 27
ENDMDL
MODEL 3
REMARK VINA RESULT:      -9.3      1.573      2.755
REMARK SMILES CC(C)C[C@H](NC(=O)CNC(=O)[C@@H](NC(=O)OCc1ccccc1)C(C)C)C(=O)N[C@@H](C)C(=O)NCCCCNC(=O)c1ccc(-c2c3nc(c(-c4ccc(S(=O)(=O)[O-])cc4)c4ccc([nH]4)c(-c4ccc(S(=O)(=O)[O-])cc4)c4nc(c(-c5ccc(S(=O)(=O)[O-])cc5)c5ccc2[nH]5)C=C4)C=C3)cc1
REMARK SMILES IDX 31 1 32 2 30 3 28 4 29 5 5 7 4 8 2 9 1 10 3 11 6 12 7 13
REMARK SMILES IDX 8 15 9 16 10 17 11 18 12 20 13 21 14 22 15 23 16 25 17 26
REMARK SMILES IDX 18 27 19 28 20 29 24 30 21 31 23 32 22 33 25 34 26 35 27 36
REMARK SMILES IDX 33 37 34 38 35 39 36 41 37 42 38 43 39 44 40 45 41 46 42 48
REMARK SMILES IDX 43 49 44 50 102 51 45 52 101 53 46 54 47 55 48 56 95 57
REMARK SMILES IDX 49 58 100 59 94 60 96 61 50 62 99 63 93 64 92 65 51 67 81 68
REMARK SMILES IDX 62 69 80 70 63 71 66 72 79 73 97 74 64 75 65 76 78 78 98 79
REMARK SMILES IDX 67 80 52 81 53 82 61 83 54 84 60 85 55 86 56 87 57 88 58 89
REMARK SMILES IDX 59 90 82 91 83 92 91 93 84 94 90 95 85 96 86 97 87 98 88 99
REMARK SMILES IDX 89 100 68 101 69 102 77 103 70 104 76 105 71 106 72 107
REMARK SMILES IDX 73 108 74 109 75 110
REMARK H PARENT 30 6 6 14 10 19 14 24 35 40 40 47 96 66 66 77
REMARK Flexibility Score: inf
ROOT
ATOM      1  C   UNL A   1      29.722  29.615  23.130  1.00  0.00     0.168 C 
ATOM      2  C   UNL A   1      30.275  29.718  21.718  1.00  0.00     0.041 C 
ENDROOT
BRANCH   1   3
ATOM      3  N   UNL A   1      28.729  28.539  23.227  1.00  0.00    -0.343 N 
ATOM      4  C   UNL A   1      28.903  27.220  23.519  1.00  0.00     0.243 C 
ATOM      5  O   UNL A   1      27.900  26.545  23.755  1.00  0.00    -0.273 OA
ATOM      6  H   UNL A   1      27.798  28.811  23.055  1.00  0.00     0.164 HD
BRANCH   4   7
ATOM      7  C   UNL A   1      30.319  26.627  23.615  1.00  0.00     0.171 C 
BRANCH   7   8
ATOM      8  C   UNL A   1      30.981  26.589  22.239  1.00  0.00     0.038 C 
BRANCH   8   9
ATOM      9  C   UNL A   1      32.498  26.362  22.141  1.00  0.00    -0.015 C 
ATOM     10  C   UNL A   1      32.916  25.698  20.827  1.00  0.00     0.007 C 
ATOM     11  C   UNL A   1      33.194  27.726  22.250  1.00  0.00     0.007 C 
ENDBRANCH   8   9
ENDBRANCH   7   8
BRANCH   7  12
ATOM     12  N   UNL A   1      30.191  25.320  24.299  1.00  0.00    -0.343 N 
ATOM     13  C   UNL A   1      30.523  24.028  24.090  1.00  0.00     0.240 C 
ATOM     14  H   UNL A   1      29.728  25.424  25.161  1.00  0.00     0.164 HD
ATOM     15  O   UNL A   1      30.339  23.283  25.064  1.00  0.00    -0.273 OA
BRANCH  13  16
ATOM     16  C   UNL A   1      31.208  23.444  22.849  1.00  0.00     0.216 C 
BRANCH  16  17
ATOM     17  N   UNL A   1      31.620  22.061  22.848  1.00  0.00    -0.345 N 
ATOM     18  C   UNL A   1      32.570  21.388  23.548  1.00  0.00     0.243 C 
ATOM     19  H   UNL A   1      31.114  21.497  22.221  1.00  0.00     0.164 HD
ATOM     20  O   UNL A   1      32.525  20.155  23.463  1.00  0.00    -0.273 OA
BRANCH  18  21
ATOM     21  C   UNL A   1      33.656  22.064  24.442  1.00  0.00     0.177 C 
BRANCH  21  22
ATOM     22  N   UNL A   1      33.549  21.726  25.868  1.00  0.00    -0.309 N 
ATOM     23  C   UNL A   1      33.895  22.372  27.011  1.00  0.00     0.408 C 
ATOM     24  H   UNL A   1      33.141  20.845  26.029  1.00  0.00     0.167 HD
ATOM     25  O   UNL A   1      33.995  21.763  28.062  1.00  0.00    -0.225 OA
BRANCH  23  26
ATOM     26  O   UNL A   1      34.042  23.706  26.864  1.00  0.00    -0.445 OA
BRANCH  26  27
ATOM     27  C   UNL A   1      32.874  24.398  26.406  1.00  0.00     0.270 C 
BRANCH  27  28
ATOM     28  C   UNL A   1      32.992  25.910  26.312  1.00  0.00    -0.011 A 
ATOM     29  C   UNL A   1      34.054  26.447  25.568  1.00  0.00     0.007 A 
ATOM     30  C   UNL A   1      32.140  26.802  26.982  1.00  0.00     0.007 A 
ATOM     31  C   UNL A   1      34.273  27.826  25.527  1.00  0.00     0.000 A 
ATOM     32  C   UNL A   1      32.370  28.177  26.959  1.00  0.00     0.000 A 
ATOM     33  C   UNL A   1      33.439  28.689  26.234  1.00  0.00     0.000 A 
ENDBRANCH  27  28
ENDBRANCH  26  27
ENDBRANCH  23  26
ENDBRANCH  21  22
BRANCH  21  34
ATOM     34  C   UNL A   1      35.062  22.029  23.811  1.00  0.00     0.015 C 
ATOM     35  C   UNL A   1      35.632  23.439  23.605  1.00  0.00     0.010 C 
ATOM     36  C   UNL A   1      36.052  21.264  24.701  1.00  0.00     0.010 C 
ENDBRANCH  21  34
ENDBRANCH  18  21
ENDBRANCH  16  17
ENDBRANCH  13  16
ENDBRANCH   7  12
ENDBRANCH   4   7
ENDBRANCH   1   3
BRANCH   1  37
ATOM     37  C   UNL A   1      29.224  30.978  23.647  1.00  0.00     0.242 C 
ATOM     38  O   UNL A   1      28.198  31.486  23.186  1.00  0.00    -0.273 OA
ATOM     39  N   UNL A   1      29.821  31.613  24.690  1.00  0.00    -0.354 N 
ATOM     40  H   UNL A   1      29.424  32.481  24.931  1.00  0.00     0.163 HD
BRANCH  39  41
ATOM     41  C   UNL A   1      30.947  31.212  25.502  1.00  0.00     0.116 C 
BRANCH  41  42
ATOM     42  C   UNL A   1      31.300  32.281  26.530  1.00  0.00     0.023 C 
BRANCH  42  43
ATOM     43  C   UNL A   1      32.606  32.012  27.281  1.00  0.00     0.023 C 
BRANCH  43  44
ATOM     44  C   UNL A   1      33.521  33.223  27.419  1.00  0.00     0.116 C 
BRANCH  44  45
ATOM     45  N   UNL A   1      32.925  34.294  28.202  1.00  0.00    -0.352 N 
ATOM     46  C   UNL A   1      33.269  34.735  29.454  1.00  0.00     0.251 C 
ATOM     47  H   UNL A   1      32.173  34.765  27.777  1.00  0.00     0.163 HD
ATOM     48  O   UNL A   1      32.569  35.565  30.026  1.00  0.00    -0.269 OA
BRANCH  46  49
ATOM     49  C   UNL A   1      34.468  34.181  30.111  1.00  0.00     0.039 A 
ATOM     50  C   UNL A   1      34.301  33.286  31.167  1.00  0.00     0.014 A 
ATOM     51  C   UNL A   1      35.749  34.535  29.676  1.00  0.00     0.014 A 
ATOM     52  C   UNL A   1      35.424  32.724  31.772  1.00  0.00     0.010 A 
ATOM     53  C   UNL A   1      36.861  33.902  30.216  1.00  0.00     0.010 A 
ATOM     54  C   UNL A   1      36.712  33.016  31.291  1.00  0.00    -0.014 A 
BRANCH  54  55
ATOM     55  C   UNL A   1      37.911  32.440  31.947  1.00  0.00     0.031 A 
ATOM     56  C   UNL A   1      38.405  33.014  33.249  1.00  0.00     0.074 A 
ATOM     57  C   UNL A   1      38.565  31.418  31.364  1.00  0.00     0.049 A 
ATOM     58  N   UNL A   1      39.413  32.630  33.989  1.00  0.00    -0.248 NA
ATOM     59  C   UNL A   1      37.691  34.191  33.773  1.00  0.00     0.031 C 
ATOM     60  C   UNL A   1      38.219  30.816  30.074  1.00  0.00     0.029 A 
ATOM     61  N   UNL A   1      39.655  30.699  31.785  1.00  0.00    -0.354 N 
ATOM     62  C   UNL A   1      39.454  33.517  35.059  1.00  0.00     0.074 A 
ATOM     63  C   UNL A   1      38.425  34.506  34.828  1.00  0.00     0.031 C 
ATOM     64  C   UNL A   1      39.057  29.796  29.828  1.00  0.00     0.029 A 
ATOM     65  C   UNL A   1      40.016  29.693  30.923  1.00  0.00     0.049 A 
ATOM     66  H   UNL A   1      40.132  30.887  32.625  1.00  0.00     0.167 HD
ATOM     67  C   UNL A   1      40.252  33.496  36.153  1.00  0.00     0.031 A 
ATOM     68  C   UNL A   1      41.006  28.784  31.007  1.00  0.00     0.031 A 
ATOM     69  C   UNL A   1      41.280  32.513  36.372  1.00  0.00     0.049 A 
ATOM     70  C   UNL A   1      41.878  28.768  32.231  1.00  0.00     0.074 A 
ATOM     71  C   UNL A   1      42.124  32.377  37.460  1.00  0.00     0.029 A 
ATOM     72  N   UNL A   1      41.604  31.498  35.483  1.00  0.00    -0.354 N 
ATOM     73  N   UNL A   1      41.862  29.575  33.266  1.00  0.00    -0.248 NA
ATOM     74  C   UNL A   1      42.882  27.700  32.313  1.00  0.00     0.031 C 
ATOM     75  C   UNL A   1      42.994  31.311  37.202  1.00  0.00     0.029 A 
ATOM     76  C   UNL A   1      42.646  30.739  35.989  1.00  0.00     0.049 A 
ATOM     77  H   UNL A   1      41.159  31.342  34.619  1.00  0.00     0.167 HD
ATOM     78  C   UNL A   1      42.833  29.094  34.137  1.00  0.00     0.074 A 
ATOM     79  C   UNL A   1      43.404  27.917  33.513  1.00  0.00     0.031 C 
ATOM     80  C   UNL A   1      43.212  29.578  35.348  1.00  0.00     0.031 A 
BRANCH  67  81
ATOM     81  C   UNL A   1      40.036  34.577  37.181  1.00  0.00    -0.014 A 
ATOM     82  C   UNL A   1      40.813  35.752  37.176  1.00  0.00     0.010 A 
ATOM     83  C   UNL A   1      39.053  34.417  38.175  1.00  0.00     0.010 A 
ATOM     84  C   UNL A   1      40.659  36.711  38.181  1.00  0.00     0.020 A 
ATOM     85  C   UNL A   1      38.870  35.392  39.161  1.00  0.00     0.020 A 
ATOM     86  C   UNL A   1      39.691  36.520  39.172  1.00  0.00     0.054 A 
BRANCH  86  87
ATOM     87  S   UNL A   1      39.522  37.774  40.471  1.00  0.00     0.124 S 
ATOM     88  O   UNL A   1      40.666  38.643  40.202  1.00  0.00    -0.237 OA
ATOM     89  O   UNL A   1      38.213  38.355  40.187  1.00  0.00    -0.237 OA
ATOM     90  O   UNL A   1      39.604  37.003  41.709  1.00  0.00    -0.744 OA
ENDBRANCH  86  87
ENDBRANCH  67  81
BRANCH  68  91
ATOM     91  C   UNL A   1      41.191  27.798  29.906  1.00  0.00    -0.014 A 
ATOM     92  C   UNL A   1      42.438  27.644  29.275  1.00  0.00     0.010 A 
ATOM     93  C   UNL A   1      40.122  26.968  29.520  1.00  0.00     0.010 A 
ATOM     94  C   UNL A   1      42.610  26.685  28.271  1.00  0.00     0.020 A 
ATOM     95  C   UNL A   1      40.298  25.989  28.539  1.00  0.00     0.020 A 
ATOM     96  C   UNL A   1      41.541  25.859  27.915  1.00  0.00     0.054 A 
BRANCH  96  97
ATOM     97  S   UNL A   1      41.809  24.568  26.667  1.00  0.00     0.124 S 
ATOM     98  O   UNL A   1      43.229  24.721  26.373  1.00  0.00    -0.237 OA
ATOM     99  O   UNL A   1      41.437  23.353  27.388  1.00  0.00    -0.237 OA
ATOM    100  O   UNL A   1      40.900  24.943  25.586  1.00  0.00    -0.744 OA
ENDBRANCH  96  97
ENDBRANCH  68  91
BRANCH  80 101
ATOM    101  C   UNL A   1      44.268  28.805  36.098  1.00  0.00    -0.014 A 
ATOM    102  C   UNL A   1      45.633  29.127  35.995  1.00  0.00     0.010 A 
ATOM    103  C   UNL A   1      43.875  27.749  36.940  1.00  0.00     0.010 A 
ATOM    104  C   UNL A   1      46.589  28.369  36.676  1.00  0.00     0.020 A 
ATOM    105  C   UNL A   1      44.825  27.012  37.650  1.00  0.00     0.020 A 
ATOM    106  C   UNL A   1      46.179  27.312  37.495  1.00  0.00     0.054 A 
BRANCH 106 107
ATOM    107  S   UNL A   1      47.439  26.345  38.370  1.00  0.00     0.124 S 
ATOM    108  O   UNL A   1      46.630  25.331  39.040  1.00  0.00    -0.237 OA
ATOM    109  O   UNL A   1      48.282  25.858  37.282  1.00  0.00    -0.237 OA
ATOM    110  O   UNL A   1      48.073  27.321  39.253  1.00  0.00    -0.744 OA
ENDBRANCH 106 107
ENDBRANCH  80 101
ENDBRANCH  54  55
ENDBRANCH  46  49
ENDBRANCH  44  45
ENDBRANCH  43  44
ENDBRANCH  42  43
ENDBRANCH  41  42
ENDBRANCH  39  41
ENDBRANCH   1  37
TORSDOF 27
ENDMDL
