MODEL 1
REMARK VINA RESULT:     -13.0      0.000      0.000
REMARK SMILES CC1(C)[C@@]2(C(=O)NCCCCNC(=O)c3ccc(-c4c5nc(c(-c6ccc(S(=O)(=O)[O-])cc6)c6ccc([nH]6)c(-c6ccc(S(=O)(=O)[O-])cc6)c6nc(c(-c7ccc(S(=O)(=O)[O-])cc7)c7ccc4[nH]7)C=C6)C=C5)cc3)CC[C@]1(C)/C(=N/NC(=O)c1ccc(Cl)cc1)C2
REMARK SMILES IDX 10 1 9 2 8 3 7 4 5 5 6 6 4 8 1 9 2 10 3 11 77 12 75 13 91 14
REMARK SMILES IDX 76 15 78 16 79 17 80 18 81 19 82 20 83 22 84 23 85 24 90 25
REMARK SMILES IDX 86 26 89 27 87 28 88 29 11 30 12 31 13 32 14 34 15 35 16 36
REMARK SMILES IDX 74 37 17 38 73 39 18 40 19 41 20 42 67 43 21 44 72 45 66 46
REMARK SMILES IDX 68 47 22 48 71 49 65 50 64 51 23 53 53 54 34 55 52 56 35 57
REMARK SMILES IDX 38 58 51 59 69 60 36 61 37 62 50 64 70 65 39 66 24 67 25 68
REMARK SMILES IDX 33 69 26 70 32 71 27 72 28 73 29 74 30 75 31 76 54 77 55 78
REMARK SMILES IDX 63 79 56 80 62 81 57 82 58 83 59 84 60 85 61 86 40 87 41 88
REMARK SMILES IDX 49 89 42 90 48 91 43 92 44 93 45 94 46 95 47 96
REMARK H PARENT 7 7 81 21 12 33 68 52 38 63
REMARK Flexibility Score: inf
ROOT
ATOM      1  C   UNL A   1      34.524  29.087  27.574  1.00  0.00     0.023 C 
ENDROOT
BRANCH   1   2
ATOM      2  C   UNL A   1      33.210  29.748  27.129  1.00  0.00     0.023 C 
BRANCH   2   3
ATOM      3  C   UNL A   1      33.133  30.148  25.653  1.00  0.00     0.116 C 
BRANCH   3   4
ATOM      4  N   UNL A   1      33.801  29.247  24.725  1.00  0.00    -0.356 N 
ATOM      5  C   UNL A   1      33.334  28.316  23.844  1.00  0.00     0.227 C 
ATOM      6  O   UNL A   1      34.020  28.149  22.832  1.00  0.00    -0.274 OA
ATOM      7  H   UNL A   1      34.783  29.325  24.735  1.00  0.00     0.163 HD
BRANCH   5   8
ATOM      8  C   UNL A   1      32.150  27.393  24.144  1.00  0.00     0.060 C 
ATOM      9  C   UNL A   1      30.267  29.168  24.408  1.00  0.00     0.013 C 
ATOM     10  C   UNL A   1      30.732  27.885  23.678  1.00  0.00    -0.010 C 
ATOM     11  C   UNL A   1      30.509  28.135  22.169  1.00  0.00     0.013 C 
ATOM     12  C   UNL A   1      30.043  26.568  24.152  1.00  0.00     0.014 C 
ATOM     13  C   UNL A   1      31.891  27.008  25.631  1.00  0.00     0.019 C 
ATOM     14  C   UNL A   1      32.326  26.065  23.367  1.00  0.00     0.071 C 
ATOM     15  C   UNL A   1      30.439  26.483  25.640  1.00  0.00     0.014 C 
ATOM     16  C   UNL A   1      28.559  26.416  23.898  1.00  0.00     0.018 C 
ATOM     17  C   UNL A   1      30.955  25.488  23.503  1.00  0.00     0.046 C 
ATOM     18  N   UNL A   1      30.502  24.291  23.337  1.00  0.00    -0.181 NA
BRANCH  18  19
ATOM     19  N   UNL A   1      31.076  23.121  22.955  1.00  0.00    -0.243 N 
ATOM     20  C   UNL A   1      32.238  22.393  23.082  1.00  0.00     0.271 C 
ATOM     21  H   UNL A   1      30.443  22.621  22.392  1.00  0.00     0.194 HD
ATOM     22  O   UNL A   1      32.316  21.301  22.512  1.00  0.00    -0.267 OA
BRANCH  20  23
ATOM     23  C   UNL A   1      33.426  22.823  23.806  1.00  0.00     0.041 A 
ATOM     24  C   UNL A   1      33.345  23.082  25.180  1.00  0.00     0.015 A 
ATOM     25  C   UNL A   1      34.590  23.130  23.114  1.00  0.00     0.015 A 
ATOM     26  C   UNL A   1      34.494  23.438  25.893  1.00  0.00     0.021 A 
ATOM     27  C   UNL A   1      35.744  23.414  23.841  1.00  0.00     0.021 A 
ATOM     28  C   UNL A   1      35.707  23.533  25.225  1.00  0.00     0.041 A 
ATOM     29  Cl  UNL A   1      37.171  23.769  26.092  1.00  0.00    -0.084 Cl
ENDBRANCH  20  23
ENDBRANCH  18  19
ENDBRANCH   5   8
ENDBRANCH   3   4
ENDBRANCH   2   3
ENDBRANCH   1   2
BRANCH   1  30
ATOM     30  C   UNL A   1      35.593  30.045  28.077  1.00  0.00     0.116 C 
BRANCH  30  31
ATOM     31  N   UNL A   1      35.542  30.209  29.523  1.00  0.00    -0.352 N 
ATOM     32  C   UNL A   1      36.501  29.927  30.473  1.00  0.00     0.251 C 
ATOM     33  H   UNL A   1      34.699  30.576  29.875  1.00  0.00     0.163 HD
ATOM     34  O   UNL A   1      36.226  30.014  31.657  1.00  0.00    -0.269 OA
BRANCH  32  35
ATOM     35  C   UNL A   1      37.852  29.484  30.047  1.00  0.00     0.039 A 
ATOM     36  C   UNL A   1      38.254  29.715  28.728  1.00  0.00     0.014 A 
ATOM     37  C   UNL A   1      38.716  28.850  30.941  1.00  0.00     0.014 A 
ATOM     38  C   UNL A   1      39.545  29.363  28.325  1.00  0.00     0.010 A 
ATOM     39  C   UNL A   1      40.026  28.584  30.567  1.00  0.00     0.010 A 
ATOM     40  C   UNL A   1      40.449  28.822  29.251  1.00  0.00    -0.014 A 
BRANCH  40  41
ATOM     41  C   UNL A   1      41.835  28.456  28.872  1.00  0.00     0.031 A 
ATOM     42  C   UNL A   1      42.894  29.527  28.823  1.00  0.00     0.074 A 
ATOM     43  C   UNL A   1      42.112  27.198  28.477  1.00  0.00     0.049 A 
ATOM     44  N   UNL A   1      44.124  29.452  28.390  1.00  0.00    -0.248 NA
ATOM     45  C   UNL A   1      42.500  30.871  29.279  1.00  0.00     0.031 C 
ATOM     46  C   UNL A   1      41.149  26.094  28.422  1.00  0.00     0.029 A 
ATOM     47  N   UNL A   1      43.280  26.638  28.028  1.00  0.00    -0.354 N 
ATOM     48  C   UNL A   1      44.633  30.744  28.476  1.00  0.00     0.074 A 
ATOM     49  C   UNL A   1      43.567  31.590  28.964  1.00  0.00     0.031 C 
ATOM     50  C   UNL A   1      41.771  24.988  27.982  1.00  0.00     0.029 A 
ATOM     51  C   UNL A   1      43.163  25.310  27.688  1.00  0.00     0.049 A 
ATOM     52  H   UNL A   1      44.124  27.140  27.955  1.00  0.00     0.167 HD
ATOM     53  C   UNL A   1      45.882  31.182  28.193  1.00  0.00     0.031 A 
ATOM     54  C   UNL A   1      44.075  24.454  27.189  1.00  0.00     0.031 A 
ATOM     55  C   UNL A   1      46.947  30.318  27.763  1.00  0.00     0.049 A 
ATOM     56  C   UNL A   1      45.475  24.949  26.949  1.00  0.00     0.074 A 
ATOM     57  C   UNL A   1      48.276  30.634  27.543  1.00  0.00     0.029 A 
ATOM     58  N   UNL A   1      46.806  28.964  27.500  1.00  0.00    -0.354 N 
ATOM     59  N   UNL A   1      45.959  26.158  27.113  1.00  0.00    -0.248 NA
ATOM     60  C   UNL A   1      46.455  23.964  26.472  1.00  0.00     0.031 C 
ATOM     61  C   UNL A   1      48.931  29.476  27.111  1.00  0.00     0.029 A 
ATOM     62  C   UNL A   1      48.021  28.431  27.106  1.00  0.00     0.049 A 
ATOM     63  H   UNL A   1      45.966  28.456  27.582  1.00  0.00     0.167 HD
ATOM     64  C   UNL A   1      47.305  26.074  26.779  1.00  0.00     0.074 A 
ATOM     65  C   UNL A   1      47.562  24.693  26.423  1.00  0.00     0.031 C 
ATOM     66  C   UNL A   1      48.245  27.050  26.763  1.00  0.00     0.031 A 
BRANCH  53  67
ATOM     67  C   UNL A   1      46.162  32.653  28.346  1.00  0.00    -0.014 A 
ATOM     68  C   UNL A   1      45.974  33.546  27.276  1.00  0.00     0.010 A 
ATOM     69  C   UNL A   1      46.588  33.157  29.589  1.00  0.00     0.010 A 
ATOM     70  C   UNL A   1      46.248  34.908  27.432  1.00  0.00     0.020 A 
ATOM     71  C   UNL A   1      46.836  34.522  29.758  1.00  0.00     0.020 A 
ATOM     72  C   UNL A   1      46.681  35.387  28.673  1.00  0.00     0.054 A 
BRANCH  72  73
ATOM     73  S   UNL A   1      47.003  37.163  28.855  1.00  0.00     0.124 S 
ATOM     74  O   UNL A   1      48.088  37.371  27.900  1.00  0.00    -0.237 OA
ATOM     75  O   UNL A   1      45.722  37.761  28.489  1.00  0.00    -0.237 OA
ATOM     76  O   UNL A   1      47.374  37.305  30.261  1.00  0.00    -0.744 OA
ENDBRANCH  72  73
ENDBRANCH  53  67
BRANCH  54  77
ATOM     77  C   UNL A   1      43.697  23.044  26.903  1.00  0.00    -0.014 A 
ATOM     78  C   UNL A   1      42.922  22.313  27.821  1.00  0.00     0.010 A 
ATOM     79  C   UNL A   1      44.098  22.425  25.704  1.00  0.00     0.010 A 
ATOM     80  C   UNL A   1      42.575  20.984  27.557  1.00  0.00     0.020 A 
ATOM     81  C   UNL A   1      43.731  21.106  25.425  1.00  0.00     0.020 A 
ATOM     82  C   UNL A   1      42.983  20.388  26.361  1.00  0.00     0.054 A 
BRANCH  82  83
ATOM     83  S   UNL A   1      42.483  18.677  26.017  1.00  0.00     0.124 S 
ATOM     84  O   UNL A   1      41.074  18.837  25.674  1.00  0.00    -0.237 OA
ATOM     85  O   UNL A   1      43.365  18.304  24.914  1.00  0.00    -0.237 OA
ATOM     86  O   UNL A   1      42.748  17.985  27.277  1.00  0.00    -0.744 OA
ENDBRANCH  82  83
ENDBRANCH  54  77
BRANCH  66  87
ATOM     87  C   UNL A   1      49.642  26.653  26.377  1.00  0.00    -0.014 A 
ATOM     88  C   UNL A   1      50.537  26.139  27.332  1.00  0.00     0.010 A 
ATOM     89  C   UNL A   1      50.040  26.738  25.031  1.00  0.00     0.010 A 
ATOM     90  C   UNL A   1      51.819  25.740  26.948  1.00  0.00     0.020 A 
ATOM     91  C   UNL A   1      51.312  26.316  24.641  1.00  0.00     0.020 A 
ATOM     92  C   UNL A   1      52.199  25.831  25.605  1.00  0.00     0.054 A 
BRANCH  92  93
ATOM     93  S   UNL A   1      53.850  25.259  25.124  1.00  0.00     0.124 S 
ATOM     94  O   UNL A   1      53.601  23.859  24.791  1.00  0.00    -0.237 OA
ATOM     95  O   UNL A   1      54.175  26.126  23.994  1.00  0.00    -0.237 OA
ATOM     96  O   UNL A   1      54.656  25.481  26.322  1.00  0.00    -0.744 OA
ENDBRANCH  92  93
ENDBRANCH  66  87
ENDBRANCH  40  41
ENDBRANCH  32  35
ENDBRANCH  30  31
ENDBRANCH   1  30
TORSDOF 16
ENDMDL
MODEL 2
REMARK VINA RESULT:     -12.8      2.766      3.553
REMARK SMILES CC1(C)[C@@]2(C(=O)NCCCCNC(=O)c3ccc(-c4c5nc(c(-c6ccc(S(=O)(=O)[O-])cc6)c6ccc([nH]6)c(-c6ccc(S(=O)(=O)[O-])cc6)c6nc(c(-c7ccc(S(=O)(=O)[O-])cc7)c7ccc4[nH]7)C=C6)C=C5)cc3)CC[C@]1(C)/C(=N/NC(=O)c1ccc(Cl)cc1)C2
REMARK SMILES IDX 10 1 9 2 8 3 7 4 5 5 6 6 4 8 1 9 2 10 3 11 77 12 75 13 91 14
REMARK SMILES IDX 76 15 78 16 79 17 80 18 81 19 82 20 83 22 84 23 85 24 90 25
REMARK SMILES IDX 86 26 89 27 87 28 88 29 11 30 12 31 13 32 14 34 15 35 16 36
REMARK SMILES IDX 74 37 17 38 73 39 18 40 19 41 20 42 67 43 21 44 72 45 66 46
REMARK SMILES IDX 68 47 22 48 71 49 65 50 64 51 23 53 53 54 34 55 52 56 35 57
REMARK SMILES IDX 38 58 51 59 69 60 36 61 37 62 50 64 70 65 39 66 24 67 25 68
REMARK SMILES IDX 33 69 26 70 32 71 27 72 28 73 29 74 30 75 31 76 54 77 55 78
REMARK SMILES IDX 63 79 56 80 62 81 57 82 58 83 59 84 60 85 61 86 40 87 41 88
REMARK SMILES IDX 49 89 42 90 48 91 43 92 44 93 45 94 46 95 47 96
REMARK H PARENT 7 7 81 21 12 33 68 52 38 63
REMARK Flexibility Score: inf
ROOT
ATOM      1  C   UNL A   1      33.187  28.506  25.628  1.00  0.00     0.023 C 
ENDROOT
BRANCH   1   2
ATOM      2  C   UNL A   1      33.799  28.555  24.219  1.00  0.00     0.023 C 
BRANCH   2   3
ATOM      3  C   UNL A   1      32.916  28.017  23.091  1.00  0.00     0.116 C 
BRANCH   3   4
ATOM      4  N   UNL A   1      33.453  26.873  22.368  1.00  0.00    -0.356 N 
ATOM      5  C   UNL A   1      33.147  25.544  22.384  1.00  0.00     0.227 C 
ATOM      6  O   UNL A   1      33.320  24.945  21.319  1.00  0.00    -0.274 OA
ATOM      7  H   UNL A   1      34.180  27.104  21.745  1.00  0.00     0.163 HD
BRANCH   5   8
ATOM      8  C   UNL A   1      32.791  24.777  23.660  1.00  0.00     0.060 C 
ATOM      9  C   UNL A   1      30.784  26.213  24.487  1.00  0.00     0.013 C 
ATOM     10  C   UNL A   1      31.282  24.798  24.102  1.00  0.00    -0.010 C 
ATOM     11  C   UNL A   1      30.232  24.215  23.130  1.00  0.00     0.013 C 
ATOM     12  C   UNL A   1      31.550  23.841  25.304  1.00  0.00     0.014 C 
ATOM     13  C   UNL A   1      33.523  25.180  24.975  1.00  0.00     0.019 C 
ATOM     14  C   UNL A   1      33.065  23.269  23.445  1.00  0.00     0.071 C 
ATOM     15  C   UNL A   1      32.651  24.574  26.096  1.00  0.00     0.014 C 
ATOM     16  C   UNL A   1      30.365  23.414  26.144  1.00  0.00     0.018 C 
ATOM     17  C   UNL A   1      32.342  22.692  24.618  1.00  0.00     0.046 C 
ATOM     18  N   UNL A   1      32.406  21.536  25.188  1.00  0.00    -0.181 NA
BRANCH  18  19
ATOM     19  N   UNL A   1      33.119  20.409  24.934  1.00  0.00    -0.243 N 
ATOM     20  C   UNL A   1      34.409  19.928  24.904  1.00  0.00     0.271 C 
ATOM     21  H   UNL A   1      32.499  19.686  24.685  1.00  0.00     0.194 HD
ATOM     22  O   UNL A   1      34.592  18.748  24.588  1.00  0.00    -0.267 OA
BRANCH  20  23
ATOM     23  C   UNL A   1      35.607  20.711  25.172  1.00  0.00     0.041 A 
ATOM     24  C   UNL A   1      35.491  21.973  25.769  1.00  0.00     0.015 A 
ATOM     25  C   UNL A   1      36.839  20.284  24.696  1.00  0.00     0.015 A 
ATOM     26  C   UNL A   1      36.639  22.706  26.083  1.00  0.00     0.021 A 
ATOM     27  C   UNL A   1      37.981  20.986  25.076  1.00  0.00     0.021 A 
ATOM     28  C   UNL A   1      37.888  22.171  25.796  1.00  0.00     0.041 A 
ATOM     29  Cl  UNL A   1      39.321  22.942  26.344  1.00  0.00    -0.084 Cl
ENDBRANCH  20  23
ENDBRANCH  18  19
ENDBRANCH   5   8
ENDBRANCH   3   4
ENDBRANCH   2   3
ENDBRANCH   1   2
BRANCH   1  30
ATOM     30  C   UNL A   1      34.173  28.703  26.769  1.00  0.00     0.116 C 
BRANCH  30  31
ATOM     31  N   UNL A   1      33.946  29.956  27.477  1.00  0.00    -0.352 N 
ATOM     32  C   UNL A   1      34.772  30.635  28.348  1.00  0.00     0.251 C 
ATOM     33  H   UNL A   1      33.074  30.382  27.309  1.00  0.00     0.163 HD
ATOM     34  O   UNL A   1      34.353  31.611  28.944  1.00  0.00    -0.269 OA
BRANCH  32  35
ATOM     35  C   UNL A   1      36.154  30.149  28.581  1.00  0.00     0.039 A 
ATOM     36  C   UNL A   1      37.105  30.300  27.566  1.00  0.00     0.014 A 
ATOM     37  C   UNL A   1      36.512  29.552  29.791  1.00  0.00     0.014 A 
ATOM     38  C   UNL A   1      38.426  29.906  27.790  1.00  0.00     0.010 A 
ATOM     39  C   UNL A   1      37.843  29.246  30.045  1.00  0.00     0.010 A 
ATOM     40  C   UNL A   1      38.810  29.404  29.042  1.00  0.00    -0.014 A 
BRANCH  40  41
ATOM     41  C   UNL A   1      40.207  28.997  29.330  1.00  0.00     0.031 A 
ATOM     42  C   UNL A   1      41.163  30.004  29.914  1.00  0.00     0.074 A 
ATOM     43  C   UNL A   1      40.634  27.770  28.974  1.00  0.00     0.049 A 
ATOM     44  N   UNL A   1      42.450  29.900  30.115  1.00  0.00    -0.248 NA
ATOM     45  C   UNL A   1      40.604  31.317  30.279  1.00  0.00     0.031 C 
ATOM     46  C   UNL A   1      39.811  26.735  28.340  1.00  0.00     0.029 A 
ATOM     47  N   UNL A   1      41.872  27.190  29.074  1.00  0.00    -0.354 N 
ATOM     48  C   UNL A   1      42.860  31.145  30.581  1.00  0.00     0.074 A 
ATOM     49  C   UNL A   1      41.694  32.000  30.596  1.00  0.00     0.031 C 
ATOM     50  C   UNL A   1      40.564  25.644  28.125  1.00  0.00     0.029 A 
ATOM     51  C   UNL A   1      41.927  25.911  28.570  1.00  0.00     0.049 A 
ATOM     52  H   UNL A   1      42.650  27.647  29.470  1.00  0.00     0.167 HD
ATOM     53  C   UNL A   1      44.093  31.535  30.980  1.00  0.00     0.031 A 
ATOM     54  C   UNL A   1      42.964  25.057  28.471  1.00  0.00     0.031 A 
ATOM     55  C   UNL A   1      45.231  30.657  31.013  1.00  0.00     0.049 A 
ATOM     56  C   UNL A   1      44.309  25.490  28.985  1.00  0.00     0.074 A 
ATOM     57  C   UNL A   1      46.504  30.915  31.491  1.00  0.00     0.029 A 
ATOM     58  N   UNL A   1      45.228  29.346  30.561  1.00  0.00    -0.354 N 
ATOM     59  N   UNL A   1      44.660  26.646  29.498  1.00  0.00    -0.248 NA
ATOM     60  C   UNL A   1      45.394  24.501  28.924  1.00  0.00     0.031 C 
ATOM     61  C   UNL A   1      47.281  29.769  31.293  1.00  0.00     0.029 A 
ATOM     62  C   UNL A   1      46.480  28.784  30.735  1.00  0.00     0.049 A 
ATOM     63  H   UNL A   1      44.450  28.883  30.174  1.00  0.00     0.167 HD
ATOM     64  C   UNL A   1      46.001  26.517  29.838  1.00  0.00     0.074 A 
ATOM     65  C   UNL A   1      46.391  25.166  29.492  1.00  0.00     0.031 C 
ATOM     66  C   UNL A   1      46.837  27.434  30.385  1.00  0.00     0.031 A 
BRANCH  53  67
ATOM     67  C   UNL A   1      44.271  32.965  31.415  1.00  0.00    -0.014 A 
ATOM     68  C   UNL A   1      44.594  33.974  30.490  1.00  0.00     0.010 A 
ATOM     69  C   UNL A   1      44.081  33.312  32.765  1.00  0.00     0.010 A 
ATOM     70  C   UNL A   1      44.764  35.295  30.913  1.00  0.00     0.020 A 
ATOM     71  C   UNL A   1      44.224  34.637  33.188  1.00  0.00     0.020 A 
ATOM     72  C   UNL A   1      44.582  35.618  32.262  1.00  0.00     0.054 A 
BRANCH  72  73
ATOM     73  S   UNL A   1      44.783  37.345  32.778  1.00  0.00     0.124 S 
ATOM     74  O   UNL A   1      45.623  37.208  33.965  1.00  0.00    -0.237 OA
ATOM     75  O   UNL A   1      45.430  37.954  31.619  1.00  0.00    -0.237 OA
ATOM     76  O   UNL A   1      43.415  37.793  33.030  1.00  0.00    -0.744 OA
ENDBRANCH  72  73
ENDBRANCH  53  67
BRANCH  54  77
ATOM     77  C   UNL A   1      42.764  23.706  27.880  1.00  0.00    -0.014 A 
ATOM     78  C   UNL A   1      42.294  22.644  28.672  1.00  0.00     0.010 A 
ATOM     79  C   UNL A   1      43.029  23.476  26.517  1.00  0.00     0.010 A 
ATOM     80  C   UNL A   1      42.115  21.371  28.119  1.00  0.00     0.020 A 
ATOM     81  C   UNL A   1      42.827  22.212  25.955  1.00  0.00     0.020 A 
ATOM     82  C   UNL A   1      42.384  21.163  26.764  1.00  0.00     0.054 A 
BRANCH  82  83
ATOM     83  S   UNL A   1      42.101  19.515  26.056  1.00  0.00     0.124 S 
ATOM     84  O   UNL A   1      42.897  19.572  24.834  1.00  0.00    -0.237 OA
ATOM     85  O   UNL A   1      42.609  18.629  27.101  1.00  0.00    -0.237 OA
ATOM     86  O   UNL A   1      40.654  19.471  25.862  1.00  0.00    -0.744 OA
ENDBRANCH  82  83
ENDBRANCH  54  77
BRANCH  66  87
ATOM     87  C   UNL A   1      48.246  26.996  30.669  1.00  0.00    -0.014 A 
ATOM     88  C   UNL A   1      49.264  27.175  29.716  1.00  0.00     0.010 A 
ATOM     89  C   UNL A   1      48.564  26.457  31.928  1.00  0.00     0.010 A 
ATOM     90  C   UNL A   1      50.575  26.798  30.011  1.00  0.00     0.020 A 
ATOM     91  C   UNL A   1      49.879  26.102  32.234  1.00  0.00     0.020 A 
ATOM     92  C   UNL A   1      50.875  26.262  31.268  1.00  0.00     0.054 A 
BRANCH  92  93
ATOM     93  S   UNL A   1      52.593  25.827  31.646  1.00  0.00     0.124 S 
ATOM     94  O   UNL A   1      53.254  26.065  30.366  1.00  0.00    -0.237 OA
ATOM     95  O   UNL A   1      52.936  26.761  32.714  1.00  0.00    -0.237 OA
ATOM     96  O   UNL A   1      52.513  24.426  32.054  1.00  0.00    -0.744 OA
ENDBRANCH  92  93
ENDBRANCH  66  87
ENDBRANCH  40  41
ENDBRANCH  32  35
ENDBRANCH  30  31
ENDBRANCH   1  30
TORSDOF 16
ENDMDL
MODEL 3
REMARK VINA RESULT:     -12.8      1.387      1.985
REMARK SMILES CC1(C)[C@@]2(C(=O)NCCCCNC(=O)c3ccc(-c4c5nc(c(-c6ccc(S(=O)(=O)[O-])cc6)c6ccc([nH]6)c(-c6ccc(S(=O)(=O)[O-])cc6)c6nc(c(-c7ccc(S(=O)(=O)[O-])cc7)c7ccc4[nH]7)C=C6)C=C5)cc3)CC[C@]1(C)/C(=N/NC(=O)c1ccc(Cl)cc1)C2
REMARK SMILES IDX 10 1 9 2 8 3 7 4 5 5 6 6 4 8 1 9 2 10 3 11 77 12 75 13 91 14
REMARK SMILES IDX 76 15 78 16 79 17 80 18 81 19 82 20 83 22 84 23 85 24 90 25
REMARK SMILES IDX 86 26 89 27 87 28 88 29 11 30 12 31 13 32 14 34 15 35 16 36
REMARK SMILES IDX 74 37 17 38 73 39 18 40 19 41 20 42 67 43 21 44 72 45 66 46
REMARK SMILES IDX 68 47 22 48 71 49 65 50 64 51 23 53 53 54 34 55 52 56 35 57
REMARK SMILES IDX 38 58 51 59 69 60 36 61 37 62 50 64 70 65 39 66 24 67 25 68
REMARK SMILES IDX 33 69 26 70 32 71 27 72 28 73 29 74 30 75 31 76 54 77 55 78
REMARK SMILES IDX 63 79 56 80 62 81 57 82 58 83 59 84 60 85 61 86 40 87 41 88
REMARK SMILES IDX 49 89 42 90 48 91 43 92 44 93 45 94 46 95 47 96
REMARK H PARENT 7 7 81 21 12 33 68 52 38 63
REMARK Flexibility Score: inf
ROOT
ATOM      1  C   UNL A   1      34.052  29.285  27.020  1.00  0.00     0.023 C 
ENDROOT
BRANCH   1   2
ATOM      2  C   UNL A   1      33.995  27.911  26.336  1.00  0.00     0.023 C 
BRANCH   2   3
ATOM      3  C   UNL A   1      33.323  27.879  24.961  1.00  0.00     0.116 C 
BRANCH   3   4
ATOM      4  N   UNL A   1      33.874  26.916  24.018  1.00  0.00    -0.356 N 
ATOM      5  C   UNL A   1      33.485  25.663  23.644  1.00  0.00     0.227 C 
ATOM      6  O   UNL A   1      33.753  25.347  22.481  1.00  0.00    -0.274 OA
ATOM      7  H   UNL A   1      34.687  27.231  23.560  1.00  0.00     0.163 HD
BRANCH   5   8
ATOM      8  C   UNL A   1      32.923  24.629  24.622  1.00  0.00     0.060 C 
ATOM      9  C   UNL A   1      30.843  25.931  25.488  1.00  0.00     0.013 C 
ATOM     10  C   UNL A   1      31.365  24.628  24.836  1.00  0.00    -0.010 C 
ATOM     11  C   UNL A   1      30.465  24.362  23.609  1.00  0.00     0.013 C 
ATOM     12  C   UNL A   1      31.428  23.391  25.784  1.00  0.00     0.014 C 
ATOM     13  C   UNL A   1      33.454  24.654  26.086  1.00  0.00     0.019 C 
ATOM     14  C   UNL A   1      33.197  23.206  24.077  1.00  0.00     0.071 C 
ATOM     15  C   UNL A   1      32.410  23.843  26.883  1.00  0.00     0.014 C 
ATOM     16  C   UNL A   1      30.121  22.840  26.312  1.00  0.00     0.018 C 
ATOM     17  C   UNL A   1      32.292  22.402  24.952  1.00  0.00     0.046 C 
ATOM     18  N   UNL A   1      32.245  21.139  25.217  1.00  0.00    -0.181 NA
BRANCH  18  19
ATOM     19  N   UNL A   1      32.966  20.070  24.792  1.00  0.00    -0.243 N 
ATOM     20  C   UNL A   1      34.258  19.605  24.694  1.00  0.00     0.271 C 
ATOM     21  H   UNL A   1      32.351  19.392  24.427  1.00  0.00     0.194 HD
ATOM     22  O   UNL A   1      34.450  18.492  24.197  1.00  0.00    -0.267 OA
BRANCH  20  23
ATOM     23  C   UNL A   1      35.450  20.342  25.091  1.00  0.00     0.041 A 
ATOM     24  C   UNL A   1      36.716  19.837  24.770  1.00  0.00     0.015 A 
ATOM     25  C   UNL A   1      35.339  21.452  25.918  1.00  0.00     0.015 A 
ATOM     26  C   UNL A   1      37.863  20.568  25.096  1.00  0.00     0.021 A 
ATOM     27  C   UNL A   1      36.480  22.209  26.176  1.00  0.00     0.021 A 
ATOM     28  C   UNL A   1      37.731  21.791  25.738  1.00  0.00     0.041 A 
ATOM     29  Cl  UNL A   1      39.093  22.810  25.976  1.00  0.00    -0.084 Cl
ENDBRANCH  20  23
ENDBRANCH  18  19
ENDBRANCH   5   8
ENDBRANCH   3   4
ENDBRANCH   2   3
ENDBRANCH   1   2
BRANCH   1  30
ATOM     30  C   UNL A   1      35.418  29.686  27.555  1.00  0.00     0.116 C 
BRANCH  30  31
ATOM     31  N   UNL A   1      35.368  30.046  28.966  1.00  0.00    -0.352 N 
ATOM     32  C   UNL A   1      36.340  29.929  29.937  1.00  0.00     0.251 C 
ATOM     33  H   UNL A   1      34.514  30.429  29.272  1.00  0.00     0.163 HD
ATOM     34  O   UNL A   1      36.066  30.168  31.100  1.00  0.00    -0.269 OA
BRANCH  32  35
ATOM     35  C   UNL A   1      37.703  29.476  29.564  1.00  0.00     0.039 A 
ATOM     36  C   UNL A   1      38.147  29.678  28.253  1.00  0.00     0.014 A 
ATOM     37  C   UNL A   1      38.538  28.862  30.499  1.00  0.00     0.014 A 
ATOM     38  C   UNL A   1      39.449  29.317  27.900  1.00  0.00     0.010 A 
ATOM     39  C   UNL A   1      39.859  28.588  30.172  1.00  0.00     0.010 A 
ATOM     40  C   UNL A   1      40.324  28.797  28.865  1.00  0.00    -0.014 A 
BRANCH  40  41
ATOM     41  C   UNL A   1      41.721  28.422  28.538  1.00  0.00     0.031 A 
ATOM     42  C   UNL A   1      42.778  29.495  28.485  1.00  0.00     0.074 A 
ATOM     43  C   UNL A   1      42.011  27.153  28.193  1.00  0.00     0.049 A 
ATOM     44  N   UNL A   1      44.021  29.409  28.090  1.00  0.00    -0.248 NA
ATOM     45  C   UNL A   1      42.369  30.852  28.886  1.00  0.00     0.031 C 
ATOM     46  C   UNL A   1      41.052  26.045  28.146  1.00  0.00     0.029 A 
ATOM     47  N   UNL A   1      43.193  26.583  27.796  1.00  0.00    -0.354 N 
ATOM     48  C   UNL A   1      44.525  30.704  28.149  1.00  0.00     0.074 A 
ATOM     49  C   UNL A   1      43.444  31.563  28.578  1.00  0.00     0.031 C 
ATOM     50  C   UNL A   1      41.689  24.927  27.760  1.00  0.00     0.029 A 
ATOM     51  C   UNL A   1      43.088  25.244  27.496  1.00  0.00     0.049 A 
ATOM     52  H   UNL A   1      44.038  27.084  27.731  1.00  0.00     0.167 HD
ATOM     53  C   UNL A   1      45.781  31.137  27.888  1.00  0.00     0.031 A 
ATOM     54  C   UNL A   1      44.016  24.375  27.051  1.00  0.00     0.031 A 
ATOM     55  C   UNL A   1      46.859  30.263  27.517  1.00  0.00     0.049 A 
ATOM     56  C   UNL A   1      45.421  24.866  26.836  1.00  0.00     0.074 A 
ATOM     57  C   UNL A   1      48.194  30.575  27.325  1.00  0.00     0.029 A 
ATOM     58  N   UNL A   1      46.728  28.900  27.294  1.00  0.00    -0.354 N 
ATOM     59  N   UNL A   1      45.898  26.080  26.974  1.00  0.00    -0.248 NA
ATOM     60  C   UNL A   1      46.417  23.868  26.420  1.00  0.00     0.031 C 
ATOM     61  C   UNL A   1      48.863  29.405  26.950  1.00  0.00     0.029 A 
ATOM     62  C   UNL A   1      47.955  28.358  26.953  1.00  0.00     0.049 A 
ATOM     63  H   UNL A   1      45.888  28.393  27.369  1.00  0.00     0.167 HD
ATOM     64  C   UNL A   1      47.254  25.990  26.682  1.00  0.00     0.074 A 
ATOM     65  C   UNL A   1      47.523  24.598  26.378  1.00  0.00     0.031 C 
ATOM     66  C   UNL A   1      48.192  26.968  26.662  1.00  0.00     0.031 A 
BRANCH  53  67
ATOM     67  C   UNL A   1      46.053  32.613  28.001  1.00  0.00    -0.014 A 
ATOM     68  C   UNL A   1      45.848  33.477  26.911  1.00  0.00     0.010 A 
ATOM     69  C   UNL A   1      46.490  33.150  29.226  1.00  0.00     0.010 A 
ATOM     70  C   UNL A   1      46.115  34.844  27.030  1.00  0.00     0.020 A 
ATOM     71  C   UNL A   1      46.731  34.521  29.358  1.00  0.00     0.020 A 
ATOM     72  C   UNL A   1      46.559  35.357  28.254  1.00  0.00     0.054 A 
BRANCH  72  73
ATOM     73  S   UNL A   1      46.872  37.139  28.388  1.00  0.00     0.124 S 
ATOM     74  O   UNL A   1      48.330  37.192  28.336  1.00  0.00    -0.237 OA
ATOM     75  O   UNL A   1      46.182  37.675  27.218  1.00  0.00    -0.237 OA
ATOM     76  O   UNL A   1      46.280  37.498  29.674  1.00  0.00    -0.744 OA
ENDBRANCH  72  73
ENDBRANCH  53  67
BRANCH  54  77
ATOM     77  C   UNL A   1      43.649  22.955  26.801  1.00  0.00    -0.014 A 
ATOM     78  C   UNL A   1      44.026  22.321  25.603  1.00  0.00     0.010 A 
ATOM     79  C   UNL A   1      42.934  22.221  27.765  1.00  0.00     0.010 A 
ATOM     80  C   UNL A   1      43.673  20.989  25.364  1.00  0.00     0.020 A 
ATOM     81  C   UNL A   1      42.602  20.881  27.541  1.00  0.00     0.020 A 
ATOM     82  C   UNL A   1      42.963  20.278  26.333  1.00  0.00     0.054 A 
BRANCH  82  83
ATOM     83  S   UNL A   1      42.555  18.536  26.022  1.00  0.00     0.124 S 
ATOM     84  O   UNL A   1      43.419  18.221  24.890  1.00  0.00    -0.237 OA
ATOM     85  O   UNL A   1      42.910  17.896  27.286  1.00  0.00    -0.237 OA
ATOM     86  O   UNL A   1      41.124  18.568  25.730  1.00  0.00    -0.744 OA
ENDBRANCH  82  83
ENDBRANCH  54  77
BRANCH  66  87
ATOM     87  C   UNL A   1      49.600  26.562  26.330  1.00  0.00    -0.014 A 
ATOM     88  C   UNL A   1      50.408  25.911  27.278  1.00  0.00     0.010 A 
ATOM     89  C   UNL A   1      50.096  26.781  25.032  1.00  0.00     0.010 A 
ATOM     90  C   UNL A   1      51.701  25.507  26.940  1.00  0.00     0.020 A 
ATOM     91  C   UNL A   1      51.380  26.356  24.684  1.00  0.00     0.020 A 
ATOM     92  C   UNL A   1      52.180  25.733  25.645  1.00  0.00     0.054 A 
BRANCH  92  93
ATOM     93  S   UNL A   1      53.843  25.155  25.215  1.00  0.00     0.124 S 
ATOM     94  O   UNL A   1      53.608  23.742  24.929  1.00  0.00    -0.237 OA
ATOM     95  O   UNL A   1      54.184  25.982  24.061  1.00  0.00    -0.237 OA
ATOM     96  O   UNL A   1      54.625  25.425  26.419  1.00  0.00    -0.744 OA
ENDBRANCH  92  93
ENDBRANCH  66  87
ENDBRANCH  40  41
ENDBRANCH  32  35
ENDBRANCH  30  31
ENDBRANCH   1  30
TORSDOF 16
ENDMDL
