MODEL 1
REMARK VINA RESULT:     -12.2      0.000      0.000
REMARK SMILES Cc1cc(=O)c(Oc2ccc(C(=O)NCCCCNC(=O)c3ccc(-c4c5nc(c(-c6ccc(S(=O)(=O)[O-])cc6)c6ccc([nH]6)c(-c6ccc(S(=O)(=O)[O-])cc6)c6nc(c(-c7ccc(S(=O)(=O)[O-])cc7)c7ccc4[nH]7)C=C6)C=C5)cc3)cc2)c(-c2ccc(S(C)(=O)=O)cc2)o1
REMARK SMILES IDX 16 1 15 2 14 3 12 4 13 5 11 7 8 8 9 9 83 10 10 11 82 12 7 13
REMARK SMILES IDX 6 14 1 15 2 16 3 17 95 18 4 19 84 20 5 21 85 22 86 23 94 24
REMARK SMILES IDX 87 25 93 26 88 27 89 28 90 29 91 30 92 31 17 32 18 33 19 34
REMARK SMILES IDX 20 35 21 37 22 38 23 39 81 40 24 41 80 42 25 43 26 44 27 45
REMARK SMILES IDX 74 46 28 47 79 48 73 49 75 50 29 51 78 52 72 53 71 54 30 56
REMARK SMILES IDX 60 57 41 58 59 59 42 60 45 61 58 62 76 63 43 64 44 65 57 67
REMARK SMILES IDX 77 68 46 69 31 70 32 71 40 72 33 73 39 74 34 75 35 76 36 77
REMARK SMILES IDX 37 78 38 79 61 80 62 81 70 82 63 83 69 84 64 85 65 86 66 87
REMARK SMILES IDX 67 88 68 89 47 90 48 91 56 92 49 93 55 94 50 95 51 96 52 97
REMARK SMILES IDX 53 98 54 99
REMARK H PARENT 14 6 19 36 75 55 45 66
REMARK Flexibility Score: inf
ROOT
ATOM      1  C   UNL A   1      40.295  22.210  27.089  1.00  0.00     0.023 C 
ENDROOT
BRANCH   1   2
ATOM      2  C   UNL A   1      40.173  21.464  25.766  1.00  0.00     0.116 C 
BRANCH   2   3
ATOM      3  N   UNL A   1      39.099  20.493  25.661  1.00  0.00    -0.352 N 
ATOM      4  C   UNL A   1      37.828  20.620  25.140  1.00  0.00     0.251 C 
ATOM      5  O   UNL A   1      37.125  19.621  25.005  1.00  0.00    -0.269 OA
ATOM      6  H   UNL A   1      39.312  19.601  26.020  1.00  0.00     0.163 HD
BRANCH   4   7
ATOM      7  C   UNL A   1      37.235  21.957  24.868  1.00  0.00     0.040 A 
ATOM      8  C   UNL A   1      35.450  24.016  24.352  1.00  0.00     0.127 A 
ATOM      9  C   UNL A   1      35.980  23.301  23.286  1.00  0.00     0.048 A 
ATOM     10  C   UNL A   1      36.006  23.886  25.622  1.00  0.00     0.048 A 
ATOM     11  C   UNL A   1      36.844  22.235  23.550  1.00  0.00     0.017 A 
ATOM     12  C   UNL A   1      36.940  22.882  25.869  1.00  0.00     0.017 A 
BRANCH   8  13
ATOM     13  O   UNL A   1      34.438  24.917  24.212  1.00  0.00    -0.449 OA
BRANCH  13  14
ATOM     14  C   UNL A   1      33.198  24.788  24.827  1.00  0.00     0.217 A 
ATOM     15  C   UNL A   1      29.239  25.014  26.551  1.00  0.00     0.088 C 
ATOM     16  C   UNL A   1      30.636  25.038  26.022  1.00  0.00     0.105 A 
ATOM     17  C   UNL A   1      31.360  26.158  25.957  1.00  0.00     0.098 A 
ATOM     18  O   UNL A   1      31.125  23.816  25.619  1.00  0.00    -0.457 OA
ATOM     19  C   UNL A   1      32.708  26.095  25.377  1.00  0.00     0.228 A 
ATOM     20  C   UNL A   1      32.390  23.714  25.045  1.00  0.00     0.180 A 
ATOM     21  O   UNL A   1      33.392  27.115  25.357  1.00  0.00    -0.285 OA
BRANCH  20  22
ATOM     22  C   UNL A   1      32.654  22.299  24.721  1.00  0.00     0.021 A 
ATOM     23  C   UNL A   1      33.345  21.488  25.640  1.00  0.00     0.013 A 
ATOM     24  C   UNL A   1      32.268  21.754  23.488  1.00  0.00     0.013 A 
ATOM     25  C   UNL A   1      33.571  20.135  25.369  1.00  0.00     0.021 A 
ATOM     26  C   UNL A   1      32.508  20.404  23.205  1.00  0.00     0.021 A 
ATOM     27  C   UNL A   1      33.145  19.598  24.152  1.00  0.00     0.067 A 
BRANCH  27  28
ATOM     28  S   UNL A   1      33.324  17.849  23.864  1.00  0.00     0.175 S 
ATOM     29  C   UNL A   1      32.404  17.111  25.185  1.00  0.00     0.163 C 
ATOM     30  O   UNL A   1      32.636  17.553  22.624  1.00  0.00    -0.224 OA
ATOM     31  O   UNL A   1      34.723  17.511  24.054  1.00  0.00    -0.224 OA
ENDBRANCH  27  28
ENDBRANCH  20  22
ENDBRANCH  13  14
ENDBRANCH   8  13
ENDBRANCH   4   7
ENDBRANCH   2   3
ENDBRANCH   1   2
BRANCH   1  32
ATOM     32  C   UNL A   1      41.658  22.211  27.759  1.00  0.00     0.023 C 
BRANCH  32  33
ATOM     33  C   UNL A   1      42.727  23.043  27.071  1.00  0.00     0.116 C 
BRANCH  33  34
ATOM     34  N   UNL A   1      42.212  23.927  26.029  1.00  0.00    -0.352 N 
ATOM     35  C   UNL A   1      41.697  25.201  26.124  1.00  0.00     0.251 C 
ATOM     36  H   UNL A   1      42.237  23.555  25.118  1.00  0.00     0.163 HD
ATOM     37  O   UNL A   1      41.238  25.758  25.132  1.00  0.00    -0.269 OA
BRANCH  35  38
ATOM     38  C   UNL A   1      41.645  25.865  27.443  1.00  0.00     0.039 A 
ATOM     39  C   UNL A   1      40.562  25.653  28.293  1.00  0.00     0.014 A 
ATOM     40  C   UNL A   1      42.640  26.784  27.786  1.00  0.00     0.014 A 
ATOM     41  C   UNL A   1      40.342  26.533  29.345  1.00  0.00     0.010 A 
ATOM     42  C   UNL A   1      42.479  27.583  28.921  1.00  0.00     0.010 A 
ATOM     43  C   UNL A   1      41.294  27.514  29.669  1.00  0.00    -0.014 A 
BRANCH  43  44
ATOM     44  C   UNL A   1      41.029  28.448  30.795  1.00  0.00     0.031 A 
ATOM     45  C   UNL A   1      41.887  28.434  32.034  1.00  0.00     0.074 A 
ATOM     46  C   UNL A   1      40.035  29.350  30.672  1.00  0.00     0.049 A 
ATOM     47  N   UNL A   1      41.779  29.165  33.114  1.00  0.00    -0.248 NA
ATOM     48  C   UNL A   1      43.008  27.479  32.071  1.00  0.00     0.031 C 
ATOM     49  C   UNL A   1      39.164  29.483  29.503  1.00  0.00     0.029 A 
ATOM     50  N   UNL A   1      39.604  30.339  31.520  1.00  0.00    -0.354 N 
ATOM     51  C   UNL A   1      42.804  28.754  33.960  1.00  0.00     0.074 A 
ATOM     52  C   UNL A   1      43.501  27.681  33.287  1.00  0.00     0.031 C 
ATOM     53  C   UNL A   1      38.344  30.525  29.681  1.00  0.00     0.029 A 
ATOM     54  C   UNL A   1      38.559  31.076  31.015  1.00  0.00     0.049 A 
ATOM     55  H   UNL A   1      40.003  30.504  32.405  1.00  0.00     0.167 HD
ATOM     56  C   UNL A   1      43.139  29.242  35.178  1.00  0.00     0.031 A 
ATOM     57  C   UNL A   1      37.826  32.065  31.563  1.00  0.00     0.031 A 
ATOM     58  C   UNL A   1      42.439  30.321  35.829  1.00  0.00     0.049 A 
ATOM     59  C   UNL A   1      38.162  32.533  32.947  1.00  0.00     0.074 A 
ATOM     60  C   UNL A   1      42.712  30.897  37.058  1.00  0.00     0.029 A 
ATOM     61  N   UNL A   1      41.339  30.990  35.311  1.00  0.00    -0.354 N 
ATOM     62  N   UNL A   1      39.138  32.139  33.728  1.00  0.00    -0.248 NA
ATOM     63  C   UNL A   1      37.305  33.574  33.529  1.00  0.00     0.031 C 
ATOM     64  C   UNL A   1      41.729  31.853  37.319  1.00  0.00     0.029 A 
ATOM     65  C   UNL A   1      40.894  31.941  36.216  1.00  0.00     0.049 A 
ATOM     66  H   UNL A   1      40.933  30.814  34.432  1.00  0.00     0.167 HD
ATOM     67  C   UNL A   1      39.015  32.882  34.895  1.00  0.00     0.074 A 
ATOM     68  C   UNL A   1      37.888  33.773  34.705  1.00  0.00     0.031 C 
ATOM     69  C   UNL A   1      39.765  32.820  36.022  1.00  0.00     0.031 A 
BRANCH  56  70
ATOM     70  C   UNL A   1      44.316  28.633  35.905  1.00  0.00    -0.014 A 
ATOM     71  C   UNL A   1      44.112  27.561  36.796  1.00  0.00     0.010 A 
ATOM     72  C   UNL A   1      45.599  29.200  35.810  1.00  0.00     0.010 A 
ATOM     73  C   UNL A   1      45.154  27.095  37.603  1.00  0.00     0.020 A 
ATOM     74  C   UNL A   1      46.654  28.714  36.591  1.00  0.00     0.020 A 
ATOM     75  C   UNL A   1      46.418  27.682  37.502  1.00  0.00     0.054 A 
BRANCH  75  76
ATOM     76  S   UNL A   1      47.751  27.085  38.580  1.00  0.00     0.124 S 
ATOM     77  O   UNL A   1      47.315  25.729  38.890  1.00  0.00    -0.237 OA
ATOM     78  O   UNL A   1      48.928  27.192  37.720  1.00  0.00    -0.237 OA
ATOM     79  O   UNL A   1      47.727  28.022  39.703  1.00  0.00    -0.744 OA
ENDBRANCH  75  76
ENDBRANCH  56  70
BRANCH  57  80
ATOM     80  C   UNL A   1      36.711  32.649  30.767  1.00  0.00    -0.014 A 
ATOM     81  C   UNL A   1      36.947  33.755  29.924  1.00  0.00     0.010 A 
ATOM     82  C   UNL A   1      35.392  32.205  30.953  1.00  0.00     0.010 A 
ATOM     83  C   UNL A   1      35.883  34.462  29.364  1.00  0.00     0.020 A 
ATOM     84  C   UNL A   1      34.324  32.887  30.360  1.00  0.00     0.020 A 
ATOM     85  C   UNL A   1      34.574  34.034  29.603  1.00  0.00     0.054 A 
BRANCH  85  86
ATOM     86  S   UNL A   1      33.205  35.029  28.952  1.00  0.00     0.124 S 
ATOM     87  O   UNL A   1      32.450  35.331  30.166  1.00  0.00    -0.237 OA
ATOM     88  O   UNL A   1      33.898  36.162  28.344  1.00  0.00    -0.237 OA
ATOM     89  O   UNL A   1      32.543  34.129  28.012  1.00  0.00    -0.744 OA
ENDBRANCH  85  86
ENDBRANCH  57  80
BRANCH  69  90
ATOM     90  C   UNL A   1      39.395  33.717  37.176  1.00  0.00    -0.014 A 
ATOM     91  C   UNL A   1      39.917  35.023  37.245  1.00  0.00     0.010 A 
ATOM     92  C   UNL A   1      38.675  33.208  38.270  1.00  0.00     0.010 A 
ATOM     93  C   UNL A   1      39.781  35.778  38.412  1.00  0.00     0.020 A 
ATOM     94  C   UNL A   1      38.507  33.974  39.427  1.00  0.00     0.020 A 
ATOM     95  C   UNL A   1      39.091  35.241  39.503  1.00  0.00     0.054 A 
BRANCH  95  96
ATOM     96  S   UNL A   1      39.006  36.201  41.038  1.00  0.00     0.124 S 
ATOM     97  O   UNL A   1      37.783  35.694  41.652  1.00  0.00    -0.237 OA
ATOM     98  O   UNL A   1      40.249  35.834  41.714  1.00  0.00    -0.237 OA
ATOM     99  O   UNL A   1      38.943  37.586  40.576  1.00  0.00    -0.744 OA
ENDBRANCH  95  96
ENDBRANCH  69  90
ENDBRANCH  43  44
ENDBRANCH  35  38
ENDBRANCH  33  34
ENDBRANCH  32  33
ENDBRANCH   1  32
TORSDOF 18
ENDMDL
MODEL 2
REMARK VINA RESULT:     -11.6      6.089     10.306
REMARK SMILES Cc1cc(=O)c(Oc2ccc(C(=O)NCCCCNC(=O)c3ccc(-c4c5nc(c(-c6ccc(S(=O)(=O)[O-])cc6)c6ccc([nH]6)c(-c6ccc(S(=O)(=O)[O-])cc6)c6nc(c(-c7ccc(S(=O)(=O)[O-])cc7)c7ccc4[nH]7)C=C6)C=C5)cc3)cc2)c(-c2ccc(S(C)(=O)=O)cc2)o1
REMARK SMILES IDX 16 1 15 2 14 3 12 4 13 5 11 7 8 8 9 9 83 10 10 11 82 12 7 13
REMARK SMILES IDX 6 14 1 15 2 16 3 17 95 18 4 19 84 20 5 21 85 22 86 23 94 24
REMARK SMILES IDX 87 25 93 26 88 27 89 28 90 29 91 30 92 31 17 32 18 33 19 34
REMARK SMILES IDX 20 35 21 37 22 38 23 39 81 40 24 41 80 42 25 43 26 44 27 45
REMARK SMILES IDX 74 46 28 47 79 48 73 49 75 50 29 51 78 52 72 53 71 54 30 56
REMARK SMILES IDX 60 57 41 58 59 59 42 60 45 61 58 62 76 63 43 64 44 65 57 67
REMARK SMILES IDX 77 68 46 69 31 70 32 71 40 72 33 73 39 74 34 75 35 76 36 77
REMARK SMILES IDX 37 78 38 79 61 80 62 81 70 82 63 83 69 84 64 85 65 86 66 87
REMARK SMILES IDX 67 88 68 89 47 90 48 91 56 92 49 93 55 94 50 95 51 96 52 97
REMARK SMILES IDX 53 98 54 99
REMARK H PARENT 14 6 19 36 75 55 45 66
REMARK Flexibility Score: inf
ROOT
ATOM      1  C   UNL A   1      41.020  21.891  26.687  1.00  0.00     0.023 C 
ENDROOT
BRANCH   1   2
ATOM      2  C   UNL A   1      39.590  22.267  26.317  1.00  0.00     0.116 C 
BRANCH   2   3
ATOM      3  N   UNL A   1      38.695  21.176  25.977  1.00  0.00    -0.352 N 
ATOM      4  C   UNL A   1      37.563  21.162  25.189  1.00  0.00     0.251 C 
ATOM      5  O   UNL A   1      37.038  20.089  24.901  1.00  0.00    -0.269 OA
ATOM      6  H   UNL A   1      38.935  20.307  26.373  1.00  0.00     0.163 HD
BRANCH   4   7
ATOM      7  C   UNL A   1      36.881  22.424  24.794  1.00  0.00     0.040 A 
ATOM      8  C   UNL A   1      34.962  24.296  24.083  1.00  0.00     0.127 A 
ATOM      9  C   UNL A   1      35.557  23.529  23.088  1.00  0.00     0.048 A 
ATOM     10  C   UNL A   1      35.508  24.319  25.363  1.00  0.00     0.048 A 
ATOM     11  C   UNL A   1      36.490  22.556  23.454  1.00  0.00     0.017 A 
ATOM     12  C   UNL A   1      36.507  23.410  25.707  1.00  0.00     0.017 A 
BRANCH   8  13
ATOM     13  O   UNL A   1      33.891  25.106  23.855  1.00  0.00    -0.449 OA
BRANCH  13  14
ATOM     14  C   UNL A   1      32.683  24.999  24.533  1.00  0.00     0.217 A 
ATOM     15  C   UNL A   1      28.809  25.282  26.435  1.00  0.00     0.088 C 
ATOM     16  C   UNL A   1      30.180  25.289  25.838  1.00  0.00     0.105 A 
ATOM     17  C   UNL A   1      30.893  26.407  25.692  1.00  0.00     0.098 A 
ATOM     18  O   UNL A   1      30.655  24.053  25.464  1.00  0.00    -0.457 OA
ATOM     19  C   UNL A   1      32.212  26.326  25.051  1.00  0.00     0.228 A 
ATOM     20  C   UNL A   1      31.893  23.931  24.835  1.00  0.00     0.180 A 
ATOM     21  O   UNL A   1      32.889  27.347  24.956  1.00  0.00    -0.285 OA
BRANCH  20  22
ATOM     22  C   UNL A   1      32.149  22.505  24.558  1.00  0.00     0.021 A 
ATOM     23  C   UNL A   1      32.657  21.676  25.575  1.00  0.00     0.013 A 
ATOM     24  C   UNL A   1      31.940  21.966  23.280  1.00  0.00     0.013 A 
ATOM     25  C   UNL A   1      32.869  20.313  25.345  1.00  0.00     0.021 A 
ATOM     26  C   UNL A   1      32.168  20.606  23.041  1.00  0.00     0.021 A 
ATOM     27  C   UNL A   1      32.618  19.783  24.077  1.00  0.00     0.067 A 
BRANCH  27  28
ATOM     28  S   UNL A   1      32.772  18.027  23.823  1.00  0.00     0.175 S 
ATOM     29  C   UNL A   1      34.456  17.688  24.252  1.00  0.00     0.163 C 
ATOM     30  O   UNL A   1      31.925  17.382  24.805  1.00  0.00    -0.224 OA
ATOM     31  O   UNL A   1      32.616  17.770  22.402  1.00  0.00    -0.224 OA
ENDBRANCH  27  28
ENDBRANCH  20  22
ENDBRANCH  13  14
ENDBRANCH   8  13
ENDBRANCH   4   7
ENDBRANCH   2   3
ENDBRANCH   1   2
BRANCH   1  32
ATOM     32  C   UNL A   1      41.243  20.500  27.256  1.00  0.00     0.023 C 
BRANCH  32  33
ATOM     33  C   UNL A   1      42.685  20.022  27.273  1.00  0.00     0.116 C 
BRANCH  33  34
ATOM     34  N   UNL A   1      43.129  19.428  26.016  1.00  0.00    -0.352 N 
ATOM     35  C   UNL A   1      43.918  19.956  25.018  1.00  0.00     0.251 C 
ATOM     36  H   UNL A   1      42.816  18.508  25.857  1.00  0.00     0.163 HD
ATOM     37  O   UNL A   1      44.120  19.320  23.987  1.00  0.00    -0.269 OA
BRANCH  35  38
ATOM     38  C   UNL A   1      44.468  21.319  25.173  1.00  0.00     0.039 A 
ATOM     39  C   UNL A   1      45.417  21.584  26.159  1.00  0.00     0.014 A 
ATOM     40  C   UNL A   1      43.955  22.357  24.393  1.00  0.00     0.014 A 
ATOM     41  C   UNL A   1      45.656  22.899  26.533  1.00  0.00     0.010 A 
ATOM     42  C   UNL A   1      44.298  23.678  24.691  1.00  0.00     0.010 A 
ATOM     43  C   UNL A   1      45.096  23.964  25.809  1.00  0.00    -0.014 A 
BRANCH  43  44
ATOM     44  C   UNL A   1      45.362  25.363  26.237  1.00  0.00     0.031 A 
ATOM     45  C   UNL A   1      44.271  26.210  26.841  1.00  0.00     0.074 A 
ATOM     46  C   UNL A   1      46.613  25.852  26.125  1.00  0.00     0.049 A 
ATOM     47  N   UNL A   1      44.330  27.454  27.246  1.00  0.00    -0.248 NA
ATOM     48  C   UNL A   1      42.947  25.590  27.013  1.00  0.00     0.031 C 
ATOM     49  C   UNL A   1      47.756  25.109  25.591  1.00  0.00     0.029 A 
ATOM     50  N   UNL A   1      47.140  27.070  26.471  1.00  0.00    -0.354 N 
ATOM     51  C   UNL A   1      43.055  27.767  27.707  1.00  0.00     0.074 A 
ATOM     52  C   UNL A   1      42.231  26.598  27.496  1.00  0.00     0.031 C 
ATOM     53  C   UNL A   1      48.857  25.863  25.697  1.00  0.00     0.029 A 
ATOM     54  C   UNL A   1      48.487  27.176  26.213  1.00  0.00     0.049 A 
ATOM     55  H   UNL A   1      46.607  27.797  26.865  1.00  0.00     0.167 HD
ATOM     56  C   UNL A   1      42.622  28.920  28.270  1.00  0.00     0.031 A 
ATOM     57  C   UNL A   1      49.334  28.216  26.342  1.00  0.00     0.031 A 
ATOM     58  C   UNL A   1      43.461  30.073  28.484  1.00  0.00     0.049 A 
ATOM     59  C   UNL A   1      48.813  29.510  26.890  1.00  0.00     0.074 A 
ATOM     60  C   UNL A   1      43.118  31.284  29.060  1.00  0.00     0.029 A 
ATOM     61  N   UNL A   1      44.803  30.162  28.139  1.00  0.00    -0.354 N 
ATOM     62  N   UNL A   1      47.608  29.786  27.327  1.00  0.00    -0.248 NA
ATOM     63  C   UNL A   1      49.755  30.635  26.963  1.00  0.00     0.031 C 
ATOM     64  C   UNL A   1      44.226  32.130  28.988  1.00  0.00     0.029 A 
ATOM     65  C   UNL A   1      45.289  31.422  28.449  1.00  0.00     0.049 A 
ATOM     66  H   UNL A   1      45.331  29.437  27.733  1.00  0.00     0.167 HD
ATOM     67  C   UNL A   1      47.645  31.115  27.729  1.00  0.00     0.074 A 
ATOM     68  C   UNL A   1      49.000  31.580  27.511  1.00  0.00     0.031 C 
ATOM     69  C   UNL A   1      46.640  31.879  28.222  1.00  0.00     0.031 A 
BRANCH  56  70
ATOM     70  C   UNL A   1      41.179  29.016  28.709  1.00  0.00    -0.014 A 
ATOM     71  C   UNL A   1      40.164  29.206  27.750  1.00  0.00     0.010 A 
ATOM     72  C   UNL A   1      40.836  29.050  30.072  1.00  0.00     0.010 A 
ATOM     73  C   UNL A   1      38.849  29.466  28.143  1.00  0.00     0.020 A 
ATOM     74  C   UNL A   1      39.514  29.275  30.471  1.00  0.00     0.020 A 
ATOM     75  C   UNL A   1      38.533  29.508  29.504  1.00  0.00     0.054 A 
BRANCH  75  76
ATOM     76  S   UNL A   1      36.826  29.877  29.998  1.00  0.00     0.124 S 
ATOM     77  O   UNL A   1      36.654  29.034  31.175  1.00  0.00    -0.237 OA
ATOM     78  O   UNL A   1      36.872  31.316  30.250  1.00  0.00    -0.237 OA
ATOM     79  O   UNL A   1      36.040  29.487  28.828  1.00  0.00    -0.744 OA
ENDBRANCH  75  76
ENDBRANCH  56  70
BRANCH  57  80
ATOM     80  C   UNL A   1      50.754  28.032  25.933  1.00  0.00    -0.014 A 
ATOM     81  C   UNL A   1      51.136  28.236  24.591  1.00  0.00     0.010 A 
ATOM     82  C   UNL A   1      51.696  27.515  26.837  1.00  0.00     0.010 A 
ATOM     83  C   UNL A   1      52.396  27.838  24.142  1.00  0.00     0.020 A 
ATOM     84  C   UNL A   1      52.974  27.153  26.399  1.00  0.00     0.020 A 
ATOM     85  C   UNL A   1      53.301  27.279  25.047  1.00  0.00     0.054 A 
BRANCH  85  86
ATOM     86  S   UNL A   1      54.891  26.673  24.418  1.00  0.00     0.124 S 
ATOM     87  O   UNL A   1      55.826  27.636  24.996  1.00  0.00    -0.237 OA
ATOM     88  O   UNL A   1      54.957  25.323  24.971  1.00  0.00    -0.237 OA
ATOM     89  O   UNL A   1      54.737  26.745  22.968  1.00  0.00    -0.744 OA
ENDBRANCH  85  86
ENDBRANCH  57  80
BRANCH  69  90
ATOM     90  C   UNL A   1      46.933  33.322  28.548  1.00  0.00    -0.014 A 
ATOM     91  C   UNL A   1      47.279  33.689  29.862  1.00  0.00     0.010 A 
ATOM     92  C   UNL A   1      46.699  34.328  27.594  1.00  0.00     0.010 A 
ATOM     93  C   UNL A   1      47.320  35.035  30.233  1.00  0.00     0.020 A 
ATOM     94  C   UNL A   1      46.773  35.676  27.953  1.00  0.00     0.020 A 
ATOM     95  C   UNL A   1      47.049  36.020  29.279  1.00  0.00     0.054 A 
BRANCH  95  96
ATOM     96  S   UNL A   1      47.018  37.755  29.804  1.00  0.00     0.124 S 
ATOM     97  O   UNL A   1      45.729  38.210  29.290  1.00  0.00    -0.237 OA
ATOM     98  O   UNL A   1      47.115  37.650  31.258  1.00  0.00    -0.237 OA
ATOM     99  O   UNL A   1      48.189  38.334  29.149  1.00  0.00    -0.744 OA
ENDBRANCH  95  96
ENDBRANCH  69  90
ENDBRANCH  43  44
ENDBRANCH  35  38
ENDBRANCH  33  34
ENDBRANCH  32  33
ENDBRANCH   1  32
TORSDOF 18
ENDMDL
MODEL 3
REMARK VINA RESULT:     -11.5      5.953      8.126
REMARK SMILES Cc1cc(=O)c(Oc2ccc(C(=O)NCCCCNC(=O)c3ccc(-c4c5nc(c(-c6ccc(S(=O)(=O)[O-])cc6)c6ccc([nH]6)c(-c6ccc(S(=O)(=O)[O-])cc6)c6nc(c(-c7ccc(S(=O)(=O)[O-])cc7)c7ccc4[nH]7)C=C6)C=C5)cc3)cc2)c(-c2ccc(S(C)(=O)=O)cc2)o1
REMARK SMILES IDX 16 1 15 2 14 3 12 4 13 5 11 7 8 8 9 9 83 10 10 11 82 12 7 13
REMARK SMILES IDX 6 14 1 15 2 16 3 17 95 18 4 19 84 20 5 21 85 22 86 23 94 24
REMARK SMILES IDX 87 25 93 26 88 27 89 28 90 29 91 30 92 31 17 32 18 33 19 34
REMARK SMILES IDX 20 35 21 37 22 38 23 39 81 40 24 41 80 42 25 43 26 44 27 45
REMARK SMILES IDX 74 46 28 47 79 48 73 49 75 50 29 51 78 52 72 53 71 54 30 56
REMARK SMILES IDX 60 57 41 58 59 59 42 60 45 61 58 62 76 63 43 64 44 65 57 67
REMARK SMILES IDX 77 68 46 69 31 70 32 71 40 72 33 73 39 74 34 75 35 76 36 77
REMARK SMILES IDX 37 78 38 79 61 80 62 81 70 82 63 83 69 84 64 85 65 86 66 87
REMARK SMILES IDX 67 88 68 89 47 90 48 91 56 92 49 93 55 94 50 95 51 96 52 97
REMARK SMILES IDX 53 98 54 99
REMARK H PARENT 14 6 19 36 75 55 45 66
REMARK Flexibility Score: inf
ROOT
ATOM      1  C   UNL A   1      41.098  21.746  26.956  1.00  0.00     0.023 C 
ENDROOT
BRANCH   1   2
ATOM      2  C   UNL A   1      39.881  22.088  26.105  1.00  0.00     0.116 C 
BRANCH   2   3
ATOM      3  N   UNL A   1      38.915  21.025  25.892  1.00  0.00    -0.352 N 
ATOM      4  C   UNL A   1      37.722  21.028  25.200  1.00  0.00     0.251 C 
ATOM      5  O   UNL A   1      37.129  19.969  25.008  1.00  0.00    -0.269 OA
ATOM      6  H   UNL A   1      39.150  20.165  26.309  1.00  0.00     0.163 HD
BRANCH   4   7
ATOM      7  C   UNL A   1      37.063  22.301  24.801  1.00  0.00     0.040 A 
ATOM      8  C   UNL A   1      35.179  24.209  24.094  1.00  0.00     0.127 A 
ATOM      9  C   UNL A   1      35.745  23.420  23.100  1.00  0.00     0.048 A 
ATOM     10  C   UNL A   1      35.740  24.231  25.368  1.00  0.00     0.048 A 
ATOM     11  C   UNL A   1      36.660  22.429  23.464  1.00  0.00     0.017 A 
ATOM     12  C   UNL A   1      36.721  23.303  25.709  1.00  0.00     0.017 A 
BRANCH   8  13
ATOM     13  O   UNL A   1      34.124  25.041  23.870  1.00  0.00    -0.449 OA
BRANCH  13  14
ATOM     14  C   UNL A   1      32.913  24.952  24.548  1.00  0.00     0.217 A 
ATOM     15  C   UNL A   1      29.045  25.299  26.451  1.00  0.00     0.088 C 
ATOM     16  C   UNL A   1      30.416  25.282  25.855  1.00  0.00     0.105 A 
ATOM     17  C   UNL A   1      31.152  26.387  25.718  1.00  0.00     0.098 A 
ATOM     18  O   UNL A   1      30.866  24.041  25.470  1.00  0.00    -0.457 OA
ATOM     19  C   UNL A   1      32.469  26.284  25.077  1.00  0.00     0.228 A 
ATOM     20  C   UNL A   1      32.101  23.898  24.840  1.00  0.00     0.180 A 
ATOM     21  O   UNL A   1      33.167  27.292  24.990  1.00  0.00    -0.285 OA
BRANCH  20  22
ATOM     22  C   UNL A   1      32.328  22.470  24.552  1.00  0.00     0.021 A 
ATOM     23  C   UNL A   1      32.959  21.655  25.509  1.00  0.00     0.013 A 
ATOM     24  C   UNL A   1      31.968  21.914  23.315  1.00  0.00     0.013 A 
ATOM     25  C   UNL A   1      33.148  20.290  25.271  1.00  0.00     0.021 A 
ATOM     26  C   UNL A   1      32.172  20.552  23.066  1.00  0.00     0.021 A 
ATOM     27  C   UNL A   1      32.747  19.744  24.050  1.00  0.00     0.067 A 
BRANCH  27  28
ATOM     28  S   UNL A   1      32.877  17.985  23.799  1.00  0.00     0.175 S 
ATOM     29  C   UNL A   1      34.526  17.608  24.325  1.00  0.00     0.163 C 
ATOM     30  O   UNL A   1      31.961  17.357  24.728  1.00  0.00    -0.224 OA
ATOM     31  O   UNL A   1      32.799  17.734  22.371  1.00  0.00    -0.224 OA
ENDBRANCH  27  28
ENDBRANCH  20  22
ENDBRANCH  13  14
ENDBRANCH   8  13
ENDBRANCH   4   7
ENDBRANCH   2   3
ENDBRANCH   1   2
BRANCH   1  32
ATOM     32  C   UNL A   1      41.289  20.288  27.336  1.00  0.00     0.023 C 
BRANCH  32  33
ATOM     33  C   UNL A   1      42.723  19.788  27.319  1.00  0.00     0.116 C 
BRANCH  33  34
ATOM     34  N   UNL A   1      43.146  19.236  26.036  1.00  0.00    -0.352 N 
ATOM     35  C   UNL A   1      43.874  19.816  25.020  1.00  0.00     0.251 C 
ATOM     36  H   UNL A   1      42.866  18.307  25.869  1.00  0.00     0.163 HD
ATOM     37  O   UNL A   1      44.065  19.209  23.971  1.00  0.00    -0.269 OA
BRANCH  35  38
ATOM     38  C   UNL A   1      44.371  21.198  25.182  1.00  0.00     0.039 A 
ATOM     39  C   UNL A   1      45.390  21.475  26.092  1.00  0.00     0.014 A 
ATOM     40  C   UNL A   1      43.742  22.237  24.492  1.00  0.00     0.014 A 
ATOM     41  C   UNL A   1      45.599  22.786  26.498  1.00  0.00     0.010 A 
ATOM     42  C   UNL A   1      44.048  23.562  24.812  1.00  0.00     0.010 A 
ATOM     43  C   UNL A   1      44.927  23.847  25.868  1.00  0.00    -0.014 A 
BRANCH  43  44
ATOM     44  C   UNL A   1      45.164  25.241  26.328  1.00  0.00     0.031 A 
ATOM     45  C   UNL A   1      46.527  25.875  26.213  1.00  0.00     0.074 A 
ATOM     46  C   UNL A   1      44.126  25.954  26.808  1.00  0.00     0.049 A 
ATOM     47  N   UNL A   1      46.908  27.070  26.587  1.00  0.00    -0.248 NA
ATOM     48  C   UNL A   1      47.600  25.071  25.605  1.00  0.00     0.031 C 
ATOM     49  C   UNL A   1      42.754  25.456  26.930  1.00  0.00     0.029 A 
ATOM     50  N   UNL A   1      44.051  27.248  27.256  1.00  0.00    -0.354 N 
ATOM     51  C   UNL A   1      48.260  27.157  26.271  1.00  0.00     0.074 A 
ATOM     52  C   UNL A   1      48.646  25.881  25.713  1.00  0.00     0.031 C 
ATOM     53  C   UNL A   1      41.965  26.445  27.365  1.00  0.00     0.029 A 
ATOM     54  C   UNL A   1      42.785  27.619  27.648  1.00  0.00     0.049 A 
ATOM     55  H   UNL A   1      44.826  27.853  27.295  1.00  0.00     0.167 HD
ATOM     56  C   UNL A   1      49.095  28.214  26.420  1.00  0.00     0.031 A 
ATOM     57  C   UNL A   1      42.328  28.758  28.203  1.00  0.00     0.031 A 
ATOM     58  C   UNL A   1      48.690  29.484  26.968  1.00  0.00     0.049 A 
ATOM     59  C   UNL A   1      43.288  29.886  28.436  1.00  0.00     0.074 A 
ATOM     60  C   UNL A   1      49.459  30.622  27.147  1.00  0.00     0.029 A 
ATOM     61  N   UNL A   1      47.414  29.791  27.421  1.00  0.00    -0.354 N 
ATOM     62  N   UNL A   1      44.560  29.953  28.125  1.00  0.00    -0.248 NA
ATOM     63  C   UNL A   1      42.761  31.089  29.093  1.00  0.00     0.031 C 
ATOM     64  C   UNL A   1      48.672  31.584  27.781  1.00  0.00     0.029 A 
ATOM     65  C   UNL A   1      47.387  31.084  27.919  1.00  0.00     0.049 A 
ATOM     66  H   UNL A   1      46.643  29.180  27.393  1.00  0.00     0.167 HD
ATOM     67  C   UNL A   1      44.988  31.205  28.548  1.00  0.00     0.074 A 
ATOM     68  C   UNL A   1      43.832  31.874  29.108  1.00  0.00     0.031 C 
ATOM     69  C   UNL A   1      46.231  31.741  28.484  1.00  0.00     0.031 A 
BRANCH  56  70
ATOM     70  C   UNL A   1      50.535  28.068  25.985  1.00  0.00    -0.014 A 
ATOM     71  C   UNL A   1      50.868  28.146  24.618  1.00  0.00     0.010 A 
ATOM     72  C   UNL A   1      51.539  27.723  26.907  1.00  0.00     0.010 A 
ATOM     73  C   UNL A   1      52.160  27.846  24.179  1.00  0.00     0.020 A 
ATOM     74  C   UNL A   1      52.843  27.456  26.477  1.00  0.00     0.020 A 
ATOM     75  C   UNL A   1      53.139  27.494  25.112  1.00  0.00     0.054 A 
BRANCH  75  76
ATOM     76  S   UNL A   1      54.804  27.077  24.521  1.00  0.00     0.124 S 
ATOM     77  O   UNL A   1      55.257  26.118  25.522  1.00  0.00    -0.237 OA
ATOM     78  O   UNL A   1      54.542  26.530  23.192  1.00  0.00    -0.237 OA
ATOM     79  O   UNL A   1      55.501  28.363  24.527  1.00  0.00    -0.744 OA
ENDBRANCH  75  76
ENDBRANCH  56  70
BRANCH  57  80
ATOM     80  C   UNL A   1      40.885  28.846  28.562  1.00  0.00    -0.014 A 
ATOM     81  C   UNL A   1      39.948  29.314  27.618  1.00  0.00     0.010 A 
ATOM     82  C   UNL A   1      40.461  28.604  29.879  1.00  0.00     0.010 A 
ATOM     83  C   UNL A   1      38.646  29.630  28.006  1.00  0.00     0.020 A 
ATOM     84  C   UNL A   1      39.145  28.882  30.262  1.00  0.00     0.020 A 
ATOM     85  C   UNL A   1      38.258  29.432  29.333  1.00  0.00     0.054 A 
BRANCH  85  86
ATOM     86  S   UNL A   1      36.594  29.949  29.836  1.00  0.00     0.124 S 
ATOM     87  O   UNL A   1      35.779  29.446  28.732  1.00  0.00    -0.237 OA
ATOM     88  O   UNL A   1      36.420  29.259  31.112  1.00  0.00    -0.237 OA
ATOM     89  O   UNL A   1      36.698  31.403  29.923  1.00  0.00    -0.744 OA
ENDBRANCH  85  86
ENDBRANCH  57  80
BRANCH  69  90
ATOM     90  C   UNL A   1      46.444  33.120  29.055  1.00  0.00    -0.014 A 
ATOM     91  C   UNL A   1      46.345  34.249  28.220  1.00  0.00     0.010 A 
ATOM     92  C   UNL A   1      46.910  33.279  30.372  1.00  0.00     0.010 A 
ATOM     93  C   UNL A   1      46.769  35.501  28.671  1.00  0.00     0.020 A 
ATOM     94  C   UNL A   1      47.302  34.538  30.837  1.00  0.00     0.020 A 
ATOM     95  C   UNL A   1      47.262  35.634  29.972  1.00  0.00     0.054 A 
BRANCH  95  96
ATOM     96  S   UNL A   1      47.892  37.248  30.505  1.00  0.00     0.124 S 
ATOM     97  O   UNL A   1      49.323  36.993  30.636  1.00  0.00    -0.237 OA
ATOM     98  O   UNL A   1      47.506  38.122  29.399  1.00  0.00    -0.237 OA
ATOM     99  O   UNL A   1      47.187  37.496  31.760  1.00  0.00    -0.744 OA
ENDBRANCH  95  96
ENDBRANCH  69  90
ENDBRANCH  43  44
ENDBRANCH  35  38
ENDBRANCH  33  34
ENDBRANCH  32  33
ENDBRANCH   1  32
TORSDOF 18
ENDMDL
