MODEL 1
REMARK VINA RESULT:     -11.6      0.000      0.000
REMARK SMILES Cn1ncc(C(=O)NCCCCNC(=O)c2ccc(-c3c4nc(c(-c5ccc(S(=O)(=O)[O-])cc5)c5ccc([nH]5)c(-c5ccc(S(=O)(=O)[O-])cc5)c5nc(c(-c6ccc(S(=O)(=O)[O-])cc6)c6ccc3[nH]6)C=C5)C=C4)cc2)c1C(=O)NCC1CC[NH+](Cc2ccccc2)CC1
REMARK SMILES IDX 9 1 8 2 6 3 7 4 5 6 1 7 2 8 3 9 76 10 4 11 77 12 78 13 79 14
REMARK SMILES IDX 80 16 81 17 82 18 93 19 83 20 92 21 84 22 85 24 86 25 87 26
REMARK SMILES IDX 91 27 88 28 90 29 89 30 10 31 11 32 12 33 13 34 14 35 15 37
REMARK SMILES IDX 16 38 17 39 75 40 18 41 74 42 19 43 20 44 21 45 68 46 22 47
REMARK SMILES IDX 73 48 67 49 69 50 23 51 72 52 66 53 65 54 24 56 54 57 35 58
REMARK SMILES IDX 53 59 36 60 39 61 52 62 70 63 37 64 38 65 51 67 71 68 40 69
REMARK SMILES IDX 25 70 26 71 34 72 27 73 33 74 28 75 29 76 30 77 31 78 32 79
REMARK SMILES IDX 55 80 56 81 64 82 57 83 63 84 58 85 59 86 60 87 61 88 62 89
REMARK SMILES IDX 41 90 42 91 50 92 43 93 49 94 44 95 45 96 46 97 47 98 48 99
REMARK H PARENT 8 5 79 15 84 23 13 36 69 55 39 66
REMARK Flexibility Score: inf
ROOT
ATOM      1  C   UNL A   1      33.793  25.581  24.980  1.00  0.00     0.116 C 
ENDROOT
BRANCH   1   2
ATOM      2  N   UNL A   1      34.025  25.997  23.621  1.00  0.00    -0.352 N 
ATOM      3  C   UNL A   1      33.247  26.652  22.701  1.00  0.00     0.255 C 
ATOM      4  O   UNL A   1      33.805  26.887  21.624  1.00  0.00    -0.269 OA
ATOM      5  H   UNL A   1      34.920  25.764  23.285  1.00  0.00     0.163 HD
BRANCH   3   6
ATOM      6  C   UNL A   1      31.835  26.988  22.862  1.00  0.00     0.090 A 
ATOM      7  C   UNL A   1      28.328  27.177  23.740  1.00  0.00     0.174 C 
ATOM      8  N   UNL A   1      29.690  27.278  23.281  1.00  0.00    -0.262 N 
ATOM      9  N   UNL A   1      30.089  28.487  22.864  1.00  0.00    -0.180 NA
ATOM     10  C   UNL A   1      30.681  26.318  23.293  1.00  0.00     0.138 A 
ATOM     11  C   UNL A   1      31.385  28.318  22.634  1.00  0.00     0.149 A 
BRANCH  10  12
ATOM     12  C   UNL A   1      30.529  24.974  23.796  1.00  0.00     0.270 C 
ATOM     13  O   UNL A   1      30.358  24.000  23.068  1.00  0.00    -0.268 OA
ATOM     14  N   UNL A   1      30.259  24.838  25.144  1.00  0.00    -0.350 N 
ATOM     15  H   UNL A   1      29.322  24.939  25.426  1.00  0.00     0.163 HD
BRANCH  14  16
ATOM     16  C   UNL A   1      31.237  24.559  26.180  1.00  0.00     0.120 C 
BRANCH  16  17
ATOM     17  C   UNL A   1      31.183  23.138  26.793  1.00  0.00     0.019 C 
ATOM     18  C   UNL A   1      32.476  22.688  27.495  1.00  0.00     0.067 C 
ATOM     19  C   UNL A   1      30.730  22.033  25.828  1.00  0.00     0.067 C 
ATOM     20  C   UNL A   1      33.530  22.093  26.541  1.00  0.00     0.262 C 
ATOM     21  C   UNL A   1      31.836  21.559  24.883  1.00  0.00     0.262 C 
ATOM     22  N   UNL A   1      32.957  21.067  25.671  1.00  0.00    -0.331 N 
ATOM     23  H   UNL A   1      32.581  20.385  26.331  1.00  0.00     0.348 HD
BRANCH  22  24
ATOM     24  C   UNL A   1      33.909  20.247  24.900  1.00  0.00     0.299 C 
BRANCH  24  25
ATOM     25  C   UNL A   1      33.773  18.735  24.891  1.00  0.00     0.006 A 
ATOM     26  C   UNL A   1      34.427  17.915  23.964  1.00  0.00     0.009 A 
ATOM     27  C   UNL A   1      32.842  18.127  25.720  1.00  0.00     0.009 A 
ATOM     28  C   UNL A   1      34.132  16.544  23.877  1.00  0.00     0.001 A 
ATOM     29  C   UNL A   1      32.516  16.772  25.623  1.00  0.00     0.001 A 
ATOM     30  C   UNL A   1      33.167  15.973  24.700  1.00  0.00     0.000 A 
ENDBRANCH  24  25
ENDBRANCH  22  24
ENDBRANCH  16  17
ENDBRANCH  14  16
ENDBRANCH  10  12
ENDBRANCH   3   6
ENDBRANCH   1   2
BRANCH   1  31
ATOM     31  C   UNL A   1      34.324  26.507  26.074  1.00  0.00     0.023 C 
BRANCH  31  32
ATOM     32  C   UNL A   1      33.517  27.739  26.399  1.00  0.00     0.023 C 
BRANCH  32  33
ATOM     33  C   UNL A   1      34.083  28.972  25.742  1.00  0.00     0.116 C 
BRANCH  33  34
ATOM     34  N   UNL A   1      33.869  30.157  26.577  1.00  0.00    -0.352 N 
ATOM     35  C   UNL A   1      34.548  30.561  27.705  1.00  0.00     0.251 C 
ATOM     36  H   UNL A   1      33.136  30.749  26.290  1.00  0.00     0.163 HD
ATOM     37  O   UNL A   1      34.046  31.353  28.488  1.00  0.00    -0.269 OA
BRANCH  35  38
ATOM     38  C   UNL A   1      35.895  30.006  27.931  1.00  0.00     0.039 A 
ATOM     39  C   UNL A   1      36.902  30.138  26.977  1.00  0.00     0.014 A 
ATOM     40  C   UNL A   1      36.155  29.406  29.160  1.00  0.00     0.014 A 
ATOM     41  C   UNL A   1      38.196  29.729  27.303  1.00  0.00     0.010 A 
ATOM     42  C   UNL A   1      37.459  29.199  29.548  1.00  0.00     0.010 A 
ATOM     43  C   UNL A   1      38.489  29.298  28.609  1.00  0.00    -0.014 A 
BRANCH  43  44
ATOM     44  C   UNL A   1      39.838  28.857  29.028  1.00  0.00     0.031 A 
ATOM     45  C   UNL A   1      40.724  29.831  29.765  1.00  0.00     0.074 A 
ATOM     46  C   UNL A   1      40.294  27.645  28.662  1.00  0.00     0.049 A 
ATOM     47  N   UNL A   1      41.980  29.709  30.108  1.00  0.00    -0.248 NA
ATOM     48  C   UNL A   1      40.143  31.147  30.103  1.00  0.00     0.031 C 
ATOM     49  C   UNL A   1      39.549  26.653  27.880  1.00  0.00     0.029 A 
ATOM     50  N   UNL A   1      41.501  27.042  28.895  1.00  0.00    -0.354 N 
ATOM     51  C   UNL A   1      42.336  30.935  30.657  1.00  0.00     0.074 A 
ATOM     52  C   UNL A   1      41.205  31.819  30.510  1.00  0.00     0.031 C 
ATOM     53  C   UNL A   1      40.297  25.546  27.746  1.00  0.00     0.029 A 
ATOM     54  C   UNL A   1      41.588  25.768  28.386  1.00  0.00     0.049 A 
ATOM     55  H   UNL A   1      42.236  27.478  29.384  1.00  0.00     0.167 HD
ATOM     56  C   UNL A   1      43.487  31.286  31.275  1.00  0.00     0.031 A 
ATOM     57  C   UNL A   1      42.601  24.882  28.434  1.00  0.00     0.031 A 
ATOM     58  C   UNL A   1      44.584  30.379  31.457  1.00  0.00     0.049 A 
ATOM     59  C   UNL A   1      43.862  25.274  29.155  1.00  0.00     0.074 A 
ATOM     60  C   UNL A   1      45.771  30.586  32.132  1.00  0.00     0.029 A 
ATOM     61  N   UNL A   1      44.617  29.081  30.965  1.00  0.00    -0.354 N 
ATOM     62  N   UNL A   1      44.156  26.413  29.740  1.00  0.00    -0.248 NA
ATOM     63  C   UNL A   1      44.919  24.260  29.238  1.00  0.00     0.031 C 
ATOM     64  C   UNL A   1      46.547  29.429  32.001  1.00  0.00     0.029 A 
ATOM     65  C   UNL A   1      45.814  28.480  31.303  1.00  0.00     0.049 A 
ATOM     66  H   UNL A   1      43.895  28.653  30.451  1.00  0.00     0.167 HD
ATOM     67  C   UNL A   1      45.423  26.244  30.283  1.00  0.00     0.074 A 
ATOM     68  C   UNL A   1      45.830  24.887  29.971  1.00  0.00     0.031 C 
ATOM     69  C   UNL A   1      46.185  27.126  30.976  1.00  0.00     0.031 A 
BRANCH  56  70
ATOM     70  C   UNL A   1      43.595  32.694  31.802  1.00  0.00    -0.014 A 
ATOM     71  C   UNL A   1      43.179  33.020  33.108  1.00  0.00     0.010 A 
ATOM     72  C   UNL A   1      44.114  33.710  30.981  1.00  0.00     0.010 A 
ATOM     73  C   UNL A   1      43.225  34.340  33.560  1.00  0.00     0.020 A 
ATOM     74  C   UNL A   1      44.198  35.027  31.444  1.00  0.00     0.020 A 
ATOM     75  C   UNL A   1      43.733  35.337  32.723  1.00  0.00     0.054 A 
BRANCH  75  76
ATOM     76  S   UNL A   1      43.795  37.040  33.343  1.00  0.00     0.124 S 
ATOM     77  O   UNL A   1      42.585  37.107  34.160  1.00  0.00    -0.237 OA
ATOM     78  O   UNL A   1      45.054  37.064  34.083  1.00  0.00    -0.237 OA
ATOM     79  O   UNL A   1      43.773  37.852  32.130  1.00  0.00    -0.744 OA
ENDBRANCH  75  76
ENDBRANCH  56  70
BRANCH  57  80
ATOM     80  C   UNL A   1      42.439  23.536  27.820  1.00  0.00    -0.014 A 
ATOM     81  C   UNL A   1      42.799  23.315  26.478  1.00  0.00     0.010 A 
ATOM     82  C   UNL A   1      41.964  22.454  28.584  1.00  0.00     0.010 A 
ATOM     83  C   UNL A   1      42.672  22.044  25.909  1.00  0.00     0.020 A 
ATOM     84  C   UNL A   1      41.865  21.176  28.028  1.00  0.00     0.020 A 
ATOM     85  C   UNL A   1      42.211  20.980  26.689  1.00  0.00     0.054 A 
BRANCH  85  86
ATOM     86  S   UNL A   1      42.114  19.328  25.945  1.00  0.00     0.124 S 
ATOM     87  O   UNL A   1      40.686  19.199  25.675  1.00  0.00    -0.237 OA
ATOM     88  O   UNL A   1      42.971  19.463  24.769  1.00  0.00    -0.237 OA
ATOM     89  O   UNL A   1      42.637  18.451  26.990  1.00  0.00    -0.744 OA
ENDBRANCH  85  86
ENDBRANCH  57  80
BRANCH  69  90
ATOM     90  C   UNL A   1      47.519  26.642  31.474  1.00  0.00    -0.014 A 
ATOM     91  C   UNL A   1      47.646  26.012  32.723  1.00  0.00     0.010 A 
ATOM     92  C   UNL A   1      48.648  26.758  30.642  1.00  0.00     0.010 A 
ATOM     93  C   UNL A   1      48.889  25.535  33.147  1.00  0.00     0.020 A 
ATOM     94  C   UNL A   1      49.883  26.253  31.047  1.00  0.00     0.020 A 
ATOM     95  C   UNL A   1      49.998  25.657  32.304  1.00  0.00     0.054 A 
BRANCH  95  96
ATOM     96  S   UNL A   1      51.588  24.986  32.859  1.00  0.00     0.124 S 
ATOM     97  O   UNL A   1      51.788  25.688  34.123  1.00  0.00    -0.237 OA
ATOM     98  O   UNL A   1      51.310  23.556  32.969  1.00  0.00    -0.237 OA
ATOM     99  O   UNL A   1      52.513  25.355  31.789  1.00  0.00    -0.744 OA
ENDBRANCH  95  96
ENDBRANCH  69  90
ENDBRANCH  43  44
ENDBRANCH  35  38
ENDBRANCH  33  34
ENDBRANCH  32  33
ENDBRANCH  31  32
ENDBRANCH   1  31
TORSDOF 19
ENDMDL
MODEL 2
REMARK VINA RESULT:     -11.1      3.280      4.154
REMARK SMILES Cn1ncc(C(=O)NCCCCNC(=O)c2ccc(-c3c4nc(c(-c5ccc(S(=O)(=O)[O-])cc5)c5ccc([nH]5)c(-c5ccc(S(=O)(=O)[O-])cc5)c5nc(c(-c6ccc(S(=O)(=O)[O-])cc6)c6ccc3[nH]6)C=C5)C=C4)cc2)c1C(=O)NCC1CC[NH+](Cc2ccccc2)CC1
REMARK SMILES IDX 9 1 8 2 6 3 7 4 5 6 1 7 2 8 3 9 76 10 4 11 77 12 78 13 79 14
REMARK SMILES IDX 80 16 81 17 82 18 93 19 83 20 92 21 84 22 85 24 86 25 87 26
REMARK SMILES IDX 91 27 88 28 90 29 89 30 10 31 11 32 12 33 13 34 14 35 15 37
REMARK SMILES IDX 16 38 17 39 75 40 18 41 74 42 19 43 20 44 21 45 68 46 22 47
REMARK SMILES IDX 73 48 67 49 69 50 23 51 72 52 66 53 65 54 24 56 54 57 35 58
REMARK SMILES IDX 53 59 36 60 39 61 52 62 70 63 37 64 38 65 51 67 71 68 40 69
REMARK SMILES IDX 25 70 26 71 34 72 27 73 33 74 28 75 29 76 30 77 31 78 32 79
REMARK SMILES IDX 55 80 56 81 64 82 57 83 63 84 58 85 59 86 60 87 61 88 62 89
REMARK SMILES IDX 41 90 42 91 50 92 43 93 49 94 44 95 45 96 46 97 47 98 48 99
REMARK H PARENT 8 5 79 15 84 23 13 36 69 55 39 66
REMARK Flexibility Score: inf
ROOT
ATOM      1  C   UNL A   1      33.714  30.391  27.116  1.00  0.00     0.116 C 
ENDROOT
BRANCH   1   2
ATOM      2  N   UNL A   1      33.669  30.096  25.707  1.00  0.00    -0.352 N 
ATOM      3  C   UNL A   1      32.957  29.186  24.968  1.00  0.00     0.255 C 
ATOM      4  O   UNL A   1      33.144  29.251  23.748  1.00  0.00    -0.269 OA
ATOM      5  H   UNL A   1      34.268  30.660  25.168  1.00  0.00     0.163 HD
BRANCH   3   6
ATOM      6  C   UNL A   1      32.109  28.126  25.506  1.00  0.00     0.090 A 
ATOM      7  C   UNL A   1      30.285  25.081  26.215  1.00  0.00     0.174 C 
ATOM      8  N   UNL A   1      30.924  26.367  26.109  1.00  0.00    -0.262 N 
ATOM      9  N   UNL A   1      31.011  27.083  27.238  1.00  0.00    -0.180 NA
ATOM     10  C   UNL A   1      31.548  26.937  25.018  1.00  0.00     0.138 A 
ATOM     11  C   UNL A   1      31.743  28.130  26.880  1.00  0.00     0.149 A 
BRANCH  10  12
ATOM     12  C   UNL A   1      31.685  26.317  23.723  1.00  0.00     0.270 C 
ATOM     13  O   UNL A   1      30.992  26.622  22.755  1.00  0.00    -0.268 OA
ATOM     14  N   UNL A   1      32.402  25.138  23.666  1.00  0.00    -0.350 N 
ATOM     15  H   UNL A   1      31.923  24.310  23.897  1.00  0.00     0.163 HD
BRANCH  14  16
ATOM     16  C   UNL A   1      33.800  25.013  23.297  1.00  0.00     0.120 C 
BRANCH  16  17
ATOM     17  C   UNL A   1      34.232  23.631  22.750  1.00  0.00     0.019 C 
ATOM     18  C   UNL A   1      33.084  22.766  22.201  1.00  0.00     0.067 C 
ATOM     19  C   UNL A   1      35.073  22.785  23.718  1.00  0.00     0.067 C 
ATOM     20  C   UNL A   1      32.338  21.959  23.282  1.00  0.00     0.262 C 
ATOM     21  C   UNL A   1      34.242  22.078  24.789  1.00  0.00     0.262 C 
ATOM     22  N   UNL A   1      33.263  21.217  24.140  1.00  0.00    -0.331 N 
ATOM     23  H   UNL A   1      33.773  20.629  23.479  1.00  0.00     0.348 HD
BRANCH  22  24
ATOM     24  C   UNL A   1      32.667  20.212  25.040  1.00  0.00     0.299 C 
BRANCH  24  25
ATOM     25  C   UNL A   1      33.229  18.802  25.079  1.00  0.00     0.006 A 
ATOM     26  C   UNL A   1      34.358  18.410  24.350  1.00  0.00     0.009 A 
ATOM     27  C   UNL A   1      32.521  17.801  25.728  1.00  0.00     0.009 A 
ATOM     28  C   UNL A   1      34.735  17.059  24.273  1.00  0.00     0.001 A 
ATOM     29  C   UNL A   1      32.866  16.451  25.633  1.00  0.00     0.001 A 
ATOM     30  C   UNL A   1      33.981  16.076  24.906  1.00  0.00     0.000 A 
ENDBRANCH  24  25
ENDBRANCH  22  24
ENDBRANCH  16  17
ENDBRANCH  14  16
ENDBRANCH  10  12
ENDBRANCH   3   6
ENDBRANCH   1   2
BRANCH   1  31
ATOM     31  C   UNL A   1      35.067  30.826  27.677  1.00  0.00     0.023 C 
BRANCH  31  32
ATOM     32  C   UNL A   1      35.241  32.282  28.030  1.00  0.00     0.023 C 
BRANCH  32  33
ATOM     33  C   UNL A   1      36.316  32.486  29.066  1.00  0.00     0.116 C 
BRANCH  33  34
ATOM     34  N   UNL A   1      36.011  31.746  30.293  1.00  0.00    -0.352 N 
ATOM     35  C   UNL A   1      36.663  30.664  30.842  1.00  0.00     0.251 C 
ATOM     36  H   UNL A   1      35.229  32.069  30.797  1.00  0.00     0.163 HD
ATOM     37  O   UNL A   1      36.101  29.940  31.651  1.00  0.00    -0.269 OA
BRANCH  35  38
ATOM     38  C   UNL A   1      38.052  30.413  30.421  1.00  0.00     0.039 A 
ATOM     39  C   UNL A   1      39.090  30.357  31.350  1.00  0.00     0.014 A 
ATOM     40  C   UNL A   1      38.290  30.161  29.073  1.00  0.00     0.014 A 
ATOM     41  C   UNL A   1      40.359  29.968  30.917  1.00  0.00     0.010 A 
ATOM     42  C   UNL A   1      39.480  29.583  28.693  1.00  0.00     0.010 A 
ATOM     43  C   UNL A   1      40.549  29.536  29.593  1.00  0.00    -0.014 A 
BRANCH  43  44
ATOM     44  C   UNL A   1      41.863  29.102  29.067  1.00  0.00     0.031 A 
ATOM     45  C   UNL A   1      42.974  30.118  28.960  1.00  0.00     0.074 A 
ATOM     46  C   UNL A   1      42.019  27.851  28.597  1.00  0.00     0.049 A 
ATOM     47  N   UNL A   1      44.154  29.996  28.411  1.00  0.00    -0.248 NA
ATOM     48  C   UNL A   1      42.699  31.473  29.481  1.00  0.00     0.031 C 
ATOM     49  C   UNL A   1      40.986  26.810  28.579  1.00  0.00     0.029 A 
ATOM     50  N   UNL A   1      43.111  27.242  28.038  1.00  0.00    -0.354 N 
ATOM     51  C   UNL A   1      44.731  31.259  28.487  1.00  0.00     0.074 A 
ATOM     52  C   UNL A   1      43.742  32.153  29.038  1.00  0.00     0.031 C 
ATOM     53  C   UNL A   1      41.512  25.677  28.085  1.00  0.00     0.029 A 
ATOM     54  C   UNL A   1      42.898  25.925  27.706  1.00  0.00     0.049 A 
ATOM     55  H   UNL A   1      43.968  27.703  27.889  1.00  0.00     0.167 HD
ATOM     56  C   UNL A   1      45.991  31.636  28.172  1.00  0.00     0.031 A 
ATOM     57  C   UNL A   1      43.734  25.022  27.158  1.00  0.00     0.031 A 
ATOM     58  C   UNL A   1      46.978  30.723  27.671  1.00  0.00     0.049 A 
ATOM     59  C   UNL A   1      45.142  25.448  26.845  1.00  0.00     0.074 A 
ATOM     60  C   UNL A   1      48.308  30.961  27.388  1.00  0.00     0.029 A 
ATOM     61  N   UNL A   1      46.736  29.385  27.390  1.00  0.00    -0.354 N 
ATOM     62  N   UNL A   1      45.699  26.628  26.996  1.00  0.00    -0.248 NA
ATOM     63  C   UNL A   1      46.039  24.420  26.305  1.00  0.00     0.031 C 
ATOM     64  C   UNL A   1      48.859  29.779  26.882  1.00  0.00     0.029 A 
ATOM     65  C   UNL A   1      47.888  28.788  26.916  1.00  0.00     0.049 A 
ATOM     66  H   UNL A   1      45.871  28.929  27.511  1.00  0.00     0.167 HD
ATOM     67  C   UNL A   1      47.020  26.478  26.594  1.00  0.00     0.074 A 
ATOM     68  C   UNL A   1      47.181  25.088  26.210  1.00  0.00     0.031 C 
ATOM     69  C   UNL A   1      48.012  27.402  26.543  1.00  0.00     0.031 A 
BRANCH  56  70
ATOM     70  C   UNL A   1      46.357  33.084  28.378  1.00  0.00    -0.014 A 
ATOM     71  C   UNL A   1      46.763  33.563  29.639  1.00  0.00     0.010 A 
ATOM     72  C   UNL A   1      46.293  33.982  27.299  1.00  0.00     0.010 A 
ATOM     73  C   UNL A   1      47.038  34.919  29.830  1.00  0.00     0.020 A 
ATOM     74  C   UNL A   1      46.604  35.334  27.476  1.00  0.00     0.020 A 
ATOM     75  C   UNL A   1      46.954  35.796  28.747  1.00  0.00     0.054 A 
BRANCH  75  76
ATOM     76  S   UNL A   1      47.332  37.549  29.021  1.00  0.00     0.124 S 
ATOM     77  O   UNL A   1      47.533  37.591  30.467  1.00  0.00    -0.237 OA
ATOM     78  O   UNL A   1      48.534  37.746  28.214  1.00  0.00    -0.237 OA
ATOM     79  O   UNL A   1      46.140  38.241  28.538  1.00  0.00    -0.744 OA
ENDBRANCH  75  76
ENDBRANCH  56  70
BRANCH  57  80
ATOM     80  C   UNL A   1      43.266  23.630  26.916  1.00  0.00    -0.014 A 
ATOM     81  C   UNL A   1      43.048  23.167  25.606  1.00  0.00     0.010 A 
ATOM     82  C   UNL A   1      43.077  22.743  27.992  1.00  0.00     0.010 A 
ATOM     83  C   UNL A   1      42.634  21.851  25.377  1.00  0.00     0.020 A 
ATOM     84  C   UNL A   1      42.694  21.418  27.766  1.00  0.00     0.020 A 
ATOM     85  C   UNL A   1      42.466  20.982  26.459  1.00  0.00     0.054 A 
BRANCH  85  86
ATOM     86  S   UNL A   1      41.990  19.262  26.132  1.00  0.00     0.124 S 
ATOM     87  O   UNL A   1      40.558  19.386  25.876  1.00  0.00    -0.237 OA
ATOM     88  O   UNL A   1      42.813  18.923  24.974  1.00  0.00    -0.237 OA
ATOM     89  O   UNL A   1      42.348  18.567  27.366  1.00  0.00    -0.744 OA
ENDBRANCH  85  86
ENDBRANCH  57  80
BRANCH  69  90
ATOM     90  C   UNL A   1      49.367  26.932  26.090  1.00  0.00    -0.014 A 
ATOM     91  C   UNL A   1      49.826  27.178  24.786  1.00  0.00     0.010 A 
ATOM     92  C   UNL A   1      50.219  26.296  27.012  1.00  0.00     0.010 A 
ATOM     93  C   UNL A   1      51.104  26.767  24.400  1.00  0.00     0.020 A 
ATOM     94  C   UNL A   1      51.508  25.914  26.641  1.00  0.00     0.020 A 
ATOM     95  C   UNL A   1      51.936  26.139  25.332  1.00  0.00     0.054 A 
BRANCH  95  96
ATOM     96  S   UNL A   1      53.607  25.659  24.819  1.00  0.00     0.124 S 
ATOM     97  O   UNL A   1      54.433  26.632  25.528  1.00  0.00    -0.237 OA
ATOM     98  O   UNL A   1      53.705  24.282  25.297  1.00  0.00    -0.237 OA
ATOM     99  O   UNL A   1      53.580  25.808  23.365  1.00  0.00    -0.744 OA
ENDBRANCH  95  96
ENDBRANCH  69  90
ENDBRANCH  43  44
ENDBRANCH  35  38
ENDBRANCH  33  34
ENDBRANCH  32  33
ENDBRANCH  31  32
ENDBRANCH   1  31
TORSDOF 19
ENDMDL
MODEL 3
REMARK VINA RESULT:     -10.6      3.561      8.812
REMARK SMILES Cn1ncc(C(=O)NCCCCNC(=O)c2ccc(-c3c4nc(c(-c5ccc(S(=O)(=O)[O-])cc5)c5ccc([nH]5)c(-c5ccc(S(=O)(=O)[O-])cc5)c5nc(c(-c6ccc(S(=O)(=O)[O-])cc6)c6ccc3[nH]6)C=C5)C=C4)cc2)c1C(=O)NCC1CC[NH+](Cc2ccccc2)CC1
REMARK SMILES IDX 9 1 8 2 6 3 7 4 5 6 1 7 2 8 3 9 76 10 4 11 77 12 78 13 79 14
REMARK SMILES IDX 80 16 81 17 82 18 93 19 83 20 92 21 84 22 85 24 86 25 87 26
REMARK SMILES IDX 91 27 88 28 90 29 89 30 10 31 11 32 12 33 13 34 14 35 15 37
REMARK SMILES IDX 16 38 17 39 75 40 18 41 74 42 19 43 20 44 21 45 68 46 22 47
REMARK SMILES IDX 73 48 67 49 69 50 23 51 72 52 66 53 65 54 24 56 54 57 35 58
REMARK SMILES IDX 53 59 36 60 39 61 52 62 70 63 37 64 38 65 51 67 71 68 40 69
REMARK SMILES IDX 25 70 26 71 34 72 27 73 33 74 28 75 29 76 30 77 31 78 32 79
REMARK SMILES IDX 55 80 56 81 64 82 57 83 63 84 58 85 59 86 60 87 61 88 62 89
REMARK SMILES IDX 41 90 42 91 50 92 43 93 49 94 44 95 45 96 46 97 47 98 48 99
REMARK H PARENT 8 5 79 15 84 23 13 36 69 55 39 66
REMARK Flexibility Score: inf
ROOT
ATOM      1  C   UNL A   1      34.145  29.786  27.018  1.00  0.00     0.116 C 
ENDROOT
BRANCH   1   2
ATOM      2  N   UNL A   1      33.783  29.799  25.624  1.00  0.00    -0.352 N 
ATOM      3  C   UNL A   1      32.829  29.127  24.903  1.00  0.00     0.255 C 
ATOM      4  O   UNL A   1      32.776  29.432  23.706  1.00  0.00    -0.269 OA
ATOM      5  H   UNL A   1      34.329  30.412  25.081  1.00  0.00     0.163 HD
BRANCH   3   6
ATOM      6  C   UNL A   1      31.978  28.053  25.406  1.00  0.00     0.090 A 
ATOM      7  C   UNL A   1      30.153  24.988  26.021  1.00  0.00     0.174 C 
ATOM      8  N   UNL A   1      30.791  26.278  25.953  1.00  0.00    -0.262 N 
ATOM      9  N   UNL A   1      30.867  26.964  27.101  1.00  0.00    -0.180 NA
ATOM     10  C   UNL A   1      31.422  26.876  24.883  1.00  0.00     0.138 A 
ATOM     11  C   UNL A   1      31.600  28.021  26.777  1.00  0.00     0.149 A 
BRANCH  10  12
ATOM     12  C   UNL A   1      31.571  26.290  23.573  1.00  0.00     0.270 C 
ATOM     13  O   UNL A   1      30.900  26.633  22.603  1.00  0.00    -0.268 OA
ATOM     14  N   UNL A   1      32.270  25.101  23.496  1.00  0.00    -0.350 N 
ATOM     15  H   UNL A   1      31.773  24.275  23.695  1.00  0.00     0.163 HD
BRANCH  14  16
ATOM     16  C   UNL A   1      33.672  24.963  23.146  1.00  0.00     0.120 C 
BRANCH  16  17
ATOM     17  C   UNL A   1      34.105  23.567  22.634  1.00  0.00     0.019 C 
ATOM     18  C   UNL A   1      32.945  22.631  22.254  1.00  0.00     0.067 C 
ATOM     19  C   UNL A   1      35.073  22.811  23.556  1.00  0.00     0.067 C 
ATOM     20  C   UNL A   1      32.346  21.862  23.447  1.00  0.00     0.262 C 
ATOM     21  C   UNL A   1      34.383  22.138  24.743  1.00  0.00     0.262 C 
ATOM     22  N   UNL A   1      33.381  21.206  24.245  1.00  0.00    -0.331 N 
ATOM     23  H   UNL A   1      33.847  20.599  23.569  1.00  0.00     0.348 HD
BRANCH  22  24
ATOM     24  C   UNL A   1      32.921  20.234  25.255  1.00  0.00     0.299 C 
BRANCH  24  25
ATOM     25  C   UNL A   1      33.327  18.775  25.142  1.00  0.00     0.006 A 
ATOM     26  C   UNL A   1      34.523  18.359  24.547  1.00  0.00     0.009 A 
ATOM     27  C   UNL A   1      32.420  17.785  25.490  1.00  0.00     0.009 A 
ATOM     28  C   UNL A   1      34.774  16.999  24.302  1.00  0.00     0.001 A 
ATOM     29  C   UNL A   1      32.642  16.432  25.223  1.00  0.00     0.001 A 
ATOM     30  C   UNL A   1      33.827  16.034  24.630  1.00  0.00     0.000 A 
ENDBRANCH  24  25
ENDBRANCH  22  24
ENDBRANCH  16  17
ENDBRANCH  14  16
ENDBRANCH  10  12
ENDBRANCH   3   6
ENDBRANCH   1   2
BRANCH   1  31
ATOM     31  C   UNL A   1      35.370  30.610  27.410  1.00  0.00     0.023 C 
BRANCH  31  32
ATOM     32  C   UNL A   1      35.132  31.926  28.108  1.00  0.00     0.023 C 
BRANCH  32  33
ATOM     33  C   UNL A   1      36.213  32.234  29.112  1.00  0.00     0.116 C 
BRANCH  33  34
ATOM     34  N   UNL A   1      36.026  31.457  30.341  1.00  0.00    -0.352 N 
ATOM     35  C   UNL A   1      36.791  30.430  30.846  1.00  0.00     0.251 C 
ATOM     36  H   UNL A   1      35.243  31.707  30.883  1.00  0.00     0.163 HD
ATOM     37  O   UNL A   1      36.329  29.651  31.667  1.00  0.00    -0.269 OA
BRANCH  35  38
ATOM     38  C   UNL A   1      38.177  30.302  30.361  1.00  0.00     0.039 A 
ATOM     39  C   UNL A   1      39.260  30.410  31.232  1.00  0.00     0.014 A 
ATOM     40  C   UNL A   1      38.373  29.999  29.017  1.00  0.00     0.014 A 
ATOM     41  C   UNL A   1      40.540  30.132  30.749  1.00  0.00     0.010 A 
ATOM     42  C   UNL A   1      39.598  29.528  28.602  1.00  0.00     0.010 A 
ATOM     43  C   UNL A   1      40.710  29.646  29.441  1.00  0.00    -0.014 A 
BRANCH  43  44
ATOM     44  C   UNL A   1      42.034  29.323  28.866  1.00  0.00     0.031 A 
ATOM     45  C   UNL A   1      42.288  27.921  28.368  1.00  0.00     0.074 A 
ATOM     46  C   UNL A   1      43.019  30.240  28.889  1.00  0.00     0.049 A 
ATOM     47  N   UNL A   1      43.404  27.382  27.952  1.00  0.00    -0.248 NA
ATOM     48  C   UNL A   1      41.152  26.978  28.405  1.00  0.00     0.031 C 
ATOM     49  C   UNL A   1      42.905  31.603  29.420  1.00  0.00     0.029 A 
ATOM     50  N   UNL A   1      44.316  30.162  28.457  1.00  0.00    -0.354 N 
ATOM     51  C   UNL A   1      43.107  26.044  27.723  1.00  0.00     0.074 A 
ATOM     52  C   UNL A   1      41.743  25.827  28.139  1.00  0.00     0.031 C 
ATOM     53  C   UNL A   1      44.069  32.246  29.233  1.00  0.00     0.029 A 
ATOM     54  C   UNL A   1      45.022  31.331  28.618  1.00  0.00     0.049 A 
ATOM     55  H   UNL A   1      44.706  29.346  28.067  1.00  0.00     0.167 HD
ATOM     56  C   UNL A   1      43.883  25.085  27.168  1.00  0.00     0.031 A 
ATOM     57  C   UNL A   1      46.298  31.624  28.300  1.00  0.00     0.031 A 
ATOM     58  C   UNL A   1      45.222  25.331  26.713  1.00  0.00     0.049 A 
ATOM     59  C   UNL A   1      47.138  30.558  27.653  1.00  0.00     0.074 A 
ATOM     60  C   UNL A   1      46.084  24.468  26.064  1.00  0.00     0.029 A 
ATOM     61  N   UNL A   1      45.887  26.542  26.853  1.00  0.00    -0.354 N 
ATOM     62  N   UNL A   1      46.818  29.316  27.369  1.00  0.00    -0.248 NA
ATOM     63  C   UNL A   1      48.503  30.935  27.267  1.00  0.00     0.031 C 
ATOM     64  C   UNL A   1      47.293  25.141  25.860  1.00  0.00     0.029 A 
ATOM     65  C   UNL A   1      47.159  26.444  26.321  1.00  0.00     0.049 A 
ATOM     66  H   UNL A   1      45.509  27.349  27.269  1.00  0.00     0.167 HD
ATOM     67  C   UNL A   1      47.934  28.770  26.747  1.00  0.00     0.074 A 
ATOM     68  C   UNL A   1      48.929  29.823  26.682  1.00  0.00     0.031 C 
ATOM     69  C   UNL A   1      48.123  27.513  26.273  1.00  0.00     0.031 A 
BRANCH  56  70
ATOM     70  C   UNL A   1      43.290  23.708  27.017  1.00  0.00    -0.014 A 
ATOM     71  C   UNL A   1      43.381  22.756  28.051  1.00  0.00     0.010 A 
ATOM     72  C   UNL A   1      42.636  23.355  25.825  1.00  0.00     0.010 A 
ATOM     73  C   UNL A   1      42.884  21.463  27.874  1.00  0.00     0.020 A 
ATOM     74  C   UNL A   1      42.101  22.074  25.657  1.00  0.00     0.020 A 
ATOM     75  C   UNL A   1      42.248  21.129  26.676  1.00  0.00     0.054 A 
BRANCH  75  76
ATOM     76  S   UNL A   1      41.598  19.448  26.478  1.00  0.00     0.124 S 
ATOM     77  O   UNL A   1      40.235  19.704  26.018  1.00  0.00    -0.237 OA
ATOM     78  O   UNL A   1      42.499  18.873  25.482  1.00  0.00    -0.237 OA
ATOM     79  O   UNL A   1      41.706  18.874  27.816  1.00  0.00    -0.744 OA
ENDBRANCH  75  76
ENDBRANCH  56  70
BRANCH  57  80
ATOM     80  C   UNL A   1      46.829  32.991  28.554  1.00  0.00    -0.014 A 
ATOM     81  C   UNL A   1      46.620  34.024  27.622  1.00  0.00     0.010 A 
ATOM     82  C   UNL A   1      47.510  33.283  29.750  1.00  0.00     0.010 A 
ATOM     83  C   UNL A   1      47.095  35.314  27.873  1.00  0.00     0.020 A 
ATOM     84  C   UNL A   1      47.960  34.578  30.019  1.00  0.00     0.020 A 
ATOM     85  C   UNL A   1      47.758  35.585  29.073  1.00  0.00     0.054 A 
BRANCH  85  86
ATOM     86  S   UNL A   1      48.310  37.282  29.402  1.00  0.00     0.124 S 
ATOM     87  O   UNL A   1      49.661  37.069  29.913  1.00  0.00    -0.237 OA
ATOM     88  O   UNL A   1      48.222  37.903  28.083  1.00  0.00    -0.237 OA
ATOM     89  O   UNL A   1      47.341  37.773  30.380  1.00  0.00    -0.744 OA
ENDBRANCH  85  86
ENDBRANCH  57  80
BRANCH  69  90
ATOM     90  C   UNL A   1      49.441  27.219  25.611  1.00  0.00    -0.014 A 
ATOM     91  C   UNL A   1      49.695  27.608  24.286  1.00  0.00     0.010 A 
ATOM     92  C   UNL A   1      50.464  26.605  26.358  1.00  0.00     0.010 A 
ATOM     93  C   UNL A   1      50.941  27.359  23.706  1.00  0.00     0.020 A 
ATOM     94  C   UNL A   1      51.721  26.385  25.793  1.00  0.00     0.020 A 
ATOM     95  C   UNL A   1      51.946  26.750  24.465  1.00  0.00     0.054 A 
BRANCH  95  96
ATOM     96  S   UNL A   1      53.569  26.482  23.704  1.00  0.00     0.124 S 
ATOM     97  O   UNL A   1      54.179  25.523  24.620  1.00  0.00    -0.237 OA
ATOM     98  O   UNL A   1      53.220  25.959  22.385  1.00  0.00    -0.237 OA
ATOM     99  O   UNL A   1      54.174  27.812  23.700  1.00  0.00    -0.744 OA
ENDBRANCH  95  96
ENDBRANCH  69  90
ENDBRANCH  43  44
ENDBRANCH  35  38
ENDBRANCH  33  34
ENDBRANCH  32  33
ENDBRANCH  31  32
ENDBRANCH   1  31
TORSDOF 19
ENDMDL
