MODEL 1
REMARK VINA RESULT:     -12.8      0.000      0.000
REMARK SMILES O=C(Cn1c2ccccc2c(=O)c2ccccc21)N[C@@H](Cc1ccccc1)C(=O)NCCCCNC(=O)c1ccc(-c2c3nc(c(-c4ccc(S(=O)(=O)[O-])cc4)c4ccc([nH]4)c(-c4ccc(S(=O)(=O)[O-])cc4)c4nc(c(-c5ccc(S(=O)(=O)[O-])cc5)c5ccc2[nH]5)C=C4)C=C3)cc1
REMARK SMILES IDX 32 1 31 2 30 3 28 4 29 5 20 7 19 8 1 9 2 10 3 12 4 13 5 14
REMARK SMILES IDX 18 15 6 16 10 17 13 18 17 19 7 20 9 21 11 22 14 23 16 24
REMARK SMILES IDX 8 25 12 26 15 27 21 28 22 29 23 30 27 31 24 32 26 33 25 34
REMARK SMILES IDX 33 35 34 36 35 37 36 38 37 40 38 41 39 42 97 43 40 44 96 45
REMARK SMILES IDX 41 46 42 47 43 48 90 49 44 50 95 51 89 52 91 53 45 54 94 55
REMARK SMILES IDX 88 56 87 57 46 59 76 60 57 61 75 62 58 63 61 64 74 65 92 66
REMARK SMILES IDX 59 67 60 68 73 70 93 71 62 72 47 73 48 74 56 75 49 76 55 77
REMARK SMILES IDX 50 78 51 79 52 80 53 81 54 82 77 83 78 84 86 85 79 86 85 87
REMARK SMILES IDX 80 88 81 89 82 90 83 91 84 92 63 93 64 94 72 95 65 96 71 97
REMARK SMILES IDX 66 98 67 99 68 100 69 101 70 102
REMARK H PARENT 30 6 19 11 35 39 91 58 61 69
REMARK Flexibility Score: inf
ROOT
ATOM      1  C   UNL A   1      33.680  28.525  24.713  1.00  0.00     0.023 C 
ENDROOT
BRANCH   1   2
ATOM      2  C   UNL A   1      33.581  27.016  24.809  1.00  0.00     0.116 C 
BRANCH   2   3
ATOM      3  N   UNL A   1      33.393  26.335  23.547  1.00  0.00    -0.354 N 
ATOM      4  C   UNL A   1      32.264  25.752  23.043  1.00  0.00     0.242 C 
ATOM      5  O   UNL A   1      32.184  25.648  21.814  1.00  0.00    -0.273 OA
ATOM      6  H   UNL A   1      34.189  26.283  22.971  1.00  0.00     0.163 HD
BRANCH   4   7
ATOM      7  C   UNL A   1      31.082  25.318  23.941  1.00  0.00     0.175 C 
BRANCH   7   8
ATOM      8  N   UNL A   1      31.418  24.167  24.800  1.00  0.00    -0.342 N 
ATOM      9  O   UNL A   1      31.381  22.653  23.084  1.00  0.00    -0.273 OA
ATOM     10  C   UNL A   1      31.665  22.925  24.251  1.00  0.00     0.240 C 
ATOM     11  H   UNL A   1      31.465  24.285  25.776  1.00  0.00     0.164 HD
BRANCH  10  12
ATOM     12  C   UNL A   1      32.249  21.860  25.176  1.00  0.00     0.222 C 
BRANCH  12  13
ATOM     13  N   UNL A   1      33.588  21.273  24.884  1.00  0.00    -0.331 N 
ATOM     14  C   UNL A   1      34.811  21.973  24.920  1.00  0.00     0.053 A 
ATOM     15  C   UNL A   1      33.551  19.894  24.497  1.00  0.00     0.053 A 
ATOM     16  C   UNL A   1      34.942  23.366  24.861  1.00  0.00     0.027 A 
ATOM     17  C   UNL A   1      36.025  21.251  24.986  1.00  0.00     0.046 A 
ATOM     18  C   UNL A   1      34.739  19.140  24.479  1.00  0.00     0.046 A 
ATOM     19  C   UNL A   1      32.385  19.230  24.072  1.00  0.00     0.027 A 
ATOM     20  C   UNL A   1      36.187  24.003  24.996  1.00  0.00     0.002 A 
ATOM     21  C   UNL A   1      37.276  21.877  25.114  1.00  0.00     0.014 A 
ATOM     22  C   UNL A   1      35.991  19.779  24.913  1.00  0.00     0.197 A 
ATOM     23  C   UNL A   1      34.773  17.803  24.055  1.00  0.00     0.014 A 
ATOM     24  C   UNL A   1      32.412  17.895  23.641  1.00  0.00     0.002 A 
ATOM     25  C   UNL A   1      37.352  23.260  25.143  1.00  0.00     0.001 A 
ATOM     26  O   UNL A   1      36.976  19.103  25.185  1.00  0.00    -0.288 OA
ATOM     27  C   UNL A   1      33.605  17.183  23.628  1.00  0.00     0.001 A 
ENDBRANCH  12  13
ENDBRANCH  10  12
ENDBRANCH   7   8
BRANCH   7  28
ATOM     28  C   UNL A   1      30.327  26.476  24.632  1.00  0.00     0.070 C 
BRANCH  28  29
ATOM     29  C   UNL A   1      29.593  27.462  23.758  1.00  0.00    -0.045 A 
ATOM     30  C   UNL A   1      30.302  28.465  23.076  1.00  0.00     0.004 A 
ATOM     31  C   UNL A   1      28.195  27.433  23.658  1.00  0.00     0.004 A 
ATOM     32  C   UNL A   1      29.622  29.452  22.359  1.00  0.00     0.000 A 
ATOM     33  C   UNL A   1      27.517  28.431  22.951  1.00  0.00     0.000 A 
ATOM     34  C   UNL A   1      28.230  29.446  22.313  1.00  0.00     0.000 A 
ENDBRANCH  28  29
ENDBRANCH   7  28
ENDBRANCH   4   7
ENDBRANCH   2   3
ENDBRANCH   1   2
BRANCH   1  35
ATOM     35  C   UNL A   1      32.736  29.288  25.628  1.00  0.00     0.023 C 
BRANCH  35  36
ATOM     36  C   UNL A   1      33.157  29.343  27.091  1.00  0.00     0.116 C 
BRANCH  36  37
ATOM     37  N   UNL A   1      33.376  30.691  27.609  1.00  0.00    -0.352 N 
ATOM     38  C   UNL A   1      34.524  31.207  28.176  1.00  0.00     0.251 C 
ATOM     39  H   UNL A   1      32.611  31.308  27.543  1.00  0.00     0.163 HD
ATOM     40  O   UNL A   1      34.572  32.354  28.589  1.00  0.00    -0.269 OA
BRANCH  38  41
ATOM     41  C   UNL A   1      35.678  30.296  28.311  1.00  0.00     0.039 A 
ATOM     42  C   UNL A   1      35.897  29.652  29.530  1.00  0.00     0.014 A 
ATOM     43  C   UNL A   1      36.637  30.271  27.297  1.00  0.00     0.014 A 
ATOM     44  C   UNL A   1      37.167  29.168  29.811  1.00  0.00     0.010 A 
ATOM     45  C   UNL A   1      37.885  29.701  27.558  1.00  0.00     0.010 A 
ATOM     46  C   UNL A   1      38.183  29.217  28.841  1.00  0.00    -0.014 A 
BRANCH  46  47
ATOM     47  C   UNL A   1      39.567  28.821  29.215  1.00  0.00     0.031 A 
ATOM     48  C   UNL A   1      40.406  29.706  30.103  1.00  0.00     0.074 A 
ATOM     49  C   UNL A   1      40.036  27.621  28.823  1.00  0.00     0.049 A 
ATOM     50  N   UNL A   1      41.634  29.520  30.518  1.00  0.00    -0.248 NA
ATOM     51  C   UNL A   1      39.796  30.954  30.593  1.00  0.00     0.031 C 
ATOM     52  C   UNL A   1      39.300  26.660  27.998  1.00  0.00     0.029 A 
ATOM     53  N   UNL A   1      41.224  26.991  29.091  1.00  0.00    -0.354 N 
ATOM     54  C   UNL A   1      41.948  30.630  31.296  1.00  0.00     0.074 A 
ATOM     55  C   UNL A   1      40.792  31.497  31.282  1.00  0.00     0.031 C 
ATOM     56  C   UNL A   1      40.027  25.541  27.878  1.00  0.00     0.029 A 
ATOM     57  C   UNL A   1      41.309  25.730  28.550  1.00  0.00     0.049 A 
ATOM     58  H   UNL A   1      41.947  27.402  29.618  1.00  0.00     0.167 HD
ATOM     59  C   UNL A   1      43.093  30.894  31.967  1.00  0.00     0.031 A 
ATOM     60  C   UNL A   1      42.310  24.829  28.570  1.00  0.00     0.031 A 
ATOM     61  C   UNL A   1      44.233  30.016  31.998  1.00  0.00     0.049 A 
ATOM     62  C   UNL A   1      43.584  25.162  29.284  1.00  0.00     0.074 A 
ATOM     63  C   UNL A   1      45.443  30.207  32.642  1.00  0.00     0.029 A 
ATOM     64  N   UNL A   1      44.301  28.778  31.378  1.00  0.00    -0.354 N 
ATOM     65  N   UNL A   1      43.880  26.242  29.969  1.00  0.00    -0.248 NA
ATOM     66  C   UNL A   1      44.664  24.168  29.224  1.00  0.00     0.031 C 
ATOM     67  C   UNL A   1      46.259  29.106  32.376  1.00  0.00     0.029 A 
ATOM     68  C   UNL A   1      45.538  28.202  31.611  1.00  0.00     0.049 A 
ATOM     69  H   UNL A   1      43.578  28.369  30.850  1.00  0.00     0.167 HD
ATOM     70  C   UNL A   1      45.184  26.063  30.410  1.00  0.00     0.074 A 
ATOM     71  C   UNL A   1      45.611  24.759  29.944  1.00  0.00     0.031 C 
ATOM     72  C   UNL A   1      45.958  26.911  31.129  1.00  0.00     0.031 A 
BRANCH  59  73
ATOM     73  C   UNL A   1      43.196  32.185  32.736  1.00  0.00    -0.014 A 
ATOM     74  C   UNL A   1      42.767  32.235  34.076  1.00  0.00     0.010 A 
ATOM     75  C   UNL A   1      43.583  33.376  32.095  1.00  0.00     0.010 A 
ATOM     76  C   UNL A   1      42.688  33.456  34.751  1.00  0.00     0.020 A 
ATOM     77  C   UNL A   1      43.525  34.597  32.775  1.00  0.00     0.020 A 
ATOM     78  C   UNL A   1      43.053  34.632  34.091  1.00  0.00     0.054 A 
BRANCH  78  79
ATOM     79  S   UNL A   1      42.903  36.214  34.968  1.00  0.00     0.124 S 
ATOM     80  O   UNL A   1      43.988  36.129  35.942  1.00  0.00    -0.237 OA
ATOM     81  O   UNL A   1      43.089  37.193  33.900  1.00  0.00    -0.237 OA
ATOM     82  O   UNL A   1      41.554  36.165  35.529  1.00  0.00    -0.744 OA
ENDBRANCH  78  79
ENDBRANCH  59  73
BRANCH  60  83
ATOM     83  C   UNL A   1      42.120  23.535  27.862  1.00  0.00    -0.014 A 
ATOM     84  C   UNL A   1      41.427  22.484  28.493  1.00  0.00     0.010 A 
ATOM     85  C   UNL A   1      42.721  23.309  26.614  1.00  0.00     0.010 A 
ATOM     86  C   UNL A   1      41.394  21.213  27.919  1.00  0.00     0.020 A 
ATOM     87  C   UNL A   1      42.666  22.043  26.022  1.00  0.00     0.020 A 
ATOM     88  C   UNL A   1      42.031  20.995  26.695  1.00  0.00     0.054 A 
BRANCH  88  89
ATOM     89  S   UNL A   1      42.033  19.324  25.993  1.00  0.00     0.124 S 
ATOM     90  O   UNL A   1      40.613  19.113  25.722  1.00  0.00    -0.237 OA
ATOM     91  O   UNL A   1      42.883  19.467  24.814  1.00  0.00    -0.237 OA
ATOM     92  O   UNL A   1      42.594  18.507  27.066  1.00  0.00    -0.744 OA
ENDBRANCH  88  89
ENDBRANCH  60  83
BRANCH  72  93
ATOM     93  C   UNL A   1      47.363  26.484  31.450  1.00  0.00    -0.014 A 
ATOM     94  C   UNL A   1      48.221  26.064  30.417  1.00  0.00     0.010 A 
ATOM     95  C   UNL A   1      47.786  26.376  32.786  1.00  0.00     0.010 A 
ATOM     96  C   UNL A   1      49.468  25.513  30.717  1.00  0.00     0.020 A 
ATOM     97  C   UNL A   1      49.043  25.845  33.088  1.00  0.00     0.020 A 
ATOM     98  C   UNL A   1      49.866  25.395  32.051  1.00  0.00     0.054 A 
BRANCH  98  99
ATOM     99  S   UNL A   1      51.477  24.649  32.425  1.00  0.00     0.124 S 
ATOM    100  O   UNL A   1      51.329  23.306  31.871  1.00  0.00    -0.237 OA
ATOM    101  O   UNL A   1      52.410  25.523  31.719  1.00  0.00    -0.237 OA
ATOM    102  O   UNL A   1      51.554  24.719  33.883  1.00  0.00    -0.744 OA
ENDBRANCH  98  99
ENDBRANCH  72  93
ENDBRANCH  46  47
ENDBRANCH  38  41
ENDBRANCH  36  37
ENDBRANCH  35  36
ENDBRANCH   1  35
TORSDOF 19
ENDMDL
MODEL 2
REMARK VINA RESULT:     -12.2      0.498      1.996
REMARK SMILES O=C(Cn1c2ccccc2c(=O)c2ccccc21)N[C@@H](Cc1ccccc1)C(=O)NCCCCNC(=O)c1ccc(-c2c3nc(c(-c4ccc(S(=O)(=O)[O-])cc4)c4ccc([nH]4)c(-c4ccc(S(=O)(=O)[O-])cc4)c4nc(c(-c5ccc(S(=O)(=O)[O-])cc5)c5ccc2[nH]5)C=C4)C=C3)cc1
REMARK SMILES IDX 32 1 31 2 30 3 28 4 29 5 20 7 19 8 1 9 2 10 3 12 4 13 5 14
REMARK SMILES IDX 18 15 6 16 10 17 13 18 17 19 7 20 9 21 11 22 14 23 16 24
REMARK SMILES IDX 8 25 12 26 15 27 21 28 22 29 23 30 27 31 24 32 26 33 25 34
REMARK SMILES IDX 33 35 34 36 35 37 36 38 37 40 38 41 39 42 97 43 40 44 96 45
REMARK SMILES IDX 41 46 42 47 43 48 90 49 44 50 95 51 89 52 91 53 45 54 94 55
REMARK SMILES IDX 88 56 87 57 46 59 76 60 57 61 75 62 58 63 61 64 74 65 92 66
REMARK SMILES IDX 59 67 60 68 73 70 93 71 62 72 47 73 48 74 56 75 49 76 55 77
REMARK SMILES IDX 50 78 51 79 52 80 53 81 54 82 77 83 78 84 86 85 79 86 85 87
REMARK SMILES IDX 80 88 81 89 82 90 83 91 84 92 63 93 64 94 72 95 65 96 71 97
REMARK SMILES IDX 66 98 67 99 68 100 69 101 70 102
REMARK H PARENT 30 6 19 11 35 39 91 58 61 69
REMARK Flexibility Score: inf
ROOT
ATOM      1  C   UNL A   1      33.548  28.604  24.743  1.00  0.00     0.023 C 
ENDROOT
BRANCH   1   2
ATOM      2  C   UNL A   1      33.333  27.114  24.918  1.00  0.00     0.116 C 
BRANCH   2   3
ATOM      3  N   UNL A   1      33.323  26.350  23.690  1.00  0.00    -0.354 N 
ATOM      4  C   UNL A   1      32.266  25.785  23.035  1.00  0.00     0.242 C 
ATOM      5  O   UNL A   1      32.390  25.594  21.821  1.00  0.00    -0.273 OA
ATOM      6  H   UNL A   1      34.202  26.220  23.266  1.00  0.00     0.163 HD
BRANCH   4   7
ATOM      7  C   UNL A   1      30.924  25.473  23.740  1.00  0.00     0.175 C 
BRANCH   7   8
ATOM      8  N   UNL A   1      30.996  24.268  24.586  1.00  0.00    -0.342 N 
ATOM      9  O   UNL A   1      31.951  22.971  22.959  1.00  0.00    -0.273 OA
ATOM     10  C   UNL A   1      31.637  23.130  24.140  1.00  0.00     0.240 C 
ATOM     11  H   UNL A   1      30.582  24.274  25.479  1.00  0.00     0.164 HD
BRANCH  10  12
ATOM     12  C   UNL A   1      31.887  22.026  25.164  1.00  0.00     0.222 C 
BRANCH  12  13
ATOM     13  N   UNL A   1      33.218  21.358  25.230  1.00  0.00    -0.331 N 
ATOM     14  C   UNL A   1      33.441  19.971  25.116  1.00  0.00     0.053 A 
ATOM     15  C   UNL A   1      34.310  22.251  25.477  1.00  0.00     0.053 A 
ATOM     16  C   UNL A   1      32.465  18.982  25.299  1.00  0.00     0.027 A 
ATOM     17  C   UNL A   1      34.741  19.495  24.830  1.00  0.00     0.046 A 
ATOM     18  C   UNL A   1      35.632  21.814  25.275  1.00  0.00     0.046 A 
ATOM     19  C   UNL A   1      34.156  23.560  25.972  1.00  0.00     0.027 A 
ATOM     20  C   UNL A   1      32.734  17.621  25.078  1.00  0.00     0.002 A 
ATOM     21  C   UNL A   1      35.023  18.136  24.614  1.00  0.00     0.014 A 
ATOM     22  C   UNL A   1      35.858  20.455  24.757  1.00  0.00     0.197 A 
ATOM     23  C   UNL A   1      36.743  22.624  25.554  1.00  0.00     0.014 A 
ATOM     24  C   UNL A   1      35.262  24.375  26.259  1.00  0.00     0.002 A 
ATOM     25  C   UNL A   1      34.007  17.199  24.716  1.00  0.00     0.001 A 
ATOM     26  O   UNL A   1      36.948  20.133  24.301  1.00  0.00    -0.288 OA
ATOM     27  C   UNL A   1      36.554  23.906  26.055  1.00  0.00     0.001 A 
ENDBRANCH  12  13
ENDBRANCH  10  12
ENDBRANCH   7   8
BRANCH   7  28
ATOM     28  C   UNL A   1      30.217  26.696  24.367  1.00  0.00     0.070 C 
BRANCH  28  29
ATOM     29  C   UNL A   1      29.691  27.762  23.440  1.00  0.00    -0.045 A 
ATOM     30  C   UNL A   1      30.582  28.579  22.724  1.00  0.00     0.004 A 
ATOM     31  C   UNL A   1      28.313  27.995  23.320  1.00  0.00     0.004 A 
ATOM     32  C   UNL A   1      30.107  29.642  21.954  1.00  0.00     0.000 A 
ATOM     33  C   UNL A   1      27.842  29.069  22.559  1.00  0.00     0.000 A 
ATOM     34  C   UNL A   1      28.739  29.899  21.888  1.00  0.00     0.000 A 
ENDBRANCH  28  29
ENDBRANCH   7  28
ENDBRANCH   4   7
ENDBRANCH   2   3
ENDBRANCH   1   2
BRANCH   1  35
ATOM     35  C   UNL A   1      32.746  29.482  25.691  1.00  0.00     0.023 C 
BRANCH  35  36
ATOM     36  C   UNL A   1      33.216  29.470  27.139  1.00  0.00     0.116 C 
BRANCH  36  37
ATOM     37  N   UNL A   1      33.424  30.793  27.721  1.00  0.00    -0.352 N 
ATOM     38  C   UNL A   1      34.565  31.289  28.320  1.00  0.00     0.251 C 
ATOM     39  H   UNL A   1      32.655  31.407  27.680  1.00  0.00     0.163 HD
ATOM     40  O   UNL A   1      34.603  32.415  28.786  1.00  0.00    -0.269 OA
BRANCH  38  41
ATOM     41  C   UNL A   1      35.724  30.380  28.418  1.00  0.00     0.039 A 
ATOM     42  C   UNL A   1      35.925  29.660  29.598  1.00  0.00     0.014 A 
ATOM     43  C   UNL A   1      36.703  30.427  27.424  1.00  0.00     0.014 A 
ATOM     44  C   UNL A   1      37.193  29.169  29.873  1.00  0.00     0.010 A 
ATOM     45  C   UNL A   1      37.950  29.850  27.673  1.00  0.00     0.010 A 
ATOM     46  C   UNL A   1      38.228  29.287  28.928  1.00  0.00    -0.014 A 
BRANCH  46  47
ATOM     47  C   UNL A   1      39.607  28.878  29.303  1.00  0.00     0.031 A 
ATOM     48  C   UNL A   1      40.453  29.754  30.194  1.00  0.00     0.074 A 
ATOM     49  C   UNL A   1      40.066  27.675  28.910  1.00  0.00     0.049 A 
ATOM     50  N   UNL A   1      41.679  29.557  30.610  1.00  0.00    -0.248 NA
ATOM     51  C   UNL A   1      39.853  31.007  30.684  1.00  0.00     0.031 C 
ATOM     52  C   UNL A   1      39.323  26.722  28.083  1.00  0.00     0.029 A 
ATOM     53  N   UNL A   1      41.248  27.034  29.179  1.00  0.00    -0.354 N 
ATOM     54  C   UNL A   1      42.002  30.663  31.390  1.00  0.00     0.074 A 
ATOM     55  C   UNL A   1      40.854  31.541  31.376  1.00  0.00     0.031 C 
ATOM     56  C   UNL A   1      40.040  25.596  27.962  1.00  0.00     0.029 A 
ATOM     57  C   UNL A   1      41.323  25.773  28.636  1.00  0.00     0.049 A 
ATOM     58  H   UNL A   1      41.974  27.437  29.708  1.00  0.00     0.167 HD
ATOM     59  C   UNL A   1      43.148  30.916  32.064  1.00  0.00     0.031 A 
ATOM     60  C   UNL A   1      42.315  24.863  28.656  1.00  0.00     0.031 A 
ATOM     61  C   UNL A   1      44.280  30.028  32.094  1.00  0.00     0.049 A 
ATOM     62  C   UNL A   1      43.592  25.184  29.373  1.00  0.00     0.074 A 
ATOM     63  C   UNL A   1      45.491  30.207  32.740  1.00  0.00     0.029 A 
ATOM     64  N   UNL A   1      44.338  28.790  31.472  1.00  0.00    -0.354 N 
ATOM     65  N   UNL A   1      43.896  26.260  30.059  1.00  0.00    -0.248 NA
ATOM     66  C   UNL A   1      44.663  24.181  29.312  1.00  0.00     0.031 C 
ATOM     67  C   UNL A   1      46.298  29.099  32.473  1.00  0.00     0.029 A 
ATOM     68  C   UNL A   1      45.570  28.202  31.707  1.00  0.00     0.049 A 
ATOM     69  H   UNL A   1      43.612  28.389  30.943  1.00  0.00     0.167 HD
ATOM     70  C   UNL A   1      45.198  26.068  30.502  1.00  0.00     0.074 A 
ATOM     71  C   UNL A   1      45.614  24.762  30.035  1.00  0.00     0.031 C 
ATOM     72  C   UNL A   1      45.978  26.909  31.223  1.00  0.00     0.031 A 
BRANCH  59  73
ATOM     73  C   UNL A   1      43.261  32.205  32.834  1.00  0.00    -0.014 A 
ATOM     74  C   UNL A   1      42.740  32.285  34.139  1.00  0.00     0.010 A 
ATOM     75  C   UNL A   1      43.754  33.370  32.220  1.00  0.00     0.010 A 
ATOM     76  C   UNL A   1      42.675  33.513  34.804  1.00  0.00     0.020 A 
ATOM     77  C   UNL A   1      43.710  34.597  32.891  1.00  0.00     0.020 A 
ATOM     78  C   UNL A   1      43.147  34.665  34.169  1.00  0.00     0.054 A 
BRANCH  78  79
ATOM     79  S   UNL A   1      43.016  36.257  35.029  1.00  0.00     0.124 S 
ATOM     80  O   UNL A   1      41.864  36.042  35.900  1.00  0.00    -0.237 OA
ATOM     81  O   UNL A   1      44.306  36.364  35.705  1.00  0.00    -0.237 OA
ATOM     82  O   UNL A   1      42.810  37.214  33.944  1.00  0.00    -0.744 OA
ENDBRANCH  78  79
ENDBRANCH  59  73
BRANCH  60  83
ATOM     83  C   UNL A   1      42.115  23.572  27.946  1.00  0.00    -0.014 A 
ATOM     84  C   UNL A   1      41.688  22.436  28.660  1.00  0.00     0.010 A 
ATOM     85  C   UNL A   1      42.454  23.443  26.590  1.00  0.00     0.010 A 
ATOM     86  C   UNL A   1      41.666  21.183  28.049  1.00  0.00     0.020 A 
ATOM     87  C   UNL A   1      42.406  22.191  25.966  1.00  0.00     0.020 A 
ATOM     88  C   UNL A   1      42.045  21.065  26.710  1.00  0.00     0.054 A 
BRANCH  88  89
ATOM     89  S   UNL A   1      42.072  19.420  25.948  1.00  0.00     0.124 S 
ATOM     90  O   UNL A   1      42.602  18.598  27.033  1.00  0.00    -0.237 OA
ATOM     91  O   UNL A   1      40.667  19.192  25.615  1.00  0.00    -0.237 OA
ATOM     92  O   UNL A   1      42.959  19.594  24.801  1.00  0.00    -0.744 OA
ENDBRANCH  88  89
ENDBRANCH  60  83
BRANCH  72  93
ATOM     93  C   UNL A   1      47.379  26.469  31.545  1.00  0.00    -0.014 A 
ATOM     94  C   UNL A   1      48.401  26.630  30.592  1.00  0.00     0.010 A 
ATOM     95  C   UNL A   1      47.651  25.777  32.738  1.00  0.00     0.010 A 
ATOM     96  C   UNL A   1      49.666  26.081  30.814  1.00  0.00     0.020 A 
ATOM     97  C   UNL A   1      48.922  25.245  32.973  1.00  0.00     0.020 A 
ATOM     98  C   UNL A   1      49.914  25.380  31.997  1.00  0.00     0.054 A 
BRANCH  98  99
ATOM     99  S   UNL A   1      51.552  24.646  32.256  1.00  0.00     0.124 S 
ATOM    100  O   UNL A   1      51.306  23.236  31.966  1.00  0.00    -0.237 OA
ATOM    101  O   UNL A   1      52.382  25.354  31.285  1.00  0.00    -0.237 OA
ATOM    102  O   UNL A   1      51.846  24.954  33.655  1.00  0.00    -0.744 OA
ENDBRANCH  98  99
ENDBRANCH  72  93
ENDBRANCH  46  47
ENDBRANCH  38  41
ENDBRANCH  36  37
ENDBRANCH  35  36
ENDBRANCH   1  35
TORSDOF 19
ENDMDL
MODEL 3
REMARK VINA RESULT:     -12.0      1.570      7.986
REMARK SMILES O=C(Cn1c2ccccc2c(=O)c2ccccc21)N[C@@H](Cc1ccccc1)C(=O)NCCCCNC(=O)c1ccc(-c2c3nc(c(-c4ccc(S(=O)(=O)[O-])cc4)c4ccc([nH]4)c(-c4ccc(S(=O)(=O)[O-])cc4)c4nc(c(-c5ccc(S(=O)(=O)[O-])cc5)c5ccc2[nH]5)C=C4)C=C3)cc1
REMARK SMILES IDX 32 1 31 2 30 3 28 4 29 5 20 7 19 8 1 9 2 10 3 12 4 13 5 14
REMARK SMILES IDX 18 15 6 16 10 17 13 18 17 19 7 20 9 21 11 22 14 23 16 24
REMARK SMILES IDX 8 25 12 26 15 27 21 28 22 29 23 30 27 31 24 32 26 33 25 34
REMARK SMILES IDX 33 35 34 36 35 37 36 38 37 40 38 41 39 42 97 43 40 44 96 45
REMARK SMILES IDX 41 46 42 47 43 48 90 49 44 50 95 51 89 52 91 53 45 54 94 55
REMARK SMILES IDX 88 56 87 57 46 59 76 60 57 61 75 62 58 63 61 64 74 65 92 66
REMARK SMILES IDX 59 67 60 68 73 70 93 71 62 72 47 73 48 74 56 75 49 76 55 77
REMARK SMILES IDX 50 78 51 79 52 80 53 81 54 82 77 83 78 84 86 85 79 86 85 87
REMARK SMILES IDX 80 88 81 89 82 90 83 91 84 92 63 93 64 94 72 95 65 96 71 97
REMARK SMILES IDX 66 98 67 99 68 100 69 101 70 102
REMARK H PARENT 30 6 19 11 35 39 91 58 61 69
REMARK Flexibility Score: inf
ROOT
ATOM      1  C   UNL A   1      31.618  29.572  25.294  1.00  0.00     0.023 C 
ENDROOT
BRANCH   1   2
ATOM      2  C   UNL A   1      31.307  28.392  24.395  1.00  0.00     0.116 C 
BRANCH   2   3
ATOM      3  N   UNL A   1      30.728  27.249  25.065  1.00  0.00    -0.354 N 
ATOM      4  C   UNL A   1      31.324  26.344  25.897  1.00  0.00     0.242 C 
ATOM      5  O   UNL A   1      30.597  25.754  26.704  1.00  0.00    -0.273 OA
ATOM      6  H   UNL A   1      29.768  27.103  24.898  1.00  0.00     0.163 HD
BRANCH   4   7
ATOM      7  C   UNL A   1      32.854  26.116  25.915  1.00  0.00     0.175 C 
BRANCH   7   8
ATOM      8  N   UNL A   1      33.231  24.862  26.595  1.00  0.00    -0.342 N 
ATOM      9  O   UNL A   1      31.795  23.564  25.373  1.00  0.00    -0.273 OA
ATOM     10  C   UNL A   1      32.739  23.649  26.159  1.00  0.00     0.240 C 
ATOM     11  H   UNL A   1      33.838  24.892  27.369  1.00  0.00     0.164 HD
BRANCH  10  12
ATOM     12  C   UNL A   1      33.371  22.391  26.750  1.00  0.00     0.222 C 
BRANCH  12  13
ATOM     13  N   UNL A   1      34.470  21.696  26.020  1.00  0.00    -0.331 N 
ATOM     14  C   UNL A   1      35.801  22.150  25.925  1.00  0.00     0.053 A 
ATOM     15  C   UNL A   1      34.061  20.502  25.344  1.00  0.00     0.053 A 
ATOM     16  C   UNL A   1      36.221  23.466  26.161  1.00  0.00     0.027 A 
ATOM     17  C   UNL A   1      36.818  21.251  25.532  1.00  0.00     0.046 A 
ATOM     18  C   UNL A   1      35.029  19.598  24.870  1.00  0.00     0.046 A 
ATOM     19  C   UNL A   1      32.719  20.178  25.067  1.00  0.00     0.027 A 
ATOM     20  C   UNL A   1      37.578  23.830  26.141  1.00  0.00     0.002 A 
ATOM     21  C   UNL A   1      38.177  21.605  25.500  1.00  0.00     0.014 A 
ATOM     22  C   UNL A   1      36.450  19.880  25.130  1.00  0.00     0.197 A 
ATOM     23  C   UNL A   1      34.690  18.441  24.152  1.00  0.00     0.014 A 
ATOM     24  C   UNL A   1      32.372  19.026  24.344  1.00  0.00     0.002 A 
ATOM     25  C   UNL A   1      38.558  22.896  25.830  1.00  0.00     0.001 A 
ATOM     26  O   UNL A   1      37.296  19.005  24.995  1.00  0.00    -0.288 OA
ATOM     27  C   UNL A   1      33.356  18.161  23.883  1.00  0.00     0.001 A 
ENDBRANCH  12  13
ENDBRANCH  10  12
ENDBRANCH   7   8
BRANCH   7  28
ATOM     28  C   UNL A   1      33.572  26.398  24.576  1.00  0.00     0.070 C 
BRANCH  28  29
ATOM     29  C   UNL A   1      33.512  25.339  23.505  1.00  0.00    -0.045 A 
ATOM     30  C   UNL A   1      32.471  25.346  22.562  1.00  0.00     0.004 A 
ATOM     31  C   UNL A   1      34.454  24.301  23.466  1.00  0.00     0.004 A 
ATOM     32  C   UNL A   1      32.341  24.306  21.639  1.00  0.00     0.000 A 
ATOM     33  C   UNL A   1      34.313  23.253  22.550  1.00  0.00     0.000 A 
ATOM     34  C   UNL A   1      33.251  23.250  21.646  1.00  0.00     0.000 A 
ENDBRANCH  28  29
ENDBRANCH   7  28
ENDBRANCH   4   7
ENDBRANCH   2   3
ENDBRANCH   1   2
BRANCH   1  35
ATOM     35  C   UNL A   1      33.093  29.764  25.611  1.00  0.00     0.023 C 
BRANCH  35  36
ATOM     36  C   UNL A   1      33.478  29.524  27.064  1.00  0.00     0.116 C 
BRANCH  36  37
ATOM     37  N   UNL A   1      33.590  30.737  27.870  1.00  0.00    -0.352 N 
ATOM     38  C   UNL A   1      34.671  31.167  28.614  1.00  0.00     0.251 C 
ATOM     39  H   UNL A   1      32.798  31.321  27.882  1.00  0.00     0.163 HD
ATOM     40  O   UNL A   1      34.630  32.199  29.263  1.00  0.00    -0.269 OA
BRANCH  38  41
ATOM     41  C   UNL A   1      35.864  30.297  28.635  1.00  0.00     0.039 A 
ATOM     42  C   UNL A   1      36.230  29.674  29.829  1.00  0.00     0.014 A 
ATOM     43  C   UNL A   1      36.714  30.294  27.527  1.00  0.00     0.014 A 
ATOM     44  C   UNL A   1      37.539  29.236  29.980  1.00  0.00     0.010 A 
ATOM     45  C   UNL A   1      38.001  29.769  27.661  1.00  0.00     0.010 A 
ATOM     46  C   UNL A   1      38.447  29.309  28.909  1.00  0.00    -0.014 A 
BRANCH  46  47
ATOM     47  C   UNL A   1      39.875  28.964  29.140  1.00  0.00     0.031 A 
ATOM     48  C   UNL A   1      40.415  27.616  28.731  1.00  0.00     0.074 A 
ATOM     49  C   UNL A   1      40.705  29.899  29.640  1.00  0.00     0.049 A 
ATOM     50  N   UNL A   1      41.630  27.146  28.868  1.00  0.00    -0.248 NA
ATOM     51  C   UNL A   1      39.483  26.676  28.085  1.00  0.00     0.031 C 
ATOM     52  C   UNL A   1      40.306  31.253  30.031  1.00  0.00     0.029 A 
ATOM     53  N   UNL A   1      42.055  29.867  29.873  1.00  0.00    -0.354 N 
ATOM     54  C   UNL A   1      41.602  25.856  28.347  1.00  0.00     0.074 A 
ATOM     55  C   UNL A   1      40.248  25.605  27.909  1.00  0.00     0.031 C 
ATOM     56  C   UNL A   1      41.396  31.940  30.398  1.00  0.00     0.029 A 
ATOM     57  C   UNL A   1      42.558  31.058  30.342  1.00  0.00     0.049 A 
ATOM     58  H   UNL A   1      42.612  29.070  29.721  1.00  0.00     0.167 HD
ATOM     59  C   UNL A   1      42.618  24.968  28.237  1.00  0.00     0.031 A 
ATOM     60  C   UNL A   1      43.807  31.404  30.708  1.00  0.00     0.031 A 
ATOM     61  C   UNL A   1      43.970  25.231  28.654  1.00  0.00     0.049 A 
ATOM     62  C   UNL A   1      44.906  30.389  30.617  1.00  0.00     0.074 A 
ATOM     63  C   UNL A   1      45.064  24.384  28.592  1.00  0.00     0.029 A 
ATOM     64  N   UNL A   1      44.420  26.428  29.189  1.00  0.00    -0.354 N 
ATOM     65  N   UNL A   1      44.847  29.157  30.171  1.00  0.00    -0.248 NA
ATOM     66  C   UNL A   1      46.237  30.800  31.085  1.00  0.00     0.031 C 
ATOM     67  C   UNL A   1      46.165  25.053  29.130  1.00  0.00     0.029 A 
ATOM     68  C   UNL A   1      45.771  26.337  29.476  1.00  0.00     0.049 A 
ATOM     69  H   UNL A   1      43.862  27.224  29.341  1.00  0.00     0.167 HD
ATOM     70  C   UNL A   1      46.127  28.641  30.317  1.00  0.00     0.074 A 
ATOM     71  C   UNL A   1      46.949  29.702  30.861  1.00  0.00     0.031 C 
ATOM     72  C   UNL A   1      46.575  27.394  30.032  1.00  0.00     0.031 A 
BRANCH  59  73
ATOM     73  C   UNL A   1      42.329  23.614  27.643  1.00  0.00    -0.014 A 
ATOM     74  C   UNL A   1      42.013  22.534  28.489  1.00  0.00     0.010 A 
ATOM     75  C   UNL A   1      42.506  23.379  26.268  1.00  0.00     0.010 A 
ATOM     76  C   UNL A   1      41.916  21.237  27.978  1.00  0.00     0.020 A 
ATOM     77  C   UNL A   1      42.388  22.084  25.750  1.00  0.00     0.020 A 
ATOM     78  C   UNL A   1      42.119  21.019  26.612  1.00  0.00     0.054 A 
BRANCH  78  79
ATOM     79  S   UNL A   1      42.031  19.322  25.973  1.00  0.00     0.124 S 
ATOM     80  O   UNL A   1      42.527  18.542  27.103  1.00  0.00    -0.237 OA
ATOM     81  O   UNL A   1      40.609  19.165  25.674  1.00  0.00    -0.237 OA
ATOM     82  O   UNL A   1      42.905  19.354  24.803  1.00  0.00    -0.744 OA
ENDBRANCH  78  79
ENDBRANCH  59  73
BRANCH  60  83
ATOM     83  C   UNL A   1      44.049  32.782  31.210  1.00  0.00    -0.014 A 
ATOM     84  C   UNL A   1      44.449  33.795  30.318  1.00  0.00     0.010 A 
ATOM     85  C   UNL A   1      43.991  33.061  32.585  1.00  0.00     0.010 A 
ATOM     86  C   UNL A   1      44.850  35.042  30.797  1.00  0.00     0.020 A 
ATOM     87  C   UNL A   1      44.365  34.321  33.065  1.00  0.00     0.020 A 
ATOM     88  C   UNL A   1      44.824  35.291  32.170  1.00  0.00     0.054 A 
BRANCH  88  89
ATOM     89  S   UNL A   1      45.407  36.896  32.782  1.00  0.00     0.124 S 
ATOM     90  O   UNL A   1      44.892  37.808  31.764  1.00  0.00    -0.237 OA
ATOM     91  O   UNL A   1      44.772  36.994  34.094  1.00  0.00    -0.237 OA
ATOM     92  O   UNL A   1      46.859  36.739  32.807  1.00  0.00    -0.744 OA
ENDBRANCH  88  89
ENDBRANCH  60  83
BRANCH  72  93
ATOM     93  C   UNL A   1      48.017  27.080  30.319  1.00  0.00    -0.014 A 
ATOM     94  C   UNL A   1      48.393  26.611  31.591  1.00  0.00     0.010 A 
ATOM     95  C   UNL A   1      49.011  27.374  29.370  1.00  0.00     0.010 A 
ATOM     96  C   UNL A   1      49.743  26.471  31.921  1.00  0.00     0.020 A 
ATOM     97  C   UNL A   1      50.362  27.214  29.689  1.00  0.00     0.020 A 
ATOM     98  C   UNL A   1      50.719  26.786  30.972  1.00  0.00     0.054 A 
BRANCH  98  99
ATOM     99  S   UNL A   1      52.468  26.628  31.425  1.00  0.00     0.124 S 
ATOM    100  O   UNL A   1      52.567  25.215  31.779  1.00  0.00    -0.237 OA
ATOM    101  O   UNL A   1      53.158  27.020  30.198  1.00  0.00    -0.237 OA
ATOM    102  O   UNL A   1      52.617  27.563  32.538  1.00  0.00    -0.744 OA
ENDBRANCH  98  99
ENDBRANCH  72  93
ENDBRANCH  46  47
ENDBRANCH  38  41
ENDBRANCH  36  37
ENDBRANCH  35  36
ENDBRANCH   1  35
TORSDOF 19
ENDMDL
