MODEL 1
REMARK VINA RESULT:     -11.9      0.000      0.000
REMARK SMILES Cc1cc(C(=O)NCCCCNC(=O)c2ccc(-c3c4nc(c(-c5ccc(S(=O)(=O)[O-])cc5)c5ccc([nH]5)c(-c5ccc(S(=O)(=O)[O-])cc5)c5nc(c(-c6ccc(S(=O)(=O)[O-])cc6)c6ccc3[nH]6)C=C5)C=C4)cc2)ccc1NS(=O)(=O)c1ccc(C#N)cc1C
REMARK SMILES IDX 9 1 8 2 7 3 5 4 6 5 4 7 1 8 2 9 3 10 77 11 76 12 75 13 78 14
REMARK SMILES IDX 79 16 80 17 81 18 82 19 83 20 89 21 84 22 88 23 90 24 85 25
REMARK SMILES IDX 86 26 87 27 10 28 11 29 12 30 13 31 14 33 15 34 16 35 74 36
REMARK SMILES IDX 17 37 73 38 18 39 19 40 20 41 67 42 21 43 72 44 66 45 68 46
REMARK SMILES IDX 22 47 71 48 65 49 64 50 23 52 53 53 34 54 52 55 35 56 38 57
REMARK SMILES IDX 51 58 69 59 36 60 37 61 50 63 70 64 39 65 24 66 25 67 33 68
REMARK SMILES IDX 26 69 32 70 27 71 28 72 29 73 30 74 31 75 54 76 55 77 63 78
REMARK SMILES IDX 56 79 62 80 57 81 58 82 59 83 60 84 61 85 40 86 41 87 49 88
REMARK SMILES IDX 42 89 48 90 43 91 44 92 45 93 46 94 47 95
REMARK H PARENT 7 6 78 15 12 32 68 51 38 62
REMARK Flexibility Score: inf
ROOT
ATOM      1  C   UNL A   1      35.347  21.991  24.969  1.00  0.00     0.023 C 
ENDROOT
BRANCH   1   2
ATOM      2  C   UNL A   1      35.250  23.284  24.141  1.00  0.00     0.116 C 
BRANCH   2   3
ATOM      3  N   UNL A   1      34.163  23.277  23.171  1.00  0.00    -0.352 N 
ATOM      4  C   UNL A   1      33.489  24.299  22.540  1.00  0.00     0.251 C 
ATOM      5  O   UNL A   1      32.739  24.026  21.605  1.00  0.00    -0.269 OA
ATOM      6  H   UNL A   1      33.853  22.377  22.919  1.00  0.00     0.163 HD
BRANCH   4   7
ATOM      7  C   UNL A   1      33.690  25.729  22.904  1.00  0.00     0.040 A 
ATOM      8  C   UNL A   1      34.486  27.711  26.030  1.00  0.00     0.046 C 
ATOM      9  C   UNL A   1      33.959  27.396  24.658  1.00  0.00    -0.026 A 
ATOM     10  C   UNL A   1      33.949  26.053  24.238  1.00  0.00     0.019 A 
ATOM     11  C   UNL A   1      33.591  28.395  23.742  1.00  0.00     0.052 A 
ATOM     12  C   UNL A   1      33.651  28.099  22.388  1.00  0.00     0.028 A 
ATOM     13  C   UNL A   1      33.692  26.766  21.976  1.00  0.00     0.016 A 
BRANCH  11  14
ATOM     14  N   UNL A   1      32.821  29.490  24.235  1.00  0.00    -0.279 N 
ATOM     15  H   UNL A   1      33.212  30.382  24.092  1.00  0.00     0.180 HD
BRANCH  14  16
ATOM     16  S   UNL A   1      31.351  29.468  25.023  1.00  0.00     0.262 S 
ATOM     17  O   UNL A   1      31.652  29.917  26.367  1.00  0.00    -0.201 OA
ATOM     18  O   UNL A   1      30.406  30.185  24.191  1.00  0.00    -0.201 OA
BRANCH  16  19
ATOM     19  C   UNL A   1      30.724  27.788  25.187  1.00  0.00     0.090 A 
ATOM     20  C   UNL A   1      30.889  27.057  26.371  1.00  0.00     0.024 A 
ATOM     21  C   UNL A   1      30.293  27.125  24.018  1.00  0.00    -0.029 A 
ATOM     22  C   UNL A   1      30.881  25.653  26.334  1.00  0.00     0.021 A 
ATOM     23  C   UNL A   1      30.266  25.723  24.008  1.00  0.00     0.024 A 
ATOM     24  C   UNL A   1      29.804  27.814  22.775  1.00  0.00     0.046 C 
ATOM     25  C   UNL A   1      30.647  24.991  25.131  1.00  0.00     0.052 A 
BRANCH  25  26
ATOM     26  C   UNL A   1      30.879  23.586  24.970  1.00  0.00     0.099 C 
ATOM     27  N   UNL A   1      31.210  22.493  24.815  1.00  0.00    -0.192 NA
ENDBRANCH  25  26
ENDBRANCH  16  19
ENDBRANCH  14  16
ENDBRANCH  11  14
ENDBRANCH   4   7
ENDBRANCH   2   3
ENDBRANCH   1   2
BRANCH   1  28
ATOM     28  C   UNL A   1      36.758  21.489  25.245  1.00  0.00     0.023 C 
BRANCH  28  29
ATOM     29  C   UNL A   1      37.740  22.581  25.614  1.00  0.00     0.116 C 
BRANCH  29  30
ATOM     30  N   UNL A   1      38.800  22.198  26.534  1.00  0.00    -0.352 N 
ATOM     31  C   UNL A   1      39.989  22.914  26.688  1.00  0.00     0.251 C 
ATOM     32  H   UNL A   1      38.672  21.388  27.079  1.00  0.00     0.163 HD
ATOM     33  O   UNL A   1      41.094  22.394  26.737  1.00  0.00    -0.269 OA
BRANCH  31  34
ATOM     34  C   UNL A   1      39.830  24.368  26.923  1.00  0.00     0.039 A 
ATOM     35  C   UNL A   1      40.294  25.262  25.949  1.00  0.00     0.014 A 
ATOM     36  C   UNL A   1      39.589  24.789  28.221  1.00  0.00     0.014 A 
ATOM     37  C   UNL A   1      40.765  26.503  26.345  1.00  0.00     0.010 A 
ATOM     38  C   UNL A   1      40.249  25.897  28.650  1.00  0.00     0.010 A 
ATOM     39  C   UNL A   1      40.853  26.732  27.708  1.00  0.00    -0.014 A 
BRANCH  39  40
ATOM     40  C   UNL A   1      41.413  27.901  28.331  1.00  0.00     0.031 A 
ATOM     41  C   UNL A   1      40.432  28.978  28.562  1.00  0.00     0.074 A 
ATOM     42  C   UNL A   1      42.616  27.697  28.913  1.00  0.00     0.049 A 
ATOM     43  N   UNL A   1      40.719  30.187  28.861  1.00  0.00    -0.248 NA
ATOM     44  C   UNL A   1      38.978  28.778  28.416  1.00  0.00     0.031 C 
ATOM     45  C   UNL A   1      43.285  28.390  30.003  1.00  0.00     0.029 A 
ATOM     46  N   UNL A   1      43.598  26.829  28.437  1.00  0.00    -0.354 N 
ATOM     47  C   UNL A   1      39.563  30.734  29.387  1.00  0.00     0.074 A 
ATOM     48  C   UNL A   1      38.486  29.914  28.912  1.00  0.00     0.031 C 
ATOM     49  C   UNL A   1      44.612  28.160  29.917  1.00  0.00     0.029 A 
ATOM     50  C   UNL A   1      44.847  27.410  28.685  1.00  0.00     0.049 A 
ATOM     51  H   UNL A   1      43.441  25.959  28.002  1.00  0.00     0.167 HD
ATOM     52  C   UNL A   1      39.694  31.664  30.371  1.00  0.00     0.031 A 
ATOM     53  C   UNL A   1      45.546  27.897  27.610  1.00  0.00     0.031 A 
ATOM     54  C   UNL A   1      41.117  31.936  30.583  1.00  0.00     0.049 A 
ATOM     55  C   UNL A   1      45.510  29.413  27.589  1.00  0.00     0.074 A 
ATOM     56  C   UNL A   1      42.016  31.471  31.527  1.00  0.00     0.029 A 
ATOM     57  N   UNL A   1      41.866  32.410  29.515  1.00  0.00    -0.354 N 
ATOM     58  N   UNL A   1      44.539  30.132  28.090  1.00  0.00    -0.248 NA
ATOM     59  C   UNL A   1      46.620  30.228  27.103  1.00  0.00     0.031 C 
ATOM     60  C   UNL A   1      43.318  31.565  30.957  1.00  0.00     0.029 A 
ATOM     61  C   UNL A   1      43.199  32.084  29.678  1.00  0.00     0.049 A 
ATOM     62  H   UNL A   1      41.500  32.908  28.749  1.00  0.00     0.167 HD
ATOM     63  C   UNL A   1      44.902  31.452  28.082  1.00  0.00     0.074 A 
ATOM     64  C   UNL A   1      46.200  31.463  27.430  1.00  0.00     0.031 C 
ATOM     65  C   UNL A   1      44.155  32.449  28.643  1.00  0.00     0.031 A 
BRANCH  52  66
ATOM     66  C   UNL A   1      38.625  32.089  31.349  1.00  0.00    -0.014 A 
ATOM     67  C   UNL A   1      37.895  33.260  31.051  1.00  0.00     0.010 A 
ATOM     68  C   UNL A   1      38.305  31.452  32.564  1.00  0.00     0.010 A 
ATOM     69  C   UNL A   1      36.934  33.787  31.917  1.00  0.00     0.020 A 
ATOM     70  C   UNL A   1      37.339  31.972  33.448  1.00  0.00     0.020 A 
ATOM     71  C   UNL A   1      36.662  33.142  33.117  1.00  0.00     0.054 A 
BRANCH  71  72
ATOM     72  S   UNL A   1      35.400  33.847  34.206  1.00  0.00     0.124 S 
ATOM     73  O   UNL A   1      35.523  35.279  33.939  1.00  0.00    -0.237 OA
ATOM     74  O   UNL A   1      34.176  33.218  33.717  1.00  0.00    -0.237 OA
ATOM     75  O   UNL A   1      35.821  33.430  35.543  1.00  0.00    -0.744 OA
ENDBRANCH  71  72
ENDBRANCH  52  66
BRANCH  53  76
ATOM     76  C   UNL A   1      45.446  26.984  26.418  1.00  0.00    -0.014 A 
ATOM     77  C   UNL A   1      46.468  26.016  26.276  1.00  0.00     0.010 A 
ATOM     78  C   UNL A   1      44.210  26.744  25.787  1.00  0.00     0.010 A 
ATOM     79  C   UNL A   1      46.195  24.763  25.718  1.00  0.00     0.020 A 
ATOM     80  C   UNL A   1      43.944  25.489  25.208  1.00  0.00     0.020 A 
ATOM     81  C   UNL A   1      44.912  24.483  25.256  1.00  0.00     0.054 A 
BRANCH  81  82
ATOM     82  S   UNL A   1      44.482  22.740  24.934  1.00  0.00     0.124 S 
ATOM     83  O   UNL A   1      43.250  22.863  24.160  1.00  0.00    -0.237 OA
ATOM     84  O   UNL A   1      45.666  22.268  24.207  1.00  0.00    -0.237 OA
ATOM     85  O   UNL A   1      44.314  22.183  26.271  1.00  0.00    -0.744 OA
ENDBRANCH  81  82
ENDBRANCH  53  76
BRANCH  65  86
ATOM     86  C   UNL A   1      44.305  33.914  28.319  1.00  0.00    -0.014 A 
ATOM     87  C   UNL A   1      44.110  34.446  27.038  1.00  0.00     0.010 A 
ATOM     88  C   UNL A   1      44.500  34.837  29.377  1.00  0.00     0.010 A 
ATOM     89  C   UNL A   1      44.211  35.820  26.806  1.00  0.00     0.020 A 
ATOM     90  C   UNL A   1      44.517  36.213  29.171  1.00  0.00     0.020 A 
ATOM     91  C   UNL A   1      44.419  36.692  27.874  1.00  0.00     0.054 A 
BRANCH  91  92
ATOM     92  S   UNL A   1      44.552  38.460  27.548  1.00  0.00     0.124 S 
ATOM     93  O   UNL A   1      45.894  38.553  26.978  1.00  0.00    -0.237 OA
ATOM     94  O   UNL A   1      43.454  38.696  26.613  1.00  0.00    -0.237 OA
ATOM     95  O   UNL A   1      44.387  39.070  28.864  1.00  0.00    -0.744 OA
ENDBRANCH  91  92
ENDBRANCH  65  86
ENDBRANCH  39  40
ENDBRANCH  31  34
ENDBRANCH  29  30
ENDBRANCH  28  29
ENDBRANCH   1  28
TORSDOF 18
ENDMDL
MODEL 2
REMARK VINA RESULT:     -11.8      1.497      2.754
REMARK SMILES Cc1cc(C(=O)NCCCCNC(=O)c2ccc(-c3c4nc(c(-c5ccc(S(=O)(=O)[O-])cc5)c5ccc([nH]5)c(-c5ccc(S(=O)(=O)[O-])cc5)c5nc(c(-c6ccc(S(=O)(=O)[O-])cc6)c6ccc3[nH]6)C=C5)C=C4)cc2)ccc1NS(=O)(=O)c1ccc(C#N)cc1C
REMARK SMILES IDX 9 1 8 2 7 3 5 4 6 5 4 7 1 8 2 9 3 10 77 11 76 12 75 13 78 14
REMARK SMILES IDX 79 16 80 17 81 18 82 19 83 20 89 21 84 22 88 23 90 24 85 25
REMARK SMILES IDX 86 26 87 27 10 28 11 29 12 30 13 31 14 33 15 34 16 35 74 36
REMARK SMILES IDX 17 37 73 38 18 39 19 40 20 41 67 42 21 43 72 44 66 45 68 46
REMARK SMILES IDX 22 47 71 48 65 49 64 50 23 52 53 53 34 54 52 55 35 56 38 57
REMARK SMILES IDX 51 58 69 59 36 60 37 61 50 63 70 64 39 65 24 66 25 67 33 68
REMARK SMILES IDX 26 69 32 70 27 71 28 72 29 73 30 74 31 75 54 76 55 77 63 78
REMARK SMILES IDX 56 79 62 80 57 81 58 82 59 83 60 84 61 85 40 86 41 87 49 88
REMARK SMILES IDX 42 89 48 90 43 91 44 92 45 93 46 94 47 95
REMARK H PARENT 7 6 78 15 12 32 68 51 38 62
REMARK Flexibility Score: inf
ROOT
ATOM      1  C   UNL A   1      36.658  20.027  25.317  1.00  0.00     0.023 C 
ENDROOT
BRANCH   1   2
ATOM      2  C   UNL A   1      35.673  19.138  24.538  1.00  0.00     0.116 C 
BRANCH   2   3
ATOM      3  N   UNL A   1      34.359  19.037  25.161  1.00  0.00    -0.352 N 
ATOM      4  C   UNL A   1      33.199  19.756  24.977  1.00  0.00     0.251 C 
ATOM      5  O   UNL A   1      32.158  19.343  25.486  1.00  0.00    -0.269 OA
ATOM      6  H   UNL A   1      34.287  18.324  25.836  1.00  0.00     0.163 HD
BRANCH   4   7
ATOM      7  C   UNL A   1      33.146  20.977  24.127  1.00  0.00     0.040 A 
ATOM      8  C   UNL A   1      34.313  24.572  24.357  1.00  0.00     0.046 C 
ATOM      9  C   UNL A   1      33.502  23.378  23.935  1.00  0.00    -0.026 A 
ATOM     10  C   UNL A   1      33.695  22.164  24.619  1.00  0.00     0.019 A 
ATOM     11  C   UNL A   1      32.653  23.398  22.817  1.00  0.00     0.052 A 
ATOM     12  C   UNL A   1      32.385  22.199  22.174  1.00  0.00     0.028 A 
ATOM     13  C   UNL A   1      32.626  20.994  22.836  1.00  0.00     0.016 A 
BRANCH  11  14
ATOM     14  N   UNL A   1      31.818  24.542  22.643  1.00  0.00    -0.279 N 
ATOM     15  H   UNL A   1      30.914  24.469  23.026  1.00  0.00     0.180 HD
BRANCH  14  16
ATOM     16  S   UNL A   1      32.161  25.985  21.882  1.00  0.00     0.262 S 
ATOM     17  O   UNL A   1      33.395  25.735  21.165  1.00  0.00    -0.201 OA
ATOM     18  O   UNL A   1      30.962  26.397  21.180  1.00  0.00    -0.201 OA
BRANCH  16  19
ATOM     19  C   UNL A   1      32.531  27.282  23.075  1.00  0.00     0.090 A 
ATOM     20  C   UNL A   1      33.668  28.092  22.947  1.00  0.00     0.024 A 
ATOM     21  C   UNL A   1      31.802  27.298  24.283  1.00  0.00    -0.029 A 
ATOM     22  C   UNL A   1      34.221  28.707  24.082  1.00  0.00     0.021 A 
ATOM     23  C   UNL A   1      32.357  27.940  25.399  1.00  0.00     0.024 A 
ATOM     24  C   UNL A   1      30.429  26.714  24.460  1.00  0.00     0.046 C 
ATOM     25  C   UNL A   1      33.602  28.561  25.322  1.00  0.00     0.052 A 
BRANCH  25  26
ATOM     26  C   UNL A   1      34.242  28.937  26.548  1.00  0.00     0.099 C 
ATOM     27  N   UNL A   1      34.692  29.375  27.515  1.00  0.00    -0.192 NA
ENDBRANCH  25  26
ENDBRANCH  16  19
ENDBRANCH  14  16
ENDBRANCH  11  14
ENDBRANCH   4   7
ENDBRANCH   2   3
ENDBRANCH   1   2
BRANCH   1  28
ATOM     28  C   UNL A   1      37.124  21.285  24.594  1.00  0.00     0.023 C 
BRANCH  28  29
ATOM     29  C   UNL A   1      37.674  22.355  25.513  1.00  0.00     0.116 C 
BRANCH  29  30
ATOM     30  N   UNL A   1      38.755  21.941  26.396  1.00  0.00    -0.352 N 
ATOM     31  C   UNL A   1      39.955  22.641  26.532  1.00  0.00     0.251 C 
ATOM     32  H   UNL A   1      38.633  21.121  26.926  1.00  0.00     0.163 HD
ATOM     33  O   UNL A   1      41.056  22.108  26.539  1.00  0.00    -0.269 OA
BRANCH  31  34
ATOM     34  C   UNL A   1      39.819  24.091  26.802  1.00  0.00     0.039 A 
ATOM     35  C   UNL A   1      40.225  25.000  25.816  1.00  0.00     0.014 A 
ATOM     36  C   UNL A   1      39.665  24.490  28.120  1.00  0.00     0.014 A 
ATOM     37  C   UNL A   1      40.727  26.232  26.203  1.00  0.00     0.010 A 
ATOM     38  C   UNL A   1      40.356  25.587  28.525  1.00  0.00     0.010 A 
ATOM     39  C   UNL A   1      40.903  26.437  27.560  1.00  0.00    -0.014 A 
BRANCH  39  40
ATOM     40  C   UNL A   1      41.508  27.592  28.166  1.00  0.00     0.031 A 
ATOM     41  C   UNL A   1      40.560  28.693  28.422  1.00  0.00     0.074 A 
ATOM     42  C   UNL A   1      42.720  27.359  28.717  1.00  0.00     0.049 A 
ATOM     43  N   UNL A   1      40.885  29.895  28.711  1.00  0.00    -0.248 NA
ATOM     44  C   UNL A   1      39.098  28.529  28.314  1.00  0.00     0.031 C 
ATOM     45  C   UNL A   1      43.435  28.037  29.788  1.00  0.00     0.029 A 
ATOM     46  N   UNL A   1      43.668  26.466  28.217  1.00  0.00    -0.354 N 
ATOM     47  C   UNL A   1      39.757  30.471  29.266  1.00  0.00     0.074 A 
ATOM     48  C   UNL A   1      38.648  29.677  28.821  1.00  0.00     0.031 C 
ATOM     49  C   UNL A   1      44.753  27.774  29.667  1.00  0.00     0.029 A 
ATOM     50  C   UNL A   1      44.937  27.017  28.431  1.00  0.00     0.049 A 
ATOM     51  H   UNL A   1      43.478  25.600  27.788  1.00  0.00     0.167 HD
ATOM     52  C   UNL A   1      39.937  31.398  30.245  1.00  0.00     0.031 A 
ATOM     53  C   UNL A   1      45.620  27.485  27.337  1.00  0.00     0.031 A 
ATOM     54  C   UNL A   1      41.371  31.635  30.419  1.00  0.00     0.049 A 
ATOM     55  C   UNL A   1      45.620  29.002  27.314  1.00  0.00     0.074 A 
ATOM     56  C   UNL A   1      42.283  31.149  31.339  1.00  0.00     0.029 A 
ATOM     57  N   UNL A   1      42.103  32.090  29.331  1.00  0.00    -0.354 N 
ATOM     58  N   UNL A   1      44.681  29.745  27.840  1.00  0.00    -0.248 NA
ATOM     59  C   UNL A   1      46.737  29.788  26.799  1.00  0.00     0.031 C 
ATOM     60  C   UNL A   1      43.571  31.211  30.735  1.00  0.00     0.029 A 
ATOM     61  C   UNL A   1      43.432  31.731  29.459  1.00  0.00     0.049 A 
ATOM     62  H   UNL A   1      41.730  32.596  28.574  1.00  0.00     0.167 HD
ATOM     63  C   UNL A   1      45.076  31.055  27.820  1.00  0.00     0.074 A 
ATOM     64  C   UNL A   1      46.357  31.033  27.134  1.00  0.00     0.031 C 
ATOM     65  C   UNL A   1      44.369  32.071  28.399  1.00  0.00     0.031 A 
BRANCH  52  66
ATOM     66  C   UNL A   1      38.905  31.851  31.250  1.00  0.00    -0.014 A 
ATOM     67  C   UNL A   1      38.463  33.190  31.175  1.00  0.00     0.010 A 
ATOM     68  C   UNL A   1      38.360  31.077  32.293  1.00  0.00     0.010 A 
ATOM     69  C   UNL A   1      37.567  33.738  32.096  1.00  0.00     0.020 A 
ATOM     70  C   UNL A   1      37.456  31.615  33.229  1.00  0.00     0.020 A 
ATOM     71  C   UNL A   1      37.069  32.948  33.125  1.00  0.00     0.054 A 
BRANCH  71  72
ATOM     72  S   UNL A   1      35.898  33.688  34.289  1.00  0.00     0.124 S 
ATOM     73  O   UNL A   1      34.642  33.037  33.923  1.00  0.00    -0.237 OA
ATOM     74  O   UNL A   1      36.454  33.302  35.583  1.00  0.00    -0.237 OA
ATOM     75  O   UNL A   1      35.964  35.118  33.987  1.00  0.00    -0.744 OA
ENDBRANCH  71  72
ENDBRANCH  52  66
BRANCH  53  76
ATOM     76  C   UNL A   1      45.465  26.574  26.150  1.00  0.00    -0.014 A 
ATOM     77  C   UNL A   1      46.603  25.817  25.783  1.00  0.00     0.010 A 
ATOM     78  C   UNL A   1      44.198  26.107  25.751  1.00  0.00     0.010 A 
ATOM     79  C   UNL A   1      46.465  24.536  25.237  1.00  0.00     0.020 A 
ATOM     80  C   UNL A   1      44.064  24.826  25.183  1.00  0.00     0.020 A 
ATOM     81  C   UNL A   1      45.192  24.020  25.010  1.00  0.00     0.054 A 
BRANCH  81  82
ATOM     82  S   UNL A   1      45.039  22.229  24.706  1.00  0.00     0.124 S 
ATOM     83  O   UNL A   1      46.427  21.783  24.775  1.00  0.00    -0.237 OA
ATOM     84  O   UNL A   1      44.162  21.811  25.805  1.00  0.00    -0.237 OA
ATOM     85  O   UNL A   1      44.440  22.165  23.377  1.00  0.00    -0.744 OA
ENDBRANCH  81  82
ENDBRANCH  53  76
BRANCH  65  86
ATOM     86  C   UNL A   1      44.547  33.531  28.068  1.00  0.00    -0.014 A 
ATOM     87  C   UNL A   1      43.883  34.172  27.014  1.00  0.00     0.010 A 
ATOM     88  C   UNL A   1      45.296  34.350  28.950  1.00  0.00     0.010 A 
ATOM     89  C   UNL A   1      44.046  35.540  26.787  1.00  0.00     0.020 A 
ATOM     90  C   UNL A   1      45.396  35.728  28.783  1.00  0.00     0.020 A 
ATOM     91  C   UNL A   1      44.806  36.306  27.670  1.00  0.00     0.054 A 
BRANCH  91  92
ATOM     92  S   UNL A   1      45.006  38.069  27.351  1.00  0.00     0.124 S 
ATOM     93  O   UNL A   1      43.720  38.406  26.745  1.00  0.00    -0.237 OA
ATOM     94  O   UNL A   1      45.232  38.613  28.689  1.00  0.00    -0.237 OA
ATOM     95  O   UNL A   1      46.156  38.133  26.455  1.00  0.00    -0.744 OA
ENDBRANCH  91  92
ENDBRANCH  65  86
ENDBRANCH  39  40
ENDBRANCH  31  34
ENDBRANCH  29  30
ENDBRANCH  28  29
ENDBRANCH   1  28
TORSDOF 18
ENDMDL
MODEL 3
REMARK VINA RESULT:     -11.1      2.449      4.161
REMARK SMILES Cc1cc(C(=O)NCCCCNC(=O)c2ccc(-c3c4nc(c(-c5ccc(S(=O)(=O)[O-])cc5)c5ccc([nH]5)c(-c5ccc(S(=O)(=O)[O-])cc5)c5nc(c(-c6ccc(S(=O)(=O)[O-])cc6)c6ccc3[nH]6)C=C5)C=C4)cc2)ccc1NS(=O)(=O)c1ccc(C#N)cc1C
REMARK SMILES IDX 9 1 8 2 7 3 5 4 6 5 4 7 1 8 2 9 3 10 77 11 76 12 75 13 78 14
REMARK SMILES IDX 79 16 80 17 81 18 82 19 83 20 89 21 84 22 88 23 90 24 85 25
REMARK SMILES IDX 86 26 87 27 10 28 11 29 12 30 13 31 14 33 15 34 16 35 74 36
REMARK SMILES IDX 17 37 73 38 18 39 19 40 20 41 67 42 21 43 72 44 66 45 68 46
REMARK SMILES IDX 22 47 71 48 65 49 64 50 23 52 53 53 34 54 52 55 35 56 38 57
REMARK SMILES IDX 51 58 69 59 36 60 37 61 50 63 70 64 39 65 24 66 25 67 33 68
REMARK SMILES IDX 26 69 32 70 27 71 28 72 29 73 30 74 31 75 54 76 55 77 63 78
REMARK SMILES IDX 56 79 62 80 57 81 58 82 59 83 60 84 61 85 40 86 41 87 49 88
REMARK SMILES IDX 42 89 48 90 43 91 44 92 45 93 46 94 47 95
REMARK H PARENT 7 6 78 15 12 32 68 51 38 62
REMARK Flexibility Score: inf
ROOT
ATOM      1  C   UNL A   1      35.354  23.537  25.216  1.00  0.00     0.023 C 
ENDROOT
BRANCH   1   2
ATOM      2  C   UNL A   1      35.564  23.687  23.699  1.00  0.00     0.116 C 
BRANCH   2   3
ATOM      3  N   UNL A   1      34.575  22.975  22.899  1.00  0.00    -0.352 N 
ATOM      4  C   UNL A   1      33.341  23.352  22.419  1.00  0.00     0.251 C 
ATOM      5  O   UNL A   1      32.781  22.633  21.593  1.00  0.00    -0.269 OA
ATOM      6  H   UNL A   1      34.836  22.058  22.658  1.00  0.00     0.163 HD
BRANCH   4   7
ATOM      7  C   UNL A   1      32.691  24.634  22.809  1.00  0.00     0.040 A 
ATOM      8  C   UNL A   1      33.577  28.315  22.775  1.00  0.00     0.046 C 
ATOM      9  C   UNL A   1      32.909  27.031  23.181  1.00  0.00    -0.026 A 
ATOM     10  C   UNL A   1      33.406  25.825  22.654  1.00  0.00     0.019 A 
ATOM     11  C   UNL A   1      31.744  26.998  23.963  1.00  0.00     0.052 A 
ATOM     12  C   UNL A   1      30.900  25.905  23.841  1.00  0.00     0.028 A 
ATOM     13  C   UNL A   1      31.382  24.724  23.272  1.00  0.00     0.016 A 
BRANCH  11  14
ATOM     14  N   UNL A   1      31.687  27.865  25.096  1.00  0.00    -0.279 N 
ATOM     15  H   UNL A   1      31.118  28.662  24.992  1.00  0.00     0.180 HD
BRANCH  14  16
ATOM     16  S   UNL A   1      32.451  27.716  26.570  1.00  0.00     0.262 S 
ATOM     17  O   UNL A   1      31.387  27.836  27.546  1.00  0.00    -0.201 OA
ATOM     18  O   UNL A   1      33.276  26.527  26.509  1.00  0.00    -0.201 OA
BRANCH  16  19
ATOM     19  C   UNL A   1      33.563  29.100  26.870  1.00  0.00     0.090 A 
ATOM     20  C   UNL A   1      34.899  28.898  27.244  1.00  0.00     0.024 A 
ATOM     21  C   UNL A   1      33.001  30.390  26.978  1.00  0.00    -0.029 A 
ATOM     22  C   UNL A   1      35.585  29.896  27.956  1.00  0.00     0.021 A 
ATOM     23  C   UNL A   1      33.712  31.381  27.670  1.00  0.00     0.024 A 
ATOM     24  C   UNL A   1      31.699  30.810  26.357  1.00  0.00     0.046 C 
ATOM     25  C   UNL A   1      34.956  31.108  28.235  1.00  0.00     0.052 A 
BRANCH  25  26
ATOM     26  C   UNL A   1      35.493  32.054  29.167  1.00  0.00     0.099 C 
ATOM     27  N   UNL A   1      35.971  32.894  29.796  1.00  0.00    -0.192 NA
ENDBRANCH  25  26
ENDBRANCH  16  19
ENDBRANCH  14  16
ENDBRANCH  11  14
ENDBRANCH   4   7
ENDBRANCH   2   3
ENDBRANCH   1   2
BRANCH   1  28
ATOM     28  C   UNL A   1      36.382  24.237  26.096  1.00  0.00     0.023 C 
BRANCH  28  29
ATOM     29  C   UNL A   1      37.747  23.581  26.089  1.00  0.00     0.116 C 
BRANCH  29  30
ATOM     30  N   UNL A   1      37.765  22.148  26.338  1.00  0.00    -0.352 N 
ATOM     31  C   UNL A   1      38.827  21.313  25.984  1.00  0.00     0.251 C 
ATOM     32  H   UNL A   1      36.984  21.744  26.781  1.00  0.00     0.163 HD
ATOM     33  O   UNL A   1      38.686  20.228  25.437  1.00  0.00    -0.269 OA
BRANCH  31  34
ATOM     34  C   UNL A   1      40.165  21.762  26.431  1.00  0.00     0.039 A 
ATOM     35  C   UNL A   1      40.508  21.619  27.782  1.00  0.00     0.014 A 
ATOM     36  C   UNL A   1      40.861  22.631  25.607  1.00  0.00     0.014 A 
ATOM     37  C   UNL A   1      41.368  22.539  28.359  1.00  0.00     0.010 A 
ATOM     38  C   UNL A   1      41.517  23.663  26.200  1.00  0.00     0.010 A 
ATOM     39  C   UNL A   1      41.743  23.619  27.578  1.00  0.00    -0.014 A 
BRANCH  39  40
ATOM     40  C   UNL A   1      42.535  24.738  28.013  1.00  0.00     0.031 A 
ATOM     41  C   UNL A   1      41.734  25.905  28.428  1.00  0.00     0.074 A 
ATOM     42  C   UNL A   1      43.817  24.429  28.308  1.00  0.00     0.049 A 
ATOM     43  N   UNL A   1      42.189  27.086  28.610  1.00  0.00    -0.248 NA
ATOM     44  C   UNL A   1      40.274  25.841  28.629  1.00  0.00     0.031 C 
ATOM     45  C   UNL A   1      44.781  25.071  29.189  1.00  0.00     0.029 A 
ATOM     46  N   UNL A   1      44.580  23.466  27.648  1.00  0.00    -0.354 N 
ATOM     47  C   UNL A   1      41.240  27.746  29.370  1.00  0.00     0.074 A 
ATOM     48  C   UNL A   1      40.014  27.025  29.185  1.00  0.00     0.031 C 
ATOM     49  C   UNL A   1      46.026  24.716  28.806  1.00  0.00     0.029 A 
ATOM     50  C   UNL A   1      45.899  23.931  27.580  1.00  0.00     0.049 A 
ATOM     51  H   UNL A   1      44.250  22.610  27.293  1.00  0.00     0.167 HD
ATOM     52  C   UNL A   1      41.679  28.672  30.263  1.00  0.00     0.031 A 
ATOM     53  C   UNL A   1      46.368  24.335  26.356  1.00  0.00     0.031 A 
ATOM     54  C   UNL A   1      43.130  28.812  30.131  1.00  0.00     0.049 A 
ATOM     55  C   UNL A   1      46.462  25.848  26.291  1.00  0.00     0.074 A 
ATOM     56  C   UNL A   1      44.180  28.277  30.856  1.00  0.00     0.029 A 
ATOM     57  N   UNL A   1      43.648  29.200  28.902  1.00  0.00    -0.354 N 
ATOM     58  N   UNL A   1      45.702  26.661  26.978  1.00  0.00    -0.248 NA
ATOM     59  C   UNL A   1      47.495  26.548  25.534  1.00  0.00     0.031 C 
ATOM     60  C   UNL A   1      45.316  28.241  29.998  1.00  0.00     0.029 A 
ATOM     61  C   UNL A   1      44.949  28.752  28.764  1.00  0.00     0.049 A 
ATOM     62  H   UNL A   1      43.159  29.720  28.225  1.00  0.00     0.167 HD
ATOM     63  C   UNL A   1      46.168  27.941  26.841  1.00  0.00     0.074 A 
ATOM     64  C   UNL A   1      47.275  27.821  25.905  1.00  0.00     0.031 C 
ATOM     65  C   UNL A   1      45.664  29.012  27.524  1.00  0.00     0.031 A 
BRANCH  52  66
ATOM     66  C   UNL A   1      40.910  29.210  31.447  1.00  0.00    -0.014 A 
ATOM     67  C   UNL A   1      39.962  30.227  31.203  1.00  0.00     0.010 A 
ATOM     68  C   UNL A   1      41.071  28.823  32.792  1.00  0.00     0.010 A 
ATOM     69  C   UNL A   1      39.247  30.849  32.229  1.00  0.00     0.020 A 
ATOM     70  C   UNL A   1      40.357  29.441  33.837  1.00  0.00     0.020 A 
ATOM     71  C   UNL A   1      39.450  30.455  33.546  1.00  0.00     0.054 A 
BRANCH  71  72
ATOM     72  S   UNL A   1      38.493  31.272  34.846  1.00  0.00     0.124 S 
ATOM     73  O   UNL A   1      37.288  31.688  34.130  1.00  0.00    -0.237 OA
ATOM     74  O   UNL A   1      38.308  30.201  35.821  1.00  0.00    -0.237 OA
ATOM     75  O   UNL A   1      39.360  32.366  35.283  1.00  0.00    -0.744 OA
ENDBRANCH  71  72
ENDBRANCH  52  66
BRANCH  53  76
ATOM     76  C   UNL A   1      45.912  23.420  25.252  1.00  0.00    -0.014 A 
ATOM     77  C   UNL A   1      46.831  22.431  24.831  1.00  0.00     0.010 A 
ATOM     78  C   UNL A   1      44.542  23.204  25.006  1.00  0.00     0.010 A 
ATOM     79  C   UNL A   1      46.385  21.181  24.388  1.00  0.00     0.020 A 
ATOM     80  C   UNL A   1      44.097  21.952  24.541  1.00  0.00     0.020 A 
ATOM     81  C   UNL A   1      45.019  20.926  24.317  1.00  0.00     0.054 A 
BRANCH  81  82
ATOM     82  S   UNL A   1      44.482  19.192  24.149  1.00  0.00     0.124 S 
ATOM     83  O   UNL A   1      43.144  19.223  24.733  1.00  0.00    -0.237 OA
ATOM     84  O   UNL A   1      44.557  18.993  22.698  1.00  0.00    -0.237 OA
ATOM     85  O   UNL A   1      45.473  18.456  24.927  1.00  0.00    -0.744 OA
ENDBRANCH  81  82
ENDBRANCH  53  76
BRANCH  65  86
ATOM     86  C   UNL A   1      45.864  30.451  27.123  1.00  0.00    -0.014 A 
ATOM     87  C   UNL A   1      44.832  31.273  26.652  1.00  0.00     0.010 A 
ATOM     88  C   UNL A   1      47.115  31.068  27.373  1.00  0.00     0.010 A 
ATOM     89  C   UNL A   1      45.063  32.615  26.346  1.00  0.00     0.020 A 
ATOM     90  C   UNL A   1      47.334  32.425  27.152  1.00  0.00     0.020 A 
ATOM     91  C   UNL A   1      46.315  33.179  26.592  1.00  0.00     0.054 A 
BRANCH  91  92
ATOM     92  S   UNL A   1      46.591  34.912  26.182  1.00  0.00     0.124 S 
ATOM     93  O   UNL A   1      47.151  35.425  27.430  1.00  0.00    -0.237 OA
ATOM     94  O   UNL A   1      47.525  34.832  25.061  1.00  0.00    -0.237 OA
ATOM     95  O   UNL A   1      45.260  35.407  25.843  1.00  0.00    -0.744 OA
ENDBRANCH  91  92
ENDBRANCH  65  86
ENDBRANCH  39  40
ENDBRANCH  31  34
ENDBRANCH  29  30
ENDBRANCH  28  29
ENDBRANCH   1  28
TORSDOF 18
ENDMDL
