MODEL 1
REMARK VINA RESULT:     -10.5      0.000      0.000
REMARK SMILES CCc1nc(C(=O)N2CC[NH+]([C@H](C)C(=O)NCCCCNC(=O)c3ccc(-c4c5nc(c(-c6ccc(S(=O)(=O)[O-])cc6)c6ccc([nH]6)c(-c6ccc(S(=O)(=O)[O-])cc6)c6nc(c(-c7ccc(S(=O)(=O)[O-])cc7)c7ccc4[nH]7)C=C6)C=C5)cc3)CC2)n[nH]1
REMARK SMILES IDX 18 1 17 2 16 3 14 4 15 5 12 7 13 8 11 9 6 10 7 11 8 12 9 13
REMARK SMILES IDX 85 14 10 15 84 16 5 18 3 19 4 20 87 21 86 22 2 24 1 25 19 26
REMARK SMILES IDX 20 27 21 28 22 29 23 31 24 32 25 33 83 34 26 35 82 36 27 37
REMARK SMILES IDX 28 38 29 39 76 40 30 41 81 42 75 43 77 44 31 45 80 46 74 47
REMARK SMILES IDX 73 48 32 50 62 51 43 52 61 53 44 54 47 55 60 56 78 57 45 58
REMARK SMILES IDX 46 59 59 61 79 62 48 63 33 64 34 65 42 66 35 67 41 68 36 69
REMARK SMILES IDX 37 70 38 71 39 72 40 73 63 74 64 75 72 76 65 77 71 78 66 79
REMARK SMILES IDX 67 80 68 81 69 82 70 83 49 84 50 85 58 86 51 87 57 88 52 89
REMARK SMILES IDX 53 90 54 91 55 92 56 93
REMARK H PARENT 16 6 11 17 87 23 21 30 77 49 47 60
REMARK Flexibility Score: inf
ROOT
ATOM      1  C   UNL A   1      34.983  30.728  28.035  1.00  0.00     0.023 C 
ENDROOT
BRANCH   1   2
ATOM      2  C   UNL A   1      34.965  29.380  27.331  1.00  0.00     0.116 C 
BRANCH   2   3
ATOM      3  N   UNL A   1      34.412  29.414  25.993  1.00  0.00    -0.351 N 
ATOM      4  C   UNL A   1      33.300  28.794  25.492  1.00  0.00     0.278 C 
ATOM      5  O   UNL A   1      32.907  29.164  24.379  1.00  0.00    -0.268 OA
ATOM      6  H   UNL A   1      34.912  29.963  25.347  1.00  0.00     0.163 HD
BRANCH   4   7
ATOM      7  C   UNL A   1      32.569  27.657  26.252  1.00  0.00     0.271 C 
ATOM      8  C   UNL A   1      31.624  28.192  27.340  1.00  0.00     0.086 C 
BRANCH   7   9
ATOM      9  N   UNL A   1      32.090  26.540  25.380  1.00  0.00    -0.322 N 
ATOM     10  C   UNL A   1      31.942  22.523  25.444  1.00  0.00     0.293 C 
ATOM     11  O   UNL A   1      30.958  21.851  25.764  1.00  0.00    -0.265 OA
ATOM     12  N   UNL A   1      31.775  23.725  24.746  1.00  0.00    -0.325 N 
ATOM     13  C   UNL A   1      30.595  24.523  25.038  1.00  0.00     0.181 C 
ATOM     14  C   UNL A   1      32.806  24.482  24.046  1.00  0.00     0.181 C 
ATOM     15  C   UNL A   1      31.031  25.687  25.956  1.00  0.00     0.284 C 
ATOM     16  C   UNL A   1      33.220  25.736  24.849  1.00  0.00     0.284 C 
ATOM     17  H   UNL A   1      31.628  27.010  24.601  1.00  0.00     0.348 HD
BRANCH  10  18
ATOM     18  C   UNL A   1      33.308  22.143  25.894  1.00  0.00     0.239 A 
ATOM     19  C   UNL A   1      35.339  21.490  25.764  1.00  0.00     0.124 A 
ATOM     20  N   UNL A   1      34.191  21.387  25.134  1.00  0.00    -0.208 NA
ATOM     21  N   UNL A   1      35.152  22.234  26.890  1.00  0.00    -0.263 N 
ATOM     22  N   UNL A   1      33.884  22.647  27.005  1.00  0.00    -0.148 NA
ATOM     23  H   UNL A   1      35.862  22.443  27.539  1.00  0.00     0.192 HD
BRANCH  19  24
ATOM     24  C   UNL A   1      36.654  20.938  25.350  1.00  0.00     0.073 C 
ATOM     25  C   UNL A   1      37.375  21.875  24.390  1.00  0.00     0.012 C 
ENDBRANCH  19  24
ENDBRANCH  10  18
ENDBRANCH   7   9
ENDBRANCH   4   7
ENDBRANCH   2   3
ENDBRANCH   1   2
BRANCH   1  26
ATOM     26  C   UNL A   1      33.655  31.480  28.034  1.00  0.00     0.023 C 
BRANCH  26  27
ATOM     27  C   UNL A   1      33.551  32.649  27.057  1.00  0.00     0.116 C 
BRANCH  27  28
ATOM     28  N   UNL A   1      32.928  33.833  27.627  1.00  0.00    -0.352 N 
ATOM     29  C   UNL A   1      33.252  34.546  28.760  1.00  0.00     0.251 C 
ATOM     30  H   UNL A   1      32.154  34.179  27.125  1.00  0.00     0.163 HD
ATOM     31  O   UNL A   1      32.529  35.459  29.129  1.00  0.00    -0.269 OA
BRANCH  29  32
ATOM     32  C   UNL A   1      34.445  34.172  29.554  1.00  0.00     0.039 A 
ATOM     33  C   UNL A   1      34.252  33.573  30.801  1.00  0.00     0.014 A 
ATOM     34  C   UNL A   1      35.738  34.381  29.070  1.00  0.00     0.014 A 
ATOM     35  C   UNL A   1      35.354  33.106  31.519  1.00  0.00     0.010 A 
ATOM     36  C   UNL A   1      36.828  33.835  29.746  1.00  0.00     0.010 A 
ATOM     37  C   UNL A   1      36.648  33.187  30.975  1.00  0.00    -0.014 A 
BRANCH  37  38
ATOM     38  C   UNL A   1      37.802  32.561  31.674  1.00  0.00     0.031 A 
ATOM     39  C   UNL A   1      38.248  33.059  33.024  1.00  0.00     0.074 A 
ATOM     40  C   UNL A   1      38.475  31.560  31.067  1.00  0.00     0.049 A 
ATOM     41  N   UNL A   1      39.211  32.608  33.787  1.00  0.00    -0.248 NA
ATOM     42  C   UNL A   1      37.543  34.225  33.581  1.00  0.00     0.031 C 
ATOM     43  C   UNL A   1      38.186  31.032  29.729  1.00  0.00     0.029 A 
ATOM     44  N   UNL A   1      39.537  30.802  31.495  1.00  0.00    -0.354 N 
ATOM     45  C   UNL A   1      39.237  33.440  34.900  1.00  0.00     0.074 A 
ATOM     46  C   UNL A   1      38.224  34.452  34.695  1.00  0.00     0.031 C 
ATOM     47  C   UNL A   1      39.015  30.009  29.469  1.00  0.00     0.029 A 
ATOM     48  C   UNL A   1      39.920  29.830  30.599  1.00  0.00     0.049 A 
ATOM     49  H   UNL A   1      39.981  30.940  32.363  1.00  0.00     0.167 HD
ATOM     50  C   UNL A   1      40.020  33.358  36.001  1.00  0.00     0.031 A 
ATOM     51  C   UNL A   1      40.890  28.897  30.678  1.00  0.00     0.031 A 
ATOM     52  C   UNL A   1      41.009  32.335  36.215  1.00  0.00     0.049 A 
ATOM     53  C   UNL A   1      41.729  28.821  31.925  1.00  0.00     0.074 A 
ATOM     54  C   UNL A   1      41.787  32.116  37.339  1.00  0.00     0.029 A 
ATOM     55  N   UNL A   1      41.362  31.366  35.290  1.00  0.00    -0.354 N 
ATOM     56  N   UNL A   1      41.660  29.552  33.012  1.00  0.00    -0.248 NA
ATOM     57  C   UNL A   1      42.768  27.783  31.960  1.00  0.00     0.031 C 
ATOM     58  C   UNL A   1      42.654  31.053  37.071  1.00  0.00     0.029 A 
ATOM     59  C   UNL A   1      42.372  30.569  35.804  1.00  0.00     0.049 A 
ATOM     60  H   UNL A   1      40.954  31.260  34.400  1.00  0.00     0.167 HD
ATOM     61  C   UNL A   1      42.630  29.042  33.870  1.00  0.00     0.074 A 
ATOM     62  C   UNL A   1      43.248  27.926  33.186  1.00  0.00     0.031 C 
ATOM     63  C   UNL A   1      42.981  29.464  35.109  1.00  0.00     0.031 A 
BRANCH  50  64
ATOM     64  C   UNL A   1      39.846  34.402  37.075  1.00  0.00    -0.014 A 
ATOM     65  C   UNL A   1      38.996  34.181  38.174  1.00  0.00     0.010 A 
ATOM     66  C   UNL A   1      40.617  35.578  37.033  1.00  0.00     0.010 A 
ATOM     67  C   UNL A   1      38.910  35.124  39.201  1.00  0.00     0.020 A 
ATOM     68  C   UNL A   1      40.553  36.511  38.071  1.00  0.00     0.020 A 
ATOM     69  C   UNL A   1      39.694  36.280  39.147  1.00  0.00     0.054 A 
BRANCH  69  70
ATOM     70  S   UNL A   1      39.616  37.450  40.532  1.00  0.00     0.124 S 
ATOM     71  O   UNL A   1      41.032  37.691  40.802  1.00  0.00    -0.237 OA
ATOM     72  O   UNL A   1      38.887  38.576  39.956  1.00  0.00    -0.237 OA
ATOM     73  O   UNL A   1      38.902  36.713  41.571  1.00  0.00    -0.744 OA
ENDBRANCH  69  70
ENDBRANCH  50  64
BRANCH  51  74
ATOM     74  C   UNL A   1      41.120  27.948  29.553  1.00  0.00    -0.014 A 
ATOM     75  C   UNL A   1      40.390  26.748  29.465  1.00  0.00     0.010 A 
ATOM     76  C   UNL A   1      42.104  28.219  28.584  1.00  0.00     0.010 A 
ATOM     77  C   UNL A   1      40.669  25.819  28.458  1.00  0.00     0.020 A 
ATOM     78  C   UNL A   1      42.363  27.308  27.556  1.00  0.00     0.020 A 
ATOM     79  C   UNL A   1      41.660  26.103  27.513  1.00  0.00     0.054 A 
BRANCH  79  80
ATOM     80  S   UNL A   1      42.005  24.887  26.211  1.00  0.00     0.124 S 
ATOM     81  O   UNL A   1      43.263  24.304  26.667  1.00  0.00    -0.237 OA
ATOM     82  O   UNL A   1      40.838  24.011  26.278  1.00  0.00    -0.237 OA
ATOM     83  O   UNL A   1      42.094  25.702  25.001  1.00  0.00    -0.744 OA
ENDBRANCH  79  80
ENDBRANCH  51  74
BRANCH  63  84
ATOM     84  C   UNL A   1      44.066  28.694  35.815  1.00  0.00    -0.014 A 
ATOM     85  C   UNL A   1      43.765  27.585  36.627  1.00  0.00     0.010 A 
ATOM     86  C   UNL A   1      45.410  29.078  35.652  1.00  0.00     0.010 A 
ATOM     87  C   UNL A   1      44.781  26.910  37.307  1.00  0.00     0.020 A 
ATOM     88  C   UNL A   1      46.432  28.384  36.304  1.00  0.00     0.020 A 
ATOM     89  C   UNL A   1      46.108  27.318  37.146  1.00  0.00     0.054 A 
BRANCH  89  90
ATOM     90  S   UNL A   1      47.411  26.423  38.034  1.00  0.00     0.124 S 
ATOM     91  O   UNL A   1      48.303  26.028  36.947  1.00  0.00    -0.237 OA
ATOM     92  O   UNL A   1      47.937  27.438  38.942  1.00  0.00    -0.237 OA
ATOM     93  O   UNL A   1      46.696  25.325  38.682  1.00  0.00    -0.744 OA
ENDBRANCH  89  90
ENDBRANCH  63  84
ENDBRANCH  37  38
ENDBRANCH  29  32
ENDBRANCH  27  28
ENDBRANCH  26  27
ENDBRANCH   1  26
TORSDOF 17
ENDMDL
MODEL 2
REMARK VINA RESULT:     -10.4      6.021     11.895
REMARK SMILES CCc1nc(C(=O)N2CC[NH+]([C@H](C)C(=O)NCCCCNC(=O)c3ccc(-c4c5nc(c(-c6ccc(S(=O)(=O)[O-])cc6)c6ccc([nH]6)c(-c6ccc(S(=O)(=O)[O-])cc6)c6nc(c(-c7ccc(S(=O)(=O)[O-])cc7)c7ccc4[nH]7)C=C6)C=C5)cc3)CC2)n[nH]1
REMARK SMILES IDX 18 1 17 2 16 3 14 4 15 5 12 7 13 8 11 9 6 10 7 11 8 12 9 13
REMARK SMILES IDX 85 14 10 15 84 16 5 18 3 19 4 20 87 21 86 22 2 24 1 25 19 26
REMARK SMILES IDX 20 27 21 28 22 29 23 31 24 32 25 33 83 34 26 35 82 36 27 37
REMARK SMILES IDX 28 38 29 39 76 40 30 41 81 42 75 43 77 44 31 45 80 46 74 47
REMARK SMILES IDX 73 48 32 50 62 51 43 52 61 53 44 54 47 55 60 56 78 57 45 58
REMARK SMILES IDX 46 59 59 61 79 62 48 63 33 64 34 65 42 66 35 67 41 68 36 69
REMARK SMILES IDX 37 70 38 71 39 72 40 73 63 74 64 75 72 76 65 77 71 78 66 79
REMARK SMILES IDX 67 80 68 81 69 82 70 83 49 84 50 85 58 86 51 87 57 88 52 89
REMARK SMILES IDX 53 90 54 91 55 92 56 93
REMARK H PARENT 16 6 11 17 87 23 21 30 77 49 47 60
REMARK Flexibility Score: inf
ROOT
ATOM      1  C   UNL A   1      39.218  23.401  26.338  1.00  0.00     0.023 C 
ENDROOT
BRANCH   1   2
ATOM      2  C   UNL A   1      37.837  24.029  26.244  1.00  0.00     0.116 C 
BRANCH   2   3
ATOM      3  N   UNL A   1      36.746  23.113  26.500  1.00  0.00    -0.351 N 
ATOM      4  C   UNL A   1      35.708  22.743  25.689  1.00  0.00     0.278 C 
ATOM      5  O   UNL A   1      35.036  21.769  26.050  1.00  0.00    -0.268 OA
ATOM      6  H   UNL A   1      36.751  22.693  27.391  1.00  0.00     0.163 HD
BRANCH   4   7
ATOM      7  C   UNL A   1      35.354  23.513  24.390  1.00  0.00     0.271 C 
ATOM      8  C   UNL A   1      36.142  23.004  23.173  1.00  0.00     0.086 C 
BRANCH   7   9
ATOM      9  N   UNL A   1      33.895  23.803  24.223  1.00  0.00    -0.322 N 
ATOM     10  C   UNL A   1      31.539  26.899  23.216  1.00  0.00     0.293 C 
ATOM     11  O   UNL A   1      31.060  27.096  22.096  1.00  0.00    -0.265 OA
ATOM     12  N   UNL A   1      31.672  25.594  23.704  1.00  0.00    -0.325 N 
ATOM     13  C   UNL A   1      31.970  24.538  22.750  1.00  0.00     0.181 C 
ATOM     14  C   UNL A   1      31.935  25.197  25.082  1.00  0.00     0.181 C 
ATOM     15  C   UNL A   1      33.476  24.211  22.868  1.00  0.00     0.284 C 
ATOM     16  C   UNL A   1      33.400  24.741  25.261  1.00  0.00     0.284 C 
ATOM     17  H   UNL A   1      33.443  22.898  24.357  1.00  0.00     0.348 HD
BRANCH  10  18
ATOM     18  C   UNL A   1      32.097  28.021  24.018  1.00  0.00     0.239 A 
ATOM     19  C   UNL A   1      32.344  29.366  25.661  1.00  0.00     0.124 A 
ATOM     20  N   UNL A   1      31.433  28.616  25.084  1.00  0.00    -0.208 NA
ATOM     21  N   UNL A   1      33.501  29.274  24.946  1.00  0.00    -0.263 N 
ATOM     22  N   UNL A   1      33.371  28.448  23.901  1.00  0.00    -0.148 NA
ATOM     23  H   UNL A   1      34.329  29.756  25.170  1.00  0.00     0.192 HD
BRANCH  19  24
ATOM     24  C   UNL A   1      32.204  30.172  26.901  1.00  0.00     0.073 C 
ATOM     25  C   UNL A   1      31.656  31.561  26.605  1.00  0.00     0.012 C 
ENDBRANCH  19  24
ENDBRANCH  10  18
ENDBRANCH   7   9
ENDBRANCH   4   7
ENDBRANCH   2   3
ENDBRANCH   1   2
BRANCH   1  26
ATOM     26  C   UNL A   1      39.237  21.927  26.732  1.00  0.00     0.023 C 
BRANCH  26  27
ATOM     27  C   UNL A   1      39.179  20.927  25.580  1.00  0.00     0.116 C 
BRANCH  27  28
ATOM     28  N   UNL A   1      40.027  19.762  25.774  1.00  0.00    -0.352 N 
ATOM     29  C   UNL A   1      41.360  19.683  26.113  1.00  0.00     0.251 C 
ATOM     30  H   UNL A   1      39.580  18.894  25.642  1.00  0.00     0.163 HD
ATOM     31  O   UNL A   1      41.920  18.598  26.123  1.00  0.00    -0.269 OA
BRANCH  29  32
ATOM     32  C   UNL A   1      42.121  20.918  26.417  1.00  0.00     0.039 A 
ATOM     33  C   UNL A   1      42.502  21.741  25.355  1.00  0.00     0.014 A 
ATOM     34  C   UNL A   1      42.433  21.277  27.729  1.00  0.00     0.014 A 
ATOM     35  C   UNL A   1      43.117  22.966  25.619  1.00  0.00     0.010 A 
ATOM     36  C   UNL A   1      42.966  22.538  27.994  1.00  0.00     0.010 A 
ATOM     37  C   UNL A   1      43.309  23.398  26.943  1.00  0.00    -0.014 A 
BRANCH  37  38
ATOM     38  C   UNL A   1      43.832  24.762  27.224  1.00  0.00     0.031 A 
ATOM     39  C   UNL A   1      45.278  25.100  26.974  1.00  0.00     0.074 A 
ATOM     40  C   UNL A   1      43.001  25.691  27.744  1.00  0.00     0.049 A 
ATOM     41  N   UNL A   1      45.891  26.246  27.131  1.00  0.00    -0.248 NA
ATOM     42  C   UNL A   1      46.155  24.012  26.511  1.00  0.00     0.031 C 
ATOM     43  C   UNL A   1      41.594  25.469  28.097  1.00  0.00     0.029 A 
ATOM     44  N   UNL A   1      43.214  27.009  28.062  1.00  0.00    -0.354 N 
ATOM     45  C   UNL A   1      47.222  26.014  26.803  1.00  0.00     0.074 A 
ATOM     46  C   UNL A   1      47.340  24.609  26.481  1.00  0.00     0.031 C 
ATOM     47  C   UNL A   1      41.062  26.621  28.536  1.00  0.00     0.029 A 
ATOM     48  C   UNL A   1      42.093  27.653  28.534  1.00  0.00     0.049 A 
ATOM     49  H   UNL A   1      44.087  27.453  27.961  1.00  0.00     0.167 HD
ATOM     50  C   UNL A   1      48.249  26.894  26.756  1.00  0.00     0.031 A 
ATOM     51  C   UNL A   1      41.912  28.932  28.919  1.00  0.00     0.031 A 
ATOM     52  C   UNL A   1      48.125  28.297  27.052  1.00  0.00     0.049 A 
ATOM     53  C   UNL A   1      43.069  29.890  28.836  1.00  0.00     0.074 A 
ATOM     54  C   UNL A   1      49.089  29.285  26.943  1.00  0.00     0.029 A 
ATOM     55  N   UNL A   1      46.974  28.912  27.517  1.00  0.00    -0.354 N 
ATOM     56  N   UNL A   1      44.293  29.670  28.417  1.00  0.00    -0.248 NA
ATOM     57  C   UNL A   1      42.816  31.272  29.265  1.00  0.00     0.031 C 
ATOM     58  C   UNL A   1      48.538  30.485  27.402  1.00  0.00     0.029 A 
ATOM     59  C   UNL A   1      47.213  30.258  27.735  1.00  0.00     0.049 A 
ATOM     60  H   UNL A   1      46.113  28.458  27.669  1.00  0.00     0.167 HD
ATOM     61  C   UNL A   1      44.947  30.895  28.508  1.00  0.00     0.074 A 
ATOM     62  C   UNL A   1      43.975  31.853  28.992  1.00  0.00     0.031 C 
ATOM     63  C   UNL A   1      46.237  31.199  28.222  1.00  0.00     0.031 A 
BRANCH  50  64
ATOM     64  C   UNL A   1      49.611  26.376  26.369  1.00  0.00    -0.014 A 
ATOM     65  C   UNL A   1      50.034  26.375  25.028  1.00  0.00     0.010 A 
ATOM     66  C   UNL A   1      50.513  25.976  27.372  1.00  0.00     0.010 A 
ATOM     67  C   UNL A   1      51.329  25.968  24.696  1.00  0.00     0.020 A 
ATOM     68  C   UNL A   1      51.818  25.594  27.046  1.00  0.00     0.020 A 
ATOM     69  C   UNL A   1      52.215  25.587  25.707  1.00  0.00     0.054 A 
BRANCH  69  70
ATOM     70  S   UNL A   1      53.913  25.136  25.253  1.00  0.00     0.124 S 
ATOM     71  O   UNL A   1      54.167  26.022  24.119  1.00  0.00    -0.237 OA
ATOM     72  O   UNL A   1      54.660  25.445  26.469  1.00  0.00    -0.237 OA
ATOM     73  O   UNL A   1      53.821  23.716  24.925  1.00  0.00    -0.744 OA
ENDBRANCH  69  70
ENDBRANCH  50  64
BRANCH  51  74
ATOM     74  C   UNL A   1      40.583  29.395  29.410  1.00  0.00    -0.014 A 
ATOM     75  C   UNL A   1      39.588  29.808  28.505  1.00  0.00     0.010 A 
ATOM     76  C   UNL A   1      40.319  29.463  30.790  1.00  0.00     0.010 A 
ATOM     77  C   UNL A   1      38.375  30.324  28.971  1.00  0.00     0.020 A 
ATOM     78  C   UNL A   1      39.095  29.946  31.259  1.00  0.00     0.020 A 
ATOM     79  C   UNL A   1      38.139  30.395  30.347  1.00  0.00     0.054 A 
BRANCH  79  80
ATOM     80  S   UNL A   1      36.556  31.063  30.932  1.00  0.00     0.124 S 
ATOM     81  O   UNL A   1      36.956  32.357  31.474  1.00  0.00    -0.237 OA
ATOM     82  O   UNL A   1      35.758  31.107  29.709  1.00  0.00    -0.237 OA
ATOM     83  O   UNL A   1      36.116  30.078  31.919  1.00  0.00    -0.744 OA
ENDBRANCH  79  80
ENDBRANCH  51  74
BRANCH  63  84
ATOM     84  C   UNL A   1      46.660  32.633  28.399  1.00  0.00    -0.014 A 
ATOM     85  C   UNL A   1      47.210  33.088  29.611  1.00  0.00     0.010 A 
ATOM     86  C   UNL A   1      46.518  33.537  27.330  1.00  0.00     0.010 A 
ATOM     87  C   UNL A   1      47.558  34.431  29.770  1.00  0.00     0.020 A 
ATOM     88  C   UNL A   1      46.896  34.875  27.474  1.00  0.00     0.020 A 
ATOM     89  C   UNL A   1      47.392  35.318  28.702  1.00  0.00     0.054 A 
BRANCH  89  90
ATOM     90  S   UNL A   1      47.855  37.056  28.929  1.00  0.00     0.124 S 
ATOM     91  O   UNL A   1      47.444  37.648  27.659  1.00  0.00    -0.237 OA
ATOM     92  O   UNL A   1      47.065  37.449  30.092  1.00  0.00    -0.237 OA
ATOM     93  O   UNL A   1      49.298  37.003  29.153  1.00  0.00    -0.744 OA
ENDBRANCH  89  90
ENDBRANCH  63  84
ENDBRANCH  37  38
ENDBRANCH  29  32
ENDBRANCH  27  28
ENDBRANCH  26  27
ENDBRANCH   1  26
TORSDOF 17
ENDMDL
MODEL 3
REMARK VINA RESULT:     -10.3      0.631      8.159
REMARK SMILES CCc1nc(C(=O)N2CC[NH+]([C@H](C)C(=O)NCCCCNC(=O)c3ccc(-c4c5nc(c(-c6ccc(S(=O)(=O)[O-])cc6)c6ccc([nH]6)c(-c6ccc(S(=O)(=O)[O-])cc6)c6nc(c(-c7ccc(S(=O)(=O)[O-])cc7)c7ccc4[nH]7)C=C6)C=C5)cc3)CC2)n[nH]1
REMARK SMILES IDX 18 1 17 2 16 3 14 4 15 5 12 7 13 8 11 9 6 10 7 11 8 12 9 13
REMARK SMILES IDX 85 14 10 15 84 16 5 18 3 19 4 20 87 21 86 22 2 24 1 25 19 26
REMARK SMILES IDX 20 27 21 28 22 29 23 31 24 32 25 33 83 34 26 35 82 36 27 37
REMARK SMILES IDX 28 38 29 39 76 40 30 41 81 42 75 43 77 44 31 45 80 46 74 47
REMARK SMILES IDX 73 48 32 50 62 51 43 52 61 53 44 54 47 55 60 56 78 57 45 58
REMARK SMILES IDX 46 59 59 61 79 62 48 63 33 64 34 65 42 66 35 67 41 68 36 69
REMARK SMILES IDX 37 70 38 71 39 72 40 73 63 74 64 75 72 76 65 77 71 78 66 79
REMARK SMILES IDX 67 80 68 81 69 82 70 83 49 84 50 85 58 86 51 87 57 88 52 89
REMARK SMILES IDX 53 90 54 91 55 92 56 93
REMARK H PARENT 16 6 11 17 87 23 21 30 77 49 47 60
REMARK Flexibility Score: inf
ROOT
ATOM      1  C   UNL A   1      35.018  30.900  28.140  1.00  0.00     0.023 C 
ENDROOT
BRANCH   1   2
ATOM      2  C   UNL A   1      35.020  29.561  27.420  1.00  0.00     0.116 C 
BRANCH   2   3
ATOM      3  N   UNL A   1      34.429  29.594  26.098  1.00  0.00    -0.351 N 
ATOM      4  C   UNL A   1      33.326  28.940  25.618  1.00  0.00     0.278 C 
ATOM      5  O   UNL A   1      32.888  29.312  24.524  1.00  0.00    -0.268 OA
ATOM      6  H   UNL A   1      34.888  30.172  25.448  1.00  0.00     0.163 HD
BRANCH   4   7
ATOM      7  C   UNL A   1      32.661  27.765  26.380  1.00  0.00     0.271 C 
ATOM      8  C   UNL A   1      31.780  28.244  27.545  1.00  0.00     0.086 C 
BRANCH   7   9
ATOM      9  N   UNL A   1      32.143  26.672  25.499  1.00  0.00    -0.322 N 
ATOM     10  C   UNL A   1      31.816  22.666  25.547  1.00  0.00     0.293 C 
ATOM     11  O   UNL A   1      30.799  22.038  25.854  1.00  0.00    -0.265 OA
ATOM     12  N   UNL A   1      31.710  23.877  24.852  1.00  0.00    -0.325 N 
ATOM     13  C   UNL A   1      30.563  24.725  25.134  1.00  0.00     0.181 C 
ATOM     14  C   UNL A   1      32.782  24.589  24.166  1.00  0.00     0.181 C 
ATOM     15  C   UNL A   1      31.041  25.866  26.060  1.00  0.00     0.284 C 
ATOM     16  C   UNL A   1      33.241  25.820  24.978  1.00  0.00     0.284 C 
ATOM     17  H   UNL A   1      31.711  27.165  24.717  1.00  0.00     0.348 HD
BRANCH  10  18
ATOM     18  C   UNL A   1      33.158  22.225  26.011  1.00  0.00     0.239 A 
ATOM     19  C   UNL A   1      35.244  21.767  25.927  1.00  0.00     0.124 A 
ATOM     20  N   UNL A   1      34.181  21.832  25.158  1.00  0.00    -0.208 NA
ATOM     21  N   UNL A   1      34.874  22.056  27.207  1.00  0.00    -0.263 N 
ATOM     22  N   UNL A   1      33.567  22.334  27.292  1.00  0.00    -0.148 NA
ATOM     23  H   UNL A   1      35.491  22.060  27.974  1.00  0.00     0.192 HD
BRANCH  19  24
ATOM     24  C   UNL A   1      36.641  21.467  25.522  1.00  0.00     0.073 C 
ATOM     25  C   UNL A   1      37.082  22.336  24.353  1.00  0.00     0.012 C 
ENDBRANCH  19  24
ENDBRANCH  10  18
ENDBRANCH   7   9
ENDBRANCH   4   7
ENDBRANCH   2   3
ENDBRANCH   1   2
BRANCH   1  26
ATOM     26  C   UNL A   1      33.705  31.676  28.068  1.00  0.00     0.023 C 
BRANCH  26  27
ATOM     27  C   UNL A   1      33.735  32.964  27.250  1.00  0.00     0.116 C 
BRANCH  27  28
ATOM     28  N   UNL A   1      33.045  34.076  27.885  1.00  0.00    -0.352 N 
ATOM     29  C   UNL A   1      33.282  34.690  29.095  1.00  0.00     0.251 C 
ATOM     30  H   UNL A   1      32.292  34.447  27.370  1.00  0.00     0.163 HD
ATOM     31  O   UNL A   1      32.513  35.548  29.500  1.00  0.00    -0.269 OA
BRANCH  29  32
ATOM     32  C   UNL A   1      34.438  34.274  29.923  1.00  0.00     0.039 A 
ATOM     33  C   UNL A   1      34.187  33.643  31.143  1.00  0.00     0.014 A 
ATOM     34  C   UNL A   1      35.751  34.475  29.495  1.00  0.00     0.014 A 
ATOM     35  C   UNL A   1      35.254  33.137  31.889  1.00  0.00     0.010 A 
ATOM     36  C   UNL A   1      36.806  33.893  30.195  1.00  0.00     0.010 A 
ATOM     37  C   UNL A   1      36.569  33.212  31.398  1.00  0.00    -0.014 A 
BRANCH  37  38
ATOM     38  C   UNL A   1      37.685  32.548  32.122  1.00  0.00     0.031 A 
ATOM     39  C   UNL A   1      38.407  31.374  31.515  1.00  0.00     0.074 A 
ATOM     40  C   UNL A   1      38.024  32.986  33.353  1.00  0.00     0.049 A 
ATOM     41  N   UNL A   1      39.422  30.699  31.992  1.00  0.00    -0.248 NA
ATOM     42  C   UNL A   1      37.916  30.876  30.219  1.00  0.00     0.031 C 
ATOM     43  C   UNL A   1      37.356  34.071  34.081  1.00  0.00     0.029 A 
ATOM     44  N   UNL A   1      39.016  32.579  34.210  1.00  0.00    -0.354 N 
ATOM     45  C   UNL A   1      39.679  29.693  31.069  1.00  0.00     0.074 A 
ATOM     46  C   UNL A   1      38.687  29.815  30.023  1.00  0.00     0.031 C 
ATOM     47  C   UNL A   1      37.987  34.273  35.249  1.00  0.00     0.029 A 
ATOM     48  C   UNL A   1      39.078  33.311  35.374  1.00  0.00     0.049 A 
ATOM     49  H   UNL A   1      39.628  31.834  34.010  1.00  0.00     0.167 HD
ATOM     50  C   UNL A   1      40.663  28.764  31.079  1.00  0.00     0.031 A 
ATOM     51  C   UNL A   1      39.918  33.222  36.424  1.00  0.00     0.031 A 
ATOM     52  C   UNL A   1      41.665  28.661  32.108  1.00  0.00     0.049 A 
ATOM     53  C   UNL A   1      41.014  32.191  36.396  1.00  0.00     0.074 A 
ATOM     54  C   UNL A   1      42.757  27.810  32.159  1.00  0.00     0.029 A 
ATOM     55  N   UNL A   1      41.699  29.424  33.264  1.00  0.00    -0.354 N 
ATOM     56  N   UNL A   1      41.304  31.322  35.457  1.00  0.00    -0.248 NA
ATOM     57  C   UNL A   1      41.904  32.140  37.563  1.00  0.00     0.031 C 
ATOM     58  C   UNL A   1      43.415  28.016  33.375  1.00  0.00     0.029 A 
ATOM     59  C   UNL A   1      42.771  29.039  34.052  1.00  0.00     0.049 A 
ATOM     60  H   UNL A   1      41.056  30.134  33.490  1.00  0.00     0.167 HD
ATOM     61  C   UNL A   1      42.428  30.639  35.912  1.00  0.00     0.074 A 
ATOM     62  C   UNL A   1      42.779  31.217  37.193  1.00  0.00     0.031 C 
ATOM     63  C   UNL A   1      43.105  29.621  35.326  1.00  0.00     0.031 A 
BRANCH  50  64
ATOM     64  C   UNL A   1      40.718  27.774  29.944  1.00  0.00    -0.014 A 
ATOM     65  C   UNL A   1      39.737  26.777  29.800  1.00  0.00     0.010 A 
ATOM     66  C   UNL A   1      41.711  27.905  28.956  1.00  0.00     0.010 A 
ATOM     67  C   UNL A   1      39.758  25.919  28.696  1.00  0.00     0.020 A 
ATOM     68  C   UNL A   1      41.720  27.066  27.837  1.00  0.00     0.020 A 
ATOM     69  C   UNL A   1      40.745  26.074  27.719  1.00  0.00     0.054 A 
BRANCH  69  70
ATOM     70  S   UNL A   1      40.702  24.995  26.261  1.00  0.00     0.124 S 
ATOM     71  O   UNL A   1      39.288  24.631  26.197  1.00  0.00    -0.237 OA
ATOM     72  O   UNL A   1      41.170  25.880  25.197  1.00  0.00    -0.237 OA
ATOM     73  O   UNL A   1      41.610  23.905  26.606  1.00  0.00    -0.744 OA
ENDBRANCH  69  70
ENDBRANCH  50  64
BRANCH  51  74
ATOM     74  C   UNL A   1      39.773  34.138  37.591  1.00  0.00    -0.014 A 
ATOM     75  C   UNL A   1      40.438  35.377  37.617  1.00  0.00     0.010 A 
ATOM     76  C   UNL A   1      38.999  33.756  38.701  1.00  0.00     0.010 A 
ATOM     77  C   UNL A   1      40.371  36.195  38.749  1.00  0.00     0.020 A 
ATOM     78  C   UNL A   1      38.901  34.586  39.822  1.00  0.00     0.020 A 
ATOM     79  C   UNL A   1      39.606  35.790  39.848  1.00  0.00     0.054 A 
BRANCH  79  80
ATOM     80  S   UNL A   1      39.527  36.868  41.306  1.00  0.00     0.124 S 
ATOM     81  O   UNL A   1      38.896  38.067  40.762  1.00  0.00    -0.237 OA
ATOM     82  O   UNL A   1      38.712  36.087  42.233  1.00  0.00    -0.237 OA
ATOM     83  O   UNL A   1      40.928  37.017  41.694  1.00  0.00    -0.744 OA
ENDBRANCH  79  80
ENDBRANCH  51  74
BRANCH  63  84
ATOM     84  C   UNL A   1      44.311  29.089  36.055  1.00  0.00    -0.014 A 
ATOM     85  C   UNL A   1      45.586  29.653  35.866  1.00  0.00     0.010 A 
ATOM     86  C   UNL A   1      44.164  28.017  36.953  1.00  0.00     0.010 A 
ATOM     87  C   UNL A   1      46.699  29.119  36.518  1.00  0.00     0.020 A 
ATOM     88  C   UNL A   1      45.270  27.501  37.633  1.00  0.00     0.020 A 
ATOM     89  C   UNL A   1      46.535  28.041  37.393  1.00  0.00     0.054 A 
BRANCH  89  90
ATOM     90  S   UNL A   1      47.994  27.369  38.233  1.00  0.00     0.124 S 
ATOM     91  O   UNL A   1      47.858  25.937  37.976  1.00  0.00    -0.237 OA
ATOM     92  O   UNL A   1      49.097  28.030  37.541  1.00  0.00    -0.237 OA
ATOM     93  O   UNL A   1      47.809  27.771  39.625  1.00  0.00    -0.744 OA
ENDBRANCH  89  90
ENDBRANCH  63  84
ENDBRANCH  37  38
ENDBRANCH  29  32
ENDBRANCH  27  28
ENDBRANCH  26  27
ENDBRANCH   1  26
TORSDOF 17
ENDMDL
