MODEL 1
REMARK VINA RESULT:     -10.6      0.000      0.000
REMARK SMILES CC(C)(C)OC(=O)[C@@H]1[NH2+][C@H](C(=O)NCCCCNC(=O)c2ccc(-c3c4nc(c(-c5ccc(S(=O)(=O)[O-])cc5)c5ccc([nH]5)c(-c5ccc(S(=O)(=O)[O-])cc5)c5nc(c(-c6ccc(S(=O)(=O)[O-])cc6)c6ccc3[nH]6)C=C5)C=C4)cc2)C(C)(C)S1
REMARK SMILES IDX 15 1 14 2 13 3 11 4 12 5 10 7 8 8 9 9 84 10 81 13 82 14
REMARK SMILES IDX 83 15 6 16 7 17 5 18 2 19 1 20 3 21 4 22 16 23 17 24 18 25
REMARK SMILES IDX 19 26 20 28 21 29 22 30 80 31 23 32 79 33 24 34 25 35 26 36
REMARK SMILES IDX 73 37 27 38 78 39 72 40 74 41 28 42 77 43 71 44 70 45 29 47
REMARK SMILES IDX 59 48 40 49 58 50 41 51 44 52 57 53 75 54 42 55 43 56 56 58
REMARK SMILES IDX 76 59 45 60 30 61 31 62 39 63 32 64 38 65 33 66 34 67 35 68
REMARK SMILES IDX 36 69 37 70 60 71 61 72 69 73 62 74 68 75 63 76 64 77 65 78
REMARK SMILES IDX 66 79 67 80 46 81 47 82 55 83 48 84 54 85 49 86 50 87 51 88
REMARK SMILES IDX 52 89 53 90
REMARK H PARENT 13 6 9 11 9 12 18 27 74 46 44 57
REMARK Flexibility Score: inf
ROOT
ATOM      1  C   UNL A   1      37.192  20.387  25.165  1.00  0.00     0.023 C 
ENDROOT
BRANCH   1   2
ATOM      2  C   UNL A   1      37.133  21.832  25.668  1.00  0.00     0.116 C 
BRANCH   2   3
ATOM      3  N   UNL A   1      35.905  22.060  26.401  1.00  0.00    -0.351 N 
ATOM      4  C   UNL A   1      34.853  22.876  26.096  1.00  0.00     0.279 C 
ATOM      5  O   UNL A   1      34.061  23.125  27.002  1.00  0.00    -0.268 OA
ATOM      6  H   UNL A   1      35.815  21.553  27.240  1.00  0.00     0.163 HD
BRANCH   4   7
ATOM      7  C   UNL A   1      34.679  23.386  24.644  1.00  0.00     0.289 C 
ATOM      8  C   UNL A   1      32.960  21.918  23.804  1.00  0.00     0.354 C 
ATOM      9  N   UNL A   1      34.417  22.218  23.749  1.00  0.00    -0.314 N 
ATOM     10  S   UNL A   1      32.059  23.452  24.166  1.00  0.00    -0.074 SA
ATOM     11  H   UNL A   1      34.688  22.447  22.793  1.00  0.00     0.348 HD
ATOM     12  H   UNL A   1      34.959  21.408  24.052  1.00  0.00     0.348 HD
ATOM     13  C   UNL A   1      33.573  24.438  24.402  1.00  0.00     0.078 C 
ATOM     14  C   UNL A   1      33.837  25.195  23.083  1.00  0.00     0.030 C 
ATOM     15  C   UNL A   1      33.413  25.465  25.525  1.00  0.00     0.030 C 
BRANCH   8  16
ATOM     16  C   UNL A   1      32.655  20.716  24.722  1.00  0.00     0.376 C 
ATOM     17  O   UNL A   1      31.614  20.641  25.373  1.00  0.00    -0.244 OA
BRANCH  16  18
ATOM     18  O   UNL A   1      33.627  19.770  24.719  1.00  0.00    -0.455 OA
BRANCH  18  19
ATOM     19  C   UNL A   1      33.343  18.385  24.397  1.00  0.00     0.104 C 
ATOM     20  C   UNL A   1      34.720  17.724  24.224  1.00  0.00     0.056 C 
ATOM     21  C   UNL A   1      32.572  18.245  23.076  1.00  0.00     0.056 C 
ATOM     22  C   UNL A   1      32.612  17.700  25.555  1.00  0.00     0.056 C 
ENDBRANCH  18  19
ENDBRANCH  16  18
ENDBRANCH   8  16
ENDBRANCH   4   7
ENDBRANCH   2   3
ENDBRANCH   1   2
BRANCH   1  23
ATOM     23  C   UNL A   1      38.611  19.861  24.906  1.00  0.00     0.023 C 
BRANCH  23  24
ATOM     24  C   UNL A   1      39.643  20.215  25.973  1.00  0.00     0.116 C 
BRANCH  24  25
ATOM     25  N   UNL A   1      40.649  19.179  26.146  1.00  0.00    -0.352 N 
ATOM     26  C   UNL A   1      42.001  19.322  26.346  1.00  0.00     0.251 C 
ATOM     27  H   UNL A   1      40.317  18.253  26.116  1.00  0.00     0.163 HD
ATOM     28  O   UNL A   1      42.731  18.335  26.335  1.00  0.00    -0.269 OA
BRANCH  26  29
ATOM     29  C   UNL A   1      42.574  20.672  26.540  1.00  0.00     0.039 A 
ATOM     30  C   UNL A   1      43.042  21.375  25.427  1.00  0.00     0.014 A 
ATOM     31  C   UNL A   1      42.630  21.247  27.813  1.00  0.00     0.014 A 
ATOM     32  C   UNL A   1      43.506  22.684  25.580  1.00  0.00     0.010 A 
ATOM     33  C   UNL A   1      43.038  22.572  27.954  1.00  0.00     0.010 A 
ATOM     34  C   UNL A   1      43.473  23.306  26.839  1.00  0.00    -0.014 A 
BRANCH  34  35
ATOM     35  C   UNL A   1      43.889  24.720  27.024  1.00  0.00     0.031 A 
ATOM     36  C   UNL A   1      45.337  25.099  26.878  1.00  0.00     0.074 A 
ATOM     37  C   UNL A   1      42.981  25.645  27.401  1.00  0.00     0.049 A 
ATOM     38  N   UNL A   1      45.922  26.238  27.145  1.00  0.00    -0.248 NA
ATOM     39  C   UNL A   1      46.250  24.053  26.386  1.00  0.00     0.031 C 
ATOM     40  C   UNL A   1      41.548  25.403  27.589  1.00  0.00     0.029 A 
ATOM     41  N   UNL A   1      43.134  26.974  27.711  1.00  0.00    -0.354 N 
ATOM     42  C   UNL A   1      47.271  26.043  26.870  1.00  0.00     0.074 A 
ATOM     43  C   UNL A   1      47.424  24.666  26.455  1.00  0.00     0.031 C 
ATOM     44  C   UNL A   1      40.956  26.546  27.971  1.00  0.00     0.029 A 
ATOM     45  C   UNL A   1      41.968  27.589  28.103  1.00  0.00     0.049 A 
ATOM     46  H   UNL A   1      43.999  27.442  27.658  1.00  0.00     0.167 HD
ATOM     47  C   UNL A   1      48.288  26.934  26.942  1.00  0.00     0.031 A 
ATOM     48  C   UNL A   1      41.742  28.844  28.538  1.00  0.00     0.031 A 
ATOM     49  C   UNL A   1      48.132  28.306  27.342  1.00  0.00     0.049 A 
ATOM     50  C   UNL A   1      42.897  29.807  28.638  1.00  0.00     0.074 A 
ATOM     51  C   UNL A   1      49.100  29.291  27.430  1.00  0.00     0.029 A 
ATOM     52  N   UNL A   1      46.930  28.892  27.706  1.00  0.00    -0.354 N 
ATOM     53  N   UNL A   1      44.161  29.607  28.355  1.00  0.00    -0.248 NA
ATOM     54  C   UNL A   1      42.593  31.166  29.109  1.00  0.00     0.031 C 
ATOM     55  C   UNL A   1      48.489  30.465  27.879  1.00  0.00     0.029 A 
ATOM     56  C   UNL A   1      47.133  30.224  28.021  1.00  0.00     0.049 A 
ATOM     57  H   UNL A   1      46.061  28.430  27.737  1.00  0.00     0.167 HD
ATOM     58  C   UNL A   1      44.794  30.827  28.572  1.00  0.00     0.074 A 
ATOM     59  C   UNL A   1      43.775  31.758  29.009  1.00  0.00     0.031 C 
ATOM     60  C   UNL A   1      46.101  31.147  28.418  1.00  0.00     0.031 A 
BRANCH  47  61
ATOM     61  C   UNL A   1      49.665  26.457  26.568  1.00  0.00    -0.014 A 
ATOM     62  C   UNL A   1      50.508  25.873  27.530  1.00  0.00     0.010 A 
ATOM     63  C   UNL A   1      50.095  26.526  25.230  1.00  0.00     0.010 A 
ATOM     64  C   UNL A   1      51.767  25.389  27.166  1.00  0.00     0.020 A 
ATOM     65  C   UNL A   1      51.344  26.021  24.858  1.00  0.00     0.020 A 
ATOM     66  C   UNL A   1      52.176  25.465  25.832  1.00  0.00     0.054 A 
BRANCH  66  67
ATOM     67  S   UNL A   1      53.796  24.785  25.381  1.00  0.00     0.124 S 
ATOM     68  O   UNL A   1      54.185  25.648  24.268  1.00  0.00    -0.237 OA
ATOM     69  O   UNL A   1      54.570  24.958  26.608  1.00  0.00    -0.237 OA
ATOM     70  O   UNL A   1      53.505  23.399  25.022  1.00  0.00    -0.744 OA
ENDBRANCH  66  67
ENDBRANCH  47  61
BRANCH  48  71
ATOM     71  C   UNL A   1      40.370  29.275  28.921  1.00  0.00    -0.014 A 
ATOM     72  C   UNL A   1      39.421  29.597  27.933  1.00  0.00     0.010 A 
ATOM     73  C   UNL A   1      40.011  29.395  30.276  1.00  0.00     0.010 A 
ATOM     74  C   UNL A   1      38.156  30.070  28.291  1.00  0.00     0.020 A 
ATOM     75  C   UNL A   1      38.737  29.841  30.638  1.00  0.00     0.020 A 
ATOM     76  C   UNL A   1      37.825  30.197  29.643  1.00  0.00     0.054 A 
BRANCH  76  77
ATOM     77  S   UNL A   1      36.174  30.805  30.089  1.00  0.00     0.124 S 
ATOM     78  O   UNL A   1      35.884  30.034  31.294  1.00  0.00    -0.237 OA
ATOM     79  O   UNL A   1      36.406  32.233  30.292  1.00  0.00    -0.237 OA
ATOM     80  O   UNL A   1      35.363  30.473  28.921  1.00  0.00    -0.744 OA
ENDBRANCH  76  77
ENDBRANCH  48  71
BRANCH  60  81
ATOM     81  C   UNL A   1      46.506  32.577  28.646  1.00  0.00    -0.014 A 
ATOM     82  C   UNL A   1      46.405  33.539  27.628  1.00  0.00     0.010 A 
ATOM     83  C   UNL A   1      46.908  32.977  29.935  1.00  0.00     0.010 A 
ATOM     84  C   UNL A   1      46.710  34.878  27.892  1.00  0.00     0.020 A 
ATOM     85  C   UNL A   1      47.189  34.317  30.208  1.00  0.00     0.020 A 
ATOM     86  C   UNL A   1      47.094  35.259  29.182  1.00  0.00     0.054 A 
BRANCH  86  87
ATOM     87  S   UNL A   1      47.404  37.014  29.520  1.00  0.00     0.124 S 
ATOM     88  O   UNL A   1      48.584  37.278  28.699  1.00  0.00    -0.237 OA
ATOM     89  O   UNL A   1      46.169  37.651  29.070  1.00  0.00    -0.237 OA
ATOM     90  O   UNL A   1      47.629  37.055  30.963  1.00  0.00    -0.744 OA
ENDBRANCH  86  87
ENDBRANCH  60  81
ENDBRANCH  34  35
ENDBRANCH  26  29
ENDBRANCH  24  25
ENDBRANCH  23  24
ENDBRANCH   1  23
TORSDOF 17
ENDMDL
MODEL 2
REMARK VINA RESULT:     -10.2      0.792      8.318
REMARK SMILES CC(C)(C)OC(=O)[C@@H]1[NH2+][C@H](C(=O)NCCCCNC(=O)c2ccc(-c3c4nc(c(-c5ccc(S(=O)(=O)[O-])cc5)c5ccc([nH]5)c(-c5ccc(S(=O)(=O)[O-])cc5)c5nc(c(-c6ccc(S(=O)(=O)[O-])cc6)c6ccc3[nH]6)C=C5)C=C4)cc2)C(C)(C)S1
REMARK SMILES IDX 15 1 14 2 13 3 11 4 12 5 10 7 8 8 9 9 84 10 81 13 82 14
REMARK SMILES IDX 83 15 6 16 7 17 5 18 2 19 1 20 3 21 4 22 16 23 17 24 18 25
REMARK SMILES IDX 19 26 20 28 21 29 22 30 80 31 23 32 79 33 24 34 25 35 26 36
REMARK SMILES IDX 73 37 27 38 78 39 72 40 74 41 28 42 77 43 71 44 70 45 29 47
REMARK SMILES IDX 59 48 40 49 58 50 41 51 44 52 57 53 75 54 42 55 43 56 56 58
REMARK SMILES IDX 76 59 45 60 30 61 31 62 39 63 32 64 38 65 33 66 34 67 35 68
REMARK SMILES IDX 36 69 37 70 60 71 61 72 69 73 62 74 68 75 63 76 64 77 65 78
REMARK SMILES IDX 66 79 67 80 46 81 47 82 55 83 48 84 54 85 49 86 50 87 51 88
REMARK SMILES IDX 52 89 53 90
REMARK H PARENT 13 6 9 11 9 12 18 27 74 46 44 57
REMARK Flexibility Score: inf
ROOT
ATOM      1  C   UNL A   1      36.553  21.424  25.602  1.00  0.00     0.023 C 
ENDROOT
BRANCH   1   2
ATOM      2  C   UNL A   1      36.268  22.921  25.749  1.00  0.00     0.116 C 
BRANCH   2   3
ATOM      3  N   UNL A   1      34.944  23.129  26.298  1.00  0.00    -0.351 N 
ATOM      4  C   UNL A   1      33.856  23.730  25.732  1.00  0.00     0.279 C 
ATOM      5  O   UNL A   1      32.939  24.047  26.487  1.00  0.00    -0.268 OA
ATOM      6  H   UNL A   1      34.808  22.787  27.211  1.00  0.00     0.163 HD
BRANCH   4   7
ATOM      7  C   UNL A   1      33.804  23.923  24.195  1.00  0.00     0.289 C 
ATOM      8  C   UNL A   1      32.697  21.903  23.479  1.00  0.00     0.354 C 
ATOM      9  N   UNL A   1      34.013  22.598  23.535  1.00  0.00    -0.314 N 
ATOM     10  S   UNL A   1      31.379  23.149  23.410  1.00  0.00    -0.074 SA
ATOM     11  H   UNL A   1      34.374  22.735  22.590  1.00  0.00     0.348 HD
ATOM     12  H   UNL A   1      34.688  22.041  24.058  1.00  0.00     0.348 HD
ATOM     13  C   UNL A   1      32.520  24.555  23.615  1.00  0.00     0.078 C 
ATOM     14  C   UNL A   1      32.796  25.129  22.208  1.00  0.00     0.030 C 
ATOM     15  C   UNL A   1      31.908  25.662  24.476  1.00  0.00     0.030 C 
BRANCH   8  16
ATOM     16  C   UNL A   1      32.566  20.832  24.581  1.00  0.00     0.376 C 
ATOM     17  O   UNL A   1      31.603  20.799  25.345  1.00  0.00    -0.244 OA
BRANCH  16  18
ATOM     18  O   UNL A   1      33.593  19.946  24.603  1.00  0.00    -0.455 OA
BRANCH  18  19
ATOM     19  C   UNL A   1      33.375  18.521  24.450  1.00  0.00     0.104 C 
ATOM     20  C   UNL A   1      32.471  18.385  23.214  1.00  0.00     0.056 C 
ATOM     21  C   UNL A   1      32.639  17.916  25.654  1.00  0.00     0.056 C 
ATOM     22  C   UNL A   1      34.697  17.799  24.173  1.00  0.00     0.056 C 
ENDBRANCH  18  19
ENDBRANCH  16  18
ENDBRANCH   8  16
ENDBRANCH   4   7
ENDBRANCH   2   3
ENDBRANCH   1   2
BRANCH   1  23
ATOM     23  C   UNL A   1      37.950  21.093  25.058  1.00  0.00     0.023 C 
BRANCH  23  24
ATOM     24  C   UNL A   1      39.080  21.155  26.082  1.00  0.00     0.116 C 
BRANCH  24  25
ATOM     25  N   UNL A   1      39.947  19.988  26.032  1.00  0.00    -0.352 N 
ATOM     26  C   UNL A   1      41.315  19.931  26.147  1.00  0.00     0.251 C 
ATOM     27  H   UNL A   1      39.493  19.125  25.898  1.00  0.00     0.163 HD
ATOM     28  O   UNL A   1      41.905  18.873  25.943  1.00  0.00    -0.269 OA
BRANCH  26  29
ATOM     29  C   UNL A   1      42.073  21.156  26.483  1.00  0.00     0.039 A 
ATOM     30  C   UNL A   1      42.434  22.032  25.456  1.00  0.00     0.014 A 
ATOM     31  C   UNL A   1      42.410  21.446  27.808  1.00  0.00     0.014 A 
ATOM     32  C   UNL A   1      43.073  23.236  25.765  1.00  0.00     0.010 A 
ATOM     33  C   UNL A   1      42.995  22.671  28.119  1.00  0.00     0.010 A 
ATOM     34  C   UNL A   1      43.327  23.581  27.102  1.00  0.00    -0.014 A 
BRANCH  34  35
ATOM     35  C   UNL A   1      43.937  24.884  27.472  1.00  0.00     0.031 A 
ATOM     36  C   UNL A   1      43.067  25.999  27.983  1.00  0.00     0.074 A 
ATOM     37  C   UNL A   1      45.256  25.090  27.273  1.00  0.00     0.049 A 
ATOM     38  N   UNL A   1      43.378  27.248  28.215  1.00  0.00    -0.248 NA
ATOM     39  C   UNL A   1      41.656  25.670  28.249  1.00  0.00     0.031 C 
ATOM     40  C   UNL A   1      46.207  24.095  26.771  1.00  0.00     0.029 A 
ATOM     41  N   UNL A   1      46.022  26.215  27.453  1.00  0.00    -0.354 N 
ATOM     42  C   UNL A   1      42.203  27.859  28.636  1.00  0.00     0.074 A 
ATOM     43  C   UNL A   1      41.163  26.853  28.591  1.00  0.00     0.031 C 
ATOM     44  C   UNL A   1      47.427  24.651  26.695  1.00  0.00     0.029 A 
ATOM     45  C   UNL A   1      47.339  26.052  27.093  1.00  0.00     0.049 A 
ATOM     46  H   UNL A   1      45.661  27.061  27.807  1.00  0.00     0.167 HD
ATOM     47  C   UNL A   1      42.009  29.136  29.041  1.00  0.00     0.031 A 
ATOM     48  C   UNL A   1      48.357  26.934  27.068  1.00  0.00     0.031 A 
ATOM     49  C   UNL A   1      43.047  30.130  29.099  1.00  0.00     0.049 A 
ATOM     50  C   UNL A   1      48.108  28.358  27.493  1.00  0.00     0.074 A 
ATOM     51  C   UNL A   1      42.952  31.448  29.511  1.00  0.00     0.029 A 
ATOM     52  N   UNL A   1      44.370  29.914  28.749  1.00  0.00    -0.354 N 
ATOM     53  N   UNL A   1      46.992  28.909  27.907  1.00  0.00    -0.248 NA
ATOM     54  C   UNL A   1      49.255  29.276  27.455  1.00  0.00     0.031 C 
ATOM     55  C   UNL A   1      44.211  32.038  29.379  1.00  0.00     0.029 A 
ATOM     56  C   UNL A   1      45.100  31.074  28.935  1.00  0.00     0.049 A 
ATOM     57  H   UNL A   1      44.736  29.062  28.417  1.00  0.00     0.167 HD
ATOM     58  C   UNL A   1      47.316  30.226  28.221  1.00  0.00     0.074 A 
ATOM     59  C   UNL A   1      48.728  30.389  27.949  1.00  0.00     0.031 C 
ATOM     60  C   UNL A   1      46.514  31.209  28.695  1.00  0.00     0.031 A 
BRANCH  47  61
ATOM     61  C   UNL A   1      40.622  29.533  29.467  1.00  0.00    -0.014 A 
ATOM     62  C   UNL A   1      40.257  29.524  30.825  1.00  0.00     0.010 A 
ATOM     63  C   UNL A   1      39.695  29.989  28.511  1.00  0.00     0.010 A 
ATOM     64  C   UNL A   1      38.983  29.940  31.218  1.00  0.00     0.020 A 
ATOM     65  C   UNL A   1      38.428  30.429  28.903  1.00  0.00     0.020 A 
ATOM     66  C   UNL A   1      38.077  30.391  30.254  1.00  0.00     0.054 A 
BRANCH  66  67
ATOM     67  S   UNL A   1      36.446  30.969  30.800  1.00  0.00     0.124 S 
ATOM     68  O   UNL A   1      36.737  32.341  31.209  1.00  0.00    -0.237 OA
ATOM     69  O   UNL A   1      35.636  30.833  29.592  1.00  0.00    -0.237 OA
ATOM     70  O   UNL A   1      36.099  30.056  31.886  1.00  0.00    -0.744 OA
ENDBRANCH  66  67
ENDBRANCH  47  61
BRANCH  48  71
ATOM     71  C   UNL A   1      49.712  26.511  26.619  1.00  0.00    -0.014 A 
ATOM     72  C   UNL A   1      50.115  26.707  25.285  1.00  0.00     0.010 A 
ATOM     73  C   UNL A   1      50.597  25.882  27.513  1.00  0.00     0.010 A 
ATOM     74  C   UNL A   1      51.358  26.245  24.844  1.00  0.00     0.020 A 
ATOM     75  C   UNL A   1      51.853  25.445  27.083  1.00  0.00     0.020 A 
ATOM     76  C   UNL A   1      52.216  25.610  25.745  1.00  0.00     0.054 A 
BRANCH  76  77
ATOM     77  S   UNL A   1      53.830  25.025  25.156  1.00  0.00     0.124 S 
ATOM     78  O   UNL A   1      54.726  25.510  26.202  1.00  0.00    -0.237 OA
ATOM     79  O   UNL A   1      53.644  23.577  25.104  1.00  0.00    -0.237 OA
ATOM     80  O   UNL A   1      53.973  25.674  23.856  1.00  0.00    -0.744 OA
ENDBRANCH  76  77
ENDBRANCH  48  71
BRANCH  60  81
ATOM     81  C   UNL A   1      47.146  32.532  29.028  1.00  0.00    -0.014 A 
ATOM     82  C   UNL A   1      47.200  33.576  28.089  1.00  0.00     0.010 A 
ATOM     83  C   UNL A   1      47.610  32.759  30.338  1.00  0.00     0.010 A 
ATOM     84  C   UNL A   1      47.718  34.823  28.452  1.00  0.00     0.020 A 
ATOM     85  C   UNL A   1      48.106  34.010  30.710  1.00  0.00     0.020 A 
ATOM     86  C   UNL A   1      48.162  35.033  29.762  1.00  0.00     0.054 A 
BRANCH  86  87
ATOM     87  S   UNL A   1      48.753  36.683  30.231  1.00  0.00     0.124 S 
ATOM     88  O   UNL A   1      48.123  36.873  31.534  1.00  0.00    -0.237 OA
ATOM     89  O   UNL A   1      50.203  36.510  30.253  1.00  0.00    -0.237 OA
ATOM     90  O   UNL A   1      48.252  37.547  29.165  1.00  0.00    -0.744 OA
ENDBRANCH  86  87
ENDBRANCH  60  81
ENDBRANCH  34  35
ENDBRANCH  26  29
ENDBRANCH  24  25
ENDBRANCH  23  24
ENDBRANCH   1  23
TORSDOF 17
ENDMDL
MODEL 3
REMARK VINA RESULT:      -9.9      1.469      8.772
REMARK SMILES CC(C)(C)OC(=O)[C@@H]1[NH2+][C@H](C(=O)NCCCCNC(=O)c2ccc(-c3c4nc(c(-c5ccc(S(=O)(=O)[O-])cc5)c5ccc([nH]5)c(-c5ccc(S(=O)(=O)[O-])cc5)c5nc(c(-c6ccc(S(=O)(=O)[O-])cc6)c6ccc3[nH]6)C=C5)C=C4)cc2)C(C)(C)S1
REMARK SMILES IDX 15 1 14 2 13 3 11 4 12 5 10 7 8 8 9 9 84 10 81 13 82 14
REMARK SMILES IDX 83 15 6 16 7 17 5 18 2 19 1 20 3 21 4 22 16 23 17 24 18 25
REMARK SMILES IDX 19 26 20 28 21 29 22 30 80 31 23 32 79 33 24 34 25 35 26 36
REMARK SMILES IDX 73 37 27 38 78 39 72 40 74 41 28 42 77 43 71 44 70 45 29 47
REMARK SMILES IDX 59 48 40 49 58 50 41 51 44 52 57 53 75 54 42 55 43 56 56 58
REMARK SMILES IDX 76 59 45 60 30 61 31 62 39 63 32 64 38 65 33 66 34 67 35 68
REMARK SMILES IDX 36 69 37 70 60 71 61 72 69 73 62 74 68 75 63 76 64 77 65 78
REMARK SMILES IDX 66 79 67 80 46 81 47 82 55 83 48 84 54 85 49 86 50 87 51 88
REMARK SMILES IDX 52 89 53 90
REMARK H PARENT 13 6 9 11 9 12 18 27 74 46 44 57
REMARK Flexibility Score: inf
ROOT
ATOM      1  C   UNL A   1      36.688  21.932  25.137  1.00  0.00     0.023 C 
ENDROOT
BRANCH   1   2
ATOM      2  C   UNL A   1      36.722  23.007  24.047  1.00  0.00     0.116 C 
BRANCH   2   3
ATOM      3  N   UNL A   1      35.474  23.021  23.314  1.00  0.00    -0.351 N 
ATOM      4  C   UNL A   1      34.194  22.916  23.780  1.00  0.00     0.279 C 
ATOM      5  O   UNL A   1      33.320  22.663  22.955  1.00  0.00    -0.268 OA
ATOM      6  H   UNL A   1      35.559  23.120  22.338  1.00  0.00     0.163 HD
BRANCH   4   7
ATOM      7  C   UNL A   1      33.905  23.179  25.279  1.00  0.00     0.289 C 
ATOM      8  C   UNL A   1      32.416  25.073  25.175  1.00  0.00     0.354 C 
ATOM      9  N   UNL A   1      33.806  24.653  25.502  1.00  0.00    -0.314 N 
ATOM     10  S   UNL A   1      31.295  23.677  25.479  1.00  0.00    -0.074 SA
ATOM     11  H   UNL A   1      34.014  24.871  26.477  1.00  0.00     0.348 HD
ATOM     12  H   UNL A   1      34.476  25.149  24.913  1.00  0.00     0.348 HD
ATOM     13  C   UNL A   1      32.642  22.514  25.872  1.00  0.00     0.078 C 
ATOM     14  C   UNL A   1      32.750  22.443  27.411  1.00  0.00     0.030 C 
ATOM     15  C   UNL A   1      32.352  21.109  25.343  1.00  0.00     0.030 C 
BRANCH   8  16
ATOM     16  C   UNL A   1      32.326  25.727  23.780  1.00  0.00     0.376 C 
ATOM     17  O   UNL A   1      31.409  25.476  23.001  1.00  0.00    -0.244 OA
BRANCH  16  18
ATOM     18  O   UNL A   1      33.334  26.599  23.524  1.00  0.00    -0.455 OA
BRANCH  18  19
ATOM     19  C   UNL A   1      33.240  28.001  23.882  1.00  0.00     0.104 C 
ATOM     20  C   UNL A   1      34.048  28.743  22.805  1.00  0.00     0.056 C 
ATOM     21  C   UNL A   1      33.876  28.292  25.249  1.00  0.00     0.056 C 
ATOM     22  C   UNL A   1      31.786  28.477  23.820  1.00  0.00     0.056 C 
ENDBRANCH  18  19
ENDBRANCH  16  18
ENDBRANCH   8  16
ENDBRANCH   4   7
ENDBRANCH   2   3
ENDBRANCH   1   2
BRANCH   1  23
ATOM     23  C   UNL A   1      37.771  20.854  25.000  1.00  0.00     0.023 C 
BRANCH  23  24
ATOM     24  C   UNL A   1      38.999  21.047  25.885  1.00  0.00     0.116 C 
BRANCH  24  25
ATOM     25  N   UNL A   1      39.850  19.869  25.931  1.00  0.00    -0.352 N 
ATOM     26  C   UNL A   1      41.211  19.799  26.111  1.00  0.00     0.251 C 
ATOM     27  H   UNL A   1      39.389  19.005  25.819  1.00  0.00     0.163 HD
ATOM     28  O   UNL A   1      41.792  18.725  25.986  1.00  0.00    -0.269 OA
BRANCH  26  29
ATOM     29  C   UNL A   1      41.971  21.029  26.422  1.00  0.00     0.039 A 
ATOM     30  C   UNL A   1      42.346  21.876  25.376  1.00  0.00     0.014 A 
ATOM     31  C   UNL A   1      42.297  21.352  27.742  1.00  0.00     0.014 A 
ATOM     32  C   UNL A   1      42.988  23.084  25.660  1.00  0.00     0.010 A 
ATOM     33  C   UNL A   1      42.885  22.582  28.027  1.00  0.00     0.010 A 
ATOM     34  C   UNL A   1      43.230  23.463  26.990  1.00  0.00    -0.014 A 
BRANCH  34  35
ATOM     35  C   UNL A   1      43.844  24.773  27.331  1.00  0.00     0.031 A 
ATOM     36  C   UNL A   1      42.980  25.890  27.848  1.00  0.00     0.074 A 
ATOM     37  C   UNL A   1      45.157  24.982  27.101  1.00  0.00     0.049 A 
ATOM     38  N   UNL A   1      43.292  27.143  28.059  1.00  0.00    -0.248 NA
ATOM     39  C   UNL A   1      41.577  25.559  28.150  1.00  0.00     0.031 C 
ATOM     40  C   UNL A   1      46.100  23.985  26.589  1.00  0.00     0.029 A 
ATOM     41  N   UNL A   1      45.922  26.112  27.251  1.00  0.00    -0.354 N 
ATOM     42  C   UNL A   1      42.124  27.754  28.501  1.00  0.00     0.074 A 
ATOM     43  C   UNL A   1      41.087  26.744  28.490  1.00  0.00     0.031 C 
ATOM     44  C   UNL A   1      47.316  24.544  26.478  1.00  0.00     0.029 A 
ATOM     45  C   UNL A   1      47.231  25.950  26.863  1.00  0.00     0.049 A 
ATOM     46  H   UNL A   1      45.566  26.960  27.603  1.00  0.00     0.167 HD
ATOM     47  C   UNL A   1      41.934  29.035  28.895  1.00  0.00     0.031 A 
ATOM     48  C   UNL A   1      48.245  26.835  26.805  1.00  0.00     0.031 A 
ATOM     49  C   UNL A   1      42.968  30.034  28.919  1.00  0.00     0.049 A 
ATOM     50  C   UNL A   1      48.000  28.263  27.220  1.00  0.00     0.074 A 
ATOM     51  C   UNL A   1      42.877  31.356  29.318  1.00  0.00     0.029 A 
ATOM     52  N   UNL A   1      44.284  29.819  28.542  1.00  0.00    -0.354 N 
ATOM     53  N   UNL A   1      46.891  28.814  27.653  1.00  0.00    -0.248 NA
ATOM     54  C   UNL A   1      49.142  29.185  27.146  1.00  0.00     0.031 C 
ATOM     55  C   UNL A   1      44.131  31.949  29.151  1.00  0.00     0.029 A 
ATOM     56  C   UNL A   1      45.014  30.984  28.698  1.00  0.00     0.049 A 
ATOM     57  H   UNL A   1      44.646  28.964  28.211  1.00  0.00     0.167 HD
ATOM     58  C   UNL A   1      47.216  30.136  27.944  1.00  0.00     0.074 A 
ATOM     59  C   UNL A   1      48.622  30.301  27.639  1.00  0.00     0.031 C 
ATOM     60  C   UNL A   1      46.421  31.121  28.425  1.00  0.00     0.031 A 
BRANCH  47  61
ATOM     61  C   UNL A   1      40.555  29.432  29.347  1.00  0.00    -0.014 A 
ATOM     62  C   UNL A   1      40.228  29.459  30.715  1.00  0.00     0.010 A 
ATOM     63  C   UNL A   1      39.598  29.851  28.405  1.00  0.00     0.010 A 
ATOM     64  C   UNL A   1      38.960  29.874  31.130  1.00  0.00     0.020 A 
ATOM     65  C   UNL A   1      38.338  30.290  28.819  1.00  0.00     0.020 A 
ATOM     66  C   UNL A   1      38.024  30.288  30.179  1.00  0.00     0.054 A 
BRANCH  66  67
ATOM     67  S   UNL A   1      36.404  30.868  30.753  1.00  0.00     0.124 S 
ATOM     68  O   UNL A   1      36.168  30.004  31.907  1.00  0.00    -0.237 OA
ATOM     69  O   UNL A   1      36.655  32.273  31.062  1.00  0.00    -0.237 OA
ATOM     70  O   UNL A   1      35.525  30.632  29.610  1.00  0.00    -0.744 OA
ENDBRANCH  66  67
ENDBRANCH  47  61
BRANCH  48  71
ATOM     71  C   UNL A   1      49.591  26.412  26.330  1.00  0.00    -0.014 A 
ATOM     72  C   UNL A   1      50.494  25.788  27.210  1.00  0.00     0.010 A 
ATOM     73  C   UNL A   1      49.992  26.659  25.004  1.00  0.00     0.010 A 
ATOM     74  C   UNL A   1      51.783  25.455  26.787  1.00  0.00     0.020 A 
ATOM     75  C   UNL A   1      51.271  26.301  24.569  1.00  0.00     0.020 A 
ATOM     76  C   UNL A   1      52.166  25.722  25.469  1.00  0.00     0.054 A 
BRANCH  76  77
ATOM     77  S   UNL A   1      53.842  25.276  24.935  1.00  0.00     0.124 S 
ATOM     78  O   UNL A   1      53.919  25.911  23.623  1.00  0.00    -0.237 OA
ATOM     79  O   UNL A   1      54.677  25.869  25.976  1.00  0.00    -0.237 OA
ATOM     80  O   UNL A   1      53.817  23.815  24.924  1.00  0.00    -0.744 OA
ENDBRANCH  76  77
ENDBRANCH  48  71
BRANCH  60  81
ATOM     81  C   UNL A   1      47.055  32.450  28.728  1.00  0.00    -0.014 A 
ATOM     82  C   UNL A   1      47.660  32.708  29.970  1.00  0.00     0.010 A 
ATOM     83  C   UNL A   1      47.125  33.423  27.713  1.00  0.00     0.010 A 
ATOM     84  C   UNL A   1      48.315  33.922  30.196  1.00  0.00     0.020 A 
ATOM     85  C   UNL A   1      47.799  34.627  27.927  1.00  0.00     0.020 A 
ATOM     86  C   UNL A   1      48.385  34.872  29.171  1.00  0.00     0.054 A 
BRANCH  86  87
ATOM     87  S   UNL A   1      49.311  36.404  29.460  1.00  0.00     0.124 S 
ATOM     88  O   UNL A   1      50.694  35.937  29.417  1.00  0.00    -0.237 OA
ATOM     89  O   UNL A   1      48.896  37.246  28.341  1.00  0.00    -0.237 OA
ATOM     90  O   UNL A   1      48.845  36.849  30.772  1.00  0.00    -0.744 OA
ENDBRANCH  86  87
ENDBRANCH  60  81
ENDBRANCH  34  35
ENDBRANCH  26  29
ENDBRANCH  24  25
ENDBRANCH  23  24
ENDBRANCH   1  23
TORSDOF 17
ENDMDL
