MODEL 1
REMARK VINA RESULT:     -12.2      0.000      0.000
REMARK SMILES Cc1ccccc1CN1C(=O)[C@H](CC(=O)NCCCCNC(=O)c2ccc(-c3c4nc(c(-c5ccc(S(=O)(=O)[O-])cc5)c5ccc([nH]5)c(-c5ccc(S(=O)(=O)[O-])cc5)c5nc(c(-c6ccc(S(=O)(=O)[O-])cc6)c6ccc3[nH]6)C=C5)C=C4)cc2)n2c(nc3ccccc32)[C@H]1C
REMARK SMILES IDX 18 1 17 2 16 3 14 4 15 5 13 7 12 8 9 9 10 10 93 11 11 12
REMARK SMILES IDX 85 13 94 14 84 15 86 16 92 17 87 18 91 19 88 20 90 21 89 22
REMARK SMILES IDX 8 23 7 24 1 25 2 26 3 27 4 28 6 29 5 30 19 31 20 32 21 33
REMARK SMILES IDX 22 34 23 36 24 37 25 38 83 39 26 40 82 41 27 42 28 43 29 44
REMARK SMILES IDX 76 45 30 46 81 47 75 48 77 49 31 50 80 51 74 52 73 53 32 55
REMARK SMILES IDX 62 56 43 57 61 58 44 59 47 60 60 61 78 62 45 63 46 64 59 66
REMARK SMILES IDX 79 67 48 68 33 69 34 70 42 71 35 72 41 73 36 74 37 75 38 76
REMARK SMILES IDX 39 77 40 78 63 79 64 80 72 81 65 82 71 83 66 84 67 85 68 86
REMARK SMILES IDX 69 87 70 88 49 89 50 90 58 91 51 92 57 93 52 94 53 95 54 96
REMARK SMILES IDX 55 97 56 98
REMARK H PARENT 16 6 21 35 77 54 47 65
REMARK Flexibility Score: inf
ROOT
ATOM      1  C   UNL A   1      39.172  21.456  26.160  1.00  0.00     0.023 C 
ENDROOT
BRANCH   1   2
ATOM      2  C   UNL A   1      38.111  22.535  25.903  1.00  0.00     0.116 C 
BRANCH   2   3
ATOM      3  N   UNL A   1      37.729  22.570  24.493  1.00  0.00    -0.356 N 
ATOM      4  C   UNL A   1      36.697  23.216  23.880  1.00  0.00     0.222 C 
ATOM      5  O   UNL A   1      36.575  23.077  22.655  1.00  0.00    -0.275 OA
ATOM      6  H   UNL A   1      38.306  22.047  23.892  1.00  0.00     0.163 HD
BRANCH   4   7
ATOM      7  C   UNL A   1      35.640  23.980  24.657  1.00  0.00     0.135 C 
BRANCH   7   8
ATOM      8  C   UNL A   1      34.286  23.298  24.459  1.00  0.00     0.187 C 
ATOM      9  N   UNL A   1      32.785  21.731  25.573  1.00  0.00    -0.327 N 
ATOM     10  C   UNL A   1      34.060  22.277  25.575  1.00  0.00     0.247 C 
ATOM     11  C   UNL A   1      31.890  22.753  26.119  1.00  0.00     0.149 C 
ATOM     12  O   UNL A   1      34.776  22.070  26.537  1.00  0.00    -0.272 OA
ATOM     13  C   UNL A   1      31.970  23.932  25.176  1.00  0.00     0.133 A 
ATOM     14  C   UNL A   1      30.454  22.366  26.417  1.00  0.00     0.040 C 
ATOM     15  N   UNL A   1      33.115  24.180  24.428  1.00  0.00    -0.313 N 
ATOM     16  N   UNL A   1      31.041  24.834  24.942  1.00  0.00    -0.231 NA
ATOM     17  C   UNL A   1      32.835  25.222  23.577  1.00  0.00     0.069 A 
ATOM     18  C   UNL A   1      31.562  25.639  23.964  1.00  0.00     0.089 A 
ATOM     19  C   UNL A   1      33.537  25.845  22.538  1.00  0.00     0.028 A 
ATOM     20  C   UNL A   1      30.969  26.746  23.341  1.00  0.00     0.030 A 
ATOM     21  C   UNL A   1      32.928  26.949  21.925  1.00  0.00     0.002 A 
ATOM     22  C   UNL A   1      31.669  27.401  22.324  1.00  0.00     0.002 A 
BRANCH   9  23
ATOM     23  C   UNL A   1      32.686  20.303  25.885  1.00  0.00     0.156 C 
BRANCH  23  24
ATOM     24  C   UNL A   1      32.452  19.507  24.612  1.00  0.00    -0.026 A 
ATOM     25  C   UNL A   1      32.757  17.161  25.656  1.00  0.00     0.044 C 
ATOM     26  C   UNL A   1      32.651  18.115  24.495  1.00  0.00    -0.046 A 
ATOM     27  C   UNL A   1      32.702  17.540  23.209  1.00  0.00     0.004 A 
ATOM     28  C   UNL A   1      32.535  18.314  22.062  1.00  0.00     0.000 A 
ATOM     29  C   UNL A   1      32.154  20.235  23.448  1.00  0.00     0.006 A 
ATOM     30  C   UNL A   1      32.228  19.659  22.184  1.00  0.00     0.000 A 
ENDBRANCH  23  24
ENDBRANCH   9  23
ENDBRANCH   7   8
ENDBRANCH   4   7
ENDBRANCH   2   3
ENDBRANCH   1   2
BRANCH   1  31
ATOM     31  C   UNL A   1      40.529  21.983  26.608  1.00  0.00     0.023 C 
BRANCH  31  32
ATOM     32  C   UNL A   1      41.149  21.202  27.781  1.00  0.00     0.116 C 
BRANCH  32  33
ATOM     33  N   UNL A   1      42.608  21.249  27.757  1.00  0.00    -0.352 N 
ATOM     34  C   UNL A   1      43.386  22.112  27.016  1.00  0.00     0.251 C 
ATOM     35  H   UNL A   1      43.084  20.601  28.326  1.00  0.00     0.163 HD
ATOM     36  O   UNL A   1      44.148  21.600  26.191  1.00  0.00    -0.269 OA
BRANCH  34  37
ATOM     37  C   UNL A   1      43.451  23.598  27.260  1.00  0.00     0.039 A 
ATOM     38  C   UNL A   1      44.082  24.383  26.279  1.00  0.00     0.014 A 
ATOM     39  C   UNL A   1      43.029  24.258  28.415  1.00  0.00     0.014 A 
ATOM     40  C   UNL A   1      44.247  25.781  26.428  1.00  0.00     0.010 A 
ATOM     41  C   UNL A   1      43.204  25.669  28.560  1.00  0.00     0.010 A 
ATOM     42  C   UNL A   1      43.790  26.471  27.569  1.00  0.00    -0.014 A 
BRANCH  42  43
ATOM     43  C   UNL A   1      43.545  27.967  27.401  1.00  0.00     0.031 A 
ATOM     44  C   UNL A   1      42.017  28.114  27.534  1.00  0.00     0.074 A 
ATOM     45  C   UNL A   1      44.142  29.160  27.783  1.00  0.00     0.049 A 
ATOM     46  N   UNL A   1      41.445  27.967  28.693  1.00  0.00    -0.248 NA
ATOM     47  C   UNL A   1      41.023  28.164  26.451  1.00  0.00     0.031 C 
ATOM     48  C   UNL A   1      43.992  30.352  26.916  1.00  0.00     0.029 A 
ATOM     49  N   UNL A   1      45.021  29.666  28.783  1.00  0.00    -0.354 N 
ATOM     50  C   UNL A   1      40.110  28.339  28.552  1.00  0.00     0.074 A 
ATOM     51  C   UNL A   1      39.855  28.238  27.131  1.00  0.00     0.031 C 
ATOM     52  C   UNL A   1      44.578  31.443  27.461  1.00  0.00     0.029 A 
ATOM     53  C   UNL A   1      45.128  31.119  28.772  1.00  0.00     0.049 A 
ATOM     54  H   UNL A   1      45.506  29.092  29.420  1.00  0.00     0.167 HD
ATOM     55  C   UNL A   1      39.513  29.041  29.574  1.00  0.00     0.031 A 
ATOM     56  C   UNL A   1      45.395  32.072  29.755  1.00  0.00     0.031 A 
ATOM     57  C   UNL A   1      40.596  29.604  30.331  1.00  0.00     0.049 A 
ATOM     58  C   UNL A   1      45.545  31.461  31.118  1.00  0.00     0.074 A 
ATOM     59  C   UNL A   1      41.279  30.692  29.862  1.00  0.00     0.029 A 
ATOM     60  N   UNL A   1      41.225  29.075  31.442  1.00  0.00    -0.354 N 
ATOM     61  N   UNL A   1      44.539  31.430  31.941  1.00  0.00    -0.248 NA
ATOM     62  C   UNL A   1      46.663  30.639  31.573  1.00  0.00     0.031 C 
ATOM     63  C   UNL A   1      42.458  30.609  30.533  1.00  0.00     0.029 A 
ATOM     64  C   UNL A   1      42.468  29.687  31.559  1.00  0.00     0.049 A 
ATOM     65  H   UNL A   1      40.858  28.388  32.045  1.00  0.00     0.167 HD
ATOM     66  C   UNL A   1      44.620  30.181  32.495  1.00  0.00     0.074 A 
ATOM     67  C   UNL A   1      46.049  29.898  32.512  1.00  0.00     0.031 C 
ATOM     68  C   UNL A   1      43.574  29.288  32.434  1.00  0.00     0.031 A 
BRANCH  55  69
ATOM     69  C   UNL A   1      38.216  29.815  29.750  1.00  0.00    -0.014 A 
ATOM     70  C   UNL A   1      37.972  30.861  28.800  1.00  0.00     0.010 A 
ATOM     71  C   UNL A   1      37.305  29.718  30.800  1.00  0.00     0.010 A 
ATOM     72  C   UNL A   1      36.941  31.780  28.888  1.00  0.00     0.020 A 
ATOM     73  C   UNL A   1      36.247  30.661  30.909  1.00  0.00     0.020 A 
ATOM     74  C   UNL A   1      36.094  31.695  29.968  1.00  0.00     0.054 A 
BRANCH  74  75
ATOM     75  S   UNL A   1      34.872  33.019  30.126  1.00  0.00     0.124 S 
ATOM     76  O   UNL A   1      34.221  32.692  31.394  1.00  0.00    -0.237 OA
ATOM     77  O   UNL A   1      35.702  34.220  30.137  1.00  0.00    -0.237 OA
ATOM     78  O   UNL A   1      34.036  32.853  28.940  1.00  0.00    -0.744 OA
ENDBRANCH  74  75
ENDBRANCH  55  69
BRANCH  56  79
ATOM     79  C   UNL A   1      44.829  33.524  29.821  1.00  0.00    -0.014 A 
ATOM     80  C   UNL A   1      43.485  33.870  29.613  1.00  0.00     0.010 A 
ATOM     81  C   UNL A   1      45.725  34.633  29.816  1.00  0.00     0.010 A 
ATOM     82  C   UNL A   1      43.087  35.231  29.424  1.00  0.00     0.020 A 
ATOM     83  C   UNL A   1      45.355  35.973  29.628  1.00  0.00     0.020 A 
ATOM     84  C   UNL A   1      44.026  36.274  29.432  1.00  0.00     0.054 A 
BRANCH  84  85
ATOM     85  S   UNL A   1      43.529  38.000  29.130  1.00  0.00     0.124 S 
ATOM     86  O   UNL A   1      42.211  37.850  28.518  1.00  0.00    -0.237 OA
ATOM     87  O   UNL A   1      43.531  38.561  30.479  1.00  0.00    -0.237 OA
ATOM     88  O   UNL A   1      44.563  38.523  28.240  1.00  0.00    -0.744 OA
ENDBRANCH  84  85
ENDBRANCH  56  79
BRANCH  68  89
ATOM     89  C   UNL A   1      43.777  27.911  32.962  1.00  0.00    -0.014 A 
ATOM     90  C   UNL A   1      44.151  26.874  32.091  1.00  0.00     0.010 A 
ATOM     91  C   UNL A   1      43.626  27.614  34.324  1.00  0.00     0.010 A 
ATOM     92  C   UNL A   1      44.290  25.569  32.544  1.00  0.00     0.020 A 
ATOM     93  C   UNL A   1      43.798  26.314  34.798  1.00  0.00     0.020 A 
ATOM     94  C   UNL A   1      44.120  25.299  33.896  1.00  0.00     0.054 A 
BRANCH  94  95
ATOM     95  S   UNL A   1      44.486  23.646  34.499  1.00  0.00     0.124 S 
ATOM     96  O   UNL A   1      44.867  22.946  33.277  1.00  0.00    -0.237 OA
ATOM     97  O   UNL A   1      45.562  23.858  35.463  1.00  0.00    -0.237 OA
ATOM     98  O   UNL A   1      43.216  23.239  35.087  1.00  0.00    -0.744 OA
ENDBRANCH  94  95
ENDBRANCH  68  89
ENDBRANCH  42  43
ENDBRANCH  34  37
ENDBRANCH  32  33
ENDBRANCH  31  32
ENDBRANCH   1  31
TORSDOF 17
ENDMDL
MODEL 2
REMARK VINA RESULT:     -11.9      2.844      9.375
REMARK SMILES Cc1ccccc1CN1C(=O)[C@H](CC(=O)NCCCCNC(=O)c2ccc(-c3c4nc(c(-c5ccc(S(=O)(=O)[O-])cc5)c5ccc([nH]5)c(-c5ccc(S(=O)(=O)[O-])cc5)c5nc(c(-c6ccc(S(=O)(=O)[O-])cc6)c6ccc3[nH]6)C=C5)C=C4)cc2)n2c(nc3ccccc32)[C@H]1C
REMARK SMILES IDX 18 1 17 2 16 3 14 4 15 5 13 7 12 8 9 9 10 10 93 11 11 12
REMARK SMILES IDX 85 13 94 14 84 15 86 16 92 17 87 18 91 19 88 20 90 21 89 22
REMARK SMILES IDX 8 23 7 24 1 25 2 26 3 27 4 28 6 29 5 30 19 31 20 32 21 33
REMARK SMILES IDX 22 34 23 36 24 37 25 38 83 39 26 40 82 41 27 42 28 43 29 44
REMARK SMILES IDX 76 45 30 46 81 47 75 48 77 49 31 50 80 51 74 52 73 53 32 55
REMARK SMILES IDX 62 56 43 57 61 58 44 59 47 60 60 61 78 62 45 63 46 64 59 66
REMARK SMILES IDX 79 67 48 68 33 69 34 70 42 71 35 72 41 73 36 74 37 75 38 76
REMARK SMILES IDX 39 77 40 78 63 79 64 80 72 81 65 82 71 83 66 84 67 85 68 86
REMARK SMILES IDX 69 87 70 88 49 89 50 90 58 91 51 92 57 93 52 94 53 95 54 96
REMARK SMILES IDX 55 97 56 98
REMARK H PARENT 16 6 21 35 77 54 47 65
REMARK Flexibility Score: inf
ROOT
ATOM      1  C   UNL A   1      34.334  31.898  27.695  1.00  0.00     0.023 C 
ENDROOT
BRANCH   1   2
ATOM      2  C   UNL A   1      34.418  30.390  27.421  1.00  0.00     0.116 C 
BRANCH   2   3
ATOM      3  N   UNL A   1      33.172  29.720  27.785  1.00  0.00    -0.356 N 
ATOM      4  C   UNL A   1      32.726  28.470  27.477  1.00  0.00     0.222 C 
ATOM      5  O   UNL A   1      31.612  28.133  27.902  1.00  0.00    -0.275 OA
ATOM      6  H   UNL A   1      32.559  30.255  28.340  1.00  0.00     0.163 HD
BRANCH   4   7
ATOM      7  C   UNL A   1      33.484  27.544  26.543  1.00  0.00     0.135 C 
BRANCH   7   8
ATOM      8  C   UNL A   1      32.547  27.090  25.423  1.00  0.00     0.187 C 
ATOM      9  N   UNL A   1      31.933  27.660  23.133  1.00  0.00    -0.327 N 
ATOM     10  C   UNL A   1      32.622  28.080  24.260  1.00  0.00     0.247 C 
ATOM     11  C   UNL A   1      32.753  26.623  22.503  1.00  0.00     0.149 C 
ATOM     12  O   UNL A   1      33.362  29.041  24.161  1.00  0.00    -0.272 OA
ATOM     13  C   UNL A   1      32.866  25.502  23.511  1.00  0.00     0.133 A 
ATOM     14  C   UNL A   1      32.341  26.111  21.135  1.00  0.00     0.040 C 
ATOM     15  N   UNL A   1      32.791  25.752  24.876  1.00  0.00    -0.313 N 
ATOM     16  N   UNL A   1      33.042  24.221  23.268  1.00  0.00    -0.231 NA
ATOM     17  C   UNL A   1      32.786  24.537  25.519  1.00  0.00     0.069 A 
ATOM     18  C   UNL A   1      33.001  23.614  24.495  1.00  0.00     0.089 A 
ATOM     19  C   UNL A   1      32.632  24.143  26.854  1.00  0.00     0.028 A 
ATOM     20  C   UNL A   1      33.120  22.251  24.796  1.00  0.00     0.030 A 
ATOM     21  C   UNL A   1      32.751  22.775  27.135  1.00  0.00     0.002 A 
ATOM     22  C   UNL A   1      33.000  21.842  26.127  1.00  0.00     0.002 A 
BRANCH   9  23
ATOM     23  C   UNL A   1      31.205  28.691  22.391  1.00  0.00     0.156 C 
BRANCH  23  24
ATOM     24  C   UNL A   1      29.709  28.521  22.597  1.00  0.00    -0.026 A 
ATOM     25  C   UNL A   1      28.986  30.718  21.440  1.00  0.00     0.044 C 
ATOM     26  C   UNL A   1      28.747  29.514  22.313  1.00  0.00    -0.046 A 
ATOM     27  C   UNL A   1      27.442  29.366  22.827  1.00  0.00     0.004 A 
ATOM     28  C   UNL A   1      27.083  28.251  23.581  1.00  0.00     0.000 A 
ATOM     29  C   UNL A   1      29.281  27.349  23.245  1.00  0.00     0.006 A 
ATOM     30  C   UNL A   1      27.996  27.225  23.763  1.00  0.00     0.000 A 
ENDBRANCH  23  24
ENDBRANCH   9  23
ENDBRANCH   7   8
ENDBRANCH   4   7
ENDBRANCH   2   3
ENDBRANCH   1   2
BRANCH   1  31
ATOM     31  C   UNL A   1      34.586  32.303  29.141  1.00  0.00     0.023 C 
BRANCH  31  32
ATOM     32  C   UNL A   1      35.307  33.655  29.297  1.00  0.00     0.116 C 
BRANCH  32  33
ATOM     33  N   UNL A   1      36.604  33.662  28.626  1.00  0.00    -0.352 N 
ATOM     34  C   UNL A   1      37.839  33.740  29.234  1.00  0.00     0.251 C 
ATOM     35  H   UNL A   1      36.596  33.605  27.643  1.00  0.00     0.163 HD
ATOM     36  O   UNL A   1      38.538  34.715  28.943  1.00  0.00    -0.269 OA
BRANCH  34  37
ATOM     37  C   UNL A   1      38.415  32.649  30.099  1.00  0.00     0.039 A 
ATOM     38  C   UNL A   1      37.830  31.375  30.001  1.00  0.00     0.014 A 
ATOM     39  C   UNL A   1      39.413  32.807  31.061  1.00  0.00     0.014 A 
ATOM     40  C   UNL A   1      38.254  30.289  30.804  1.00  0.00     0.010 A 
ATOM     41  C   UNL A   1      39.833  31.707  31.872  1.00  0.00     0.010 A 
ATOM     42  C   UNL A   1      39.289  30.419  31.752  1.00  0.00    -0.014 A 
BRANCH  42  43
ATOM     43  C   UNL A   1      39.999  29.133  32.159  1.00  0.00     0.031 A 
ATOM     44  C   UNL A   1      39.906  28.240  30.908  1.00  0.00     0.074 A 
ATOM     45  C   UNL A   1      41.116  28.758  32.892  1.00  0.00     0.049 A 
ATOM     46  N   UNL A   1      40.620  28.513  29.855  1.00  0.00    -0.248 NA
ATOM     47  C   UNL A   1      38.902  27.205  30.616  1.00  0.00     0.031 C 
ATOM     48  C   UNL A   1      41.116  27.453  33.592  1.00  0.00     0.029 A 
ATOM     49  N   UNL A   1      42.364  29.293  33.324  1.00  0.00    -0.354 N 
ATOM     50  C   UNL A   1      40.482  27.450  28.966  1.00  0.00     0.074 A 
ATOM     51  C   UNL A   1      39.261  26.791  29.378  1.00  0.00     0.031 C 
ATOM     52  C   UNL A   1      42.299  27.213  34.204  1.00  0.00     0.029 A 
ATOM     53  C   UNL A   1      43.236  28.297  33.932  1.00  0.00     0.049 A 
ATOM     54  H   UNL A   1      42.612  30.240  33.223  1.00  0.00     0.167 HD
ATOM     55  C   UNL A   1      41.588  27.040  28.258  1.00  0.00     0.031 A 
ATOM     56  C   UNL A   1      44.621  28.164  34.033  1.00  0.00     0.031 A 
ATOM     57  C   UNL A   1      42.716  27.544  28.989  1.00  0.00     0.049 A 
ATOM     58  C   UNL A   1      45.354  29.256  33.310  1.00  0.00     0.074 A 
ATOM     59  C   UNL A   1      43.121  26.939  30.147  1.00  0.00     0.029 A 
ATOM     60  N   UNL A   1      43.390  28.736  28.801  1.00  0.00    -0.354 N 
ATOM     61  N   UNL A   1      45.794  29.067  32.101  1.00  0.00    -0.248 NA
ATOM     62  C   UNL A   1      45.432  30.656  33.718  1.00  0.00     0.031 C 
ATOM     63  C   UNL A   1      43.816  27.928  30.767  1.00  0.00     0.029 A 
ATOM     64  C   UNL A   1      44.076  29.027  29.975  1.00  0.00     0.049 A 
ATOM     65  H   UNL A   1      43.387  29.281  27.981  1.00  0.00     0.167 HD
ATOM     66  C   UNL A   1      45.502  30.245  31.469  1.00  0.00     0.074 A 
ATOM     67  C   UNL A   1      45.614  31.244  32.523  1.00  0.00     0.031 C 
ATOM     68  C   UNL A   1      44.730  30.290  30.330  1.00  0.00     0.031 A 
BRANCH  55  69
ATOM     69  C   UNL A   1      41.944  25.839  27.396  1.00  0.00    -0.014 A 
ATOM     70  C   UNL A   1      42.156  24.603  28.093  1.00  0.00     0.010 A 
ATOM     71  C   UNL A   1      42.218  25.825  26.029  1.00  0.00     0.010 A 
ATOM     72  C   UNL A   1      42.646  23.447  27.513  1.00  0.00     0.020 A 
ATOM     73  C   UNL A   1      42.731  24.647  25.423  1.00  0.00     0.020 A 
ATOM     74  C   UNL A   1      42.964  23.482  26.175  1.00  0.00     0.054 A 
BRANCH  74  75
ATOM     75  S   UNL A   1      43.759  22.001  25.507  1.00  0.00     0.124 S 
ATOM     76  O   UNL A   1      42.882  20.934  25.987  1.00  0.00    -0.237 OA
ATOM     77  O   UNL A   1      43.725  22.242  24.067  1.00  0.00    -0.237 OA
ATOM     78  O   UNL A   1      45.089  22.027  26.110  1.00  0.00    -0.744 OA
ENDBRANCH  74  75
ENDBRANCH  55  69
BRANCH  56  79
ATOM     79  C   UNL A   1      45.429  26.829  34.057  1.00  0.00    -0.014 A 
ATOM     80  C   UNL A   1      45.081  25.670  33.345  1.00  0.00     0.010 A 
ATOM     81  C   UNL A   1      46.429  26.626  35.051  1.00  0.00     0.010 A 
ATOM     82  C   UNL A   1      45.707  24.413  33.619  1.00  0.00     0.020 A 
ATOM     83  C   UNL A   1      47.051  25.401  35.337  1.00  0.00     0.020 A 
ATOM     84  C   UNL A   1      46.687  24.288  34.614  1.00  0.00     0.054 A 
BRANCH  84  85
ATOM     85  S   UNL A   1      47.440  22.676  35.005  1.00  0.00     0.124 S 
ATOM     86  O   UNL A   1      47.478  22.688  36.466  1.00  0.00    -0.237 OA
ATOM     87  O   UNL A   1      46.487  21.740  34.413  1.00  0.00    -0.237 OA
ATOM     88  O   UNL A   1      48.749  22.721  34.357  1.00  0.00    -0.744 OA
ENDBRANCH  84  85
ENDBRANCH  56  79
BRANCH  68  89
ATOM     89  C   UNL A   1      44.366  31.616  29.764  1.00  0.00    -0.014 A 
ATOM     90  C   UNL A   1      43.129  32.201  30.086  1.00  0.00     0.010 A 
ATOM     91  C   UNL A   1      45.237  32.325  28.923  1.00  0.00     0.010 A 
ATOM     92  C   UNL A   1      42.737  33.410  29.527  1.00  0.00     0.020 A 
ATOM     93  C   UNL A   1      44.869  33.557  28.383  1.00  0.00     0.020 A 
ATOM     94  C   UNL A   1      43.613  34.084  28.685  1.00  0.00     0.054 A 
BRANCH  94  95
ATOM     95  S   UNL A   1      43.171  35.731  28.119  1.00  0.00     0.124 S 
ATOM     96  O   UNL A   1      42.834  35.499  26.718  1.00  0.00    -0.237 OA
ATOM     97  O   UNL A   1      42.053  36.106  28.981  1.00  0.00    -0.237 OA
ATOM     98  O   UNL A   1      44.397  36.483  28.354  1.00  0.00    -0.744 OA
ENDBRANCH  94  95
ENDBRANCH  68  89
ENDBRANCH  42  43
ENDBRANCH  34  37
ENDBRANCH  32  33
ENDBRANCH  31  32
ENDBRANCH   1  31
TORSDOF 17
ENDMDL
MODEL 3
REMARK VINA RESULT:     -11.6      5.813     13.061
REMARK SMILES Cc1ccccc1CN1C(=O)[C@H](CC(=O)NCCCCNC(=O)c2ccc(-c3c4nc(c(-c5ccc(S(=O)(=O)[O-])cc5)c5ccc([nH]5)c(-c5ccc(S(=O)(=O)[O-])cc5)c5nc(c(-c6ccc(S(=O)(=O)[O-])cc6)c6ccc3[nH]6)C=C5)C=C4)cc2)n2c(nc3ccccc32)[C@H]1C
REMARK SMILES IDX 18 1 17 2 16 3 14 4 15 5 13 7 12 8 9 9 10 10 93 11 11 12
REMARK SMILES IDX 85 13 94 14 84 15 86 16 92 17 87 18 91 19 88 20 90 21 89 22
REMARK SMILES IDX 8 23 7 24 1 25 2 26 3 27 4 28 6 29 5 30 19 31 20 32 21 33
REMARK SMILES IDX 22 34 23 36 24 37 25 38 83 39 26 40 82 41 27 42 28 43 29 44
REMARK SMILES IDX 76 45 30 46 81 47 75 48 77 49 31 50 80 51 74 52 73 53 32 55
REMARK SMILES IDX 62 56 43 57 61 58 44 59 47 60 60 61 78 62 45 63 46 64 59 66
REMARK SMILES IDX 79 67 48 68 33 69 34 70 42 71 35 72 41 73 36 74 37 75 38 76
REMARK SMILES IDX 39 77 40 78 63 79 64 80 72 81 65 82 71 83 66 84 67 85 68 86
REMARK SMILES IDX 69 87 70 88 49 89 50 90 58 91 51 92 57 93 52 94 53 95 54 96
REMARK SMILES IDX 55 97 56 98
REMARK H PARENT 16 6 21 35 77 54 47 65
REMARK Flexibility Score: inf
ROOT
ATOM      1  C   UNL A   1      50.668  22.716  34.058  1.00  0.00     0.023 C 
ENDROOT
BRANCH   1   2
ATOM      2  C   UNL A   1      50.884  21.283  33.554  1.00  0.00     0.116 C 
BRANCH   2   3
ATOM      3  N   UNL A   1      49.617  20.558  33.474  1.00  0.00    -0.356 N 
ATOM      4  C   UNL A   1      48.728  20.234  34.454  1.00  0.00     0.222 C 
ATOM      5  O   UNL A   1      47.718  19.596  34.129  1.00  0.00    -0.275 OA
ATOM      6  H   UNL A   1      49.367  20.257  32.570  1.00  0.00     0.163 HD
BRANCH   4   7
ATOM      7  C   UNL A   1      48.998  20.518  35.921  1.00  0.00     0.135 C 
BRANCH   7   8
ATOM      8  C   UNL A   1      47.736  20.211  36.728  1.00  0.00     0.187 C 
ATOM      9  N   UNL A   1      47.055  19.364  38.911  1.00  0.00    -0.327 N 
ATOM     10  C   UNL A   1      48.122  19.528  38.041  1.00  0.00     0.247 C 
ATOM     11  C   UNL A   1      46.786  20.679  39.498  1.00  0.00     0.149 C 
ATOM     12  O   UNL A   1      49.246  19.323  38.459  1.00  0.00    -0.272 OA
ATOM     13  C   UNL A   1      46.406  21.584  38.348  1.00  0.00     0.133 A 
ATOM     14  C   UNL A   1      45.791  20.768  40.639  1.00  0.00     0.040 C 
ATOM     15  N   UNL A   1      46.885  21.357  37.063  1.00  0.00    -0.313 N 
ATOM     16  N   UNL A   1      45.626  22.644  38.388  1.00  0.00    -0.231 NA
ATOM     17  C   UNL A   1      46.262  22.249  36.225  1.00  0.00     0.069 A 
ATOM     18  C   UNL A   1      45.533  23.068  37.089  1.00  0.00     0.089 A 
ATOM     19  C   UNL A   1      46.255  22.441  34.838  1.00  0.00     0.028 A 
ATOM     20  C   UNL A   1      44.807  24.153  36.578  1.00  0.00     0.030 A 
ATOM     21  C   UNL A   1      45.521  23.529  34.346  1.00  0.00     0.002 A 
ATOM     22  C   UNL A   1      44.815  24.378  35.199  1.00  0.00     0.002 A 
BRANCH   9  23
ATOM     23  C   UNL A   1      47.014  18.108  39.664  1.00  0.00     0.156 C 
BRANCH  23  24
ATOM     24  C   UNL A   1      45.606  17.538  39.646  1.00  0.00    -0.026 A 
ATOM     25  C   UNL A   1      45.337  17.300  42.207  1.00  0.00     0.044 C 
ATOM     26  C   UNL A   1      44.937  17.029  40.781  1.00  0.00    -0.046 A 
ATOM     27  C   UNL A   1      43.775  16.253  40.595  1.00  0.00     0.004 A 
ATOM     28  C   UNL A   1      43.265  16.004  39.323  1.00  0.00     0.000 A 
ATOM     29  C   UNL A   1      44.994  17.383  38.391  1.00  0.00     0.006 A 
ATOM     30  C   UNL A   1      43.858  16.597  38.221  1.00  0.00     0.000 A 
ENDBRANCH  23  24
ENDBRANCH   9  23
ENDBRANCH   7   8
ENDBRANCH   4   7
ENDBRANCH   2   3
ENDBRANCH   1   2
BRANCH   1  31
ATOM     31  C   UNL A   1      51.864  23.643  33.888  1.00  0.00     0.023 C 
BRANCH  31  32
ATOM     32  C   UNL A   1      52.261  23.893  32.421  1.00  0.00     0.116 C 
BRANCH  32  33
ATOM     33  N   UNL A   1      52.080  25.291  32.037  1.00  0.00    -0.352 N 
ATOM     34  C   UNL A   1      51.241  25.767  31.053  1.00  0.00     0.251 C 
ATOM     35  H   UNL A   1      52.610  25.959  32.530  1.00  0.00     0.163 HD
ATOM     36  O   UNL A   1      51.772  26.371  30.118  1.00  0.00    -0.269 OA
BRANCH  34  37
ATOM     37  C   UNL A   1      49.737  25.709  31.137  1.00  0.00     0.039 A 
ATOM     38  C   UNL A   1      49.025  25.708  29.925  1.00  0.00     0.014 A 
ATOM     39  C   UNL A   1      48.980  25.755  32.309  1.00  0.00     0.014 A 
ATOM     40  C   UNL A   1      47.610  25.711  29.886  1.00  0.00     0.010 A 
ATOM     41  C   UNL A   1      47.551  25.761  32.260  1.00  0.00     0.010 A 
ATOM     42  C   UNL A   1      46.828  25.714  31.059  1.00  0.00    -0.014 A 
BRANCH  42  43
ATOM     43  C   UNL A   1      45.400  25.198  30.921  1.00  0.00     0.031 A 
ATOM     44  C   UNL A   1      44.530  26.464  31.034  1.00  0.00     0.074 A 
ATOM     45  C   UNL A   1      44.713  24.249  30.177  1.00  0.00     0.049 A 
ATOM     46  N   UNL A   1      44.503  27.327  30.061  1.00  0.00    -0.248 NA
ATOM     47  C   UNL A   1      43.872  26.996  32.236  1.00  0.00     0.031 C 
ATOM     48  C   UNL A   1      43.514  23.603  30.760  1.00  0.00     0.029 A 
ATOM     49  N   UNL A   1      44.826  23.541  28.946  1.00  0.00    -0.354 N 
ATOM     50  C   UNL A   1      43.505  28.254  30.350  1.00  0.00     0.074 A 
ATOM     51  C   UNL A   1      43.306  28.137  31.778  1.00  0.00     0.031 C 
ATOM     52  C   UNL A   1      42.928  22.755  29.885  1.00  0.00     0.029 A 
ATOM     53  C   UNL A   1      43.628  22.785  28.606  1.00  0.00     0.049 A 
ATOM     54  H   UNL A   1      45.632  23.560  28.382  1.00  0.00     0.167 HD
ATOM     55  C   UNL A   1      42.720  28.715  29.318  1.00  0.00     0.031 A 
ATOM     56  C   UNL A   1      43.050  22.389  27.400  1.00  0.00     0.031 A 
ATOM     57  C   UNL A   1      42.858  27.742  28.271  1.00  0.00     0.049 A 
ATOM     58  C   UNL A   1      43.804  22.903  26.209  1.00  0.00     0.074 A 
ATOM     59  C   UNL A   1      42.208  26.541  28.350  1.00  0.00     0.029 A 
ATOM     60  N   UNL A   1      43.750  27.745  27.216  1.00  0.00    -0.354 N 
ATOM     61  N   UNL A   1      43.425  23.992  25.607  1.00  0.00    -0.248 NA
ATOM     62  C   UNL A   1      45.118  22.449  25.761  1.00  0.00     0.031 C 
ATOM     63  C   UNL A   1      42.940  25.757  27.516  1.00  0.00     0.029 A 
ATOM     64  C   UNL A   1      43.854  26.442  26.742  1.00  0.00     0.049 A 
ATOM     65  H   UNL A   1      44.228  28.530  26.862  1.00  0.00     0.167 HD
ATOM     66  C   UNL A   1      44.602  24.640  25.349  1.00  0.00     0.074 A 
ATOM     67  C   UNL A   1      45.557  23.559  25.141  1.00  0.00     0.031 C 
ATOM     68  C   UNL A   1      44.845  25.917  25.798  1.00  0.00     0.031 A 
BRANCH  55  69
ATOM     69  C   UNL A   1      41.430  29.512  29.204  1.00  0.00    -0.014 A 
ATOM     70  C   UNL A   1      41.307  30.642  30.079  1.00  0.00     0.010 A 
ATOM     71  C   UNL A   1      40.301  29.199  28.449  1.00  0.00     0.010 A 
ATOM     72  C   UNL A   1      40.154  31.388  30.245  1.00  0.00     0.020 A 
ATOM     73  C   UNL A   1      39.107  29.950  28.617  1.00  0.00     0.020 A 
ATOM     74  C   UNL A   1      39.039  31.017  29.531  1.00  0.00     0.054 A 
BRANCH  74  75
ATOM     75  S   UNL A   1      37.515  31.915  29.911  1.00  0.00     0.124 S 
ATOM     76  O   UNL A   1      36.499  30.871  29.783  1.00  0.00    -0.237 OA
ATOM     77  O   UNL A   1      37.757  32.394  31.269  1.00  0.00    -0.237 OA
ATOM     78  O   UNL A   1      37.469  32.953  28.884  1.00  0.00    -0.744 OA
ENDBRANCH  74  75
ENDBRANCH  55  69
BRANCH  56  79
ATOM     79  C   UNL A   1      41.526  22.226  27.106  1.00  0.00    -0.014 A 
ATOM     80  C   UNL A   1      40.957  21.155  26.400  1.00  0.00     0.010 A 
ATOM     81  C   UNL A   1      40.647  23.331  27.302  1.00  0.00     0.010 A 
ATOM     82  C   UNL A   1      39.603  21.204  25.940  1.00  0.00     0.020 A 
ATOM     83  C   UNL A   1      39.319  23.398  26.855  1.00  0.00     0.020 A 
ATOM     84  C   UNL A   1      38.794  22.326  26.170  1.00  0.00     0.054 A 
BRANCH  84  85
ATOM     85  S   UNL A   1      37.090  22.413  25.530  1.00  0.00     0.124 S 
ATOM     86  O   UNL A   1      37.297  22.678  24.108  1.00  0.00    -0.237 OA
ATOM     87  O   UNL A   1      36.573  21.085  25.850  1.00  0.00    -0.237 OA
ATOM     88  O   UNL A   1      36.481  23.512  26.277  1.00  0.00    -0.744 OA
ENDBRANCH  84  85
ENDBRANCH  56  79
BRANCH  68  89
ATOM     89  C   UNL A   1      46.190  26.513  25.571  1.00  0.00    -0.014 A 
ATOM     90  C   UNL A   1      47.179  26.410  26.564  1.00  0.00     0.010 A 
ATOM     91  C   UNL A   1      46.516  27.165  24.373  1.00  0.00     0.010 A 
ATOM     92  C   UNL A   1      48.424  27.005  26.405  1.00  0.00     0.020 A 
ATOM     93  C   UNL A   1      47.774  27.736  24.186  1.00  0.00     0.020 A 
ATOM     94  C   UNL A   1      48.716  27.658  25.213  1.00  0.00     0.054 A 
BRANCH  94  95
ATOM     95  S   UNL A   1      50.387  28.260  24.945  1.00  0.00     0.124 S 
ATOM     96  O   UNL A   1      51.200  27.165  25.466  1.00  0.00    -0.237 OA
ATOM     97  O   UNL A   1      50.456  28.461  23.500  1.00  0.00    -0.237 OA
ATOM     98  O   UNL A   1      50.408  29.487  25.731  1.00  0.00    -0.744 OA
ENDBRANCH  94  95
ENDBRANCH  68  89
ENDBRANCH  42  43
ENDBRANCH  34  37
ENDBRANCH  32  33
ENDBRANCH  31  32
ENDBRANCH   1  31
TORSDOF 17
ENDMDL
