MODEL 1
REMARK VINA RESULT:     -11.2      0.000      0.000
REMARK SMILES O=C(NCCCCNC(=O)c1cccnc1C[N@@H+]1CCC[C@H]1c1ccccn1)c1ccc(-c2c3nc(c(-c4ccc(S(=O)(=O)[O-])cc4)c4ccc([nH]4)c(-c4ccc(S(=O)(=O)[O-])cc4)c4nc(c(-c5ccc(S(=O)(=O)[O-])cc5)c5ccc2[nH]5)C=C4)C=C3)cc1
REMARK SMILES IDX 5 1 4 2 3 3 1 4 2 5 29 7 30 8 88 9 31 10 87 11 32 12 33 13
REMARK SMILES IDX 34 14 81 15 35 16 86 17 80 18 82 19 36 20 85 21 79 22 78 23
REMARK SMILES IDX 37 25 67 26 48 27 66 28 49 29 52 30 65 31 83 32 50 33 51 34
REMARK SMILES IDX 64 36 84 37 53 38 38 39 39 40 47 41 40 42 46 43 41 44 42 45
REMARK SMILES IDX 43 46 44 47 45 48 68 49 69 50 77 51 70 52 76 53 71 54 72 55
REMARK SMILES IDX 73 56 74 57 75 58 54 59 55 60 63 61 56 62 62 63 57 64 58 65
REMARK SMILES IDX 59 66 60 67 61 68 6 69 7 70 8 71 9 72 10 74 11 75 12 76
REMARK SMILES IDX 16 77 13 78 15 79 14 80 17 81 18 82 19 83 22 84 20 86 21 87
REMARK SMILES IDX 23 88 24 89 28 90 25 91 27 92 26 93
REMARK H PARENT 3 6 82 24 52 35 8 73 18 85
REMARK Flexibility Score: inf
ROOT
ATOM      1  C   UNL A   1      33.561  27.711  26.793  1.00  0.00     0.023 C 
ENDROOT
BRANCH   1   2
ATOM      2  C   UNL A   1      34.084  28.852  25.924  1.00  0.00     0.116 C 
BRANCH   2   3
ATOM      3  N   UNL A   1      33.845  30.159  26.512  1.00  0.00    -0.352 N 
ATOM      4  O   UNL A   1      34.086  31.863  27.959  1.00  0.00    -0.269 OA
ATOM      5  C   UNL A   1      34.550  30.830  27.482  1.00  0.00     0.251 C 
ATOM      6  H   UNL A   1      33.057  30.636  26.164  1.00  0.00     0.163 HD
BRANCH   5   7
ATOM      7  C   UNL A   1      35.845  30.307  27.971  1.00  0.00     0.039 A 
ATOM      8  C   UNL A   1      35.960  29.714  29.232  1.00  0.00     0.014 A 
ATOM      9  C   UNL A   1      36.958  30.382  27.129  1.00  0.00     0.014 A 
ATOM     10  C   UNL A   1      37.210  29.303  29.695  1.00  0.00     0.010 A 
ATOM     11  C   UNL A   1      38.198  29.914  27.572  1.00  0.00     0.010 A 
ATOM     12  C   UNL A   1      38.340  29.396  28.869  1.00  0.00    -0.014 A 
BRANCH  12  13
ATOM     13  C   UNL A   1      39.663  28.918  29.342  1.00  0.00     0.031 A 
ATOM     14  C   UNL A   1      40.565  29.820  30.136  1.00  0.00     0.074 A 
ATOM     15  C   UNL A   1      40.068  27.674  29.021  1.00  0.00     0.049 A 
ATOM     16  N   UNL A   1      41.782  29.599  30.562  1.00  0.00    -0.248 NA
ATOM     17  C   UNL A   1      40.034  31.146  30.489  1.00  0.00     0.031 C 
ATOM     18  C   UNL A   1      39.284  26.705  28.252  1.00  0.00     0.029 A 
ATOM     19  N   UNL A   1      41.243  27.019  29.287  1.00  0.00    -0.354 N 
ATOM     20  C   UNL A   1      42.176  30.766  31.208  1.00  0.00     0.074 A 
ATOM     21  C   UNL A   1      41.072  31.696  31.105  1.00  0.00     0.031 C 
ATOM     22  C   UNL A   1      39.999  25.579  28.111  1.00  0.00     0.029 A 
ATOM     23  C   UNL A   1      41.307  25.764  28.733  1.00  0.00     0.049 A 
ATOM     24  H   UNL A   1      41.970  27.411  29.823  1.00  0.00     0.167 HD
ATOM     25  C   UNL A   1      43.351  31.037  31.827  1.00  0.00     0.031 A 
ATOM     26  C   UNL A   1      42.313  24.869  28.696  1.00  0.00     0.031 A 
ATOM     27  C   UNL A   1      44.448  30.110  31.924  1.00  0.00     0.049 A 
ATOM     28  C   UNL A   1      43.615  25.195  29.367  1.00  0.00     0.074 A 
ATOM     29  C   UNL A   1      45.664  30.279  32.562  1.00  0.00     0.029 A 
ATOM     30  N   UNL A   1      44.468  28.845  31.354  1.00  0.00    -0.354 N 
ATOM     31  N   UNL A   1      43.955  26.288  30.007  1.00  0.00    -0.248 NA
ATOM     32  C   UNL A   1      44.666  24.170  29.316  1.00  0.00     0.031 C 
ATOM     33  C   UNL A   1      46.436  29.132  32.343  1.00  0.00     0.029 A 
ATOM     34  C   UNL A   1      45.682  28.230  31.608  1.00  0.00     0.049 A 
ATOM     35  H   UNL A   1      43.727  28.442  30.846  1.00  0.00     0.167 HD
ATOM     36  C   UNL A   1      45.254  26.077  30.452  1.00  0.00     0.074 A 
ATOM     37  C   UNL A   1      45.637  24.750  30.012  1.00  0.00     0.031 C 
ATOM     38  C   UNL A   1      46.051  26.908  31.165  1.00  0.00     0.031 A 
BRANCH  25  39
ATOM     39  C   UNL A   1      43.520  32.414  32.411  1.00  0.00    -0.014 A 
ATOM     40  C   UNL A   1      44.058  33.469  31.652  1.00  0.00     0.010 A 
ATOM     41  C   UNL A   1      43.134  32.655  33.743  1.00  0.00     0.010 A 
ATOM     42  C   UNL A   1      44.263  34.724  32.234  1.00  0.00     0.020 A 
ATOM     43  C   UNL A   1      43.316  33.915  34.320  1.00  0.00     0.020 A 
ATOM     44  C   UNL A   1      43.906  34.934  33.569  1.00  0.00     0.054 A 
BRANCH  44  45
ATOM     45  S   UNL A   1      44.211  36.559  34.315  1.00  0.00     0.124 S 
ATOM     46  O   UNL A   1      44.477  36.204  35.707  1.00  0.00    -0.237 OA
ATOM     47  O   UNL A   1      45.363  37.051  33.563  1.00  0.00    -0.237 OA
ATOM     48  O   UNL A   1      42.965  37.286  34.084  1.00  0.00    -0.744 OA
ENDBRANCH  44  45
ENDBRANCH  25  39
BRANCH  26  49
ATOM     49  C   UNL A   1      42.104  23.586  27.975  1.00  0.00    -0.014 A 
ATOM     50  C   UNL A   1      42.727  23.353  26.738  1.00  0.00     0.010 A 
ATOM     51  C   UNL A   1      41.360  22.554  28.577  1.00  0.00     0.010 A 
ATOM     52  C   UNL A   1      42.624  22.102  26.123  1.00  0.00     0.020 A 
ATOM     53  C   UNL A   1      41.275  21.296  27.976  1.00  0.00     0.020 A 
ATOM     54  C   UNL A   1      41.908  21.078  26.752  1.00  0.00     0.054 A 
BRANCH  54  55
ATOM     55  S   UNL A   1      41.890  19.428  25.996  1.00  0.00     0.124 S 
ATOM     56  O   UNL A   1      42.418  18.596  27.073  1.00  0.00    -0.237 OA
ATOM     57  O   UNL A   1      40.475  19.236  25.684  1.00  0.00    -0.237 OA
ATOM     58  O   UNL A   1      42.760  19.576  24.832  1.00  0.00    -0.744 OA
ENDBRANCH  54  55
ENDBRANCH  26  49
BRANCH  38  59
ATOM     59  C   UNL A   1      47.416  26.407  31.548  1.00  0.00    -0.014 A 
ATOM     60  C   UNL A   1      47.625  25.726  32.759  1.00  0.00     0.010 A 
ATOM     61  C   UNL A   1      48.482  26.536  30.638  1.00  0.00     0.010 A 
ATOM     62  C   UNL A   1      48.878  25.184  33.057  1.00  0.00     0.020 A 
ATOM     63  C   UNL A   1      49.731  25.981  30.924  1.00  0.00     0.020 A 
ATOM     64  C   UNL A   1      49.923  25.312  32.135  1.00  0.00     0.054 A 
BRANCH  64  65
ATOM     65  S   UNL A   1      51.519  24.529  32.503  1.00  0.00     0.124 S 
ATOM     66  O   UNL A   1      51.243  23.126  32.211  1.00  0.00    -0.237 OA
ATOM     67  O   UNL A   1      52.428  25.198  31.574  1.00  0.00    -0.237 OA
ATOM     68  O   UNL A   1      51.739  24.842  33.913  1.00  0.00    -0.744 OA
ENDBRANCH  64  65
ENDBRANCH  38  59
ENDBRANCH  12  13
ENDBRANCH   5   7
ENDBRANCH   2   3
ENDBRANCH   1   2
BRANCH   1  69
ATOM     69  C   UNL A   1      32.084  27.795  27.183  1.00  0.00     0.023 C 
BRANCH  69  70
ATOM     70  C   UNL A   1      31.115  27.028  26.287  1.00  0.00     0.116 C 
BRANCH  70  71
ATOM     71  N   UNL A   1      31.227  25.587  26.438  1.00  0.00    -0.352 N 
ATOM     72  C   UNL A   1      31.622  24.654  25.519  1.00  0.00     0.253 C 
ATOM     73  H   UNL A   1      30.985  25.233  27.324  1.00  0.00     0.163 HD
ATOM     74  O   UNL A   1      31.653  23.457  25.813  1.00  0.00    -0.269 OA
BRANCH  72  75
ATOM     75  C   UNL A   1      32.049  25.073  24.179  1.00  0.00     0.067 A 
ATOM     76  C   UNL A   1      31.063  25.346  23.219  1.00  0.00     0.017 A 
ATOM     77  C   UNL A   1      33.391  25.298  23.863  1.00  0.00     0.107 A 
ATOM     78  C   UNL A   1      31.434  25.810  21.964  1.00  0.00     0.021 A 
ATOM     79  N   UNL A   1      33.747  25.782  22.634  1.00  0.00    -0.254 NA
ATOM     80  C   UNL A   1      32.778  26.015  21.723  1.00  0.00     0.111 A 
BRANCH  77  81
ATOM     81  C   UNL A   1      34.529  25.052  24.853  1.00  0.00     0.321 C 
BRANCH  81  82
ATOM     82  N   UNL A   1      34.828  23.655  25.248  1.00  0.00    -0.322 N 
ATOM     83  C   UNL A   1      35.982  23.519  26.134  1.00  0.00     0.263 C 
ATOM     84  C   UNL A   1      35.017  22.749  24.097  1.00  0.00     0.234 C 
ATOM     85  H   UNL A   1      33.990  23.378  25.760  1.00  0.00     0.349 HD
ATOM     86  C   UNL A   1      37.120  22.927  25.320  1.00  0.00     0.068 C 
ATOM     87  C   UNL A   1      36.522  22.511  23.986  1.00  0.00     0.078 C 
BRANCH  84  88
ATOM     88  C   UNL A   1      34.252  21.428  24.194  1.00  0.00     0.098 A 
ATOM     89  C   UNL A   1      34.804  20.280  24.765  1.00  0.00     0.030 A 
ATOM     90  N   UNL A   1      33.017  21.411  23.620  1.00  0.00    -0.255 NA
ATOM     91  C   UNL A   1      34.074  19.093  24.760  1.00  0.00     0.004 A 
ATOM     92  C   UNL A   1      32.326  20.249  23.644  1.00  0.00     0.111 A 
ATOM     93  C   UNL A   1      32.809  19.073  24.191  1.00  0.00     0.020 A 
ENDBRANCH  84  88
ENDBRANCH  81  82
ENDBRANCH  77  81
ENDBRANCH  72  75
ENDBRANCH  70  71
ENDBRANCH  69  70
ENDBRANCH   1  69
TORSDOF 17
ENDMDL
MODEL 2
REMARK VINA RESULT:     -11.0      0.880      1.879
REMARK SMILES O=C(NCCCCNC(=O)c1cccnc1C[N@@H+]1CCC[C@H]1c1ccccn1)c1ccc(-c2c3nc(c(-c4ccc(S(=O)(=O)[O-])cc4)c4ccc([nH]4)c(-c4ccc(S(=O)(=O)[O-])cc4)c4nc(c(-c5ccc(S(=O)(=O)[O-])cc5)c5ccc2[nH]5)C=C4)C=C3)cc1
REMARK SMILES IDX 5 1 4 2 3 3 1 4 2 5 29 7 30 8 88 9 31 10 87 11 32 12 33 13
REMARK SMILES IDX 34 14 81 15 35 16 86 17 80 18 82 19 36 20 85 21 79 22 78 23
REMARK SMILES IDX 37 25 67 26 48 27 66 28 49 29 52 30 65 31 83 32 50 33 51 34
REMARK SMILES IDX 64 36 84 37 53 38 38 39 39 40 47 41 40 42 46 43 41 44 42 45
REMARK SMILES IDX 43 46 44 47 45 48 68 49 69 50 77 51 70 52 76 53 71 54 72 55
REMARK SMILES IDX 73 56 74 57 75 58 54 59 55 60 63 61 56 62 62 63 57 64 58 65
REMARK SMILES IDX 59 66 60 67 61 68 6 69 7 70 8 71 9 72 10 74 11 75 12 76
REMARK SMILES IDX 16 77 13 78 15 79 14 80 17 81 18 82 19 83 22 84 20 86 21 87
REMARK SMILES IDX 23 88 24 89 28 90 25 91 27 92 26 93
REMARK H PARENT 3 6 82 24 52 35 8 73 18 85
REMARK Flexibility Score: inf
ROOT
ATOM      1  C   UNL A   1      33.504  27.448  26.578  1.00  0.00     0.023 C 
ENDROOT
BRANCH   1   2
ATOM      2  C   UNL A   1      34.074  28.680  25.880  1.00  0.00     0.116 C 
BRANCH   2   3
ATOM      3  N   UNL A   1      33.712  29.919  26.548  1.00  0.00    -0.352 N 
ATOM      4  O   UNL A   1      33.805  31.557  28.086  1.00  0.00    -0.269 OA
ATOM      5  C   UNL A   1      34.364  30.607  27.542  1.00  0.00     0.251 C 
ATOM      6  H   UNL A   1      32.869  30.328  26.241  1.00  0.00     0.163 HD
BRANCH   5   7
ATOM      7  C   UNL A   1      35.718  30.200  27.976  1.00  0.00     0.039 A 
ATOM      8  C   UNL A   1      36.826  30.343  27.135  1.00  0.00     0.014 A 
ATOM      9  C   UNL A   1      35.884  29.699  29.270  1.00  0.00     0.014 A 
ATOM     10  C   UNL A   1      38.075  29.878  27.545  1.00  0.00     0.010 A 
ATOM     11  C   UNL A   1      37.148  29.288  29.701  1.00  0.00     0.010 A 
ATOM     12  C   UNL A   1      38.249  29.349  28.833  1.00  0.00    -0.014 A 
BRANCH  12  13
ATOM     13  C   UNL A   1      39.587  28.894  29.288  1.00  0.00     0.031 A 
ATOM     14  C   UNL A   1      40.489  29.818  30.057  1.00  0.00     0.074 A 
ATOM     15  C   UNL A   1      40.004  27.654  28.973  1.00  0.00     0.049 A 
ATOM     16  N   UNL A   1      41.716  29.620  30.464  1.00  0.00    -0.248 NA
ATOM     17  C   UNL A   1      39.945  31.140  30.405  1.00  0.00     0.031 C 
ATOM     18  C   UNL A   1      39.223  26.665  28.227  1.00  0.00     0.029 A 
ATOM     19  N   UNL A   1      41.194  27.019  29.225  1.00  0.00    -0.354 N 
ATOM     20  C   UNL A   1      42.104  30.798  31.091  1.00  0.00     0.074 A 
ATOM     21  C   UNL A   1      40.984  31.711  30.998  1.00  0.00     0.031 C 
ATOM     22  C   UNL A   1      39.951  25.549  28.086  1.00  0.00     0.029 A 
ATOM     23  C   UNL A   1      41.267  25.759  28.683  1.00  0.00     0.049 A 
ATOM     24  H   UNL A   1      41.924  27.427  29.745  1.00  0.00     0.167 HD
ATOM     25  C   UNL A   1      43.285  31.093  31.687  1.00  0.00     0.031 A 
ATOM     26  C   UNL A   1      42.285  24.879  28.637  1.00  0.00     0.031 A 
ATOM     27  C   UNL A   1      44.397  30.184  31.775  1.00  0.00     0.049 A 
ATOM     28  C   UNL A   1      43.593  25.230  29.283  1.00  0.00     0.074 A 
ATOM     29  C   UNL A   1      45.622  30.377  32.390  1.00  0.00     0.029 A 
ATOM     30  N   UNL A   1      44.426  28.913  31.218  1.00  0.00    -0.354 N 
ATOM     31  N   UNL A   1      43.928  26.335  29.906  1.00  0.00    -0.248 NA
ATOM     32  C   UNL A   1      44.658  24.220  29.224  1.00  0.00     0.031 C 
ATOM     33  C   UNL A   1      46.407  29.239  32.170  1.00  0.00     0.029 A 
ATOM     34  C   UNL A   1      45.654  28.319  31.457  1.00  0.00     0.049 A 
ATOM     35  H   UNL A   1      43.683  28.494  30.727  1.00  0.00     0.167 HD
ATOM     36  C   UNL A   1      45.238  26.148  30.330  1.00  0.00     0.074 A 
ATOM     37  C   UNL A   1      45.633  24.822  29.897  1.00  0.00     0.031 C 
ATOM     38  C   UNL A   1      46.035  26.998  31.020  1.00  0.00     0.031 A 
BRANCH  25  39
ATOM     39  C   UNL A   1      43.443  32.479  32.255  1.00  0.00    -0.014 A 
ATOM     40  C   UNL A   1      43.136  32.758  33.599  1.00  0.00     0.010 A 
ATOM     41  C   UNL A   1      43.906  33.518  31.427  1.00  0.00     0.010 A 
ATOM     42  C   UNL A   1      43.230  34.065  34.088  1.00  0.00     0.020 A 
ATOM     43  C   UNL A   1      44.024  34.821  31.919  1.00  0.00     0.020 A 
ATOM     44  C   UNL A   1      43.658  35.091  33.240  1.00  0.00     0.054 A 
BRANCH  44  45
ATOM     45  S   UNL A   1      43.743  36.784  33.885  1.00  0.00     0.124 S 
ATOM     46  O   UNL A   1      44.895  36.705  34.781  1.00  0.00    -0.237 OA
ATOM     47  O   UNL A   1      43.944  37.582  32.678  1.00  0.00    -0.237 OA
ATOM     48  O   UNL A   1      42.453  36.970  34.543  1.00  0.00    -0.744 OA
ENDBRANCH  44  45
ENDBRANCH  25  39
BRANCH  26  49
ATOM     49  C   UNL A   1      42.083  23.585  27.933  1.00  0.00    -0.014 A 
ATOM     50  C   UNL A   1      42.627  23.376  26.655  1.00  0.00     0.010 A 
ATOM     51  C   UNL A   1      41.431  22.523  28.587  1.00  0.00     0.010 A 
ATOM     52  C   UNL A   1      42.536  22.119  26.049  1.00  0.00     0.020 A 
ATOM     53  C   UNL A   1      41.360  21.261  27.993  1.00  0.00     0.020 A 
ATOM     54  C   UNL A   1      41.913  21.067  26.727  1.00  0.00     0.054 A 
BRANCH  54  55
ATOM     55  S   UNL A   1      41.915  19.415  25.974  1.00  0.00     0.124 S 
ATOM     56  O   UNL A   1      42.824  19.597  24.847  1.00  0.00    -0.237 OA
ATOM     57  O   UNL A   1      42.413  18.572  27.059  1.00  0.00    -0.237 OA
ATOM     58  O   UNL A   1      40.514  19.199  25.623  1.00  0.00    -0.744 OA
ENDBRANCH  54  55
ENDBRANCH  26  49
BRANCH  38  59
ATOM     59  C   UNL A   1      47.413  26.521  31.385  1.00  0.00    -0.014 A 
ATOM     60  C   UNL A   1      47.660  25.889  32.616  1.00  0.00     0.010 A 
ATOM     61  C   UNL A   1      48.453  26.622  30.443  1.00  0.00     0.010 A 
ATOM     62  C   UNL A   1      48.925  25.367  32.899  1.00  0.00     0.020 A 
ATOM     63  C   UNL A   1      49.713  26.086  30.715  1.00  0.00     0.020 A 
ATOM     64  C   UNL A   1      49.943  25.466  31.945  1.00  0.00     0.054 A 
BRANCH  64  65
ATOM     65  S   UNL A   1      51.554  24.708  32.299  1.00  0.00     0.124 S 
ATOM     66  O   UNL A   1      51.293  23.299  32.025  1.00  0.00    -0.237 OA
ATOM     67  O   UNL A   1      52.441  25.379  31.352  1.00  0.00    -0.237 OA
ATOM     68  O   UNL A   1      51.789  25.038  33.703  1.00  0.00    -0.744 OA
ENDBRANCH  64  65
ENDBRANCH  38  59
ENDBRANCH  12  13
ENDBRANCH   5   7
ENDBRANCH   2   3
ENDBRANCH   1   2
BRANCH   1  69
ATOM     69  C   UNL A   1      31.977  27.345  26.604  1.00  0.00     0.023 C 
BRANCH  69  70
ATOM     70  C   UNL A   1      31.404  25.937  26.465  1.00  0.00     0.116 C 
BRANCH  70  71
ATOM     71  N   UNL A   1      30.195  25.897  25.660  1.00  0.00    -0.352 N 
ATOM     72  C   UNL A   1      30.057  26.030  24.305  1.00  0.00     0.253 C 
ATOM     73  H   UNL A   1      29.357  25.755  26.158  1.00  0.00     0.163 HD
ATOM     74  O   UNL A   1      28.945  25.977  23.778  1.00  0.00    -0.269 OA
BRANCH  72  75
ATOM     75  C   UNL A   1      31.244  26.200  23.457  1.00  0.00     0.067 A 
ATOM     76  C   UNL A   1      31.641  27.502  23.120  1.00  0.00     0.017 A 
ATOM     77  C   UNL A   1      32.035  25.119  23.060  1.00  0.00     0.107 A 
ATOM     78  C   UNL A   1      32.797  27.697  22.376  1.00  0.00     0.021 A 
ATOM     79  N   UNL A   1      33.187  25.321  22.352  1.00  0.00    -0.254 NA
ATOM     80  C   UNL A   1      33.534  26.584  22.023  1.00  0.00     0.111 A 
BRANCH  77  81
ATOM     81  C   UNL A   1      31.693  23.670  23.403  1.00  0.00     0.321 C 
BRANCH  81  82
ATOM     82  N   UNL A   1      32.721  22.629  23.165  1.00  0.00    -0.322 N 
ATOM     83  C   UNL A   1      32.285  21.554  22.276  1.00  0.00     0.263 C 
ATOM     84  C   UNL A   1      33.240  22.023  24.407  1.00  0.00     0.234 C 
ATOM     85  H   UNL A   1      33.468  23.148  22.705  1.00  0.00     0.349 HD
ATOM     86  C   UNL A   1      32.054  20.317  23.129  1.00  0.00     0.068 C 
ATOM     87  C   UNL A   1      32.588  20.646  24.514  1.00  0.00     0.078 C 
BRANCH  84  88
ATOM     88  C   UNL A   1      34.764  21.923  24.478  1.00  0.00     0.098 A 
ATOM     89  C   UNL A   1      35.422  20.801  24.988  1.00  0.00     0.030 A 
ATOM     90  N   UNL A   1      35.454  23.028  24.081  1.00  0.00    -0.255 NA
ATOM     91  C   UNL A   1      36.812  20.805  25.083  1.00  0.00     0.004 A 
ATOM     92  C   UNL A   1      36.803  22.997  24.170  1.00  0.00     0.111 A 
ATOM     93  C   UNL A   1      37.520  21.922  24.665  1.00  0.00     0.020 A 
ENDBRANCH  84  88
ENDBRANCH  81  82
ENDBRANCH  77  81
ENDBRANCH  72  75
ENDBRANCH  70  71
ENDBRANCH  69  70
ENDBRANCH   1  69
TORSDOF 17
ENDMDL
MODEL 3
REMARK VINA RESULT:     -10.8      3.408      4.350
REMARK SMILES O=C(NCCCCNC(=O)c1cccnc1C[N@@H+]1CCC[C@H]1c1ccccn1)c1ccc(-c2c3nc(c(-c4ccc(S(=O)(=O)[O-])cc4)c4ccc([nH]4)c(-c4ccc(S(=O)(=O)[O-])cc4)c4nc(c(-c5ccc(S(=O)(=O)[O-])cc5)c5ccc2[nH]5)C=C4)C=C3)cc1
REMARK SMILES IDX 5 1 4 2 3 3 1 4 2 5 29 7 30 8 88 9 31 10 87 11 32 12 33 13
REMARK SMILES IDX 34 14 81 15 35 16 86 17 80 18 82 19 36 20 85 21 79 22 78 23
REMARK SMILES IDX 37 25 67 26 48 27 66 28 49 29 52 30 65 31 83 32 50 33 51 34
REMARK SMILES IDX 64 36 84 37 53 38 38 39 39 40 47 41 40 42 46 43 41 44 42 45
REMARK SMILES IDX 43 46 44 47 45 48 68 49 69 50 77 51 70 52 76 53 71 54 72 55
REMARK SMILES IDX 73 56 74 57 75 58 54 59 55 60 63 61 56 62 62 63 57 64 58 65
REMARK SMILES IDX 59 66 60 67 61 68 6 69 7 70 8 71 9 72 10 74 11 75 12 76
REMARK SMILES IDX 16 77 13 78 15 79 14 80 17 81 18 82 19 83 22 84 20 86 21 87
REMARK SMILES IDX 23 88 24 89 28 90 25 91 27 92 26 93
REMARK H PARENT 3 6 82 24 52 35 8 73 18 85
REMARK Flexibility Score: inf
ROOT
ATOM      1  C   UNL A   1      33.876  28.974  27.211  1.00  0.00     0.023 C 
ENDROOT
BRANCH   1   2
ATOM      2  C   UNL A   1      35.240  29.547  27.587  1.00  0.00     0.116 C 
BRANCH   2   3
ATOM      3  N   UNL A   1      35.234  30.205  28.883  1.00  0.00    -0.352 N 
ATOM      4  O   UNL A   1      35.996  30.814  30.909  1.00  0.00    -0.269 OA
ATOM      5  C   UNL A   1      36.250  30.364  29.793  1.00  0.00     0.251 C 
ATOM      6  H   UNL A   1      34.370  30.596  29.149  1.00  0.00     0.163 HD
BRANCH   5   7
ATOM      7  C   UNL A   1      37.637  29.978  29.452  1.00  0.00     0.039 A 
ATOM      8  C   UNL A   1      38.090  29.987  28.129  1.00  0.00     0.014 A 
ATOM      9  C   UNL A   1      38.511  29.636  30.487  1.00  0.00     0.014 A 
ATOM     10  C   UNL A   1      39.378  29.543  27.831  1.00  0.00     0.010 A 
ATOM     11  C   UNL A   1      39.821  29.248  30.193  1.00  0.00     0.010 A 
ATOM     12  C   UNL A   1      40.256  29.171  28.861  1.00  0.00    -0.014 A 
BRANCH  12  13
ATOM     13  C   UNL A   1      41.643  28.741  28.551  1.00  0.00     0.031 A 
ATOM     14  C   UNL A   1      42.766  29.739  28.519  1.00  0.00     0.074 A 
ATOM     15  C   UNL A   1      41.883  27.448  28.260  1.00  0.00     0.049 A 
ATOM     16  N   UNL A   1      44.019  29.558  28.191  1.00  0.00    -0.248 NA
ATOM     17  C   UNL A   1      42.435  31.123  28.895  1.00  0.00     0.031 C 
ATOM     18  C   UNL A   1      40.876  26.385  28.254  1.00  0.00     0.029 A 
ATOM     19  N   UNL A   1      43.043  26.813  27.898  1.00  0.00    -0.354 N 
ATOM     20  C   UNL A   1      44.623  30.806  28.292  1.00  0.00     0.074 A 
ATOM     21  C   UNL A   1      43.594  31.738  28.699  1.00  0.00     0.031 C 
ATOM     22  C   UNL A   1      41.463  25.230  27.909  1.00  0.00     0.029 A 
ATOM     23  C   UNL A   1      42.872  25.479  27.620  1.00  0.00     0.049 A 
ATOM     24  H   UNL A   1      43.914  27.269  27.843  1.00  0.00     0.167 HD
ATOM     25  C   UNL A   1      45.916  31.144  28.064  1.00  0.00     0.031 A 
ATOM     26  C   UNL A   1      43.739  24.560  27.152  1.00  0.00     0.031 A 
ATOM     27  C   UNL A   1      46.936  30.214  27.656  1.00  0.00     0.049 A 
ATOM     28  C   UNL A   1      45.160  24.956  26.884  1.00  0.00     0.074 A 
ATOM     29  C   UNL A   1      48.281  30.453  27.435  1.00  0.00     0.029 A 
ATOM     30  N   UNL A   1      46.720  28.868  27.393  1.00  0.00    -0.354 N 
ATOM     31  N   UNL A   1      45.722  26.133  27.023  1.00  0.00    -0.248 NA
ATOM     32  C   UNL A   1      46.065  23.905  26.400  1.00  0.00     0.031 C 
ATOM     33  C   UNL A   1      48.872  29.261  26.998  1.00  0.00     0.029 A 
ATOM     34  C   UNL A   1      47.903  28.270  26.992  1.00  0.00     0.049 A 
ATOM     35  H   UNL A   1      45.856  28.407  27.480  1.00  0.00     0.167 HD
ATOM     36  C   UNL A   1      47.053  25.962  26.661  1.00  0.00     0.074 A 
ATOM     37  C   UNL A   1      47.213  24.567  26.301  1.00  0.00     0.031 C 
ATOM     38  C   UNL A   1      48.049  26.879  26.636  1.00  0.00     0.031 A 
BRANCH  25  39
ATOM     39  C   UNL A   1      46.284  32.596  28.212  1.00  0.00    -0.014 A 
ATOM     40  C   UNL A   1      46.344  33.452  27.098  1.00  0.00     0.010 A 
ATOM     41  C   UNL A   1      46.577  33.111  29.488  1.00  0.00     0.010 A 
ATOM     42  C   UNL A   1      46.749  34.782  27.250  1.00  0.00     0.020 A 
ATOM     43  C   UNL A   1      46.960  34.446  29.647  1.00  0.00     0.020 A 
ATOM     44  C   UNL A   1      47.070  35.265  28.522  1.00  0.00     0.054 A 
BRANCH  44  45
ATOM     45  S   UNL A   1      47.625  36.984  28.694  1.00  0.00     0.124 S 
ATOM     46  O   UNL A   1      47.744  37.399  27.298  1.00  0.00    -0.237 OA
ATOM     47  O   UNL A   1      46.533  37.605  29.439  1.00  0.00    -0.237 OA
ATOM     48  O   UNL A   1      48.886  36.871  29.421  1.00  0.00    -0.744 OA
ENDBRANCH  44  45
ENDBRANCH  25  39
BRANCH  26  49
ATOM     49  C   UNL A   1      43.251  23.178  26.903  1.00  0.00    -0.014 A 
ATOM     50  C   UNL A   1      43.224  22.655  25.599  1.00  0.00     0.010 A 
ATOM     51  C   UNL A   1      42.910  22.346  27.986  1.00  0.00     0.010 A 
ATOM     52  C   UNL A   1      42.879  21.317  25.385  1.00  0.00     0.020 A 
ATOM     53  C   UNL A   1      42.587  21.004  27.777  1.00  0.00     0.020 A 
ATOM     54  C   UNL A   1      42.574  20.497  26.476  1.00  0.00     0.054 A 
BRANCH  54  55
ATOM     55  S   UNL A   1      42.249  18.735  26.186  1.00  0.00     0.124 S 
ATOM     56  O   UNL A   1      42.517  18.158  27.500  1.00  0.00    -0.237 OA
ATOM     57  O   UNL A   1      40.848  18.734  25.769  1.00  0.00    -0.237 OA
ATOM     58  O   UNL A   1      43.202  18.381  25.137  1.00  0.00    -0.744 OA
ENDBRANCH  54  55
ENDBRANCH  26  49
BRANCH  38  59
ATOM     59  C   UNL A   1      49.420  26.409  26.234  1.00  0.00    -0.014 A 
ATOM     60  C   UNL A   1      49.932  26.678  24.953  1.00  0.00     0.010 A 
ATOM     61  C   UNL A   1      50.240  25.774  27.183  1.00  0.00     0.010 A 
ATOM     62  C   UNL A   1      51.242  26.317  24.627  1.00  0.00     0.020 A 
ATOM     63  C   UNL A   1      51.555  25.427  26.867  1.00  0.00     0.020 A 
ATOM     64  C   UNL A   1      52.047  25.697  25.589  1.00  0.00     0.054 A 
BRANCH  64  65
ATOM     65  S   UNL A   1      53.771  25.312  25.172  1.00  0.00     0.124 S 
ATOM     66  O   UNL A   1      53.793  23.857  25.286  1.00  0.00    -0.237 OA
ATOM     67  O   UNL A   1      53.900  25.838  23.815  1.00  0.00    -0.237 OA
ATOM     68  O   UNL A   1      54.540  26.029  26.186  1.00  0.00    -0.744 OA
ENDBRANCH  64  65
ENDBRANCH  38  59
ENDBRANCH  12  13
ENDBRANCH   5   7
ENDBRANCH   2   3
ENDBRANCH   1   2
BRANCH   1  69
ATOM     69  C   UNL A   1      33.616  28.806  25.712  1.00  0.00     0.023 C 
BRANCH  69  70
ATOM     70  C   UNL A   1      33.649  27.372  25.189  1.00  0.00     0.116 C 
BRANCH  70  71
ATOM     71  N   UNL A   1      34.061  27.287  23.799  1.00  0.00    -0.352 N 
ATOM     72  C   UNL A   1      33.576  26.483  22.804  1.00  0.00     0.253 C 
ATOM     73  H   UNL A   1      34.792  27.893  23.535  1.00  0.00     0.163 HD
ATOM     74  O   UNL A   1      34.049  26.534  21.668  1.00  0.00    -0.269 OA
BRANCH  72  75
ATOM     75  C   UNL A   1      32.455  25.573  23.073  1.00  0.00     0.067 A 
ATOM     76  C   UNL A   1      31.168  26.117  23.191  1.00  0.00     0.017 A 
ATOM     77  C   UNL A   1      32.618  24.187  23.119  1.00  0.00     0.107 A 
ATOM     78  C   UNL A   1      30.080  25.275  23.377  1.00  0.00     0.021 A 
ATOM     79  N   UNL A   1      31.538  23.362  23.274  1.00  0.00    -0.254 NA
ATOM     80  C   UNL A   1      30.313  23.915  23.406  1.00  0.00     0.111 A 
BRANCH  77  81
ATOM     81  C   UNL A   1      33.979  23.506  22.975  1.00  0.00     0.321 C 
BRANCH  81  82
ATOM     82  N   UNL A   1      34.550  22.819  24.158  1.00  0.00    -0.322 N 
ATOM     83  C   UNL A   1      33.562  22.113  24.972  1.00  0.00     0.263 C 
ATOM     84  C   UNL A   1      35.322  23.716  25.040  1.00  0.00     0.234 C 
ATOM     85  H   UNL A   1      35.178  22.133  23.742  1.00  0.00     0.349 HD
ATOM     86  C   UNL A   1      33.362  22.912  26.249  1.00  0.00     0.068 C 
ATOM     87  C   UNL A   1      34.433  23.990  26.253  1.00  0.00     0.078 C 
BRANCH  84  88
ATOM     88  C   UNL A   1      36.687  23.172  25.464  1.00  0.00     0.098 A 
ATOM     89  C   UNL A   1      37.617  23.940  26.169  1.00  0.00     0.030 A 
ATOM     90  N   UNL A   1      36.981  21.910  25.049  1.00  0.00    -0.255 NA
ATOM     91  C   UNL A   1      38.867  23.401  26.465  1.00  0.00     0.004 A 
ATOM     92  C   UNL A   1      38.197  21.407  25.364  1.00  0.00     0.111 A 
ATOM     93  C   UNL A   1      39.166  22.109  26.058  1.00  0.00     0.020 A 
ENDBRANCH  84  88
ENDBRANCH  81  82
ENDBRANCH  77  81
ENDBRANCH  72  75
ENDBRANCH  70  71
ENDBRANCH  69  70
ENDBRANCH   1  69
TORSDOF 17
ENDMDL
