MODEL 1
REMARK VINA RESULT:     -11.9      0.000      0.000
REMARK SMILES Cc1nc(=O)[nH]c(C)c1CC(=O)N1CC[C@H](C(=O)NCCCCNC(=O)c2ccc(-c3c4nc(c(-c5ccc(S(=O)(=O)[O-])cc5)c5ccc([nH]5)c(-c5ccc(S(=O)(=O)[O-])cc5)c5nc(c(-c6ccc(S(=O)(=O)[O-])cc6)c6ccc3[nH]6)C=C5)C=C4)cc2)[C@@H]1C
REMARK SMILES IDX 21 1 20 2 19 3 17 4 18 5 16 7 13 8 14 9 87 10 15 11 88 12
REMARK SMILES IDX 11 13 12 14 10 15 9 16 1 17 2 18 3 19 4 20 7 21 5 22 6 23
REMARK SMILES IDX 8 24 22 26 23 27 24 28 25 29 26 31 27 32 28 33 86 34 29 35
REMARK SMILES IDX 85 36 30 37 31 38 32 39 79 40 33 41 84 42 78 43 80 44 34 45
REMARK SMILES IDX 83 46 77 47 76 48 35 50 65 51 46 52 64 53 47 54 50 55 63 56
REMARK SMILES IDX 81 57 48 58 49 59 62 61 82 62 51 63 36 64 37 65 45 66 38 67
REMARK SMILES IDX 44 68 39 69 40 70 41 71 42 72 43 73 66 74 67 75 75 76 68 77
REMARK SMILES IDX 74 78 69 79 70 80 71 81 72 82 73 83 52 84 53 85 61 86 54 87
REMARK SMILES IDX 60 88 55 89 56 90 57 91 58 92 59 93
REMARK H PARENT 19 6 6 25 24 30 80 49 50 60
REMARK Flexibility Score: inf
ROOT
ATOM      1  C   UNL A   1      37.792  21.752  25.392  1.00  0.00     0.023 C 
ENDROOT
BRANCH   1   2
ATOM      2  C   UNL A   1      36.400  21.133  25.377  1.00  0.00     0.116 C 
BRANCH   2   3
ATOM      3  N   UNL A   1      35.400  21.925  26.073  1.00  0.00    -0.356 N 
ATOM      4  C   UNL A   1      34.105  22.234  25.805  1.00  0.00     0.225 C 
ATOM      5  O   UNL A   1      33.476  22.752  26.738  1.00  0.00    -0.275 OA
ATOM      6  H   UNL A   1      35.729  22.319  26.913  1.00  0.00     0.163 HD
BRANCH   4   7
ATOM      7  C   UNL A   1      33.398  22.108  24.446  1.00  0.00     0.102 C 
ATOM      8  N   UNL A   1      32.371  24.076  23.594  1.00  0.00    -0.339 N 
ATOM      9  C   UNL A   1      31.455  23.463  24.560  1.00  0.00     0.120 C 
ATOM     10  C   UNL A   1      33.529  23.181  23.353  1.00  0.00     0.094 C 
ATOM     11  C   UNL A   1      31.894  22.018  24.662  1.00  0.00     0.037 C 
ATOM     12  C   UNL A   1      34.946  23.745  23.326  1.00  0.00     0.032 C 
BRANCH   8  13
ATOM     13  C   UNL A   1      31.965  25.275  23.049  1.00  0.00     0.227 C 
ATOM     14  O   UNL A   1      31.928  25.411  21.819  1.00  0.00    -0.275 OA
BRANCH  13  15
ATOM     15  C   UNL A   1      31.733  26.511  23.911  1.00  0.00     0.139 C 
BRANCH  15  16
ATOM     16  C   UNL A   1      31.138  27.708  23.251  1.00  0.00     0.002 A 
ATOM     17  C   UNL A   1      28.695  26.841  23.695  1.00  0.00     0.067 C 
ATOM     18  C   UNL A   1      29.652  27.849  23.086  1.00  0.00     0.049 A 
ATOM     19  N   UNL A   1      29.078  28.790  22.406  1.00  0.00    -0.198 NA
ATOM     20  C   UNL A   1      29.844  29.744  21.806  1.00  0.00     0.345 A 
ATOM     21  C   UNL A   1      31.847  28.733  22.735  1.00  0.00     0.022 A 
ATOM     22  O   UNL A   1      29.374  30.614  21.077  1.00  0.00    -0.246 OA
ATOM     23  N   UNL A   1      31.193  29.714  22.034  1.00  0.00    -0.310 N 
ATOM     24  C   UNL A   1      33.344  28.884  22.775  1.00  0.00     0.065 C 
ATOM     25  H   UNL A   1      31.734  30.449  21.666  1.00  0.00     0.171 HD
ENDBRANCH  15  16
ENDBRANCH  13  15
ENDBRANCH   8  13
ENDBRANCH   4   7
ENDBRANCH   2   3
ENDBRANCH   1   2
BRANCH   1  26
ATOM     26  C   UNL A   1      37.814  23.277  25.410  1.00  0.00     0.023 C 
BRANCH  26  27
ATOM     27  C   UNL A   1      38.648  23.903  26.522  1.00  0.00     0.116 C 
BRANCH  27  28
ATOM     28  N   UNL A   1      40.084  23.738  26.329  1.00  0.00    -0.352 N 
ATOM     29  C   UNL A   1      41.120  24.524  26.778  1.00  0.00     0.251 C 
ATOM     30  H   UNL A   1      40.350  22.949  25.803  1.00  0.00     0.163 HD
ATOM     31  O   UNL A   1      42.270  24.293  26.416  1.00  0.00    -0.269 OA
BRANCH  29  32
ATOM     32  C   UNL A   1      40.828  25.670  27.664  1.00  0.00     0.039 A 
ATOM     33  C   UNL A   1      39.775  25.576  28.575  1.00  0.00     0.014 A 
ATOM     34  C   UNL A   1      41.639  26.806  27.638  1.00  0.00     0.014 A 
ATOM     35  C   UNL A   1      39.593  26.585  29.524  1.00  0.00     0.010 A 
ATOM     36  C   UNL A   1      41.519  27.759  28.644  1.00  0.00     0.010 A 
ATOM     37  C   UNL A   1      40.496  27.661  29.599  1.00  0.00    -0.014 A 
BRANCH  37  38
ATOM     38  C   UNL A   1      40.395  28.682  30.676  1.00  0.00     0.031 A 
ATOM     39  C   UNL A   1      41.242  28.562  31.914  1.00  0.00     0.074 A 
ATOM     40  C   UNL A   1      39.487  29.674  30.576  1.00  0.00     0.049 A 
ATOM     41  N   UNL A   1      41.256  29.321  32.980  1.00  0.00    -0.248 NA
ATOM     42  C   UNL A   1      42.171  27.423  31.975  1.00  0.00     0.031 C 
ATOM     43  C   UNL A   1      38.561  29.867  29.458  1.00  0.00     0.029 A 
ATOM     44  N   UNL A   1      39.184  30.700  31.436  1.00  0.00    -0.354 N 
ATOM     45  C   UNL A   1      42.179  28.740  33.843  1.00  0.00     0.074 A 
ATOM     46  C   UNL A   1      42.652  27.534  33.204  1.00  0.00     0.031 C 
ATOM     47  C   UNL A   1      37.812  30.956  29.689  1.00  0.00     0.029 A 
ATOM     48  C   UNL A   1      38.168  31.514  30.990  1.00  0.00     0.049 A 
ATOM     49  H   UNL A   1      39.649  30.841  32.293  1.00  0.00     0.167 HD
ATOM     50  C   UNL A   1      42.612  29.183  35.048  1.00  0.00     0.031 A 
ATOM     51  C   UNL A   1      37.577  32.580  31.564  1.00  0.00     0.031 A 
ATOM     52  C   UNL A   1      42.131  30.381  35.686  1.00  0.00     0.049 A 
ATOM     53  C   UNL A   1      38.065  33.055  32.905  1.00  0.00     0.074 A 
ATOM     54  C   UNL A   1      42.545  30.948  36.877  1.00  0.00     0.029 A 
ATOM     55  N   UNL A   1      41.119  31.190  35.188  1.00  0.00    -0.354 N 
ATOM     56  N   UNL A   1      39.003  32.543  33.667  1.00  0.00    -0.248 NA
ATOM     57  C   UNL A   1      37.428  34.259  33.456  1.00  0.00     0.031 C 
ATOM     58  C   UNL A   1      41.737  32.061  37.134  1.00  0.00     0.029 A 
ATOM     59  C   UNL A   1      40.871  32.233  36.066  1.00  0.00     0.049 A 
ATOM     60  H   UNL A   1      40.646  31.043  34.338  1.00  0.00     0.167 HD
ATOM     61  C   UNL A   1      39.084  33.375  34.779  1.00  0.00     0.074 A 
ATOM     62  C   UNL A   1      38.113  34.432  34.579  1.00  0.00     0.031 C 
ATOM     63  C   UNL A   1      39.892  33.273  35.863  1.00  0.00     0.031 A 
BRANCH  50  64
ATOM     64  C   UNL A   1      43.646  28.344  35.759  1.00  0.00    -0.014 A 
ATOM     65  C   UNL A   1      45.024  28.539  35.541  1.00  0.00     0.010 A 
ATOM     66  C   UNL A   1      43.236  27.341  36.656  1.00  0.00     0.010 A 
ATOM     67  C   UNL A   1      45.965  27.702  36.146  1.00  0.00     0.020 A 
ATOM     68  C   UNL A   1      44.176  26.526  37.295  1.00  0.00     0.020 A 
ATOM     69  C   UNL A   1      45.534  26.695  37.014  1.00  0.00     0.054 A 
BRANCH  69  70
ATOM     70  S   UNL A   1      46.775  25.613  37.771  1.00  0.00     0.124 S 
ATOM     71  O   UNL A   1      46.366  24.299  37.281  1.00  0.00    -0.237 OA
ATOM     72  O   UNL A   1      48.026  26.126  37.219  1.00  0.00    -0.237 OA
ATOM     73  O   UNL A   1      46.594  25.825  39.204  1.00  0.00    -0.744 OA
ENDBRANCH  69  70
ENDBRANCH  50  64
BRANCH  51  74
ATOM     74  C   UNL A   1      36.459  33.267  30.857  1.00  0.00    -0.014 A 
ATOM     75  C   UNL A   1      35.140  33.177  31.332  1.00  0.00     0.010 A 
ATOM     76  C   UNL A   1      36.726  34.066  29.729  1.00  0.00     0.010 A 
ATOM     77  C   UNL A   1      34.108  33.874  30.694  1.00  0.00     0.020 A 
ATOM     78  C   UNL A   1      35.704  34.789  29.108  1.00  0.00     0.020 A 
ATOM     79  C   UNL A   1      34.399  34.685  29.593  1.00  0.00     0.054 A 
BRANCH  79  80
ATOM     80  S   UNL A   1      33.062  35.654  28.841  1.00  0.00     0.124 S 
ATOM     81  O   UNL A   1      33.802  36.648  28.068  1.00  0.00    -0.237 OA
ATOM     82  O   UNL A   1      32.348  34.648  28.060  1.00  0.00    -0.237 OA
ATOM     83  O   UNL A   1      32.328  36.176  29.991  1.00  0.00    -0.744 OA
ENDBRANCH  79  80
ENDBRANCH  51  74
BRANCH  63  84
ATOM     84  C   UNL A   1      39.784  34.348  36.915  1.00  0.00    -0.014 A 
ATOM     85  C   UNL A   1      38.989  34.177  38.062  1.00  0.00     0.010 A 
ATOM     86  C   UNL A   1      40.544  35.525  36.779  1.00  0.00     0.010 A 
ATOM     87  C   UNL A   1      38.931  35.177  39.037  1.00  0.00     0.020 A 
ATOM     88  C   UNL A   1      40.514  36.513  37.767  1.00  0.00     0.020 A 
ATOM     89  C   UNL A   1      39.695  36.338  38.885  1.00  0.00     0.054 A 
BRANCH  89  90
ATOM     90  S   UNL A   1      39.636  37.599  40.186  1.00  0.00     0.124 S 
ATOM     91  O   UNL A   1      41.028  38.038  40.248  1.00  0.00    -0.237 OA
ATOM     92  O   UNL A   1      38.694  38.574  39.643  1.00  0.00    -0.237 OA
ATOM     93  O   UNL A   1      39.161  36.868  41.358  1.00  0.00    -0.744 OA
ENDBRANCH  89  90
ENDBRANCH  63  84
ENDBRANCH  37  38
ENDBRANCH  29  32
ENDBRANCH  27  28
ENDBRANCH  26  27
ENDBRANCH   1  26
TORSDOF 17
ENDMDL
MODEL 2
REMARK VINA RESULT:     -11.7      6.038      7.964
REMARK SMILES Cc1nc(=O)[nH]c(C)c1CC(=O)N1CC[C@H](C(=O)NCCCCNC(=O)c2ccc(-c3c4nc(c(-c5ccc(S(=O)(=O)[O-])cc5)c5ccc([nH]5)c(-c5ccc(S(=O)(=O)[O-])cc5)c5nc(c(-c6ccc(S(=O)(=O)[O-])cc6)c6ccc3[nH]6)C=C5)C=C4)cc2)[C@@H]1C
REMARK SMILES IDX 21 1 20 2 19 3 17 4 18 5 16 7 13 8 14 9 87 10 15 11 88 12
REMARK SMILES IDX 11 13 12 14 10 15 9 16 1 17 2 18 3 19 4 20 7 21 5 22 6 23
REMARK SMILES IDX 8 24 22 26 23 27 24 28 25 29 26 31 27 32 28 33 86 34 29 35
REMARK SMILES IDX 85 36 30 37 31 38 32 39 79 40 33 41 84 42 78 43 80 44 34 45
REMARK SMILES IDX 83 46 77 47 76 48 35 50 65 51 46 52 64 53 47 54 50 55 63 56
REMARK SMILES IDX 81 57 48 58 49 59 62 61 82 62 51 63 36 64 37 65 45 66 38 67
REMARK SMILES IDX 44 68 39 69 40 70 41 71 42 72 43 73 66 74 67 75 75 76 68 77
REMARK SMILES IDX 74 78 69 79 70 80 71 81 72 82 73 83 52 84 53 85 61 86 54 87
REMARK SMILES IDX 60 88 55 89 56 90 57 91 58 92 59 93
REMARK H PARENT 19 6 6 25 24 30 80 49 50 60
REMARK Flexibility Score: inf
ROOT
ATOM      1  C   UNL A   1      37.152  20.196  25.076  1.00  0.00     0.023 C 
ENDROOT
BRANCH   1   2
ATOM      2  C   UNL A   1      35.672  20.545  24.997  1.00  0.00     0.116 C 
BRANCH   2   3
ATOM      3  N   UNL A   1      35.164  21.215  26.183  1.00  0.00    -0.356 N 
ATOM      4  C   UNL A   1      34.060  21.967  26.427  1.00  0.00     0.225 C 
ATOM      5  O   UNL A   1      33.823  22.196  27.621  1.00  0.00    -0.275 OA
ATOM      6  H   UNL A   1      35.741  21.101  26.972  1.00  0.00     0.163 HD
BRANCH   4   7
ATOM      7  C   UNL A   1      33.162  22.641  25.377  1.00  0.00     0.102 C 
ATOM      8  N   UNL A   1      32.496  24.879  25.824  1.00  0.00    -0.339 N 
ATOM      9  C   UNL A   1      31.608  23.980  26.566  1.00  0.00     0.120 C 
ATOM     10  C   UNL A   1      33.380  24.095  24.927  1.00  0.00     0.094 C 
ATOM     11  C   UNL A   1      31.721  22.642  25.865  1.00  0.00     0.037 C 
ATOM     12  C   UNL A   1      34.870  24.411  24.844  1.00  0.00     0.032 C 
BRANCH   8  13
ATOM     13  C   UNL A   1      32.298  26.228  26.024  1.00  0.00     0.227 C 
ATOM     14  O   UNL A   1      31.581  26.614  26.957  1.00  0.00    -0.275 OA
BRANCH  13  15
ATOM     15  C   UNL A   1      32.783  27.268  25.020  1.00  0.00     0.139 C 
BRANCH  15  16
ATOM     16  C   UNL A   1      31.751  27.965  24.199  1.00  0.00     0.002 A 
ATOM     17  C   UNL A   1      31.524  25.901  22.584  1.00  0.00     0.067 C 
ATOM     18  C   UNL A   1      31.175  27.327  22.968  1.00  0.00     0.049 A 
ATOM     19  N   UNL A   1      30.383  27.926  22.137  1.00  0.00    -0.198 NA
ATOM     20  C   UNL A   1      30.011  29.215  22.378  1.00  0.00     0.345 A 
ATOM     21  C   UNL A   1      31.271  29.198  24.454  1.00  0.00     0.022 A 
ATOM     22  O   UNL A   1      29.334  29.871  21.591  1.00  0.00    -0.246 OA
ATOM     23  N   UNL A   1      30.424  29.787  23.551  1.00  0.00    -0.310 N 
ATOM     24  C   UNL A   1      31.638  30.068  25.627  1.00  0.00     0.065 C 
ATOM     25  H   UNL A   1      30.089  30.689  23.760  1.00  0.00     0.171 HD
ENDBRANCH  15  16
ENDBRANCH  13  15
ENDBRANCH   8  13
ENDBRANCH   4   7
ENDBRANCH   2   3
ENDBRANCH   1   2
BRANCH   1  26
ATOM     26  C   UNL A   1      38.093  21.397  25.083  1.00  0.00     0.023 C 
BRANCH  26  27
ATOM     27  C   UNL A   1      39.166  21.376  26.166  1.00  0.00     0.116 C 
BRANCH  27  28
ATOM     28  N   UNL A   1      40.056  20.225  26.074  1.00  0.00    -0.352 N 
ATOM     29  C   UNL A   1      41.432  20.182  26.100  1.00  0.00     0.251 C 
ATOM     30  H   UNL A   1      39.608  19.353  25.979  1.00  0.00     0.163 HD
ATOM     31  O   UNL A   1      42.018  19.124  25.889  1.00  0.00    -0.269 OA
BRANCH  29  32
ATOM     32  C   UNL A   1      42.190  21.426  26.344  1.00  0.00     0.039 A 
ATOM     33  C   UNL A   1      42.446  22.289  25.278  1.00  0.00     0.014 A 
ATOM     34  C   UNL A   1      42.584  21.768  27.640  1.00  0.00     0.014 A 
ATOM     35  C   UNL A   1      43.018  23.539  25.526  1.00  0.00     0.010 A 
ATOM     36  C   UNL A   1      43.060  23.050  27.897  1.00  0.00     0.010 A 
ATOM     37  C   UNL A   1      43.282  23.951  26.844  1.00  0.00    -0.014 A 
BRANCH  37  38
ATOM     38  C   UNL A   1      43.776  25.322  27.143  1.00  0.00     0.031 A 
ATOM     39  C   UNL A   1      45.225  25.668  26.930  1.00  0.00     0.074 A 
ATOM     40  C   UNL A   1      42.940  26.233  27.680  1.00  0.00     0.049 A 
ATOM     41  N   UNL A   1      45.851  26.788  27.183  1.00  0.00    -0.248 NA
ATOM     42  C   UNL A   1      46.089  24.605  26.392  1.00  0.00     0.031 C 
ATOM     43  C   UNL A   1      41.527  26.005  27.996  1.00  0.00     0.029 A 
ATOM     44  N   UNL A   1      43.159  27.531  28.069  1.00  0.00    -0.354 N 
ATOM     45  C   UNL A   1      47.182  26.559  26.853  1.00  0.00     0.074 A 
ATOM     46  C   UNL A   1      47.283  25.176  26.446  1.00  0.00     0.031 C 
ATOM     47  C   UNL A   1      41.004  27.130  28.506  1.00  0.00     0.029 A 
ATOM     48  C   UNL A   1      42.048  28.145  28.599  1.00  0.00     0.049 A 
ATOM     49  H   UNL A   1      44.031  27.981  27.977  1.00  0.00     0.167 HD
ATOM     50  C   UNL A   1      48.223  27.427  26.864  1.00  0.00     0.031 A 
ATOM     51  C   UNL A   1      41.886  29.380  29.115  1.00  0.00     0.031 A 
ATOM     52  C   UNL A   1      48.120  28.801  27.280  1.00  0.00     0.049 A 
ATOM     53  C   UNL A   1      43.053  30.328  29.126  1.00  0.00     0.074 A 
ATOM     54  C   UNL A   1      49.099  29.778  27.274  1.00  0.00     0.029 A 
ATOM     55  N   UNL A   1      46.971  29.391  27.787  1.00  0.00    -0.354 N 
ATOM     56  N   UNL A   1      44.286  30.121  28.726  1.00  0.00    -0.248 NA
ATOM     57  C   UNL A   1      42.805  31.681  29.642  1.00  0.00     0.031 C 
ATOM     58  C   UNL A   1      48.561  30.938  27.842  1.00  0.00     0.029 A 
ATOM     59  C   UNL A   1      47.225  30.708  28.130  1.00  0.00     0.049 A 
ATOM     60  H   UNL A   1      46.102  28.938  27.889  1.00  0.00     0.167 HD
ATOM     61  C   UNL A   1      44.956  31.324  28.923  1.00  0.00     0.074 A 
ATOM     62  C   UNL A   1      43.986  32.257  29.459  1.00  0.00     0.031 C 
ATOM     63  C   UNL A   1      46.255  31.626  28.676  1.00  0.00     0.031 A 
BRANCH  50  64
ATOM     64  C   UNL A   1      49.568  26.894  26.432  1.00  0.00    -0.014 A 
ATOM     65  C   UNL A   1      49.984  26.959  25.088  1.00  0.00     0.010 A 
ATOM     66  C   UNL A   1      50.429  26.315  27.383  1.00  0.00     0.010 A 
ATOM     67  C   UNL A   1      51.197  26.391  24.692  1.00  0.00     0.020 A 
ATOM     68  C   UNL A   1      51.661  25.780  26.997  1.00  0.00     0.020 A 
ATOM     69  C   UNL A   1      52.025  25.798  25.648  1.00  0.00     0.054 A 
BRANCH  69  70
ATOM     70  S   UNL A   1      53.585  25.053  25.103  1.00  0.00     0.124 S 
ATOM     71  O   UNL A   1      53.312  23.628  25.271  1.00  0.00    -0.237 OA
ATOM     72  O   UNL A   1      53.692  25.512  23.721  1.00  0.00    -0.237 OA
ATOM     73  O   UNL A   1      54.576  25.608  26.021  1.00  0.00    -0.744 OA
ENDBRANCH  69  70
ENDBRANCH  50  64
BRANCH  51  74
ATOM     74  C   UNL A   1      40.557  29.778  29.657  1.00  0.00    -0.014 A 
ATOM     75  C   UNL A   1      40.346  29.894  31.042  1.00  0.00     0.010 A 
ATOM     76  C   UNL A   1      39.506  30.100  28.777  1.00  0.00     0.010 A 
ATOM     77  C   UNL A   1      39.110  30.327  31.536  1.00  0.00     0.020 A 
ATOM     78  C   UNL A   1      38.281  30.562  29.266  1.00  0.00     0.020 A 
ATOM     79  C   UNL A   1      38.090  30.669  30.644  1.00  0.00     0.054 A 
BRANCH  79  80
ATOM     80  S   UNL A   1      36.529  31.318  31.306  1.00  0.00     0.124 S 
ATOM     81  O   UNL A   1      35.930  30.125  31.899  1.00  0.00    -0.237 OA
ATOM     82  O   UNL A   1      36.988  32.333  32.251  1.00  0.00    -0.237 OA
ATOM     83  O   UNL A   1      35.847  31.840  30.125  1.00  0.00    -0.744 OA
ENDBRANCH  79  80
ENDBRANCH  51  74
BRANCH  63  84
ATOM     84  C   UNL A   1      46.707  33.036  28.960  1.00  0.00    -0.014 A 
ATOM     85  C   UNL A   1      46.353  34.104  28.118  1.00  0.00     0.010 A 
ATOM     86  C   UNL A   1      47.447  33.302  30.127  1.00  0.00     0.010 A 
ATOM     87  C   UNL A   1      46.759  35.408  28.421  1.00  0.00     0.020 A 
ATOM     88  C   UNL A   1      47.828  34.607  30.450  1.00  0.00     0.020 A 
ATOM     89  C   UNL A   1      47.493  35.651  29.586  1.00  0.00     0.054 A 
BRANCH  89  90
ATOM     90  S   UNL A   1      47.968  37.356  29.979  1.00  0.00     0.124 S 
ATOM     91  O   UNL A   1      46.685  37.956  30.336  1.00  0.00    -0.237 OA
ATOM     92  O   UNL A   1      48.908  37.179  31.083  1.00  0.00    -0.237 OA
ATOM     93  O   UNL A   1      48.560  37.847  28.736  1.00  0.00    -0.744 OA
ENDBRANCH  89  90
ENDBRANCH  63  84
ENDBRANCH  37  38
ENDBRANCH  29  32
ENDBRANCH  27  28
ENDBRANCH  26  27
ENDBRANCH   1  26
TORSDOF 17
ENDMDL
MODEL 3
REMARK VINA RESULT:     -11.6      2.253      8.910
REMARK SMILES Cc1nc(=O)[nH]c(C)c1CC(=O)N1CC[C@H](C(=O)NCCCCNC(=O)c2ccc(-c3c4nc(c(-c5ccc(S(=O)(=O)[O-])cc5)c5ccc([nH]5)c(-c5ccc(S(=O)(=O)[O-])cc5)c5nc(c(-c6ccc(S(=O)(=O)[O-])cc6)c6ccc3[nH]6)C=C5)C=C4)cc2)[C@@H]1C
REMARK SMILES IDX 21 1 20 2 19 3 17 4 18 5 16 7 13 8 14 9 87 10 15 11 88 12
REMARK SMILES IDX 11 13 12 14 10 15 9 16 1 17 2 18 3 19 4 20 7 21 5 22 6 23
REMARK SMILES IDX 8 24 22 26 23 27 24 28 25 29 26 31 27 32 28 33 86 34 29 35
REMARK SMILES IDX 85 36 30 37 31 38 32 39 79 40 33 41 84 42 78 43 80 44 34 45
REMARK SMILES IDX 83 46 77 47 76 48 35 50 65 51 46 52 64 53 47 54 50 55 63 56
REMARK SMILES IDX 81 57 48 58 49 59 62 61 82 62 51 63 36 64 37 65 45 66 38 67
REMARK SMILES IDX 44 68 39 69 40 70 41 71 42 72 43 73 66 74 67 75 75 76 68 77
REMARK SMILES IDX 74 78 69 79 70 80 71 81 72 82 73 83 52 84 53 85 61 86 54 87
REMARK SMILES IDX 60 88 55 89 56 90 57 91 58 92 59 93
REMARK H PARENT 19 6 6 25 24 30 80 49 50 60
REMARK Flexibility Score: inf
ROOT
ATOM      1  C   UNL A   1      32.356  30.338  26.701  1.00  0.00     0.023 C 
ENDROOT
BRANCH   1   2
ATOM      2  C   UNL A   1      31.755  29.687  25.461  1.00  0.00     0.116 C 
BRANCH   2   3
ATOM      3  N   UNL A   1      32.730  29.393  24.423  1.00  0.00    -0.356 N 
ATOM      4  C   UNL A   1      32.924  28.330  23.602  1.00  0.00     0.225 C 
ATOM      5  O   UNL A   1      33.722  28.511  22.673  1.00  0.00    -0.275 OA
ATOM      6  H   UNL A   1      33.385  30.115  24.289  1.00  0.00     0.163 HD
BRANCH   4   7
ATOM      7  C   UNL A   1      32.343  26.918  23.782  1.00  0.00     0.102 C 
ATOM      8  N   UNL A   1      33.910  25.148  24.041  1.00  0.00    -0.339 N 
ATOM      9  C   UNL A   1      33.776  25.436  22.610  1.00  0.00     0.120 C 
ATOM     10  C   UNL A   1      32.909  25.926  24.812  1.00  0.00     0.094 C 
ATOM     11  C   UNL A   1      32.449  26.153  22.472  1.00  0.00     0.037 C 
ATOM     12  C   UNL A   1      33.318  26.656  26.088  1.00  0.00     0.032 C 
BRANCH   8  13
ATOM     13  C   UNL A   1      34.839  24.189  24.382  1.00  0.00     0.227 C 
ATOM     14  O   UNL A   1      35.654  24.415  25.285  1.00  0.00    -0.275 OA
BRANCH  13  15
ATOM     15  C   UNL A   1      35.021  22.919  23.559  1.00  0.00     0.139 C 
BRANCH  15  16
ATOM     16  C   UNL A   1      34.406  21.665  24.081  1.00  0.00     0.002 A 
ATOM     17  C   UNL A   1      32.138  22.164  22.846  1.00  0.00     0.067 C 
ATOM     18  C   UNL A   1      32.975  21.319  23.788  1.00  0.00     0.049 A 
ATOM     19  N   UNL A   1      32.340  20.322  24.318  1.00  0.00    -0.198 NA
ATOM     20  C   UNL A   1      32.992  19.501  25.190  1.00  0.00     0.345 A 
ATOM     21  C   UNL A   1      35.040  20.764  24.860  1.00  0.00     0.022 A 
ATOM     22  O   UNL A   1      32.431  18.592  25.794  1.00  0.00    -0.246 OA
ATOM     23  N   UNL A   1      34.329  19.718  25.389  1.00  0.00    -0.310 N 
ATOM     24  C   UNL A   1      36.480  20.827  25.295  1.00  0.00     0.065 C 
ATOM     25  H   UNL A   1      34.815  19.077  25.955  1.00  0.00     0.171 HD
ENDBRANCH  15  16
ENDBRANCH  13  15
ENDBRANCH   8  13
ENDBRANCH   4   7
ENDBRANCH   2   3
ENDBRANCH   1   2
BRANCH   1  26
ATOM     26  C   UNL A   1      32.046  31.823  26.857  1.00  0.00     0.023 C 
BRANCH  26  27
ATOM     27  C   UNL A   1      33.067  32.620  27.661  1.00  0.00     0.116 C 
BRANCH  27  28
ATOM     28  N   UNL A   1      32.673  34.007  27.880  1.00  0.00    -0.352 N 
ATOM     29  C   UNL A   1      33.185  34.929  28.764  1.00  0.00     0.251 C 
ATOM     30  H   UNL A   1      31.936  34.330  27.313  1.00  0.00     0.163 HD
ATOM     31  O   UNL A   1      32.644  36.024  28.893  1.00  0.00    -0.269 OA
BRANCH  29  32
ATOM     32  C   UNL A   1      34.362  34.571  29.583  1.00  0.00     0.039 A 
ATOM     33  C   UNL A   1      34.170  34.082  30.875  1.00  0.00     0.014 A 
ATOM     34  C   UNL A   1      35.647  34.655  29.043  1.00  0.00     0.014 A 
ATOM     35  C   UNL A   1      35.262  33.590  31.594  1.00  0.00     0.010 A 
ATOM     36  C   UNL A   1      36.715  34.075  29.719  1.00  0.00     0.010 A 
ATOM     37  C   UNL A   1      36.536  33.535  31.002  1.00  0.00    -0.014 A 
BRANCH  37  38
ATOM     38  C   UNL A   1      37.688  32.905  31.701  1.00  0.00     0.031 A 
ATOM     39  C   UNL A   1      38.337  31.673  31.130  1.00  0.00     0.074 A 
ATOM     40  C   UNL A   1      38.102  33.394  32.888  1.00  0.00     0.049 A 
ATOM     41  N   UNL A   1      39.313  30.953  31.621  1.00  0.00    -0.248 NA
ATOM     42  C   UNL A   1      37.797  31.165  29.860  1.00  0.00     0.031 C 
ATOM     43  C   UNL A   1      37.517  34.545  33.580  1.00  0.00     0.029 A 
ATOM     44  N   UNL A   1      39.103  32.976  33.729  1.00  0.00    -0.354 N 
ATOM     45  C   UNL A   1      39.490  29.901  30.730  1.00  0.00     0.074 A 
ATOM     46  C   UNL A   1      38.478  30.041  29.707  1.00  0.00     0.031 C 
ATOM     47  C   UNL A   1      38.184  34.754  34.726  1.00  0.00     0.029 A 
ATOM     48  C   UNL A   1      39.212  33.729  34.876  1.00  0.00     0.049 A 
ATOM     49  H   UNL A   1      39.689  32.210  33.531  1.00  0.00     0.167 HD
ATOM     50  C   UNL A   1      40.425  28.920  30.746  1.00  0.00     0.031 A 
ATOM     51  C   UNL A   1      40.034  33.604  35.936  1.00  0.00     0.031 A 
ATOM     52  C   UNL A   1      41.425  28.779  31.771  1.00  0.00     0.049 A 
ATOM     53  C   UNL A   1      41.061  32.506  35.942  1.00  0.00     0.074 A 
ATOM     54  C   UNL A   1      42.453  27.856  31.852  1.00  0.00     0.029 A 
ATOM     55  N   UNL A   1      41.516  29.577  32.904  1.00  0.00    -0.354 N 
ATOM     56  N   UNL A   1      41.271  31.572  35.045  1.00  0.00    -0.248 NA
ATOM     57  C   UNL A   1      41.972  32.454  37.093  1.00  0.00     0.031 C 
ATOM     58  C   UNL A   1      43.122  28.052  33.065  1.00  0.00     0.029 A 
ATOM     59  C   UNL A   1      42.561  29.146  33.705  1.00  0.00     0.049 A 
ATOM     60  H   UNL A   1      40.924  30.336  33.108  1.00  0.00     0.167 HD
ATOM     61  C   UNL A   1      42.353  30.833  35.513  1.00  0.00     0.074 A 
ATOM     62  C   UNL A   1      42.763  31.442  36.762  1.00  0.00     0.031 C 
ATOM     63  C   UNL A   1      42.952  29.751  34.955  1.00  0.00     0.031 A 
BRANCH  50  64
ATOM     64  C   UNL A   1      40.384  27.911  29.624  1.00  0.00    -0.014 A 
ATOM     65  C   UNL A   1      39.442  26.864  29.615  1.00  0.00     0.010 A 
ATOM     66  C   UNL A   1      41.303  28.007  28.563  1.00  0.00     0.010 A 
ATOM     67  C   UNL A   1      39.468  25.893  28.611  1.00  0.00     0.020 A 
ATOM     68  C   UNL A   1      41.307  27.060  27.534  1.00  0.00     0.020 A 
ATOM     69  C   UNL A   1      40.407  25.993  27.580  1.00  0.00     0.054 A 
BRANCH  69  70
ATOM     70  S   UNL A   1      40.429  24.711  26.300  1.00  0.00     0.124 S 
ATOM     71  O   UNL A   1      40.982  25.436  25.158  1.00  0.00    -0.237 OA
ATOM     72  O   UNL A   1      41.304  23.695  26.880  1.00  0.00    -0.237 OA
ATOM     73  O   UNL A   1      39.028  24.323  26.170  1.00  0.00    -0.744 OA
ENDBRANCH  69  70
ENDBRANCH  50  64
BRANCH  51  74
ATOM     74  C   UNL A   1      39.910  34.558  37.075  1.00  0.00    -0.014 A 
ATOM     75  C   UNL A   1      40.581  35.793  37.059  1.00  0.00     0.010 A 
ATOM     76  C   UNL A   1      39.066  34.253  38.160  1.00  0.00     0.010 A 
ATOM     77  C   UNL A   1      40.410  36.705  38.106  1.00  0.00     0.020 A 
ATOM     78  C   UNL A   1      38.868  35.174  39.192  1.00  0.00     0.020 A 
ATOM     79  C   UNL A   1      39.545  36.394  39.160  1.00  0.00     0.054 A 
BRANCH  79  80
ATOM     80  S   UNL A   1      39.265  37.631  40.458  1.00  0.00     0.124 S 
ATOM     81  O   UNL A   1      38.149  38.398  39.913  1.00  0.00    -0.237 OA
ATOM     82  O   UNL A   1      38.957  36.802  41.620  1.00  0.00    -0.237 OA
ATOM     83  O   UNL A   1      40.538  38.344  40.531  1.00  0.00    -0.744 OA
ENDBRANCH  79  80
ENDBRANCH  51  74
BRANCH  63  84
ATOM     84  C   UNL A   1      44.139  29.164  35.676  1.00  0.00    -0.014 A 
ATOM     85  C   UNL A   1      45.445  29.625  35.438  1.00  0.00     0.010 A 
ATOM     86  C   UNL A   1      43.930  28.175  36.656  1.00  0.00     0.010 A 
ATOM     87  C   UNL A   1      46.525  29.085  36.144  1.00  0.00     0.020 A 
ATOM     88  C   UNL A   1      45.002  27.655  37.386  1.00  0.00     0.020 A 
ATOM     89  C   UNL A   1      46.296  28.104  37.115  1.00  0.00     0.054 A 
BRANCH  89  90
ATOM     90  S   UNL A   1      47.708  27.453  38.047  1.00  0.00     0.124 S 
ATOM     91  O   UNL A   1      47.776  28.373  39.179  1.00  0.00    -0.237 OA
ATOM     92  O   UNL A   1      47.279  26.093  38.366  1.00  0.00    -0.237 OA
ATOM     93  O   UNL A   1      48.820  27.543  37.103  1.00  0.00    -0.744 OA
ENDBRANCH  89  90
ENDBRANCH  63  84
ENDBRANCH  37  38
ENDBRANCH  29  32
ENDBRANCH  27  28
ENDBRANCH  26  27
ENDBRANCH   1  26
TORSDOF 17
ENDMDL
