MODEL 1
REMARK VINA RESULT:     -10.6      0.000      0.000
REMARK SMILES C[C@H]1CCC[C@H](C)N1C(=O)C[N@@H+](CC(=O)NCCCCNC(=O)c1ccc(-c2c3nc(c(-c4ccc(S(=O)(=O)[O-])cc4)c4ccc([nH]4)c(-c4ccc(S(=O)(=O)[O-])cc4)c4nc(c(-c5ccc(S(=O)(=O)[O-])cc5)c5ccc2[nH]5)C=C4)C=C3)cc1)C(C)(C)C
REMARK SMILES IDX 18 1 17 2 16 3 14 4 15 5 13 7 12 8 11 10 9 11 1 12 2 13 3 14
REMARK SMILES IDX 8 15 4 16 6 17 5 18 7 19 10 20 84 21 85 22 86 23 87 24 19 25
REMARK SMILES IDX 20 26 21 27 22 28 23 30 24 31 25 32 83 33 26 34 82 35 27 36
REMARK SMILES IDX 28 37 29 38 76 39 30 40 81 41 75 42 77 43 31 44 80 45 74 46
REMARK SMILES IDX 73 47 32 49 62 50 43 51 61 52 44 53 47 54 60 55 78 56 45 57
REMARK SMILES IDX 46 58 59 60 79 61 48 62 33 63 34 64 42 65 35 66 41 67 36 68
REMARK SMILES IDX 37 69 38 70 39 71 40 72 63 73 64 74 72 75 65 76 71 77 66 78
REMARK SMILES IDX 67 79 68 80 69 81 70 82 49 83 50 84 58 85 51 86 57 87 52 88
REMARK SMILES IDX 53 89 54 90 55 91 56 92
REMARK H PARENT 16 6 12 9 21 29 77 48 47 59
REMARK Flexibility Score: inf
ROOT
ATOM      1  C   UNL A   1      32.977  29.260  24.639  1.00  0.00     0.023 C 
ENDROOT
BRANCH   1   2
ATOM      2  C   UNL A   1      32.094  28.524  23.623  1.00  0.00     0.116 C 
BRANCH   2   3
ATOM      3  N   UNL A   1      32.869  27.717  22.699  1.00  0.00    -0.351 N 
ATOM      4  C   UNL A   1      32.880  26.376  22.445  1.00  0.00     0.275 C 
ATOM      5  O   UNL A   1      33.541  26.010  21.465  1.00  0.00    -0.269 OA
ATOM      6  H   UNL A   1      33.506  28.233  22.154  1.00  0.00     0.163 HD
BRANCH   4   7
ATOM      7  C   UNL A   1      32.073  25.343  23.253  1.00  0.00     0.364 C 
BRANCH   7   8
ATOM      8  N   UNL A   1      32.146  25.381  24.756  1.00  0.00    -0.315 N 
ATOM      9  H   UNL A   1      32.610  26.239  25.054  1.00  0.00     0.349 HD
BRANCH   8  10
ATOM     10  C   UNL A   1      32.992  24.263  25.201  1.00  0.00     0.364 C 
BRANCH  10  11
ATOM     11  C   UNL A   1      34.481  24.240  24.945  1.00  0.00     0.278 C 
ATOM     12  C   UNL A   1      33.694  21.847  26.934  1.00  0.00     0.031 C 
ATOM     13  C   UNL A   1      35.027  22.048  26.227  1.00  0.00     0.082 C 
ATOM     14  C   UNL A   1      35.321  20.905  25.245  1.00  0.00     0.025 C 
ATOM     15  N   UNL A   1      35.336  23.333  25.560  1.00  0.00    -0.332 N 
ATOM     16  C   UNL A   1      36.773  20.969  24.756  1.00  0.00     0.004 C 
ATOM     17  C   UNL A   1      36.763  23.485  25.197  1.00  0.00     0.082 C 
ATOM     18  C   UNL A   1      37.150  22.355  24.232  1.00  0.00     0.025 C 
ATOM     19  C   UNL A   1      37.682  23.600  26.417  1.00  0.00     0.031 C 
ATOM     20  O   UNL A   1      34.938  25.180  24.274  1.00  0.00    -0.268 OA
ENDBRANCH  10  11
ENDBRANCH   8  10
BRANCH   8  21
ATOM     21  C   UNL A   1      30.855  25.629  25.475  1.00  0.00     0.090 C 
ATOM     22  C   UNL A   1      30.866  26.757  26.532  1.00  0.00     0.078 C 
ATOM     23  C   UNL A   1      29.700  25.974  24.504  1.00  0.00     0.078 C 
ATOM     24  C   UNL A   1      30.421  24.317  26.173  1.00  0.00     0.078 C 
ENDBRANCH   8  21
ENDBRANCH   7   8
ENDBRANCH   4   7
ENDBRANCH   2   3
ENDBRANCH   1   2
BRANCH   1  25
ATOM     25  C   UNL A   1      33.918  28.418  25.473  1.00  0.00     0.023 C 
BRANCH  25  26
ATOM     26  C   UNL A   1      33.702  28.506  26.964  1.00  0.00     0.116 C 
BRANCH  26  27
ATOM     27  N   UNL A   1      33.588  29.866  27.479  1.00  0.00    -0.352 N 
ATOM     28  C   UNL A   1      34.561  30.613  28.104  1.00  0.00     0.251 C 
ATOM     29  H   UNL A   1      32.711  30.301  27.367  1.00  0.00     0.163 HD
ATOM     30  O   UNL A   1      34.316  31.727  28.543  1.00  0.00    -0.269 OA
BRANCH  28  31
ATOM     31  C   UNL A   1      35.900  30.008  28.274  1.00  0.00     0.039 A 
ATOM     32  C   UNL A   1      36.838  30.127  27.248  1.00  0.00     0.014 A 
ATOM     33  C   UNL A   1      36.255  29.445  29.502  1.00  0.00     0.014 A 
ATOM     34  C   UNL A   1      38.160  29.747  27.487  1.00  0.00     0.010 A 
ATOM     35  C   UNL A   1      37.589  29.195  29.776  1.00  0.00     0.010 A 
ATOM     36  C   UNL A   1      38.553  29.316  28.764  1.00  0.00    -0.014 A 
BRANCH  36  37
ATOM     37  C   UNL A   1      39.952  28.920  29.062  1.00  0.00     0.031 A 
ATOM     38  C   UNL A   1      40.869  29.918  29.722  1.00  0.00     0.074 A 
ATOM     39  C   UNL A   1      40.415  27.714  28.680  1.00  0.00     0.049 A 
ATOM     40  N   UNL A   1      42.145  29.817  29.989  1.00  0.00    -0.248 NA
ATOM     41  C   UNL A   1      40.285  31.222  30.084  1.00  0.00     0.031 C 
ATOM     42  C   UNL A   1      39.645  26.687  27.973  1.00  0.00     0.029 A 
ATOM     43  N   UNL A   1      41.655  27.148  28.835  1.00  0.00    -0.354 N 
ATOM     44  C   UNL A   1      42.517  31.051  30.510  1.00  0.00     0.074 A 
ATOM     45  C   UNL A   1      41.354  31.906  30.456  1.00  0.00     0.031 C 
ATOM     46  C   UNL A   1      40.418  25.602  27.794  1.00  0.00     0.029 A 
ATOM     47  C   UNL A   1      41.744  25.867  28.342  1.00  0.00     0.049 A 
ATOM     48  H   UNL A   1      42.411  27.614  29.259  1.00  0.00     0.167 HD
ATOM     49  C   UNL A   1      43.709  31.432  31.023  1.00  0.00     0.031 A 
ATOM     50  C   UNL A   1      42.777  25.002  28.344  1.00  0.00     0.031 A 
ATOM     51  C   UNL A   1      44.844  30.560  31.129  1.00  0.00     0.049 A 
ATOM     52  C   UNL A   1      44.074  25.422  28.981  1.00  0.00     0.074 A 
ATOM     53  C   UNL A   1      46.078  30.815  31.697  1.00  0.00     0.029 A 
ATOM     54  N   UNL A   1      44.872  29.251  30.672  1.00  0.00    -0.354 N 
ATOM     55  N   UNL A   1      44.390  26.574  29.523  1.00  0.00    -0.248 NA
ATOM     56  C   UNL A   1      45.147  24.419  29.024  1.00  0.00     0.031 C 
ATOM     57  C   UNL A   1      46.865  29.667  31.560  1.00  0.00     0.029 A 
ATOM     58  C   UNL A   1      46.103  28.684  30.945  1.00  0.00     0.049 A 
ATOM     59  H   UNL A   1      44.127  28.793  30.221  1.00  0.00     0.167 HD
ATOM     60  C   UNL A   1      45.687  26.425  30.000  1.00  0.00     0.074 A 
ATOM     61  C   UNL A   1      46.091  25.068  29.692  1.00  0.00     0.031 C 
ATOM     62  C   UNL A   1      46.475  27.327  30.636  1.00  0.00     0.031 A 
BRANCH  49  63
ATOM     63  C   UNL A   1      43.826  32.848  31.520  1.00  0.00    -0.014 A 
ATOM     64  C   UNL A   1      43.573  33.167  32.867  1.00  0.00     0.010 A 
ATOM     65  C   UNL A   1      44.193  33.874  30.632  1.00  0.00     0.010 A 
ATOM     66  C   UNL A   1      43.629  34.493  33.305  1.00  0.00     0.020 A 
ATOM     67  C   UNL A   1      44.283  35.198  31.073  1.00  0.00     0.020 A 
ATOM     68  C   UNL A   1      43.978  35.501  32.402  1.00  0.00     0.054 A 
BRANCH  68  69
ATOM     69  S   UNL A   1      44.055  37.213  32.997  1.00  0.00     0.124 S 
ATOM     70  O   UNL A   1      45.319  37.217  33.733  1.00  0.00    -0.237 OA
ATOM     71  O   UNL A   1      44.048  37.986  31.759  1.00  0.00    -0.237 OA
ATOM     72  O   UNL A   1      42.856  37.347  33.819  1.00  0.00    -0.744 OA
ENDBRANCH  68  69
ENDBRANCH  49  63
BRANCH  50  73
ATOM     73  C   UNL A   1      42.610  23.638  27.774  1.00  0.00    -0.014 A 
ATOM     74  C   UNL A   1      43.001  23.369  26.449  1.00  0.00     0.010 A 
ATOM     75  C   UNL A   1      42.072  22.596  28.551  1.00  0.00     0.010 A 
ATOM     76  C   UNL A   1      42.838  22.091  25.906  1.00  0.00     0.020 A 
ATOM     77  C   UNL A   1      41.929  21.310  28.018  1.00  0.00     0.020 A 
ATOM     78  C   UNL A   1      42.303  21.070  26.694  1.00  0.00     0.054 A 
BRANCH  78  79
ATOM     79  S   UNL A   1      42.147  19.405  25.984  1.00  0.00     0.124 S 
ATOM     80  O   UNL A   1      40.709  19.309  25.751  1.00  0.00    -0.237 OA
ATOM     81  O   UNL A   1      42.978  19.493  24.786  1.00  0.00    -0.237 OA
ATOM     82  O   UNL A   1      42.671  18.537  27.035  1.00  0.00    -0.744 OA
ENDBRANCH  78  79
ENDBRANCH  50  73
BRANCH  62  83
ATOM     83  C   UNL A   1      47.834  26.863  31.081  1.00  0.00    -0.014 A 
ATOM     84  C   UNL A   1      48.961  27.016  30.255  1.00  0.00     0.010 A 
ATOM     85  C   UNL A   1      47.988  26.318  32.368  1.00  0.00     0.010 A 
ATOM     86  C   UNL A   1      50.217  26.599  30.699  1.00  0.00     0.020 A 
ATOM     87  C   UNL A   1      49.248  25.924  32.824  1.00  0.00     0.020 A 
ATOM     88  C   UNL A   1      50.352  26.053  31.979  1.00  0.00     0.054 A 
BRANCH  88  89
ATOM     89  S   UNL A   1      52.000  25.555  32.549  1.00  0.00     0.124 S 
ATOM     90  O   UNL A   1      51.731  24.253  33.154  1.00  0.00    -0.237 OA
ATOM     91  O   UNL A   1      52.774  25.525  31.311  1.00  0.00    -0.237 OA
ATOM     92  O   UNL A   1      52.376  26.613  33.485  1.00  0.00    -0.744 OA
ENDBRANCH  88  89
ENDBRANCH  62  83
ENDBRANCH  36  37
ENDBRANCH  28  31
ENDBRANCH  26  27
ENDBRANCH  25  26
ENDBRANCH   1  25
TORSDOF 18
ENDMDL
MODEL 2
REMARK VINA RESULT:     -10.4      3.038      4.044
REMARK SMILES C[C@H]1CCC[C@H](C)N1C(=O)C[N@@H+](CC(=O)NCCCCNC(=O)c1ccc(-c2c3nc(c(-c4ccc(S(=O)(=O)[O-])cc4)c4ccc([nH]4)c(-c4ccc(S(=O)(=O)[O-])cc4)c4nc(c(-c5ccc(S(=O)(=O)[O-])cc5)c5ccc2[nH]5)C=C4)C=C3)cc1)C(C)(C)C
REMARK SMILES IDX 18 1 17 2 16 3 14 4 15 5 13 7 12 8 11 10 9 11 1 12 2 13 3 14
REMARK SMILES IDX 8 15 4 16 6 17 5 18 7 19 10 20 84 21 85 22 86 23 87 24 19 25
REMARK SMILES IDX 20 26 21 27 22 28 23 30 24 31 25 32 83 33 26 34 82 35 27 36
REMARK SMILES IDX 28 37 29 38 76 39 30 40 81 41 75 42 77 43 31 44 80 45 74 46
REMARK SMILES IDX 73 47 32 49 62 50 43 51 61 52 44 53 47 54 60 55 78 56 45 57
REMARK SMILES IDX 46 58 59 60 79 61 48 62 33 63 34 64 42 65 35 66 41 67 36 68
REMARK SMILES IDX 37 69 38 70 39 71 40 72 63 73 64 74 72 75 65 76 71 77 66 78
REMARK SMILES IDX 67 79 68 80 69 81 70 82 49 83 50 84 58 85 51 86 57 87 52 88
REMARK SMILES IDX 53 89 54 90 55 91 56 92
REMARK H PARENT 16 6 12 9 21 29 77 48 47 59
REMARK Flexibility Score: inf
ROOT
ATOM      1  C   UNL A   1      34.874  30.305  27.751  1.00  0.00     0.023 C 
ENDROOT
BRANCH   1   2
ATOM      2  C   UNL A   1      33.553  30.079  27.005  1.00  0.00     0.116 C 
BRANCH   2   3
ATOM      3  N   UNL A   1      33.758  29.724  25.613  1.00  0.00    -0.351 N 
ATOM      4  C   UNL A   1      32.891  29.343  24.631  1.00  0.00     0.275 C 
ATOM      5  O   UNL A   1      33.357  29.272  23.486  1.00  0.00    -0.269 OA
ATOM      6  H   UNL A   1      34.699  29.766  25.323  1.00  0.00     0.163 HD
BRANCH   4   7
ATOM      7  C   UNL A   1      31.393  29.076  24.865  1.00  0.00     0.364 C 
BRANCH   7   8
ATOM      8  N   UNL A   1      30.883  27.663  24.765  1.00  0.00    -0.315 N 
ATOM      9  H   UNL A   1      30.075  27.548  25.377  1.00  0.00     0.349 HD
BRANCH   8  10
ATOM     10  C   UNL A   1      31.931  26.763  25.270  1.00  0.00     0.364 C 
BRANCH  10  11
ATOM     11  C   UNL A   1      31.596  25.459  25.957  1.00  0.00     0.278 C 
ATOM     12  C   UNL A   1      34.094  25.029  23.987  1.00  0.00     0.031 C 
ATOM     13  C   UNL A   1      33.584  24.058  25.042  1.00  0.00     0.082 C 
ATOM     14  C   UNL A   1      34.629  23.819  26.140  1.00  0.00     0.025 C 
ATOM     15  N   UNL A   1      32.266  24.271  25.685  1.00  0.00    -0.332 N 
ATOM     16  C   UNL A   1      34.222  22.640  27.032  1.00  0.00     0.004 C 
ATOM     17  C   UNL A   1      31.779  23.098  26.442  1.00  0.00     0.082 C 
ATOM     18  C   UNL A   1      32.789  22.772  27.551  1.00  0.00     0.025 C 
ATOM     19  C   UNL A   1      31.437  21.905  25.545  1.00  0.00     0.031 C 
ATOM     20  O   UNL A   1      30.580  25.457  26.670  1.00  0.00    -0.268 OA
ENDBRANCH  10  11
ENDBRANCH   8  10
BRANCH   8  21
ATOM     21  C   UNL A   1      30.184  27.300  23.491  1.00  0.00     0.090 C 
ATOM     22  C   UNL A   1      30.996  26.460  22.480  1.00  0.00     0.078 C 
ATOM     23  C   UNL A   1      28.879  26.506  23.744  1.00  0.00     0.078 C 
ATOM     24  C   UNL A   1      29.736  28.604  22.787  1.00  0.00     0.078 C 
ENDBRANCH   8  21
ENDBRANCH   7   8
ENDBRANCH   4   7
ENDBRANCH   2   3
ENDBRANCH   1   2
BRANCH   1  25
ATOM     25  C   UNL A   1      35.372  31.730  27.857  1.00  0.00     0.023 C 
BRANCH  25  26
ATOM     26  C   UNL A   1      36.144  32.045  29.115  1.00  0.00     0.116 C 
BRANCH  26  27
ATOM     27  N   UNL A   1      35.792  31.218  30.263  1.00  0.00    -0.352 N 
ATOM     28  C   UNL A   1      36.589  30.306  30.919  1.00  0.00     0.251 C 
ATOM     29  H   UNL A   1      34.876  31.323  30.609  1.00  0.00     0.163 HD
ATOM     30  O   UNL A   1      36.148  29.631  31.838  1.00  0.00    -0.269 OA
BRANCH  28  31
ATOM     31  C   UNL A   1      37.979  30.131  30.447  1.00  0.00     0.039 A 
ATOM     32  C   UNL A   1      38.990  29.883  31.377  1.00  0.00     0.014 A 
ATOM     33  C   UNL A   1      38.245  30.082  29.077  1.00  0.00     0.014 A 
ATOM     34  C   UNL A   1      40.256  29.509  30.923  1.00  0.00     0.010 A 
ATOM     35  C   UNL A   1      39.459  29.583  28.636  1.00  0.00     0.010 A 
ATOM     36  C   UNL A   1      40.488  29.317  29.551  1.00  0.00    -0.014 A 
BRANCH  36  37
ATOM     37  C   UNL A   1      41.815  28.902  29.031  1.00  0.00     0.031 A 
ATOM     38  C   UNL A   1      42.923  29.921  28.964  1.00  0.00     0.074 A 
ATOM     39  C   UNL A   1      42.003  27.654  28.559  1.00  0.00     0.049 A 
ATOM     40  N   UNL A   1      44.126  29.802  28.465  1.00  0.00    -0.248 NA
ATOM     41  C   UNL A   1      42.623  31.269  29.482  1.00  0.00     0.031 C 
ATOM     42  C   UNL A   1      40.989  26.598  28.507  1.00  0.00     0.029 A 
ATOM     43  N   UNL A   1      43.121  27.064  28.027  1.00  0.00    -0.354 N 
ATOM     44  C   UNL A   1      44.702  31.063  28.573  1.00  0.00     0.074 A 
ATOM     45  C   UNL A   1      43.699  31.947  29.118  1.00  0.00     0.031 C 
ATOM     46  C   UNL A   1      41.544  25.478  28.013  1.00  0.00     0.029 A 
ATOM     47  C   UNL A   1      42.940  25.745  27.683  1.00  0.00     0.049 A 
ATOM     48  H   UNL A   1      43.974  27.540  27.903  1.00  0.00     0.167 HD
ATOM     49  C   UNL A   1      45.966  31.446  28.281  1.00  0.00     0.031 A 
ATOM     50  C   UNL A   1      43.808  24.851  27.170  1.00  0.00     0.031 A 
ATOM     51  C   UNL A   1      46.977  30.551  27.796  1.00  0.00     0.049 A 
ATOM     52  C   UNL A   1      45.227  25.280  26.916  1.00  0.00     0.074 A 
ATOM     53  C   UNL A   1      48.309  30.812  27.535  1.00  0.00     0.029 A 
ATOM     54  N   UNL A   1      46.767  29.208  27.518  1.00  0.00    -0.354 N 
ATOM     55  N   UNL A   1      45.772  26.463  27.081  1.00  0.00    -0.248 NA
ATOM     56  C   UNL A   1      46.154  24.252  26.426  1.00  0.00     0.031 C 
ATOM     57  C   UNL A   1      48.901  29.632  27.074  1.00  0.00     0.029 A 
ATOM     58  C   UNL A   1      47.945  28.627  27.088  1.00  0.00     0.049 A 
ATOM     59  H   UNL A   1      45.907  28.739  27.612  1.00  0.00     0.167 HD
ATOM     60  C   UNL A   1      47.112  26.312  26.745  1.00  0.00     0.074 A 
ATOM     61  C   UNL A   1      47.297  24.923  26.379  1.00  0.00     0.031 C 
ATOM     62  C   UNL A   1      48.103  27.238  26.740  1.00  0.00     0.031 A 
BRANCH  49  63
ATOM     63  C   UNL A   1      46.316  32.894  28.500  1.00  0.00    -0.014 A 
ATOM     64  C   UNL A   1      46.801  33.343  29.743  1.00  0.00     0.010 A 
ATOM     65  C   UNL A   1      46.159  33.819  27.453  1.00  0.00     0.010 A 
ATOM     66  C   UNL A   1      47.068  34.698  29.952  1.00  0.00     0.020 A 
ATOM     67  C   UNL A   1      46.457  35.171  27.648  1.00  0.00     0.020 A 
ATOM     68  C   UNL A   1      46.889  35.605  28.904  1.00  0.00     0.054 A 
BRANCH  68  69
ATOM     69  S   UNL A   1      47.254  37.357  29.197  1.00  0.00     0.124 S 
ATOM     70  O   UNL A   1      47.682  37.343  30.595  1.00  0.00    -0.237 OA
ATOM     71  O   UNL A   1      48.305  37.635  28.222  1.00  0.00    -0.237 OA
ATOM     72  O   UNL A   1      45.979  38.023  28.942  1.00  0.00    -0.744 OA
ENDBRANCH  68  69
ENDBRANCH  49  63
BRANCH  50  73
ATOM     73  C   UNL A   1      43.373  23.451  26.915  1.00  0.00    -0.014 A 
ATOM     74  C   UNL A   1      43.486  22.896  25.627  1.00  0.00     0.010 A 
ATOM     75  C   UNL A   1      42.858  22.658  27.957  1.00  0.00     0.010 A 
ATOM     76  C   UNL A   1      43.071  21.583  25.381  1.00  0.00     0.020 A 
ATOM     77  C   UNL A   1      42.465  21.337  27.719  1.00  0.00     0.020 A 
ATOM     78  C   UNL A   1      42.563  20.812  26.429  1.00  0.00     0.054 A 
BRANCH  78  79
ATOM     79  S   UNL A   1      42.078  19.094  26.097  1.00  0.00     0.124 S 
ATOM     80  O   UNL A   1      40.630  19.210  25.956  1.00  0.00    -0.237 OA
ATOM     81  O   UNL A   1      42.812  18.789  24.871  1.00  0.00    -0.237 OA
ATOM     82  O   UNL A   1      42.537  18.376  27.284  1.00  0.00    -0.744 OA
ENDBRANCH  78  79
ENDBRANCH  50  73
BRANCH  62  83
ATOM     83  C   UNL A   1      49.482  26.770  26.369  1.00  0.00    -0.014 A 
ATOM     84  C   UNL A   1      50.274  26.049  27.279  1.00  0.00     0.010 A 
ATOM     85  C   UNL A   1      49.965  27.010  25.070  1.00  0.00     0.010 A 
ATOM     86  C   UNL A   1      51.544  25.604  26.904  1.00  0.00     0.020 A 
ATOM     87  C   UNL A   1      51.224  26.545  24.685  1.00  0.00     0.020 A 
ATOM     88  C   UNL A   1      52.012  25.857  25.610  1.00  0.00     0.054 A 
BRANCH  88  89
ATOM     89  S   UNL A   1      53.647  25.235  25.134  1.00  0.00     0.124 S 
ATOM     90  O   UNL A   1      54.511  25.859  26.133  1.00  0.00    -0.237 OA
ATOM     91  O   UNL A   1      53.490  23.788  25.254  1.00  0.00    -0.237 OA
ATOM     92  O   UNL A   1      53.818  25.725  23.768  1.00  0.00    -0.744 OA
ENDBRANCH  88  89
ENDBRANCH  62  83
ENDBRANCH  36  37
ENDBRANCH  28  31
ENDBRANCH  26  27
ENDBRANCH  25  26
ENDBRANCH   1  25
TORSDOF 18
ENDMDL
MODEL 3
REMARK VINA RESULT:     -10.4      2.561      9.261
REMARK SMILES C[C@H]1CCC[C@H](C)N1C(=O)C[N@@H+](CC(=O)NCCCCNC(=O)c1ccc(-c2c3nc(c(-c4ccc(S(=O)(=O)[O-])cc4)c4ccc([nH]4)c(-c4ccc(S(=O)(=O)[O-])cc4)c4nc(c(-c5ccc(S(=O)(=O)[O-])cc5)c5ccc2[nH]5)C=C4)C=C3)cc1)C(C)(C)C
REMARK SMILES IDX 18 1 17 2 16 3 14 4 15 5 13 7 12 8 11 10 9 11 1 12 2 13 3 14
REMARK SMILES IDX 8 15 4 16 6 17 5 18 7 19 10 20 84 21 85 22 86 23 87 24 19 25
REMARK SMILES IDX 20 26 21 27 22 28 23 30 24 31 25 32 83 33 26 34 82 35 27 36
REMARK SMILES IDX 28 37 29 38 76 39 30 40 81 41 75 42 77 43 31 44 80 45 74 46
REMARK SMILES IDX 73 47 32 49 62 50 43 51 61 52 44 53 47 54 60 55 78 56 45 57
REMARK SMILES IDX 46 58 59 60 79 61 48 62 33 63 34 64 42 65 35 66 41 67 36 68
REMARK SMILES IDX 37 69 38 70 39 71 40 72 63 73 64 74 72 75 65 76 71 77 66 78
REMARK SMILES IDX 67 79 68 80 69 81 70 82 49 83 50 84 58 85 51 86 57 87 52 88
REMARK SMILES IDX 53 89 54 90 55 91 56 92
REMARK H PARENT 16 6 12 9 21 29 77 48 47 59
REMARK Flexibility Score: inf
ROOT
ATOM      1  C   UNL A   1      34.726  22.853  27.254  1.00  0.00     0.023 C 
ENDROOT
BRANCH   1   2
ATOM      2  C   UNL A   1      33.492  21.975  27.494  1.00  0.00     0.116 C 
BRANCH   2   3
ATOM      3  N   UNL A   1      32.277  22.755  27.642  1.00  0.00    -0.351 N 
ATOM      4  C   UNL A   1      31.271  23.053  26.770  1.00  0.00     0.275 C 
ATOM      5  O   UNL A   1      30.275  23.607  27.253  1.00  0.00    -0.269 OA
ATOM      6  H   UNL A   1      32.158  23.143  28.540  1.00  0.00     0.163 HD
BRANCH   4   7
ATOM      7  C   UNL A   1      31.289  22.676  25.277  1.00  0.00     0.364 C 
BRANCH   7   8
ATOM      8  N   UNL A   1      32.431  23.156  24.422  1.00  0.00    -0.315 N 
ATOM      9  H   UNL A   1      33.285  23.192  24.980  1.00  0.00     0.349 HD
BRANCH   8  10
ATOM     10  C   UNL A   1      32.140  24.535  24.002  1.00  0.00     0.364 C 
BRANCH  10  11
ATOM     11  C   UNL A   1      32.994  25.700  24.447  1.00  0.00     0.278 C 
ATOM     12  C   UNL A   1      29.891  26.445  24.795  1.00  0.00     0.031 C 
ATOM     13  C   UNL A   1      31.084  27.219  25.339  1.00  0.00     0.082 C 
ATOM     14  C   UNL A   1      31.085  27.246  26.874  1.00  0.00     0.025 C 
ATOM     15  N   UNL A   1      32.455  26.909  24.872  1.00  0.00    -0.332 N 
ATOM     16  C   UNL A   1      32.116  28.252  27.399  1.00  0.00     0.004 C 
ATOM     17  C   UNL A   1      33.454  27.935  25.246  1.00  0.00     0.082 C 
ATOM     18  C   UNL A   1      33.498  28.046  26.777  1.00  0.00     0.025 C 
ATOM     19  C   UNL A   1      33.235  29.272  24.533  1.00  0.00     0.031 C 
ATOM     20  O   UNL A   1      34.217  25.586  24.266  1.00  0.00    -0.268 OA
ENDBRANCH  10  11
ENDBRANCH   8  10
BRANCH   8  21
ATOM     21  C   UNL A   1      32.941  22.191  23.396  1.00  0.00     0.090 C 
ATOM     22  C   UNL A   1      34.189  22.635  22.599  1.00  0.00     0.078 C 
ATOM     23  C   UNL A   1      33.303  20.817  24.011  1.00  0.00     0.078 C 
ATOM     24  C   UNL A   1      31.803  21.897  22.389  1.00  0.00     0.078 C 
ENDBRANCH   8  21
ENDBRANCH   7   8
ENDBRANCH   4   7
ENDBRANCH   2   3
ENDBRANCH   1   2
BRANCH   1  25
ATOM     25  C   UNL A   1      35.482  22.642  25.960  1.00  0.00     0.023 C 
BRANCH  25  26
ATOM     26  C   UNL A   1      36.760  23.434  25.831  1.00  0.00     0.116 C 
BRANCH  26  27
ATOM     27  N   UNL A   1      37.975  22.625  25.827  1.00  0.00    -0.352 N 
ATOM     28  C   UNL A   1      39.216  22.971  26.312  1.00  0.00     0.251 C 
ATOM     29  H   UNL A   1      37.897  21.728  25.430  1.00  0.00     0.163 HD
ATOM     30  O   UNL A   1      40.171  22.217  26.193  1.00  0.00    -0.269 OA
BRANCH  28  31
ATOM     31  C   UNL A   1      39.373  24.302  26.936  1.00  0.00     0.039 A 
ATOM     32  C   UNL A   1      38.924  24.502  28.242  1.00  0.00     0.014 A 
ATOM     33  C   UNL A   1      40.085  25.301  26.268  1.00  0.00     0.014 A 
ATOM     34  C   UNL A   1      39.259  25.684  28.905  1.00  0.00     0.010 A 
ATOM     35  C   UNL A   1      40.526  26.410  26.972  1.00  0.00     0.010 A 
ATOM     36  C   UNL A   1      40.096  26.628  28.289  1.00  0.00    -0.014 A 
BRANCH  36  37
ATOM     37  C   UNL A   1      40.489  27.888  28.967  1.00  0.00     0.031 A 
ATOM     38  C   UNL A   1      41.860  27.988  29.584  1.00  0.00     0.074 A 
ATOM     39  C   UNL A   1      39.606  28.899  29.093  1.00  0.00     0.049 A 
ATOM     40  N   UNL A   1      42.376  28.954  30.299  1.00  0.00    -0.248 NA
ATOM     41  C   UNL A   1      42.753  26.827  29.418  1.00  0.00     0.031 C 
ATOM     42  C   UNL A   1      38.227  28.896  28.599  1.00  0.00     0.029 A 
ATOM     43  N   UNL A   1      39.742  30.129  29.682  1.00  0.00    -0.354 N 
ATOM     44  C   UNL A   1      43.628  28.498  30.696  1.00  0.00     0.074 A 
ATOM     45  C   UNL A   1      43.767  27.147  30.205  1.00  0.00     0.031 C 
ATOM     46  C   UNL A   1      37.659  30.084  28.868  1.00  0.00     0.029 A 
ATOM     47  C   UNL A   1      38.620  30.918  29.581  1.00  0.00     0.049 A 
ATOM     48  H   UNL A   1      40.566  30.422  30.136  1.00  0.00     0.167 HD
ATOM     49  C   UNL A   1      44.595  29.156  31.377  1.00  0.00     0.031 A 
ATOM     50  C   UNL A   1      38.399  32.178  30.007  1.00  0.00     0.031 A 
ATOM     51  C   UNL A   1      44.475  30.518  31.809  1.00  0.00     0.049 A 
ATOM     52  C   UNL A   1      39.511  32.915  30.702  1.00  0.00     0.074 A 
ATOM     53  C   UNL A   1      45.417  31.309  32.442  1.00  0.00     0.029 A 
ATOM     54  N   UNL A   1      43.343  31.301  31.634  1.00  0.00    -0.354 N 
ATOM     55  N   UNL A   1      40.711  32.488  31.017  1.00  0.00    -0.248 NA
ATOM     56  C   UNL A   1      39.247  34.309  31.082  1.00  0.00     0.031 C 
ATOM     57  C   UNL A   1      44.845  32.564  32.673  1.00  0.00     0.029 A 
ATOM     58  C   UNL A   1      43.562  32.567  32.146  1.00  0.00     0.049 A 
ATOM     59  H   UNL A   1      42.509  31.000  31.208  1.00  0.00     0.167 HD
ATOM     60  C   UNL A   1      41.356  33.571  31.604  1.00  0.00     0.074 A 
ATOM     61  C   UNL A   1      40.417  34.674  31.589  1.00  0.00     0.031 C 
ATOM     62  C   UNL A   1      42.612  33.649  32.108  1.00  0.00     0.031 A 
BRANCH  49  63
ATOM     63  C   UNL A   1      45.865  28.403  31.670  1.00  0.00    -0.014 A 
ATOM     64  C   UNL A   1      46.964  28.464  30.793  1.00  0.00     0.010 A 
ATOM     65  C   UNL A   1      45.964  27.626  32.837  1.00  0.00     0.010 A 
ATOM     66  C   UNL A   1      48.117  27.717  31.047  1.00  0.00     0.020 A 
ATOM     67  C   UNL A   1      47.129  26.902  33.112  1.00  0.00     0.020 A 
ATOM     68  C   UNL A   1      48.189  26.936  32.204  1.00  0.00     0.054 A 
BRANCH  68  69
ATOM     69  S   UNL A   1      49.701  25.984  32.517  1.00  0.00     0.124 S 
ATOM     70  O   UNL A   1      49.661  24.995  31.441  1.00  0.00    -0.237 OA
ATOM     71  O   UNL A   1      50.748  26.995  32.400  1.00  0.00    -0.237 OA
ATOM     72  O   UNL A   1      49.501  25.451  33.861  1.00  0.00    -0.744 OA
ENDBRANCH  68  69
ENDBRANCH  49  63
BRANCH  50  73
ATOM     73  C   UNL A   1      37.092  32.837  29.740  1.00  0.00    -0.014 A 
ATOM     74  C   UNL A   1      36.048  32.751  30.679  1.00  0.00     0.010 A 
ATOM     75  C   UNL A   1      36.885  33.565  28.554  1.00  0.00     0.010 A 
ATOM     76  C   UNL A   1      34.815  33.362  30.429  1.00  0.00     0.020 A 
ATOM     77  C   UNL A   1      35.661  34.198  28.311  1.00  0.00     0.020 A 
ATOM     78  C   UNL A   1      34.630  34.082  29.246  1.00  0.00     0.054 A 
BRANCH  78  79
ATOM     79  S   UNL A   1      33.038  34.909  28.964  1.00  0.00     0.124 S 
ATOM     80  O   UNL A   1      33.456  36.184  28.391  1.00  0.00    -0.237 OA
ATOM     81  O   UNL A   1      32.363  33.993  28.048  1.00  0.00    -0.237 OA
ATOM     82  O   UNL A   1      32.453  34.984  30.301  1.00  0.00    -0.744 OA
ENDBRANCH  78  79
ENDBRANCH  50  73
BRANCH  62  83
ATOM     83  C   UNL A   1      43.058  34.980  32.645  1.00  0.00    -0.014 A 
ATOM     84  C   UNL A   1      43.614  35.956  31.800  1.00  0.00     0.010 A 
ATOM     85  C   UNL A   1      42.865  35.273  34.007  1.00  0.00     0.010 A 
ATOM     86  C   UNL A   1      44.000  37.194  32.317  1.00  0.00     0.020 A 
ATOM     87  C   UNL A   1      43.227  36.519  34.522  1.00  0.00     0.020 A 
ATOM     88  C   UNL A   1      43.807  37.467  33.676  1.00  0.00     0.054 A 
BRANCH  88  89
ATOM     89  S   UNL A   1      44.279  39.096  34.317  1.00  0.00     0.124 S 
ATOM     90  O   UNL A   1      45.541  39.340  33.623  1.00  0.00    -0.237 OA
ATOM     91  O   UNL A   1      43.162  39.942  33.904  1.00  0.00    -0.237 OA
ATOM     92  O   UNL A   1      44.390  38.881  35.758  1.00  0.00    -0.744 OA
ENDBRANCH  88  89
ENDBRANCH  62  83
ENDBRANCH  36  37
ENDBRANCH  28  31
ENDBRANCH  26  27
ENDBRANCH  25  26
ENDBRANCH   1  25
TORSDOF 18
ENDMDL
