MODEL 1
REMARK VINA RESULT:     -11.0      0.000      0.000
REMARK SMILES CCOc1ccccc1NC(=O)N[C@@](C)(CC)C(=O)NCCCCNC(=O)c1ccc(-c2c3nc(c(-c4ccc(S(=O)(=O)[O-])cc4)c4ccc([nH]4)c(-c4ccc(S(=O)(=O)[O-])cc4)c4nc(c(-c5ccc(S(=O)(=O)[O-])cc5)c5ccc2[nH]5)C=C4)C=C3)cc1
REMARK SMILES IDX 22 1 21 2 20 3 18 4 19 5 14 7 15 8 13 9 10 10 11 11 12 13
REMARK SMILES IDX 9 15 4 16 5 17 6 18 8 19 7 20 3 21 2 22 1 23 16 24 17 25
REMARK SMILES IDX 23 26 24 27 25 28 26 29 27 31 28 32 29 33 87 34 30 35 86 36
REMARK SMILES IDX 31 37 32 38 33 39 80 40 34 41 85 42 79 43 81 44 35 45 84 46
REMARK SMILES IDX 78 47 77 48 36 50 66 51 47 52 65 53 48 54 51 55 64 56 82 57
REMARK SMILES IDX 49 58 50 59 63 61 83 62 52 63 37 64 38 65 46 66 39 67 45 68
REMARK SMILES IDX 40 69 41 70 42 71 43 72 44 73 67 74 68 75 76 76 69 77 75 78
REMARK SMILES IDX 70 79 71 80 72 81 73 82 74 83 53 84 54 85 62 86 55 87 61 88
REMARK SMILES IDX 56 89 57 90 58 91 59 92 60 93
REMARK H PARENT 20 6 10 12 13 14 25 30 81 49 51 60
REMARK Flexibility Score: inf
ROOT
ATOM      1  C   UNL A   1      35.028  30.822  27.641  1.00  0.00     0.023 C 
ENDROOT
BRANCH   1   2
ATOM      2  C   UNL A   1      33.645  30.567  27.064  1.00  0.00     0.116 C 
BRANCH   2   3
ATOM      3  N   UNL A   1      33.670  29.816  25.839  1.00  0.00    -0.354 N 
ATOM      4  C   UNL A   1      32.468  29.441  25.287  1.00  0.00     0.245 C 
ATOM      5  O   UNL A   1      31.470  30.156  25.412  1.00  0.00    -0.272 OA
ATOM      6  H   UNL A   1      34.522  29.577  25.409  1.00  0.00     0.163 HD
BRANCH   4   7
ATOM      7  C   UNL A   1      32.429  28.060  24.570  1.00  0.00     0.117 C 
ATOM      8  C   UNL A   1      31.185  28.234  23.632  1.00  0.00     0.045 C 
BRANCH   7   9
ATOM      9  N   UNL A   1      33.515  27.677  23.638  1.00  0.00    -0.324 N 
ATOM     10  N   UNL A   1      32.900  26.119  21.959  1.00  0.00    -0.305 N 
ATOM     11  C   UNL A   1      33.516  27.219  22.386  1.00  0.00     0.320 C 
ATOM     12  H   UNL A   1      32.721  26.159  20.992  1.00  0.00     0.172 HD
ATOM     13  O   UNL A   1      34.163  27.874  21.562  1.00  0.00    -0.248 OA
ATOM     14  H   UNL A   1      34.416  27.783  24.020  1.00  0.00     0.166 HD
BRANCH  10  15
ATOM     15  C   UNL A   1      32.440  24.921  22.517  1.00  0.00     0.085 A 
ATOM     16  C   UNL A   1      33.392  23.896  22.645  1.00  0.00     0.142 A 
ATOM     17  C   UNL A   1      33.025  22.583  22.926  1.00  0.00     0.048 A 
ATOM     18  C   UNL A   1      31.698  22.313  23.237  1.00  0.00     0.004 A 
ATOM     19  C   UNL A   1      31.169  24.676  23.004  1.00  0.00     0.030 A 
ATOM     20  C   UNL A   1      30.788  23.367  23.335  1.00  0.00     0.002 A 
BRANCH  16  21
ATOM     21  O   UNL A   1      34.729  24.220  22.568  1.00  0.00    -0.492 OA
BRANCH  21  22
ATOM     22  C   UNL A   1      35.425  23.638  23.696  1.00  0.00     0.226 C 
ATOM     23  C   UNL A   1      36.638  22.838  23.242  1.00  0.00     0.049 C 
ENDBRANCH  21  22
ENDBRANCH  16  21
ENDBRANCH  10  15
ENDBRANCH   7   9
BRANCH   7  24
ATOM     24  C   UNL A   1      32.014  26.935  25.574  1.00  0.00     0.035 C 
ATOM     25  C   UNL A   1      33.070  25.928  26.008  1.00  0.00     0.007 C 
ENDBRANCH   7  24
ENDBRANCH   4   7
ENDBRANCH   2   3
ENDBRANCH   1   2
BRANCH   1  26
ATOM     26  C   UNL A   1      35.262  32.257  28.102  1.00  0.00     0.023 C 
BRANCH  26  27
ATOM     27  C   UNL A   1      36.186  32.412  29.308  1.00  0.00     0.116 C 
BRANCH  27  28
ATOM     28  N   UNL A   1      35.881  31.487  30.393  1.00  0.00    -0.352 N 
ATOM     29  C   UNL A   1      36.629  30.462  30.911  1.00  0.00     0.251 C 
ATOM     30  H   UNL A   1      35.003  31.618  30.819  1.00  0.00     0.163 HD
ATOM     31  O   UNL A   1      36.146  29.715  31.760  1.00  0.00    -0.269 OA
BRANCH  29  32
ATOM     32  C   UNL A   1      38.002  30.238  30.420  1.00  0.00     0.039 A 
ATOM     33  C   UNL A   1      39.052  30.242  31.340  1.00  0.00     0.014 A 
ATOM     34  C   UNL A   1      38.247  29.996  29.067  1.00  0.00     0.014 A 
ATOM     35  C   UNL A   1      40.342  29.927  30.911  1.00  0.00     0.010 A 
ATOM     36  C   UNL A   1      39.517  29.601  28.657  1.00  0.00     0.010 A 
ATOM     37  C   UNL A   1      40.576  29.563  29.575  1.00  0.00    -0.014 A 
BRANCH  37  38
ATOM     38  C   UNL A   1      41.923  29.122  29.132  1.00  0.00     0.031 A 
ATOM     39  C   UNL A   1      43.070  30.093  29.096  1.00  0.00     0.074 A 
ATOM     40  C   UNL A   1      42.098  27.857  28.701  1.00  0.00     0.049 A 
ATOM     41  N   UNL A   1      44.306  29.892  28.720  1.00  0.00    -0.248 NA
ATOM     42  C   UNL A   1      42.783  31.475  29.511  1.00  0.00     0.031 C 
ATOM     43  C   UNL A   1      41.052  26.832  28.637  1.00  0.00     0.029 A 
ATOM     44  N   UNL A   1      43.217  27.217  28.231  1.00  0.00    -0.354 N 
ATOM     45  C   UNL A   1      44.941  31.121  28.838  1.00  0.00     0.074 A 
ATOM     46  C   UNL A   1      43.940  32.073  29.268  1.00  0.00     0.031 C 
ATOM     47  C   UNL A   1      41.586  25.688  28.183  1.00  0.00     0.029 A 
ATOM     48  C   UNL A   1      42.998  25.906  27.882  1.00  0.00     0.049 A 
ATOM     49  H   UNL A   1      44.095  27.657  28.151  1.00  0.00     0.167 HD
ATOM     50  C   UNL A   1      46.244  31.429  28.623  1.00  0.00     0.031 A 
ATOM     51  C   UNL A   1      43.833  24.980  27.371  1.00  0.00     0.031 A 
ATOM     52  C   UNL A   1      47.235  30.479  28.190  1.00  0.00     0.049 A 
ATOM     53  C   UNL A   1      45.273  25.341  27.135  1.00  0.00     0.074 A 
ATOM     54  C   UNL A   1      48.592  30.677  28.006  1.00  0.00     0.029 A 
ATOM     55  N   UNL A   1      46.975  29.158  27.855  1.00  0.00    -0.354 N 
ATOM     56  N   UNL A   1      45.876  26.488  27.335  1.00  0.00    -0.248 NA
ATOM     57  C   UNL A   1      46.147  24.279  26.620  1.00  0.00     0.031 C 
ATOM     58  C   UNL A   1      49.141  29.495  27.499  1.00  0.00     0.029 A 
ATOM     59  C   UNL A   1      48.139  28.538  27.433  1.00  0.00     0.049 A 
ATOM     60  H   UNL A   1      46.092  28.725  27.910  1.00  0.00     0.167 HD
ATOM     61  C   UNL A   1      47.207  26.282  26.990  1.00  0.00     0.074 A 
ATOM     62  C   UNL A   1      47.322  24.894  26.584  1.00  0.00     0.031 C 
ATOM     63  C   UNL A   1      48.241  27.161  27.015  1.00  0.00     0.031 A 
BRANCH  50  64
ATOM     64  C   UNL A   1      46.656  32.864  28.830  1.00  0.00    -0.014 A 
ATOM     65  C   UNL A   1      47.071  33.334  30.091  1.00  0.00     0.010 A 
ATOM     66  C   UNL A   1      46.630  33.759  27.745  1.00  0.00     0.010 A 
ATOM     67  C   UNL A   1      47.385  34.685  30.276  1.00  0.00     0.020 A 
ATOM     68  C   UNL A   1      46.976  35.102  27.917  1.00  0.00     0.020 A 
ATOM     69  C   UNL A   1      47.326  35.561  29.189  1.00  0.00     0.054 A 
BRANCH  69  70
ATOM     70  S   UNL A   1      47.719  37.310  29.460  1.00  0.00     0.124 S 
ATOM     71  O   UNL A   1      47.795  37.378  30.919  1.00  0.00    -0.237 OA
ATOM     72  O   UNL A   1      48.990  37.467  28.759  1.00  0.00    -0.237 OA
ATOM     73  O   UNL A   1      46.589  38.017  28.863  1.00  0.00    -0.744 OA
ENDBRANCH  69  70
ENDBRANCH  50  64
BRANCH  51  74
ATOM     74  C   UNL A   1      43.314  23.619  27.069  1.00  0.00    -0.014 A 
ATOM     75  C   UNL A   1      43.146  23.193  25.740  1.00  0.00     0.010 A 
ATOM     76  C   UNL A   1      43.048  22.716  28.116  1.00  0.00     0.010 A 
ATOM     77  C   UNL A   1      42.727  21.889  25.463  1.00  0.00     0.020 A 
ATOM     78  C   UNL A   1      42.656  21.403  27.842  1.00  0.00     0.020 A 
ATOM     79  C   UNL A   1      42.496  20.998  26.515  1.00  0.00     0.054 A 
BRANCH  79  80
ATOM     80  S   UNL A   1      42.051  19.282  26.128  1.00  0.00     0.124 S 
ATOM     81  O   UNL A   1      40.607  19.376  25.942  1.00  0.00    -0.237 OA
ATOM     82  O   UNL A   1      42.830  19.022  24.921  1.00  0.00    -0.237 OA
ATOM     83  O   UNL A   1      42.484  18.541  27.310  1.00  0.00    -0.744 OA
ENDBRANCH  79  80
ENDBRANCH  51  74
BRANCH  63  84
ATOM     84  C   UNL A   1      49.599  26.648  26.609  1.00  0.00    -0.014 A 
ATOM     85  C   UNL A   1      50.485  26.095  27.550  1.00  0.00     0.010 A 
ATOM     86  C   UNL A   1      49.968  26.667  25.251  1.00  0.00     0.010 A 
ATOM     87  C   UNL A   1      51.728  25.600  27.145  1.00  0.00     0.020 A 
ATOM     88  C   UNL A   1      51.196  26.145  24.837  1.00  0.00     0.020 A 
ATOM     89  C   UNL A   1      52.075  25.626  25.790  1.00  0.00     0.054 A 
BRANCH  89  90
ATOM     90  S   UNL A   1      53.674  24.935  25.284  1.00  0.00     0.124 S 
ATOM     91  O   UNL A   1      53.979  25.717  24.090  1.00  0.00    -0.237 OA
ATOM     92  O   UNL A   1      54.519  25.204  26.445  1.00  0.00    -0.237 OA
ATOM     93  O   UNL A   1      53.383  23.523  25.047  1.00  0.00    -0.744 OA
ENDBRANCH  89  90
ENDBRANCH  63  84
ENDBRANCH  37  38
ENDBRANCH  29  32
ENDBRANCH  27  28
ENDBRANCH  26  27
ENDBRANCH   1  26
TORSDOF 19
ENDMDL
MODEL 2
REMARK VINA RESULT:      -9.6      7.719     13.642
REMARK SMILES CCOc1ccccc1NC(=O)N[C@@](C)(CC)C(=O)NCCCCNC(=O)c1ccc(-c2c3nc(c(-c4ccc(S(=O)(=O)[O-])cc4)c4ccc([nH]4)c(-c4ccc(S(=O)(=O)[O-])cc4)c4nc(c(-c5ccc(S(=O)(=O)[O-])cc5)c5ccc2[nH]5)C=C4)C=C3)cc1
REMARK SMILES IDX 22 1 21 2 20 3 18 4 19 5 14 7 15 8 13 9 10 10 11 11 12 13
REMARK SMILES IDX 9 15 4 16 5 17 6 18 8 19 7 20 3 21 2 22 1 23 16 24 17 25
REMARK SMILES IDX 23 26 24 27 25 28 26 29 27 31 28 32 29 33 87 34 30 35 86 36
REMARK SMILES IDX 31 37 32 38 33 39 80 40 34 41 85 42 79 43 81 44 35 45 84 46
REMARK SMILES IDX 78 47 77 48 36 50 66 51 47 52 65 53 48 54 51 55 64 56 82 57
REMARK SMILES IDX 49 58 50 59 63 61 83 62 52 63 37 64 38 65 46 66 39 67 45 68
REMARK SMILES IDX 40 69 41 70 42 71 43 72 44 73 67 74 68 75 76 76 69 77 75 78
REMARK SMILES IDX 70 79 71 80 72 81 73 82 74 83 53 84 54 85 62 86 55 87 61 88
REMARK SMILES IDX 56 89 57 90 58 91 59 92 60 93
REMARK H PARENT 20 6 10 12 13 14 25 30 81 49 51 60
REMARK Flexibility Score: inf
ROOT
ATOM      1  C   UNL A   1      38.605  28.933  32.424  1.00  0.00     0.023 C 
ENDROOT
BRANCH   1   2
ATOM      2  C   UNL A   1      37.378  29.818  32.574  1.00  0.00     0.116 C 
BRANCH   2   3
ATOM      3  N   UNL A   1      37.697  31.216  32.675  1.00  0.00    -0.354 N 
ATOM      4  C   UNL A   1      37.314  31.884  33.814  1.00  0.00     0.245 C 
ATOM      5  O   UNL A   1      37.278  31.302  34.901  1.00  0.00    -0.272 OA
ATOM      6  H   UNL A   1      38.174  31.681  31.951  1.00  0.00     0.163 HD
BRANCH   4   7
ATOM      7  C   UNL A   1      36.874  33.367  33.640  1.00  0.00     0.117 C 
ATOM      8  C   UNL A   1      37.609  33.755  32.312  1.00  0.00     0.045 C 
BRANCH   7   9
ATOM      9  N   UNL A   1      35.455  33.691  33.358  1.00  0.00    -0.324 N 
ATOM     10  N   UNL A   1      34.438  32.378  31.664  1.00  0.00    -0.305 N 
ATOM     11  C   UNL A   1      34.447  32.981  32.851  1.00  0.00     0.320 C 
ATOM     12  H   UNL A   1      33.787  31.640  31.640  1.00  0.00     0.172 HD
ATOM     13  O   UNL A   1      33.429  32.898  33.547  1.00  0.00    -0.248 OA
ATOM     14  H   UNL A   1      35.208  34.614  33.593  1.00  0.00     0.166 HD
BRANCH  10  15
ATOM     15  C   UNL A   1      35.108  32.513  30.442  1.00  0.00     0.085 A 
ATOM     16  C   UNL A   1      35.004  33.767  29.819  1.00  0.00     0.142 A 
ATOM     17  C   UNL A   1      35.383  33.962  28.494  1.00  0.00     0.048 A 
ATOM     18  C   UNL A   1      36.020  32.927  27.822  1.00  0.00     0.004 A 
ATOM     19  C   UNL A   1      35.901  31.559  29.830  1.00  0.00     0.030 A 
ATOM     20  C   UNL A   1      36.331  31.752  28.510  1.00  0.00     0.002 A 
BRANCH  16  21
ATOM     21  O   UNL A   1      34.591  34.847  30.568  1.00  0.00    -0.492 OA
BRANCH  21  22
ATOM     22  C   UNL A   1      33.335  35.337  30.042  1.00  0.00     0.226 C 
ATOM     23  C   UNL A   1      32.551  36.095  31.106  1.00  0.00     0.049 C 
ENDBRANCH  21  22
ENDBRANCH  16  21
ENDBRANCH  10  15
ENDBRANCH   7   9
BRANCH   7  24
ATOM     24  C   UNL A   1      37.534  34.265  34.737  1.00  0.00     0.035 C 
ATOM     25  C   UNL A   1      38.719  35.136  34.342  1.00  0.00     0.007 C 
ENDBRANCH   7  24
ENDBRANCH   4   7
ENDBRANCH   2   3
ENDBRANCH   1   2
BRANCH   1  26
ATOM     26  C   UNL A   1      38.504  27.905  31.301  1.00  0.00     0.023 C 
BRANCH  26  27
ATOM     27  C   UNL A   1      37.990  28.444  29.967  1.00  0.00     0.116 C 
BRANCH  27  28
ATOM     28  N   UNL A   1      38.942  28.282  28.874  1.00  0.00    -0.352 N 
ATOM     29  C   UNL A   1      40.062  29.010  28.569  1.00  0.00     0.251 C 
ATOM     30  H   UNL A   1      38.750  27.535  28.262  1.00  0.00     0.163 HD
ATOM     31  O   UNL A   1      40.678  28.785  27.529  1.00  0.00    -0.269 OA
BRANCH  29  32
ATOM     32  C   UNL A   1      40.503  30.088  29.474  1.00  0.00     0.039 A 
ATOM     33  C   UNL A   1      41.749  29.977  30.092  1.00  0.00     0.014 A 
ATOM     34  C   UNL A   1      39.706  31.216  29.686  1.00  0.00     0.014 A 
ATOM     35  C   UNL A   1      42.229  31.033  30.867  1.00  0.00     0.010 A 
ATOM     36  C   UNL A   1      40.221  32.300  30.389  1.00  0.00     0.010 A 
ATOM     37  C   UNL A   1      41.487  32.220  30.986  1.00  0.00    -0.014 A 
BRANCH  37  38
ATOM     38  C   UNL A   1      42.035  33.390  31.718  1.00  0.00     0.031 A 
ATOM     39  C   UNL A   1      41.900  33.486  33.211  1.00  0.00     0.074 A 
ATOM     40  C   UNL A   1      42.602  34.398  31.026  1.00  0.00     0.049 A 
ATOM     41  N   UNL A   1      42.299  34.440  34.014  1.00  0.00    -0.248 NA
ATOM     42  C   UNL A   1      41.204  32.381  33.889  1.00  0.00     0.031 C 
ATOM     43  C   UNL A   1      42.746  34.448  29.568  1.00  0.00     0.029 A 
ATOM     44  N   UNL A   1      43.158  35.577  31.454  1.00  0.00    -0.354 N 
ATOM     45  C   UNL A   1      41.890  34.059  35.285  1.00  0.00     0.074 A 
ATOM     46  C   UNL A   1      41.165  32.815  35.140  1.00  0.00     0.031 C 
ATOM     47  C   UNL A   1      43.375  35.584  29.229  1.00  0.00     0.029 A 
ATOM     48  C   UNL A   1      43.640  36.363  30.435  1.00  0.00     0.049 A 
ATOM     49  H   UNL A   1      43.207  35.836  32.404  1.00  0.00     0.167 HD
ATOM     50  C   UNL A   1      42.111  34.679  36.470  1.00  0.00     0.031 A 
ATOM     51  C   UNL A   1      44.224  37.577  30.461  1.00  0.00     0.031 A 
ATOM     52  C   UNL A   1      42.827  35.920  36.608  1.00  0.00     0.049 A 
ATOM     53  C   UNL A   1      44.457  38.252  31.784  1.00  0.00     0.074 A 
ATOM     54  C   UNL A   1      43.160  36.595  37.769  1.00  0.00     0.029 A 
ATOM     55  N   UNL A   1      43.308  36.681  35.552  1.00  0.00    -0.354 N 
ATOM     56  N   UNL A   1      44.139  37.835  32.986  1.00  0.00    -0.248 NA
ATOM     57  C   UNL A   1      45.138  39.552  31.755  1.00  0.00     0.031 C 
ATOM     58  C   UNL A   1      43.783  37.795  37.413  1.00  0.00     0.029 A 
ATOM     59  C   UNL A   1      43.903  37.836  36.032  1.00  0.00     0.049 A 
ATOM     60  H   UNL A   1      43.236  36.435  34.601  1.00  0.00     0.167 HD
ATOM     61  C   UNL A   1      44.602  38.812  33.861  1.00  0.00     0.074 A 
ATOM     62  C   UNL A   1      45.234  39.832  33.048  1.00  0.00     0.031 C 
ATOM     63  C   UNL A   1      44.515  38.854  35.214  1.00  0.00     0.031 A 
BRANCH  50  64
ATOM     64  C   UNL A   1      41.540  34.030  37.705  1.00  0.00    -0.014 A 
ATOM     65  C   UNL A   1      40.220  34.284  38.124  1.00  0.00     0.010 A 
ATOM     66  C   UNL A   1      42.336  33.149  38.459  1.00  0.00     0.010 A 
ATOM     67  C   UNL A   1      39.732  33.724  39.309  1.00  0.00     0.020 A 
ATOM     68  C   UNL A   1      41.841  32.560  39.626  1.00  0.00     0.020 A 
ATOM     69  C   UNL A   1      40.550  32.873  40.057  1.00  0.00     0.054 A 
BRANCH  69  70
ATOM     70  S   UNL A   1      39.900  32.176  41.600  1.00  0.00     0.124 S 
ATOM     71  O   UNL A   1      39.660  33.379  42.395  1.00  0.00    -0.237 OA
ATOM     72  O   UNL A   1      38.702  31.471  41.153  1.00  0.00    -0.237 OA
ATOM     73  O   UNL A   1      40.982  31.321  42.079  1.00  0.00    -0.744 OA
ENDBRANCH  69  70
ENDBRANCH  50  64
BRANCH  51  74
ATOM     74  C   UNL A   1      44.641  38.212  29.182  1.00  0.00    -0.014 A 
ATOM     75  C   UNL A   1      43.764  39.058  28.482  1.00  0.00     0.010 A 
ATOM     76  C   UNL A   1      45.947  38.023  28.692  1.00  0.00     0.010 A 
ATOM     77  C   UNL A   1      44.187  39.708  27.319  1.00  0.00     0.020 A 
ATOM     78  C   UNL A   1      46.382  38.692  27.546  1.00  0.00     0.020 A 
ATOM     79  C   UNL A   1      45.498  39.531  26.865  1.00  0.00     0.054 A 
BRANCH  79  80
ATOM     80  S   UNL A   1      46.054  40.464  25.411  1.00  0.00     0.124 S 
ATOM     81  O   UNL A   1      47.011  41.397  25.994  1.00  0.00    -0.237 OA
ATOM     82  O   UNL A   1      46.623  39.417  24.567  1.00  0.00    -0.237 OA
ATOM     83  O   UNL A   1      44.824  41.064  24.899  1.00  0.00    -0.744 OA
ENDBRANCH  79  80
ENDBRANCH  51  74
BRANCH  63  84
ATOM     84  C   UNL A   1      45.137  40.036  35.913  1.00  0.00    -0.014 A 
ATOM     85  C   UNL A   1      46.487  40.028  36.308  1.00  0.00     0.010 A 
ATOM     86  C   UNL A   1      44.370  41.197  36.124  1.00  0.00     0.010 A 
ATOM     87  C   UNL A   1      47.049  41.147  36.929  1.00  0.00     0.020 A 
ATOM     88  C   UNL A   1      44.936  42.329  36.716  1.00  0.00     0.020 A 
ATOM     89  C   UNL A   1      46.270  42.292  37.127  1.00  0.00     0.054 A 
BRANCH  89  90
ATOM     90  S   UNL A   1      47.036  43.747  37.893  1.00  0.00     0.124 S 
ATOM     91  O   UNL A   1      46.685  43.571  39.299  1.00  0.00    -0.237 OA
ATOM     92  O   UNL A   1      48.450  43.571  37.570  1.00  0.00    -0.237 OA
ATOM     93  O   UNL A   1      46.386  44.874  37.225  1.00  0.00    -0.744 OA
ENDBRANCH  89  90
ENDBRANCH  63  84
ENDBRANCH  37  38
ENDBRANCH  29  32
ENDBRANCH  27  28
ENDBRANCH  26  27
ENDBRANCH   1  26
TORSDOF 19
ENDMDL
MODEL 3
REMARK VINA RESULT:      -9.5      7.683     15.947
REMARK SMILES CCOc1ccccc1NC(=O)N[C@@](C)(CC)C(=O)NCCCCNC(=O)c1ccc(-c2c3nc(c(-c4ccc(S(=O)(=O)[O-])cc4)c4ccc([nH]4)c(-c4ccc(S(=O)(=O)[O-])cc4)c4nc(c(-c5ccc(S(=O)(=O)[O-])cc5)c5ccc2[nH]5)C=C4)C=C3)cc1
REMARK SMILES IDX 22 1 21 2 20 3 18 4 19 5 14 7 15 8 13 9 10 10 11 11 12 13
REMARK SMILES IDX 9 15 4 16 5 17 6 18 8 19 7 20 3 21 2 22 1 23 16 24 17 25
REMARK SMILES IDX 23 26 24 27 25 28 26 29 27 31 28 32 29 33 87 34 30 35 86 36
REMARK SMILES IDX 31 37 32 38 33 39 80 40 34 41 85 42 79 43 81 44 35 45 84 46
REMARK SMILES IDX 78 47 77 48 36 50 66 51 47 52 65 53 48 54 51 55 64 56 82 57
REMARK SMILES IDX 49 58 50 59 63 61 83 62 52 63 37 64 38 65 46 66 39 67 45 68
REMARK SMILES IDX 40 69 41 70 42 71 43 72 44 73 67 74 68 75 76 76 69 77 75 78
REMARK SMILES IDX 70 79 71 80 72 81 73 82 74 83 53 84 54 85 62 86 55 87 61 88
REMARK SMILES IDX 56 89 57 90 58 91 59 92 60 93
REMARK H PARENT 20 6 10 12 13 14 25 30 81 49 51 60
REMARK Flexibility Score: inf
ROOT
ATOM      1  C   UNL A   1      50.275  20.210  34.310  1.00  0.00     0.023 C 
ENDROOT
BRANCH   1   2
ATOM      2  C   UNL A   1      50.831  19.863  35.681  1.00  0.00     0.116 C 
BRANCH   2   3
ATOM      3  N   UNL A   1      49.821  19.445  36.614  1.00  0.00    -0.354 N 
ATOM      4  C   UNL A   1      49.491  20.305  37.635  1.00  0.00     0.245 C 
ATOM      5  O   UNL A   1      49.540  21.526  37.468  1.00  0.00    -0.272 OA
ATOM      6  H   UNL A   1      49.379  18.571  36.526  1.00  0.00     0.163 HD
BRANCH   4   7
ATOM      7  C   UNL A   1      49.126  19.658  39.003  1.00  0.00     0.117 C 
ATOM      8  C   UNL A   1      49.547  20.789  40.003  1.00  0.00     0.045 C 
BRANCH   7   9
ATOM      9  N   UNL A   1      47.708  19.401  39.348  1.00  0.00    -0.324 N 
ATOM     10  N   UNL A   1      46.302  18.879  37.510  1.00  0.00    -0.305 N 
ATOM     11  C   UNL A   1      46.743  18.699  38.753  1.00  0.00     0.320 C 
ATOM     12  H   UNL A   1      45.877  18.065  37.157  1.00  0.00     0.172 HD
ATOM     13  O   UNL A   1      46.207  17.816  39.432  1.00  0.00    -0.248 OA
ATOM     14  H   UNL A   1      47.421  19.836  40.183  1.00  0.00     0.166 HD
BRANCH  10  15
ATOM     15  C   UNL A   1      46.282  19.917  36.571  1.00  0.00     0.085 A 
ATOM     16  C   UNL A   1      45.857  21.168  37.046  1.00  0.00     0.142 A 
ATOM     17  C   UNL A   1      45.532  22.211  36.182  1.00  0.00     0.048 A 
ATOM     18  C   UNL A   1      45.780  22.054  34.824  1.00  0.00     0.004 A 
ATOM     19  C   UNL A   1      46.694  19.841  35.253  1.00  0.00     0.030 A 
ATOM     20  C   UNL A   1      46.416  20.896  34.372  1.00  0.00     0.002 A 
BRANCH  16  21
ATOM     21  O   UNL A   1      45.840  21.390  38.406  1.00  0.00    -0.492 OA
BRANCH  21  22
ATOM     22  C   UNL A   1      45.708  22.810  38.654  1.00  0.00     0.226 C 
ATOM     23  C   UNL A   1      46.835  23.321  39.541  1.00  0.00     0.049 C 
ENDBRANCH  21  22
ENDBRANCH  16  21
ENDBRANCH  10  15
ENDBRANCH   7   9
BRANCH   7  24
ATOM     24  C   UNL A   1      50.091  18.469  39.320  1.00  0.00     0.035 C 
ATOM     25  C   UNL A   1      51.187  18.682  40.355  1.00  0.00     0.007 C 
ENDBRANCH   7  24
ENDBRANCH   4   7
ENDBRANCH   2   3
ENDBRANCH   1   2
BRANCH   1  26
ATOM     26  C   UNL A   1      50.723  21.567  33.777  1.00  0.00     0.023 C 
BRANCH  26  27
ATOM     27  C   UNL A   1      49.918  22.764  34.278  1.00  0.00     0.116 C 
BRANCH  27  28
ATOM     28  N   UNL A   1      50.549  23.457  35.397  1.00  0.00    -0.352 N 
ATOM     29  C   UNL A   1      50.234  24.658  35.977  1.00  0.00     0.251 C 
ATOM     30  H   UNL A   1      51.318  22.989  35.796  1.00  0.00     0.163 HD
ATOM     31  O   UNL A   1      50.963  25.131  36.847  1.00  0.00    -0.269 OA
BRANCH  29  32
ATOM     32  C   UNL A   1      49.039  25.396  35.527  1.00  0.00     0.039 A 
ATOM     33  C   UNL A   1      49.184  26.368  34.536  1.00  0.00     0.014 A 
ATOM     34  C   UNL A   1      47.779  25.110  36.059  1.00  0.00     0.014 A 
ATOM     35  C   UNL A   1      48.052  27.002  34.024  1.00  0.00     0.010 A 
ATOM     36  C   UNL A   1      46.646  25.682  35.489  1.00  0.00     0.010 A 
ATOM     37  C   UNL A   1      46.771  26.633  34.466  1.00  0.00    -0.014 A 
BRANCH  37  38
ATOM     38  C   UNL A   1      45.555  27.222  33.852  1.00  0.00     0.031 A 
ATOM     39  C   UNL A   1      45.003  26.667  32.569  1.00  0.00     0.074 A 
ATOM     40  C   UNL A   1      44.981  28.301  34.421  1.00  0.00     0.049 A 
ATOM     41  N   UNL A   1      43.965  27.065  31.879  1.00  0.00    -0.248 NA
ATOM     42  C   UNL A   1      45.727  25.536  31.969  1.00  0.00     0.031 C 
ATOM     43  C   UNL A   1      45.451  28.966  35.640  1.00  0.00     0.029 A 
ATOM     44  N   UNL A   1      43.880  29.031  34.049  1.00  0.00    -0.354 N 
ATOM     45  C   UNL A   1      43.920  26.245  30.759  1.00  0.00     0.074 A 
ATOM     46  C   UNL A   1      45.066  25.365  30.834  1.00  0.00     0.031 C 
ATOM     47  C   UNL A   1      44.629  29.987  35.927  1.00  0.00     0.029 A 
ATOM     48  C   UNL A   1      43.600  30.078  34.895  1.00  0.00     0.049 A 
ATOM     49  H   UNL A   1      43.342  28.825  33.250  1.00  0.00     0.167 HD
ATOM     50  C   UNL A   1      42.999  26.217  29.765  1.00  0.00     0.031 A 
ATOM     51  C   UNL A   1      42.631  31.013  34.847  1.00  0.00     0.031 A 
ATOM     52  C   UNL A   1      41.865  27.099  29.691  1.00  0.00     0.049 A 
ATOM     53  C   UNL A   1      41.622  30.968  33.734  1.00  0.00     0.074 A 
ATOM     54  C   UNL A   1      40.841  27.107  28.760  1.00  0.00     0.029 A 
ATOM     55  N   UNL A   1      41.611  28.141  30.572  1.00  0.00    -0.354 N 
ATOM     56  N   UNL A   1      41.545  30.130  32.728  1.00  0.00    -0.248 NA
ATOM     57  C   UNL A   1      40.562  31.984  33.757  1.00  0.00     0.031 C 
ATOM     58  C   UNL A   1      40.005  28.193  29.040  1.00  0.00     0.029 A 
ATOM     59  C   UNL A   1      40.467  28.820  30.187  1.00  0.00     0.049 A 
ATOM     60  H   UNL A   1      42.164  28.364  31.356  1.00  0.00     0.167 HD
ATOM     61  C   UNL A   1      40.415  30.504  32.009  1.00  0.00     0.074 A 
ATOM     62  C   UNL A   1      39.834  31.634  32.706  1.00  0.00     0.031 C 
ATOM     63  C   UNL A   1      39.904  29.955  30.878  1.00  0.00     0.031 A 
BRANCH  50  64
ATOM     64  C   UNL A   1      43.208  25.210  28.661  1.00  0.00    -0.014 A 
ATOM     65  C   UNL A   1      43.770  25.583  27.425  1.00  0.00     0.010 A 
ATOM     66  C   UNL A   1      42.837  23.869  28.864  1.00  0.00     0.010 A 
ATOM     67  C   UNL A   1      43.893  24.649  26.392  1.00  0.00     0.020 A 
ATOM     68  C   UNL A   1      42.990  22.924  27.845  1.00  0.00     0.020 A 
ATOM     69  C   UNL A   1      43.493  23.327  26.606  1.00  0.00     0.054 A 
BRANCH  69  70
ATOM     70  S   UNL A   1      43.644  22.140  25.244  1.00  0.00     0.124 S 
ATOM     71  O   UNL A   1      45.003  21.636  25.434  1.00  0.00    -0.237 OA
ATOM     72  O   UNL A   1      42.576  21.187  25.529  1.00  0.00    -0.237 OA
ATOM     73  O   UNL A   1      43.445  22.956  24.048  1.00  0.00    -0.744 OA
ENDBRANCH  69  70
ENDBRANCH  50  64
BRANCH  51  74
ATOM     74  C   UNL A   1      42.573  32.057  35.905  1.00  0.00    -0.014 A 
ATOM     75  C   UNL A   1      42.059  31.760  37.179  1.00  0.00     0.010 A 
ATOM     76  C   UNL A   1      43.098  33.340  35.661  1.00  0.00     0.010 A 
ATOM     77  C   UNL A   1      42.075  32.724  38.190  1.00  0.00     0.020 A 
ATOM     78  C   UNL A   1      43.140  34.298  36.677  1.00  0.00     0.020 A 
ATOM     79  C   UNL A   1      42.626  33.984  37.937  1.00  0.00     0.054 A 
BRANCH  79  80
ATOM     80  S   UNL A   1      42.726  35.184  39.294  1.00  0.00     0.124 S 
ATOM     81  O   UNL A   1      43.643  36.181  38.753  1.00  0.00    -0.237 OA
ATOM     82  O   UNL A   1      41.337  35.611  39.436  1.00  0.00    -0.237 OA
ATOM     83  O   UNL A   1      43.243  34.396  40.411  1.00  0.00    -0.744 OA
ENDBRANCH  79  80
ENDBRANCH  51  74
BRANCH  63  84
ATOM     84  C   UNL A   1      38.636  30.554  30.326  1.00  0.00    -0.014 A 
ATOM     85  C   UNL A   1      38.663  31.676  29.479  1.00  0.00     0.010 A 
ATOM     86  C   UNL A   1      37.401  29.944  30.613  1.00  0.00     0.010 A 
ATOM     87  C   UNL A   1      37.475  32.196  28.956  1.00  0.00     0.020 A 
ATOM     88  C   UNL A   1      36.215  30.441  30.069  1.00  0.00     0.020 A 
ATOM     89  C   UNL A   1      36.259  31.574  29.252  1.00  0.00     0.054 A 
BRANCH  89  90
ATOM     90  S   UNL A   1      34.737  32.241  28.524  1.00  0.00     0.124 S 
ATOM     91  O   UNL A   1      34.148  31.054  27.912  1.00  0.00    -0.237 OA
ATOM     92  O   UNL A   1      34.029  32.765  29.690  1.00  0.00    -0.237 OA
ATOM     93  O   UNL A   1      35.215  33.254  27.586  1.00  0.00    -0.744 OA
ENDBRANCH  89  90
ENDBRANCH  63  84
ENDBRANCH  37  38
ENDBRANCH  29  32
ENDBRANCH  27  28
ENDBRANCH  26  27
ENDBRANCH   1  26
TORSDOF 19
ENDMDL
