MODEL 1
REMARK VINA RESULT:     -11.9      0.000      0.000
REMARK SMILES CC(C)n1ccc(Cn2cc(C(=O)NCCCCNC(=O)c3ccc(-c4c5nc(c(-c6ccc(S(=O)(=O)[O-])cc6)c6ccc([nH]6)c(-c6ccc(S(=O)(=O)[O-])cc6)c6nc(c(-c7ccc(S(=O)(=O)[O-])cc7)c7ccc4[nH]7)C=C6)C=C5)cc3)cc2Br)n1
REMARK SMILES IDX 16 1 15 2 14 3 12 4 13 5 11 7 9 8 10 9 83 10 82 11 84 12
REMARK SMILES IDX 8 13 7 14 4 15 5 16 85 17 6 18 2 19 1 20 3 21 17 22 18 23
REMARK SMILES IDX 19 24 20 25 21 27 22 28 23 29 81 30 24 31 80 32 25 33 26 34
REMARK SMILES IDX 27 35 74 36 28 37 79 38 73 39 75 40 29 41 78 42 72 43 71 44
REMARK SMILES IDX 30 46 60 47 41 48 59 49 42 50 45 51 58 52 76 53 43 54 44 55
REMARK SMILES IDX 57 57 77 58 46 59 31 60 32 61 40 62 33 63 39 64 34 65 35 66
REMARK SMILES IDX 36 67 37 68 38 69 61 70 62 71 70 72 63 73 69 74 64 75 65 76
REMARK SMILES IDX 66 77 67 78 68 79 47 80 48 81 56 82 49 83 55 84 50 85 51 86
REMARK SMILES IDX 52 87 53 88 54 89
REMARK H PARENT 14 6 19 26 75 45 45 56
REMARK Flexibility Score: inf
ROOT
ATOM      1  C   UNL A   1      38.806  23.311  26.542  1.00  0.00     0.023 C 
ENDROOT
BRANCH   1   2
ATOM      2  C   UNL A   1      37.435  23.653  25.946  1.00  0.00     0.116 C 
BRANCH   2   3
ATOM      3  N   UNL A   1      37.428  23.493  24.506  1.00  0.00    -0.352 N 
ATOM      4  C   UNL A   1      36.455  23.106  23.618  1.00  0.00     0.252 C 
ATOM      5  O   UNL A   1      36.763  23.099  22.426  1.00  0.00    -0.269 OA
ATOM      6  H   UNL A   1      38.290  23.703  24.080  1.00  0.00     0.163 HD
BRANCH   4   7
ATOM      7  C   UNL A   1      35.099  22.758  24.042  1.00  0.00     0.058 A 
ATOM      8  N   UNL A   1      33.270  21.709  24.830  1.00  0.00    -0.335 N 
ATOM      9  C   UNL A   1      34.505  21.522  24.236  1.00  0.00     0.101 A 
ATOM     10  C   UNL A   1      32.951  23.036  24.745  1.00  0.00     0.086 A 
ATOM     11  C   UNL A   1      34.060  23.712  24.293  1.00  0.00     0.049 A 
ATOM     12  Br  UNL A   1      31.332  23.855  25.190  1.00  0.00    -0.031 Br
BRANCH   8  13
ATOM     13  C   UNL A   1      32.465  20.638  25.410  1.00  0.00     0.180 C 
BRANCH  13  14
ATOM     14  C   UNL A   1      32.634  19.352  24.656  1.00  0.00     0.082 A 
ATOM     15  N   UNL A   1      33.100  17.304  24.296  1.00  0.00    -0.270 N 
ATOM     16  C   UNL A   1      32.636  17.769  23.099  1.00  0.00     0.109 A 
ATOM     17  N   UNL A   1      33.065  18.239  25.272  1.00  0.00    -0.176 NA
ATOM     18  C   UNL A   1      32.325  19.090  23.298  1.00  0.00     0.047 A 
BRANCH  15  19
ATOM     19  C   UNL A   1      33.505  15.938  24.621  1.00  0.00     0.101 C 
ATOM     20  C   UNL A   1      34.927  15.925  25.179  1.00  0.00     0.033 C 
ATOM     21  C   UNL A   1      32.539  15.235  25.579  1.00  0.00     0.033 C 
ENDBRANCH  15  19
ENDBRANCH  13  14
ENDBRANCH   8  13
ENDBRANCH   4   7
ENDBRANCH   2   3
ENDBRANCH   1   2
BRANCH   1  22
ATOM     22  C   UNL A   1      39.334  21.911  26.187  1.00  0.00     0.023 C 
BRANCH  22  23
ATOM     23  C   UNL A   1      40.323  21.324  27.189  1.00  0.00     0.116 C 
BRANCH  23  24
ATOM     24  N   UNL A   1      41.563  20.863  26.565  1.00  0.00    -0.352 N 
ATOM     25  C   UNL A   1      42.600  21.636  26.069  1.00  0.00     0.251 C 
ATOM     26  H   UNL A   1      41.673  19.887  26.489  1.00  0.00     0.163 HD
ATOM     27  O   UNL A   1      43.374  21.196  25.237  1.00  0.00    -0.269 OA
BRANCH  25  28
ATOM     28  C   UNL A   1      42.753  23.006  26.593  1.00  0.00     0.039 A 
ATOM     29  C   UNL A   1      42.359  24.126  25.854  1.00  0.00     0.014 A 
ATOM     30  C   UNL A   1      43.258  23.136  27.883  1.00  0.00     0.014 A 
ATOM     31  C   UNL A   1      42.388  25.379  26.467  1.00  0.00     0.010 A 
ATOM     32  C   UNL A   1      43.163  24.345  28.524  1.00  0.00     0.010 A 
ATOM     33  C   UNL A   1      42.771  25.478  27.812  1.00  0.00    -0.014 A 
BRANCH  33  34
ATOM     34  C   UNL A   1      42.655  26.734  28.548  1.00  0.00     0.031 A 
ATOM     35  C   UNL A   1      43.747  27.722  28.312  1.00  0.00     0.074 A 
ATOM     36  C   UNL A   1      41.507  27.091  29.165  1.00  0.00     0.049 A 
ATOM     37  N   UNL A   1      44.591  28.188  29.173  1.00  0.00    -0.248 NA
ATOM     38  C   UNL A   1      44.008  28.169  26.933  1.00  0.00     0.031 C 
ATOM     39  C   UNL A   1      40.240  26.350  29.213  1.00  0.00     0.029 A 
ATOM     40  N   UNL A   1      41.179  28.274  29.746  1.00  0.00    -0.354 N 
ATOM     41  C   UNL A   1      45.354  29.140  28.501  1.00  0.00     0.074 A 
ATOM     42  C   UNL A   1      45.071  28.959  27.099  1.00  0.00     0.031 C 
ATOM     43  C   UNL A   1      39.236  27.193  29.541  1.00  0.00     0.029 A 
ATOM     44  C   UNL A   1      39.810  28.479  29.893  1.00  0.00     0.049 A 
ATOM     45  H   UNL A   1      41.852  28.930  30.039  1.00  0.00     0.167 HD
ATOM     46  C   UNL A   1      45.986  30.153  29.161  1.00  0.00     0.031 A 
ATOM     47  C   UNL A   1      39.189  29.635  30.243  1.00  0.00     0.031 A 
ATOM     48  C   UNL A   1      45.982  29.942  30.585  1.00  0.00     0.049 A 
ATOM     49  C   UNL A   1      40.208  30.485  30.907  1.00  0.00     0.074 A 
ATOM     50  C   UNL A   1      46.462  28.954  31.422  1.00  0.00     0.029 A 
ATOM     51  N   UNL A   1      45.044  30.636  31.316  1.00  0.00    -0.354 N 
ATOM     52  N   UNL A   1      40.750  30.176  32.052  1.00  0.00    -0.248 NA
ATOM     53  C   UNL A   1      40.970  31.419  30.092  1.00  0.00     0.031 C 
ATOM     54  C   UNL A   1      45.446  28.789  32.407  1.00  0.00     0.029 A 
ATOM     55  C   UNL A   1      44.450  29.739  32.167  1.00  0.00     0.049 A 
ATOM     56  H   UNL A   1      44.837  31.595  31.240  1.00  0.00     0.167 HD
ATOM     57  C   UNL A   1      42.092  30.497  31.905  1.00  0.00     0.074 A 
ATOM     58  C   UNL A   1      42.146  31.360  30.725  1.00  0.00     0.031 C 
ATOM     59  C   UNL A   1      43.062  29.802  32.572  1.00  0.00     0.031 A 
BRANCH  46  60
ATOM     60  C   UNL A   1      46.272  31.514  28.574  1.00  0.00    -0.014 A 
ATOM     61  C   UNL A   1      45.259  32.497  28.613  1.00  0.00     0.010 A 
ATOM     62  C   UNL A   1      47.382  31.776  27.747  1.00  0.00     0.010 A 
ATOM     63  C   UNL A   1      45.318  33.640  27.803  1.00  0.00     0.020 A 
ATOM     64  C   UNL A   1      47.472  32.934  26.970  1.00  0.00     0.020 A 
ATOM     65  C   UNL A   1      46.420  33.840  26.973  1.00  0.00     0.054 A 
BRANCH  65  66
ATOM     66  S   UNL A   1      46.433  35.255  25.844  1.00  0.00     0.124 S 
ATOM     67  O   UNL A   1      45.550  36.193  26.530  1.00  0.00    -0.237 OA
ATOM     68  O   UNL A   1      47.847  35.617  25.817  1.00  0.00    -0.237 OA
ATOM     69  O   UNL A   1      45.912  34.701  24.597  1.00  0.00    -0.744 OA
ENDBRANCH  65  66
ENDBRANCH  46  60
BRANCH  47  70
ATOM     70  C   UNL A   1      37.856  30.141  29.833  1.00  0.00    -0.014 A 
ATOM     71  C   UNL A   1      37.008  30.781  30.755  1.00  0.00     0.010 A 
ATOM     72  C   UNL A   1      37.527  30.242  28.464  1.00  0.00     0.010 A 
ATOM     73  C   UNL A   1      35.918  31.557  30.321  1.00  0.00     0.020 A 
ATOM     74  C   UNL A   1      36.438  31.005  28.025  1.00  0.00     0.020 A 
ATOM     75  C   UNL A   1      35.655  31.684  28.955  1.00  0.00     0.054 A 
BRANCH  75  76
ATOM     76  S   UNL A   1      34.376  32.851  28.394  1.00  0.00     0.124 S 
ATOM     77  O   UNL A   1      35.135  33.759  27.541  1.00  0.00    -0.237 OA
ATOM     78  O   UNL A   1      33.430  31.977  27.706  1.00  0.00    -0.237 OA
ATOM     79  O   UNL A   1      33.879  33.437  29.638  1.00  0.00    -0.744 OA
ENDBRANCH  75  76
ENDBRANCH  47  70
BRANCH  59  80
ATOM     80  C   UNL A   1      42.637  28.834  33.657  1.00  0.00    -0.014 A 
ATOM     81  C   UNL A   1      42.358  27.471  33.424  1.00  0.00     0.010 A 
ATOM     82  C   UNL A   1      42.672  29.287  34.986  1.00  0.00     0.010 A 
ATOM     83  C   UNL A   1      42.085  26.599  34.489  1.00  0.00     0.020 A 
ATOM     84  C   UNL A   1      42.424  28.420  36.054  1.00  0.00     0.020 A 
ATOM     85  C   UNL A   1      42.117  27.083  35.800  1.00  0.00     0.054 A 
BRANCH  85  86
ATOM     86  S   UNL A   1      41.793  25.948  37.177  1.00  0.00     0.124 S 
ATOM     87  O   UNL A   1      42.803  26.340  38.156  1.00  0.00    -0.237 OA
ATOM     88  O   UNL A   1      40.412  26.259  37.540  1.00  0.00    -0.237 OA
ATOM     89  O   UNL A   1      41.985  24.623  36.589  1.00  0.00    -0.744 OA
ENDBRANCH  85  86
ENDBRANCH  59  80
ENDBRANCH  33  34
ENDBRANCH  25  28
ENDBRANCH  23  24
ENDBRANCH  22  23
ENDBRANCH   1  22
TORSDOF 17
ENDMDL
MODEL 2
REMARK VINA RESULT:     -11.3      1.471      3.004
REMARK SMILES CC(C)n1ccc(Cn2cc(C(=O)NCCCCNC(=O)c3ccc(-c4c5nc(c(-c6ccc(S(=O)(=O)[O-])cc6)c6ccc([nH]6)c(-c6ccc(S(=O)(=O)[O-])cc6)c6nc(c(-c7ccc(S(=O)(=O)[O-])cc7)c7ccc4[nH]7)C=C6)C=C5)cc3)cc2Br)n1
REMARK SMILES IDX 16 1 15 2 14 3 12 4 13 5 11 7 9 8 10 9 83 10 82 11 84 12
REMARK SMILES IDX 8 13 7 14 4 15 5 16 85 17 6 18 2 19 1 20 3 21 17 22 18 23
REMARK SMILES IDX 19 24 20 25 21 27 22 28 23 29 81 30 24 31 80 32 25 33 26 34
REMARK SMILES IDX 27 35 74 36 28 37 79 38 73 39 75 40 29 41 78 42 72 43 71 44
REMARK SMILES IDX 30 46 60 47 41 48 59 49 42 50 45 51 58 52 76 53 43 54 44 55
REMARK SMILES IDX 57 57 77 58 46 59 31 60 32 61 40 62 33 63 39 64 34 65 35 66
REMARK SMILES IDX 36 67 37 68 38 69 61 70 62 71 70 72 63 73 69 74 64 75 65 76
REMARK SMILES IDX 66 77 67 78 68 79 47 80 48 81 56 82 49 83 55 84 50 85 51 86
REMARK SMILES IDX 52 87 53 88 54 89
REMARK H PARENT 14 6 19 26 75 45 45 56
REMARK Flexibility Score: inf
ROOT
ATOM      1  C   UNL A   1      39.257  22.930  26.455  1.00  0.00     0.023 C 
ENDROOT
BRANCH   1   2
ATOM      2  C   UNL A   1      37.811  23.261  26.067  1.00  0.00     0.116 C 
BRANCH   2   3
ATOM      3  N   UNL A   1      37.622  23.200  24.631  1.00  0.00    -0.352 N 
ATOM      4  C   UNL A   1      36.577  22.773  23.849  1.00  0.00     0.252 C 
ATOM      5  O   UNL A   1      36.717  22.880  22.631  1.00  0.00    -0.269 OA
ATOM      6  H   UNL A   1      38.392  23.530  24.116  1.00  0.00     0.163 HD
BRANCH   4   7
ATOM      7  C   UNL A   1      35.333  22.254  24.416  1.00  0.00     0.058 A 
ATOM      8  N   UNL A   1      33.221  21.994  25.149  1.00  0.00    -0.335 N 
ATOM      9  C   UNL A   1      34.221  22.918  24.908  1.00  0.00     0.101 A 
ATOM     10  C   UNL A   1      33.772  20.744  25.100  1.00  0.00     0.086 A 
ATOM     11  C   UNL A   1      35.057  20.864  24.626  1.00  0.00     0.049 A 
ATOM     12  Br  UNL A   1      32.963  19.118  25.539  1.00  0.00    -0.031 Br
BRANCH   8  13
ATOM     13  C   UNL A   1      31.831  22.341  25.434  1.00  0.00     0.180 C 
BRANCH  13  14
ATOM     14  C   UNL A   1      31.381  23.521  24.625  1.00  0.00     0.082 A 
ATOM     15  N   UNL A   1      30.932  25.547  24.142  1.00  0.00    -0.270 N 
ATOM     16  C   UNL A   1      30.677  24.853  22.995  1.00  0.00     0.109 A 
ATOM     17  N   UNL A   1      31.407  24.762  25.136  1.00  0.00    -0.176 NA
ATOM     18  C   UNL A   1      30.957  23.540  23.272  1.00  0.00     0.047 A 
BRANCH  15  19
ATOM     19  C   UNL A   1      30.846  26.992  24.345  1.00  0.00     0.101 C 
ATOM     20  C   UNL A   1      29.511  27.522  23.824  1.00  0.00     0.033 C 
ATOM     21  C   UNL A   1      31.066  27.411  25.801  1.00  0.00     0.033 C 
ENDBRANCH  15  19
ENDBRANCH  13  14
ENDBRANCH   8  13
ENDBRANCH   4   7
ENDBRANCH   2   3
ENDBRANCH   1   2
BRANCH   1  22
ATOM     22  C   UNL A   1      39.632  21.443  26.345  1.00  0.00     0.023 C 
BRANCH  22  23
ATOM     23  C   UNL A   1      40.727  20.983  27.304  1.00  0.00     0.116 C 
BRANCH  23  24
ATOM     24  N   UNL A   1      41.945  20.557  26.617  1.00  0.00    -0.352 N 
ATOM     25  C   UNL A   1      42.926  21.358  26.055  1.00  0.00     0.251 C 
ATOM     26  H   UNL A   1      42.085  19.584  26.545  1.00  0.00     0.163 HD
ATOM     27  O   UNL A   1      43.667  20.933  25.186  1.00  0.00    -0.269 OA
BRANCH  25  28
ATOM     28  C   UNL A   1      43.060  22.738  26.554  1.00  0.00     0.039 A 
ATOM     29  C   UNL A   1      42.650  23.840  25.796  1.00  0.00     0.014 A 
ATOM     30  C   UNL A   1      43.564  22.898  27.841  1.00  0.00     0.014 A 
ATOM     31  C   UNL A   1      42.663  25.104  26.386  1.00  0.00     0.010 A 
ATOM     32  C   UNL A   1      43.453  24.117  28.460  1.00  0.00     0.010 A 
ATOM     33  C   UNL A   1      43.045  25.232  27.729  1.00  0.00    -0.014 A 
BRANCH  33  34
ATOM     34  C   UNL A   1      42.912  26.499  28.443  1.00  0.00     0.031 A 
ATOM     35  C   UNL A   1      43.996  27.493  28.198  1.00  0.00     0.074 A 
ATOM     36  C   UNL A   1      41.756  26.855  29.046  1.00  0.00     0.049 A 
ATOM     37  N   UNL A   1      44.829  27.982  29.057  1.00  0.00    -0.248 NA
ATOM     38  C   UNL A   1      44.262  27.919  26.813  1.00  0.00     0.031 C 
ATOM     39  C   UNL A   1      40.495  26.103  29.097  1.00  0.00     0.029 A 
ATOM     40  N   UNL A   1      41.412  28.045  29.604  1.00  0.00    -0.354 N 
ATOM     41  C   UNL A   1      45.588  28.930  28.373  1.00  0.00     0.074 A 
ATOM     42  C   UNL A   1      45.317  28.722  26.973  1.00  0.00     0.031 C 
ATOM     43  C   UNL A   1      39.482  26.942  29.404  1.00  0.00     0.029 A 
ATOM     44  C   UNL A   1      40.041  28.240  29.738  1.00  0.00     0.049 A 
ATOM     45  H   UNL A   1      42.078  28.712  29.891  1.00  0.00     0.167 HD
ATOM     46  C   UNL A   1      46.206  29.960  29.020  1.00  0.00     0.031 A 
ATOM     47  C   UNL A   1      39.407  29.395  30.065  1.00  0.00     0.031 A 
ATOM     48  C   UNL A   1      46.194  29.773  30.448  1.00  0.00     0.049 A 
ATOM     49  C   UNL A   1      40.412  30.266  30.721  1.00  0.00     0.074 A 
ATOM     50  C   UNL A   1      46.677  28.804  31.305  1.00  0.00     0.029 A 
ATOM     51  N   UNL A   1      45.243  30.470  31.160  1.00  0.00    -0.354 N 
ATOM     52  N   UNL A   1      40.949  29.982  31.875  1.00  0.00    -0.248 NA
ATOM     53  C   UNL A   1      41.171  31.193  29.895  1.00  0.00     0.031 C 
ATOM     54  C   UNL A   1      45.656  28.646  32.286  1.00  0.00     0.029 A 
ATOM     55  C   UNL A   1      44.652  29.582  32.023  1.00  0.00     0.049 A 
ATOM     56  H   UNL A   1      45.028  31.426  31.067  1.00  0.00     0.167 HD
ATOM     57  C   UNL A   1      42.289  30.313  31.732  1.00  0.00     0.074 A 
ATOM     58  C   UNL A   1      42.344  31.156  30.538  1.00  0.00     0.031 C 
ATOM     59  C   UNL A   1      43.261  29.638  32.417  1.00  0.00     0.031 A 
BRANCH  46  60
ATOM     60  C   UNL A   1      46.483  31.314  28.413  1.00  0.00    -0.014 A 
ATOM     61  C   UNL A   1      45.448  32.274  28.393  1.00  0.00     0.010 A 
ATOM     62  C   UNL A   1      47.616  31.581  27.619  1.00  0.00     0.010 A 
ATOM     63  C   UNL A   1      45.512  33.400  27.560  1.00  0.00     0.020 A 
ATOM     64  C   UNL A   1      47.708  32.723  26.818  1.00  0.00     0.020 A 
ATOM     65  C   UNL A   1      46.638  33.605  26.765  1.00  0.00     0.054 A 
BRANCH  65  66
ATOM     66  S   UNL A   1      46.660  34.995  25.604  1.00  0.00     0.124 S 
ATOM     67  O   UNL A   1      45.762  34.523  24.555  1.00  0.00    -0.237 OA
ATOM     68  O   UNL A   1      46.158  36.092  26.425  1.00  0.00    -0.237 OA
ATOM     69  O   UNL A   1      48.067  35.099  25.224  1.00  0.00    -0.744 OA
ENDBRANCH  65  66
ENDBRANCH  46  60
BRANCH  47  70
ATOM     70  C   UNL A   1      38.071  29.881  29.636  1.00  0.00    -0.014 A 
ATOM     71  C   UNL A   1      37.109  30.285  30.580  1.00  0.00     0.010 A 
ATOM     72  C   UNL A   1      37.837  30.211  28.284  1.00  0.00     0.010 A 
ATOM     73  C   UNL A   1      35.997  31.056  30.199  1.00  0.00     0.020 A 
ATOM     74  C   UNL A   1      36.727  30.971  27.895  1.00  0.00     0.020 A 
ATOM     75  C   UNL A   1      35.827  31.415  28.859  1.00  0.00     0.054 A 
BRANCH  75  76
ATOM     76  S   UNL A   1      34.505  32.581  28.407  1.00  0.00     0.124 S 
ATOM     77  O   UNL A   1      34.059  33.068  29.707  1.00  0.00    -0.237 OA
ATOM     78  O   UNL A   1      35.209  33.552  27.574  1.00  0.00    -0.237 OA
ATOM     79  O   UNL A   1      33.540  31.745  27.693  1.00  0.00    -0.744 OA
ENDBRANCH  75  76
ENDBRANCH  47  70
BRANCH  59  80
ATOM     80  C   UNL A   1      42.837  28.685  33.515  1.00  0.00    -0.014 A 
ATOM     81  C   UNL A   1      42.756  27.287  33.349  1.00  0.00     0.010 A 
ATOM     82  C   UNL A   1      42.665  29.212  34.806  1.00  0.00     0.010 A 
ATOM     83  C   UNL A   1      42.473  26.447  34.437  1.00  0.00     0.020 A 
ATOM     84  C   UNL A   1      42.405  28.380  35.899  1.00  0.00     0.020 A 
ATOM     85  C   UNL A   1      42.296  27.002  35.707  1.00  0.00     0.054 A 
BRANCH  85  86
ATOM     86  S   UNL A   1      41.959  25.913  37.118  1.00  0.00     0.124 S 
ATOM     87  O   UNL A   1      40.555  26.192  37.406  1.00  0.00    -0.237 OA
ATOM     88  O   UNL A   1      42.239  24.584  36.579  1.00  0.00    -0.237 OA
ATOM     89  O   UNL A   1      42.901  26.367  38.140  1.00  0.00    -0.744 OA
ENDBRANCH  85  86
ENDBRANCH  59  80
ENDBRANCH  33  34
ENDBRANCH  25  28
ENDBRANCH  23  24
ENDBRANCH  22  23
ENDBRANCH   1  22
TORSDOF 17
ENDMDL
MODEL 3
REMARK VINA RESULT:     -11.2      3.083      8.325
REMARK SMILES CC(C)n1ccc(Cn2cc(C(=O)NCCCCNC(=O)c3ccc(-c4c5nc(c(-c6ccc(S(=O)(=O)[O-])cc6)c6ccc([nH]6)c(-c6ccc(S(=O)(=O)[O-])cc6)c6nc(c(-c7ccc(S(=O)(=O)[O-])cc7)c7ccc4[nH]7)C=C6)C=C5)cc3)cc2Br)n1
REMARK SMILES IDX 16 1 15 2 14 3 12 4 13 5 11 7 9 8 10 9 83 10 82 11 84 12
REMARK SMILES IDX 8 13 7 14 4 15 5 16 85 17 6 18 2 19 1 20 3 21 17 22 18 23
REMARK SMILES IDX 19 24 20 25 21 27 22 28 23 29 81 30 24 31 80 32 25 33 26 34
REMARK SMILES IDX 27 35 74 36 28 37 79 38 73 39 75 40 29 41 78 42 72 43 71 44
REMARK SMILES IDX 30 46 60 47 41 48 59 49 42 50 45 51 58 52 76 53 43 54 44 55
REMARK SMILES IDX 57 57 77 58 46 59 31 60 32 61 40 62 33 63 39 64 34 65 35 66
REMARK SMILES IDX 36 67 37 68 38 69 61 70 62 71 70 72 63 73 69 74 64 75 65 76
REMARK SMILES IDX 66 77 67 78 68 79 47 80 48 81 56 82 49 83 55 84 50 85 51 86
REMARK SMILES IDX 52 87 53 88 54 89
REMARK H PARENT 14 6 19 26 75 45 45 56
REMARK Flexibility Score: inf
ROOT
ATOM      1  C   UNL A   1      36.360  21.176  24.762  1.00  0.00     0.023 C 
ENDROOT
BRANCH   1   2
ATOM      2  C   UNL A   1      35.327  21.325  25.886  1.00  0.00     0.116 C 
BRANCH   2   3
ATOM      3  N   UNL A   1      34.218  20.410  25.710  1.00  0.00    -0.352 N 
ATOM      4  C   UNL A   1      32.965  20.561  25.168  1.00  0.00     0.252 C 
ATOM      5  O   UNL A   1      32.250  19.560  25.139  1.00  0.00    -0.269 OA
ATOM      6  H   UNL A   1      34.397  19.502  26.044  1.00  0.00     0.163 HD
BRANCH   4   7
ATOM      7  C   UNL A   1      32.501  21.829  24.606  1.00  0.00     0.058 A 
ATOM      8  N   UNL A   1      31.538  23.835  24.273  1.00  0.00    -0.335 N 
ATOM      9  C   UNL A   1      31.455  22.653  24.985  1.00  0.00     0.101 A 
ATOM     10  C   UNL A   1      32.430  23.659  23.252  1.00  0.00     0.086 A 
ATOM     11  C   UNL A   1      33.060  22.451  23.442  1.00  0.00     0.049 A 
ATOM     12  Br  UNL A   1      32.809  24.829  21.846  1.00  0.00    -0.031 Br
BRANCH   8  13
ATOM     13  C   UNL A   1      30.763  25.035  24.576  1.00  0.00     0.180 C 
BRANCH  13  14
ATOM     14  C   UNL A   1      31.592  26.059  25.293  1.00  0.00     0.082 A 
ATOM     15  N   UNL A   1      32.136  27.933  26.150  1.00  0.00    -0.270 N 
ATOM     16  C   UNL A   1      33.182  27.104  26.438  1.00  0.00     0.109 A 
ATOM     17  N   UNL A   1      31.134  27.306  25.493  1.00  0.00    -0.176 NA
ATOM     18  C   UNL A   1      32.862  25.884  25.899  1.00  0.00     0.047 A 
BRANCH  15  19
ATOM     19  C   UNL A   1      31.967  29.325  26.561  1.00  0.00     0.101 C 
ATOM     20  C   UNL A   1      33.274  29.871  27.135  1.00  0.00     0.033 C 
ATOM     21  C   UNL A   1      31.450  30.226  25.436  1.00  0.00     0.033 C 
ENDBRANCH  15  19
ENDBRANCH  13  14
ENDBRANCH   8  13
ENDBRANCH   4   7
ENDBRANCH   2   3
ENDBRANCH   1   2
BRANCH   1  22
ATOM     22  C   UNL A   1      37.381  20.045  24.968  1.00  0.00     0.023 C 
BRANCH  22  23
ATOM     23  C   UNL A   1      38.718  20.486  25.556  1.00  0.00     0.116 C 
BRANCH  23  24
ATOM     24  N   UNL A   1      39.640  19.373  25.778  1.00  0.00    -0.352 N 
ATOM     25  C   UNL A   1      41.003  19.436  26.021  1.00  0.00     0.251 C 
ATOM     26  H   UNL A   1      39.246  18.471  25.751  1.00  0.00     0.163 HD
ATOM     27  O   UNL A   1      41.729  18.484  25.799  1.00  0.00    -0.269 OA
BRANCH  25  28
ATOM     28  C   UNL A   1      41.547  20.689  26.576  1.00  0.00     0.039 A 
ATOM     29  C   UNL A   1      42.240  21.609  25.782  1.00  0.00     0.014 A 
ATOM     30  C   UNL A   1      41.296  20.945  27.921  1.00  0.00     0.014 A 
ATOM     31  C   UNL A   1      42.594  22.840  26.333  1.00  0.00     0.010 A 
ATOM     32  C   UNL A   1      41.528  22.201  28.421  1.00  0.00     0.010 A 
ATOM     33  C   UNL A   1      42.214  23.138  27.649  1.00  0.00    -0.014 A 
BRANCH  33  34
ATOM     34  C   UNL A   1      42.408  24.471  28.215  1.00  0.00     0.031 A 
ATOM     35  C   UNL A   1      41.305  25.444  27.966  1.00  0.00     0.074 A 
ATOM     36  C   UNL A   1      43.366  24.717  29.136  1.00  0.00     0.049 A 
ATOM     37  N   UNL A   1      41.367  26.556  27.310  1.00  0.00    -0.248 NA
ATOM     38  C   UNL A   1      39.943  25.093  28.402  1.00  0.00     0.031 C 
ATOM     39  C   UNL A   1      44.329  23.770  29.713  1.00  0.00     0.029 A 
ATOM     40  N   UNL A   1      43.577  25.838  29.874  1.00  0.00    -0.354 N 
ATOM     41  C   UNL A   1      40.112  27.149  27.424  1.00  0.00     0.074 A 
ATOM     42  C   UNL A   1      39.237  26.132  27.950  1.00  0.00     0.031 C 
ATOM     43  C   UNL A   1      44.817  24.271  30.869  1.00  0.00     0.029 A 
ATOM     44  C   UNL A   1      44.340  25.633  31.020  1.00  0.00     0.049 A 
ATOM     45  H   UNL A   1      43.221  26.720  29.620  1.00  0.00     0.167 HD
ATOM     46  C   UNL A   1      39.937  28.496  27.291  1.00  0.00     0.031 A 
ATOM     47  C   UNL A   1      44.535  26.508  32.040  1.00  0.00     0.031 A 
ATOM     48  C   UNL A   1      41.118  29.135  26.769  1.00  0.00     0.049 A 
ATOM     49  C   UNL A   1      44.217  27.858  31.513  1.00  0.00     0.074 A 
ATOM     50  C   UNL A   1      41.858  29.009  25.611  1.00  0.00     0.029 A 
ATOM     51  N   UNL A   1      41.936  29.769  27.677  1.00  0.00    -0.354 N 
ATOM     52  N   UNL A   1      44.928  28.443  30.589  1.00  0.00    -0.248 NA
ATOM     53  C   UNL A   1      42.858  28.358  31.660  1.00  0.00     0.031 C 
ATOM     54  C   UNL A   1      43.215  29.108  26.036  1.00  0.00     0.029 A 
ATOM     55  C   UNL A   1      43.222  29.373  27.408  1.00  0.00     0.049 A 
ATOM     56  H   UNL A   1      41.652  30.390  28.386  1.00  0.00     0.167 HD
ATOM     57  C   UNL A   1      43.995  29.039  29.751  1.00  0.00     0.074 A 
ATOM     58  C   UNL A   1      42.751  29.050  30.521  1.00  0.00     0.031 C 
ATOM     59  C   UNL A   1      44.245  29.199  28.417  1.00  0.00     0.031 A 
BRANCH  46  60
ATOM     60  C   UNL A   1      38.857  29.295  27.980  1.00  0.00    -0.014 A 
ATOM     61  C   UNL A   1      37.618  29.469  27.326  1.00  0.00     0.010 A 
ATOM     62  C   UNL A   1      39.103  30.107  29.105  1.00  0.00     0.010 A 
ATOM     63  C   UNL A   1      36.712  30.460  27.729  1.00  0.00     0.020 A 
ATOM     64  C   UNL A   1      38.186  31.067  29.542  1.00  0.00     0.020 A 
ATOM     65  C   UNL A   1      37.014  31.264  28.827  1.00  0.00     0.054 A 
BRANCH  65  66
ATOM     66  S   UNL A   1      35.895  32.618  29.266  1.00  0.00     0.124 S 
ATOM     67  O   UNL A   1      36.772  33.492  30.038  1.00  0.00    -0.237 OA
ATOM     68  O   UNL A   1      35.487  33.121  27.958  1.00  0.00    -0.237 OA
ATOM     69  O   UNL A   1      34.841  31.955  30.030  1.00  0.00    -0.744 OA
ENDBRANCH  65  66
ENDBRANCH  46  60
BRANCH  47  70
ATOM     70  C   UNL A   1      44.742  26.231  33.483  1.00  0.00    -0.014 A 
ATOM     71  C   UNL A   1      45.485  27.111  34.292  1.00  0.00     0.010 A 
ATOM     72  C   UNL A   1      43.976  25.239  34.131  1.00  0.00     0.010 A 
ATOM     73  C   UNL A   1      45.403  27.051  35.694  1.00  0.00     0.020 A 
ATOM     74  C   UNL A   1      43.896  25.168  35.527  1.00  0.00     0.020 A 
ATOM     75  C   UNL A   1      44.588  26.094  36.303  1.00  0.00     0.054 A 
BRANCH  75  76
ATOM     76  S   UNL A   1      44.326  26.155  38.103  1.00  0.00     0.124 S 
ATOM     77  O   UNL A   1      45.242  27.212  38.516  1.00  0.00    -0.237 OA
ATOM     78  O   UNL A   1      42.904  26.473  38.205  1.00  0.00    -0.237 OA
ATOM     79  O   UNL A   1      44.688  24.811  38.548  1.00  0.00    -0.744 OA
ENDBRANCH  75  76
ENDBRANCH  47  70
BRANCH  59  80
ATOM     80  C   UNL A   1      45.647  28.935  27.910  1.00  0.00    -0.014 A 
ATOM     81  C   UNL A   1      46.637  29.932  27.792  1.00  0.00     0.010 A 
ATOM     82  C   UNL A   1      46.021  27.598  27.692  1.00  0.00     0.010 A 
ATOM     83  C   UNL A   1      47.952  29.603  27.429  1.00  0.00     0.020 A 
ATOM     84  C   UNL A   1      47.334  27.260  27.352  1.00  0.00     0.020 A 
ATOM     85  C   UNL A   1      48.290  28.265  27.208  1.00  0.00     0.054 A 
BRANCH  85  86
ATOM     86  S   UNL A   1      49.997  27.838  26.768  1.00  0.00     0.124 S 
ATOM     87  O   UNL A   1      50.336  28.860  25.781  1.00  0.00    -0.237 OA
ATOM     88  O   UNL A   1      50.700  27.941  28.045  1.00  0.00    -0.237 OA
ATOM     89  O   UNL A   1      49.891  26.479  26.239  1.00  0.00    -0.744 OA
ENDBRANCH  85  86
ENDBRANCH  59  80
ENDBRANCH  33  34
ENDBRANCH  25  28
ENDBRANCH  23  24
ENDBRANCH  22  23
ENDBRANCH   1  22
TORSDOF 17
ENDMDL
