MODEL 1
REMARK VINA RESULT:     -10.3      0.000      0.000
REMARK SMILES COC(=O)[C@@H]([NH2+]CC(C)(C)C(=O)NCCCCNC(=O)c1ccc(-c2c3nc(c(-c4ccc(S(=O)(=O)[O-])cc4)c4ccc([nH]4)c(-c4ccc(S(=O)(=O)[O-])cc4)c4nc(c(-c5ccc(S(=O)(=O)[O-])cc5)c5ccc2[nH]5)C=C4)C=C3)cc1)c1ccccc1
REMARK SMILES IDX 14 1 13 2 11 3 12 4 8 6 9 7 10 8 7 9 6 10 5 13 3 14 4 15
REMARK SMILES IDX 2 16 1 17 81 18 82 19 86 20 83 21 85 22 84 23 15 24 16 25
REMARK SMILES IDX 17 26 18 27 19 28 20 30 21 31 22 32 80 33 23 34 79 35 24 36
REMARK SMILES IDX 25 37 26 38 73 39 27 40 78 41 72 42 74 43 28 44 77 45 71 46
REMARK SMILES IDX 70 47 29 49 59 50 40 51 58 52 41 53 44 54 57 55 75 56 42 57
REMARK SMILES IDX 43 58 56 60 76 61 45 62 30 63 31 64 39 65 32 66 38 67 33 68
REMARK SMILES IDX 34 69 35 70 36 71 37 72 60 73 61 74 69 75 62 76 68 77 63 78
REMARK SMILES IDX 64 79 65 80 66 81 67 82 46 83 47 84 55 85 48 86 54 87 49 88
REMARK SMILES IDX 50 89 51 90 52 91 53 92
REMARK H PARENT 13 5 6 11 6 12 18 29 74 48 44 59
REMARK Flexibility Score: inf
ROOT
ATOM      1  C   UNL A   1      39.481  21.843  26.067  1.00  0.00     0.116 C 
ENDROOT
BRANCH   1   2
ATOM      2  N   UNL A   1      38.338  22.607  26.522  1.00  0.00    -0.355 N 
ATOM      3  C   UNL A   1      37.263  23.027  25.805  1.00  0.00     0.231 C 
ATOM      4  O   UNL A   1      36.968  24.211  25.965  1.00  0.00    -0.274 OA
ATOM      5  H   UNL A   1      38.340  22.854  27.476  1.00  0.00     0.163 HD
BRANCH   3   6
ATOM      6  C   UNL A   1      36.509  22.111  24.826  1.00  0.00     0.092 C 
ATOM      7  C   UNL A   1      37.056  20.673  24.835  1.00  0.00     0.027 C 
ATOM      8  C   UNL A   1      36.639  22.733  23.418  1.00  0.00     0.027 C 
BRANCH   6   9
ATOM      9  C   UNL A   1      34.966  22.056  25.136  1.00  0.00     0.277 C 
BRANCH   9  10
ATOM     10  N   UNL A   1      34.095  23.231  25.008  1.00  0.00    -0.330 N 
ATOM     11  H   UNL A   1      34.610  23.926  24.467  1.00  0.00     0.347 HD
ATOM     12  H   UNL A   1      33.244  22.861  24.584  1.00  0.00     0.347 HD
BRANCH  10  13
ATOM     13  C   UNL A   1      33.609  23.912  26.248  1.00  0.00     0.324 C 
BRANCH  13  14
ATOM     14  C   UNL A   1      32.518  22.978  26.853  1.00  0.00     0.369 C 
ATOM     15  O   UNL A   1      32.490  22.638  28.032  1.00  0.00    -0.245 OA
BRANCH  14  16
ATOM     16  O   UNL A   1      31.647  22.507  25.909  1.00  0.00    -0.464 OA
ATOM     17  C   UNL A   1      30.276  22.554  26.304  1.00  0.00     0.282 C 
ENDBRANCH  14  16
ENDBRANCH  13  14
BRANCH  13  18
ATOM     18  C   UNL A   1      33.163  25.387  26.124  1.00  0.00     0.021 A 
ATOM     19  C   UNL A   1      33.984  26.389  25.574  1.00  0.00     0.010 A 
ATOM     20  C   UNL A   1      31.840  25.777  26.409  1.00  0.00     0.010 A 
ATOM     21  C   UNL A   1      33.526  27.701  25.375  1.00  0.00     0.001 A 
ATOM     22  C   UNL A   1      31.378  27.084  26.225  1.00  0.00     0.001 A 
ATOM     23  C   UNL A   1      32.225  28.050  25.709  1.00  0.00     0.000 A 
ENDBRANCH  13  18
ENDBRANCH  10  13
ENDBRANCH   9  10
ENDBRANCH   6   9
ENDBRANCH   3   6
ENDBRANCH   1   2
BRANCH   1  24
ATOM     24  C   UNL A   1      40.526  21.725  27.180  1.00  0.00     0.023 C 
BRANCH  24  25
ATOM     25  C   UNL A   1      41.971  21.998  26.743  1.00  0.00     0.023 C 
BRANCH  25  26
ATOM     26  C   UNL A   1      42.478  23.413  27.005  1.00  0.00     0.116 C 
BRANCH  26  27
ATOM     27  N   UNL A   1      42.105  24.351  25.956  1.00  0.00    -0.352 N 
ATOM     28  C   UNL A   1      41.652  25.642  26.069  1.00  0.00     0.251 C 
ATOM     29  H   UNL A   1      42.189  24.011  25.036  1.00  0.00     0.163 HD
ATOM     30  O   UNL A   1      41.279  26.254  25.073  1.00  0.00    -0.269 OA
BRANCH  28  31
ATOM     31  C   UNL A   1      41.579  26.268  27.403  1.00  0.00     0.039 A 
ATOM     32  C   UNL A   1      42.540  27.219  27.751  1.00  0.00     0.014 A 
ATOM     33  C   UNL A   1      40.536  25.957  28.279  1.00  0.00     0.014 A 
ATOM     34  C   UNL A   1      42.406  27.926  28.947  1.00  0.00     0.010 A 
ATOM     35  C   UNL A   1      40.373  26.701  29.444  1.00  0.00     0.010 A 
ATOM     36  C   UNL A   1      41.295  27.706  29.777  1.00  0.00    -0.014 A 
BRANCH  36  37
ATOM     37  C   UNL A   1      41.046  28.551  30.971  1.00  0.00     0.031 A 
ATOM     38  C   UNL A   1      39.958  29.586  30.954  1.00  0.00     0.074 A 
ATOM     39  C   UNL A   1      41.865  28.443  32.037  1.00  0.00     0.049 A 
ATOM     40  N   UNL A   1      39.658  30.479  31.861  1.00  0.00    -0.248 NA
ATOM     41  C   UNL A   1      39.110  29.638  29.752  1.00  0.00     0.031 C 
ATOM     42  C   UNL A   1      42.984  27.504  32.155  1.00  0.00     0.029 A 
ATOM     43  N   UNL A   1      41.895  29.144  33.217  1.00  0.00    -0.354 N 
ATOM     44  C   UNL A   1      38.602  31.212  31.336  1.00  0.00     0.074 A 
ATOM     45  C   UNL A   1      38.336  30.682  30.016  1.00  0.00     0.031 C 
ATOM     46  C   UNL A   1      43.581  27.679  33.345  1.00  0.00     0.029 A 
ATOM     47  C   UNL A   1      42.919  28.768  34.055  1.00  0.00     0.049 A 
ATOM     48  H   UNL A   1      41.246  29.848  33.443  1.00  0.00     0.167 HD
ATOM     49  C   UNL A   1      37.912  32.227  31.906  1.00  0.00     0.031 A 
ATOM     50  C   UNL A   1      43.296  29.257  35.252  1.00  0.00     0.031 A 
ATOM     51  C   UNL A   1      38.174  32.743  33.222  1.00  0.00     0.049 A 
ATOM     52  C   UNL A   1      42.525  30.398  35.854  1.00  0.00     0.074 A 
ATOM     53  C   UNL A   1      37.482  33.721  33.916  1.00  0.00     0.029 A 
ATOM     54  N   UNL A   1      39.215  32.332  34.042  1.00  0.00    -0.354 N 
ATOM     55  N   UNL A   1      41.481  31.028  35.374  1.00  0.00    -0.248 NA
ATOM     56  C   UNL A   1      42.982  30.893  37.161  1.00  0.00     0.031 C 
ATOM     57  C   UNL A   1      38.134  33.936  35.135  1.00  0.00     0.029 A 
ATOM     58  C   UNL A   1      39.203  33.058  35.219  1.00  0.00     0.049 A 
ATOM     59  H   UNL A   1      39.865  31.628  33.818  1.00  0.00     0.167 HD
ATOM     60  C   UNL A   1      41.149  31.986  36.324  1.00  0.00     0.074 A 
ATOM     61  C   UNL A   1      42.090  31.841  37.415  1.00  0.00     0.031 C 
ATOM     62  C   UNL A   1      40.153  32.906  36.293  1.00  0.00     0.031 A 
BRANCH  49  63
ATOM     63  C   UNL A   1      36.804  32.853  31.101  1.00  0.00    -0.014 A 
ATOM     64  C   UNL A   1      35.458  32.700  31.479  1.00  0.00     0.010 A 
ATOM     65  C   UNL A   1      37.116  33.639  29.977  1.00  0.00     0.010 A 
ATOM     66  C   UNL A   1      34.441  33.291  30.725  1.00  0.00     0.020 A 
ATOM     67  C   UNL A   1      36.102  34.250  29.234  1.00  0.00     0.020 A 
ATOM     68  C   UNL A   1      34.769  34.058  29.604  1.00  0.00     0.054 A 
BRANCH  68  69
ATOM     69  S   UNL A   1      33.429  34.830  28.656  1.00  0.00     0.124 S 
ATOM     70  O   UNL A   1      34.072  36.045  28.162  1.00  0.00    -0.237 OA
ATOM     71  O   UNL A   1      33.129  33.822  27.644  1.00  0.00    -0.237 OA
ATOM     72  O   UNL A   1      32.379  35.042  29.650  1.00  0.00    -0.744 OA
ENDBRANCH  68  69
ENDBRANCH  49  63
BRANCH  50  73
ATOM     73  C   UNL A   1      44.468  28.671  35.955  1.00  0.00    -0.014 A 
ATOM     74  C   UNL A   1      44.300  27.598  36.848  1.00  0.00     0.010 A 
ATOM     75  C   UNL A   1      45.763  29.171  35.722  1.00  0.00     0.010 A 
ATOM     76  C   UNL A   1      45.404  27.043  37.502  1.00  0.00     0.020 A 
ATOM     77  C   UNL A   1      46.871  28.604  36.356  1.00  0.00     0.020 A 
ATOM     78  C   UNL A   1      46.682  27.549  37.252  1.00  0.00     0.054 A 
BRANCH  78  79
ATOM     79  S   UNL A   1      48.107  26.775  38.068  1.00  0.00     0.124 S 
ATOM     80  O   UNL A   1      47.894  25.362  37.774  1.00  0.00    -0.237 OA
ATOM     81  O   UNL A   1      49.239  27.399  37.387  1.00  0.00    -0.237 OA
ATOM     82  O   UNL A   1      47.946  27.157  39.469  1.00  0.00    -0.744 OA
ENDBRANCH  78  79
ENDBRANCH  50  73
BRANCH  62  83
ATOM     83  C   UNL A   1      40.021  33.823  37.477  1.00  0.00    -0.014 A 
ATOM     84  C   UNL A   1      40.751  35.022  37.544  1.00  0.00     0.010 A 
ATOM     85  C   UNL A   1      39.102  33.517  38.498  1.00  0.00     0.010 A 
ATOM     86  C   UNL A   1      40.576  35.895  38.621  1.00  0.00     0.020 A 
ATOM     87  C   UNL A   1      38.908  34.399  39.564  1.00  0.00     0.020 A 
ATOM     88  C   UNL A   1      39.653  35.579  39.622  1.00  0.00     0.054 A 
BRANCH  88  89
ATOM     89  S   UNL A   1      39.394  36.760  40.975  1.00  0.00     0.124 S 
ATOM     90  O   UNL A   1      40.762  37.155  41.300  1.00  0.00    -0.237 OA
ATOM     91  O   UNL A   1      38.574  37.793  40.348  1.00  0.00    -0.237 OA
ATOM     92  O   UNL A   1      38.713  35.970  41.999  1.00  0.00    -0.744 OA
ENDBRANCH  88  89
ENDBRANCH  62  83
ENDBRANCH  36  37
ENDBRANCH  28  31
ENDBRANCH  26  27
ENDBRANCH  25  26
ENDBRANCH  24  25
ENDBRANCH   1  24
TORSDOF 20
ENDMDL
MODEL 2
REMARK VINA RESULT:     -10.1      3.498      9.278
REMARK SMILES COC(=O)[C@@H]([NH2+]CC(C)(C)C(=O)NCCCCNC(=O)c1ccc(-c2c3nc(c(-c4ccc(S(=O)(=O)[O-])cc4)c4ccc([nH]4)c(-c4ccc(S(=O)(=O)[O-])cc4)c4nc(c(-c5ccc(S(=O)(=O)[O-])cc5)c5ccc2[nH]5)C=C4)C=C3)cc1)c1ccccc1
REMARK SMILES IDX 14 1 13 2 11 3 12 4 8 6 9 7 10 8 7 9 6 10 5 13 3 14 4 15
REMARK SMILES IDX 2 16 1 17 81 18 82 19 86 20 83 21 85 22 84 23 15 24 16 25
REMARK SMILES IDX 17 26 18 27 19 28 20 30 21 31 22 32 80 33 23 34 79 35 24 36
REMARK SMILES IDX 25 37 26 38 73 39 27 40 78 41 72 42 74 43 28 44 77 45 71 46
REMARK SMILES IDX 70 47 29 49 59 50 40 51 58 52 41 53 44 54 57 55 75 56 42 57
REMARK SMILES IDX 43 58 56 60 76 61 45 62 30 63 31 64 39 65 32 66 38 67 33 68
REMARK SMILES IDX 34 69 35 70 36 71 37 72 60 73 61 74 69 75 62 76 68 77 63 78
REMARK SMILES IDX 64 79 65 80 66 81 67 82 46 83 47 84 55 85 48 86 54 87 49 88
REMARK SMILES IDX 50 89 51 90 52 91 53 92
REMARK H PARENT 13 5 6 11 6 12 18 29 74 48 44 59
REMARK Flexibility Score: inf
ROOT
ATOM      1  C   UNL A   1      33.861  22.252  26.636  1.00  0.00     0.116 C 
ENDROOT
BRANCH   1   2
ATOM      2  N   UNL A   1      33.378  23.595  26.882  1.00  0.00    -0.355 N 
ATOM      3  C   UNL A   1      32.491  24.320  26.152  1.00  0.00     0.231 C 
ATOM      4  O   UNL A   1      32.847  25.472  25.906  1.00  0.00    -0.274 OA
ATOM      5  H   UNL A   1      33.740  24.041  27.683  1.00  0.00     0.163 HD
BRANCH   3   6
ATOM      6  C   UNL A   1      31.172  23.731  25.625  1.00  0.00     0.092 C 
ATOM      7  C   UNL A   1      30.086  23.668  26.713  1.00  0.00     0.027 C 
ATOM      8  C   UNL A   1      31.480  22.319  25.082  1.00  0.00     0.027 C 
BRANCH   6   9
ATOM      9  C   UNL A   1      30.602  24.551  24.406  1.00  0.00     0.277 C 
BRANCH   9  10
ATOM     10  N   UNL A   1      30.462  26.011  24.436  1.00  0.00    -0.330 N 
ATOM     11  H   UNL A   1      29.738  26.228  25.122  1.00  0.00     0.347 HD
ATOM     12  H   UNL A   1      31.404  26.344  24.647  1.00  0.00     0.347 HD
BRANCH  10  13
ATOM     13  C   UNL A   1      30.102  26.733  23.176  1.00  0.00     0.324 C 
BRANCH  13  14
ATOM     14  C   UNL A   1      31.410  26.802  22.331  1.00  0.00     0.369 C 
ATOM     15  O   UNL A   1      31.468  26.502  21.142  1.00  0.00    -0.245 OA
BRANCH  14  16
ATOM     16  O   UNL A   1      32.502  27.145  23.079  1.00  0.00    -0.464 OA
ATOM     17  C   UNL A   1      33.552  27.759  22.331  1.00  0.00     0.282 C 
ENDBRANCH  14  16
ENDBRANCH  13  14
BRANCH  13  18
ATOM     18  C   UNL A   1      29.381  28.093  23.313  1.00  0.00     0.021 A 
ATOM     19  C   UNL A   1      30.069  29.306  23.503  1.00  0.00     0.010 A 
ATOM     20  C   UNL A   1      27.995  28.211  23.090  1.00  0.00     0.010 A 
ATOM     21  C   UNL A   1      29.405  30.543  23.522  1.00  0.00     0.001 A 
ATOM     22  C   UNL A   1      27.323  29.438  23.119  1.00  0.00     0.001 A 
ATOM     23  C   UNL A   1      28.030  30.607  23.339  1.00  0.00     0.000 A 
ENDBRANCH  13  18
ENDBRANCH  10  13
ENDBRANCH   9  10
ENDBRANCH   6   9
ENDBRANCH   3   6
ENDBRANCH   1   2
BRANCH   1  24
ATOM     24  C   UNL A   1      35.334  22.279  26.218  1.00  0.00     0.023 C 
BRANCH  24  25
ATOM     25  C   UNL A   1      35.843  23.641  25.730  1.00  0.00     0.023 C 
BRANCH  25  26
ATOM     26  C   UNL A   1      37.116  23.601  24.889  1.00  0.00     0.116 C 
BRANCH  26  27
ATOM     27  N   UNL A   1      38.081  22.622  25.369  1.00  0.00    -0.352 N 
ATOM     28  C   UNL A   1      39.166  22.805  26.190  1.00  0.00     0.251 C 
ATOM     29  H   UNL A   1      37.934  21.699  25.061  1.00  0.00     0.163 HD
ATOM     30  O   UNL A   1      39.939  21.877  26.406  1.00  0.00    -0.269 OA
BRANCH  28  31
ATOM     31  C   UNL A   1      39.414  24.137  26.774  1.00  0.00     0.039 A 
ATOM     32  C   UNL A   1      38.935  24.407  28.057  1.00  0.00     0.014 A 
ATOM     33  C   UNL A   1      40.162  25.091  26.078  1.00  0.00     0.014 A 
ATOM     34  C   UNL A   1      39.282  25.606  28.682  1.00  0.00     0.010 A 
ATOM     35  C   UNL A   1      40.554  26.261  26.723  1.00  0.00     0.010 A 
ATOM     36  C   UNL A   1      40.133  26.519  28.038  1.00  0.00    -0.014 A 
BRANCH  36  37
ATOM     37  C   UNL A   1      40.644  27.723  28.739  1.00  0.00     0.031 A 
ATOM     38  C   UNL A   1      42.006  27.712  29.371  1.00  0.00     0.074 A 
ATOM     39  C   UNL A   1      39.837  28.794  28.880  1.00  0.00     0.049 A 
ATOM     40  N   UNL A   1      42.578  28.630  30.106  1.00  0.00    -0.248 NA
ATOM     41  C   UNL A   1      42.822  26.503  29.171  1.00  0.00     0.031 C 
ATOM     42  C   UNL A   1      38.477  28.908  28.345  1.00  0.00     0.029 A 
ATOM     43  N   UNL A   1      40.037  29.984  29.533  1.00  0.00    -0.354 N 
ATOM     44  C   UNL A   1      43.811  28.107  30.472  1.00  0.00     0.074 A 
ATOM     45  C   UNL A   1      43.890  26.776  29.908  1.00  0.00     0.031 C 
ATOM     46  C   UNL A   1      37.971  30.105  28.681  1.00  0.00     0.029 A 
ATOM     47  C   UNL A   1      38.949  30.825  29.489  1.00  0.00     0.049 A 
ATOM     48  H   UNL A   1      40.878  30.215  29.988  1.00  0.00     0.167 HD
ATOM     49  C   UNL A   1      44.792  28.686  31.204  1.00  0.00     0.031 A 
ATOM     50  C   UNL A   1      38.752  32.033  30.053  1.00  0.00     0.031 A 
ATOM     51  C   UNL A   1      44.713  30.012  31.754  1.00  0.00     0.049 A 
ATOM     52  C   UNL A   1      39.849  32.646  30.877  1.00  0.00     0.074 A 
ATOM     53  C   UNL A   1      45.684  30.715  32.447  1.00  0.00     0.029 A 
ATOM     54  N   UNL A   1      43.598  30.834  31.682  1.00  0.00    -0.354 N 
ATOM     55  N   UNL A   1      41.038  32.167  31.149  1.00  0.00    -0.248 NA
ATOM     56  C   UNL A   1      39.578  33.964  31.469  1.00  0.00     0.031 C 
ATOM     57  C   UNL A   1      45.138  31.942  32.837  1.00  0.00     0.029 A 
ATOM     58  C   UNL A   1      43.845  32.023  32.347  1.00  0.00     0.049 A 
ATOM     59  H   UNL A   1      42.757  30.606  31.227  1.00  0.00     0.167 HD
ATOM     60  C   UNL A   1      41.662  33.128  31.933  1.00  0.00     0.074 A 
ATOM     61  C   UNL A   1      40.728  34.225  32.078  1.00  0.00     0.031 C 
ATOM     62  C   UNL A   1      42.901  33.102  32.487  1.00  0.00     0.031 A 
BRANCH  49  63
ATOM     63  C   UNL A   1      46.039  27.882  31.456  1.00  0.00    -0.014 A 
ATOM     64  C   UNL A   1      47.140  27.959  30.585  1.00  0.00     0.010 A 
ATOM     65  C   UNL A   1      46.127  27.071  32.602  1.00  0.00     0.010 A 
ATOM     66  C   UNL A   1      48.293  27.210  30.834  1.00  0.00     0.020 A 
ATOM     67  C   UNL A   1      47.287  26.338  32.867  1.00  0.00     0.020 A 
ATOM     68  C   UNL A   1      48.357  26.400  31.972  1.00  0.00     0.054 A 
BRANCH  68  69
ATOM     69  S   UNL A   1      49.874  25.455  32.282  1.00  0.00     0.124 S 
ATOM     70  O   UNL A   1      50.779  26.491  32.773  1.00  0.00    -0.237 OA
ATOM     71  O   UNL A   1      49.445  24.474  33.275  1.00  0.00    -0.237 OA
ATOM     72  O   UNL A   1      50.212  24.903  30.972  1.00  0.00    -0.744 OA
ENDBRANCH  68  69
ENDBRANCH  49  63
BRANCH  50  73
ATOM     73  C   UNL A   1      37.456  32.738  29.860  1.00  0.00    -0.014 A 
ATOM     74  C   UNL A   1      37.237  33.527  28.718  1.00  0.00     0.010 A 
ATOM     75  C   UNL A   1      36.426  32.607  30.810  1.00  0.00     0.010 A 
ATOM     76  C   UNL A   1      36.016  34.182  28.534  1.00  0.00     0.020 A 
ATOM     77  C   UNL A   1      35.196  33.242  30.619  1.00  0.00     0.020 A 
ATOM     78  C   UNL A   1      35.003  34.035  29.485  1.00  0.00     0.054 A 
BRANCH  78  79
ATOM     79  S   UNL A   1      33.405  34.847  29.198  1.00  0.00     0.124 S 
ATOM     80  O   UNL A   1      33.815  36.140  28.659  1.00  0.00    -0.237 OA
ATOM     81  O   UNL A   1      32.757  33.944  28.250  1.00  0.00    -0.237 OA
ATOM     82  O   UNL A   1      32.798  34.884  30.527  1.00  0.00    -0.744 OA
ENDBRANCH  78  79
ENDBRANCH  50  73
BRANCH  62  83
ATOM     83  C   UNL A   1      43.322  34.299  33.294  1.00  0.00    -0.014 A 
ATOM     84  C   UNL A   1      43.900  35.419  32.673  1.00  0.00     0.010 A 
ATOM     85  C   UNL A   1      43.068  34.333  34.677  1.00  0.00     0.010 A 
ATOM     86  C   UNL A   1      44.233  36.549  33.424  1.00  0.00     0.020 A 
ATOM     87  C   UNL A   1      43.377  35.470  35.428  1.00  0.00     0.020 A 
ATOM     88  C   UNL A   1      43.966  36.568  34.797  1.00  0.00     0.054 A 
BRANCH  88  89
ATOM     89  S   UNL A   1      44.344  38.072  35.739  1.00  0.00     0.124 S 
ATOM     90  O   UNL A   1      43.593  37.855  36.972  1.00  0.00    -0.237 OA
ATOM     91  O   UNL A   1      45.798  38.012  35.869  1.00  0.00    -0.237 OA
ATOM     92  O   UNL A   1      43.846  39.150  34.887  1.00  0.00    -0.744 OA
ENDBRANCH  88  89
ENDBRANCH  62  83
ENDBRANCH  36  37
ENDBRANCH  28  31
ENDBRANCH  26  27
ENDBRANCH  25  26
ENDBRANCH  24  25
ENDBRANCH   1  24
TORSDOF 20
ENDMDL
MODEL 3
REMARK VINA RESULT:     -10.1      5.904      8.604
REMARK SMILES COC(=O)[C@@H]([NH2+]CC(C)(C)C(=O)NCCCCNC(=O)c1ccc(-c2c3nc(c(-c4ccc(S(=O)(=O)[O-])cc4)c4ccc([nH]4)c(-c4ccc(S(=O)(=O)[O-])cc4)c4nc(c(-c5ccc(S(=O)(=O)[O-])cc5)c5ccc2[nH]5)C=C4)C=C3)cc1)c1ccccc1
REMARK SMILES IDX 14 1 13 2 11 3 12 4 8 6 9 7 10 8 7 9 6 10 5 13 3 14 4 15
REMARK SMILES IDX 2 16 1 17 81 18 82 19 86 20 83 21 85 22 84 23 15 24 16 25
REMARK SMILES IDX 17 26 18 27 19 28 20 30 21 31 22 32 80 33 23 34 79 35 24 36
REMARK SMILES IDX 25 37 26 38 73 39 27 40 78 41 72 42 74 43 28 44 77 45 71 46
REMARK SMILES IDX 70 47 29 49 59 50 40 51 58 52 41 53 44 54 57 55 75 56 42 57
REMARK SMILES IDX 43 58 56 60 76 61 45 62 30 63 31 64 39 65 32 66 38 67 33 68
REMARK SMILES IDX 34 69 35 70 36 71 37 72 60 73 61 74 69 75 62 76 68 77 63 78
REMARK SMILES IDX 64 79 65 80 66 81 67 82 46 83 47 84 55 85 48 86 54 87 49 88
REMARK SMILES IDX 50 89 51 90 52 91 53 92
REMARK H PARENT 13 5 6 11 6 12 18 29 74 48 44 59
REMARK Flexibility Score: inf
ROOT
ATOM      1  C   UNL A   1      35.689  23.305  25.627  1.00  0.00     0.116 C 
ENDROOT
BRANCH   1   2
ATOM      2  N   UNL A   1      34.639  22.927  24.704  1.00  0.00    -0.355 N 
ATOM      3  C   UNL A   1      33.377  22.508  24.987  1.00  0.00     0.231 C 
ATOM      4  O   UNL A   1      33.022  21.499  24.379  1.00  0.00    -0.274 OA
ATOM      5  H   UNL A   1      34.868  22.982  23.748  1.00  0.00     0.163 HD
BRANCH   3   6
ATOM      6  C   UNL A   1      32.484  23.205  26.026  1.00  0.00     0.092 C 
ATOM      7  C   UNL A   1      32.626  22.584  27.426  1.00  0.00     0.027 C 
ATOM      8  C   UNL A   1      31.025  23.098  25.529  1.00  0.00     0.027 C 
BRANCH   6   9
ATOM      9  C   UNL A   1      32.793  24.746  26.136  1.00  0.00     0.277 C 
BRANCH   9  10
ATOM     10  N   UNL A   1      31.753  25.738  26.433  1.00  0.00    -0.330 N 
ATOM     11  H   UNL A   1      30.889  25.403  26.005  1.00  0.00     0.347 HD
ATOM     12  H   UNL A   1      31.762  25.806  27.451  1.00  0.00     0.347 HD
BRANCH  10  13
ATOM     13  C   UNL A   1      31.945  27.151  25.979  1.00  0.00     0.324 C 
BRANCH  13  14
ATOM     14  C   UNL A   1      31.947  28.022  27.272  1.00  0.00     0.369 C 
ATOM     15  O   UNL A   1      31.025  28.039  28.083  1.00  0.00    -0.245 OA
BRANCH  14  16
ATOM     16  O   UNL A   1      33.046  28.832  27.358  1.00  0.00    -0.464 OA
ATOM     17  C   UNL A   1      34.148  28.408  26.556  1.00  0.00     0.282 C 
ENDBRANCH  14  16
ENDBRANCH  13  14
BRANCH  13  18
ATOM     18  C   UNL A   1      31.002  27.682  24.876  1.00  0.00     0.021 A 
ATOM     19  C   UNL A   1      29.958  26.912  24.329  1.00  0.00     0.010 A 
ATOM     20  C   UNL A   1      31.035  29.031  24.473  1.00  0.00     0.010 A 
ATOM     21  C   UNL A   1      29.047  27.445  23.403  1.00  0.00     0.001 A 
ATOM     22  C   UNL A   1      30.139  29.568  23.543  1.00  0.00     0.001 A 
ATOM     23  C   UNL A   1      29.144  28.771  23.003  1.00  0.00     0.000 A 
ENDBRANCH  13  18
ENDBRANCH  10  13
ENDBRANCH   9  10
ENDBRANCH   6   9
ENDBRANCH   3   6
ENDBRANCH   1   2
BRANCH   1  24
ATOM     24  C   UNL A   1      37.065  23.102  24.986  1.00  0.00     0.023 C 
BRANCH  24  25
ATOM     25  C   UNL A   1      37.685  21.717  25.208  1.00  0.00     0.023 C 
BRANCH  25  26
ATOM     26  C   UNL A   1      38.904  21.685  26.126  1.00  0.00     0.116 C 
BRANCH  26  27
ATOM     27  N   UNL A   1      39.653  20.441  26.028  1.00  0.00    -0.352 N 
ATOM     28  C   UNL A   1      41.006  20.235  26.123  1.00  0.00     0.251 C 
ATOM     29  H   UNL A   1      39.111  19.634  25.871  1.00  0.00     0.163 HD
ATOM     30  O   UNL A   1      41.478  19.122  25.906  1.00  0.00    -0.269 OA
BRANCH  28  31
ATOM     31  C   UNL A   1      41.890  21.371  26.447  1.00  0.00     0.039 A 
ATOM     32  C   UNL A   1      42.292  22.223  25.416  1.00  0.00     0.014 A 
ATOM     33  C   UNL A   1      42.272  21.622  27.767  1.00  0.00     0.014 A 
ATOM     34  C   UNL A   1      43.007  23.382  25.721  1.00  0.00     0.010 A 
ATOM     35  C   UNL A   1      42.936  22.806  28.076  1.00  0.00     0.010 A 
ATOM     36  C   UNL A   1      43.291  23.705  27.058  1.00  0.00    -0.014 A 
BRANCH  36  37
ATOM     37  C   UNL A   1      43.909  25.004  27.421  1.00  0.00     0.031 A 
ATOM     38  C   UNL A   1      43.070  26.108  27.998  1.00  0.00     0.074 A 
ATOM     39  C   UNL A   1      45.212  25.214  27.143  1.00  0.00     0.049 A 
ATOM     40  N   UNL A   1      43.413  27.338  28.283  1.00  0.00    -0.248 NA
ATOM     41  C   UNL A   1      41.658  25.797  28.269  1.00  0.00     0.031 C 
ATOM     42  C   UNL A   1      46.121  24.232  26.545  1.00  0.00     0.029 A 
ATOM     43  N   UNL A   1      45.994  26.330  27.311  1.00  0.00    -0.354 N 
ATOM     44  C   UNL A   1      42.259  27.954  28.749  1.00  0.00     0.074 A 
ATOM     45  C   UNL A   1      41.198  26.972  28.676  1.00  0.00     0.031 C 
ATOM     46  C   UNL A   1      47.337  24.785  26.407  1.00  0.00     0.029 A 
ATOM     47  C   UNL A   1      47.285  26.169  26.865  1.00  0.00     0.049 A 
ATOM     48  H   UNL A   1      45.663  27.165  27.712  1.00  0.00     0.167 HD
ATOM     49  C   UNL A   1      42.100  29.219  29.205  1.00  0.00     0.031 A 
ATOM     50  C   UNL A   1      48.309  27.043  26.811  1.00  0.00     0.031 A 
ATOM     51  C   UNL A   1      43.161  30.186  29.285  1.00  0.00     0.049 A 
ATOM     52  C   UNL A   1      48.102  28.447  27.306  1.00  0.00     0.074 A 
ATOM     53  C   UNL A   1      43.115  31.470  29.802  1.00  0.00     0.029 A 
ATOM     54  N   UNL A   1      44.455  29.983  28.831  1.00  0.00    -0.354 N 
ATOM     55  N   UNL A   1      47.021  28.989  27.813  1.00  0.00    -0.248 NA
ATOM     56  C   UNL A   1      49.253  29.358  27.222  1.00  0.00     0.031 C 
ATOM     57  C   UNL A   1      44.369  32.060  29.614  1.00  0.00     0.029 A 
ATOM     58  C   UNL A   1      45.208  31.128  29.024  1.00  0.00     0.049 A 
ATOM     59  H   UNL A   1      44.788  29.149  28.430  1.00  0.00     0.167 HD
ATOM     60  C   UNL A   1      47.364  30.299  28.120  1.00  0.00     0.074 A 
ATOM     61  C   UNL A   1      48.757  30.465  27.759  1.00  0.00     0.031 C 
ATOM     62  C   UNL A   1      46.592  31.279  28.652  1.00  0.00     0.031 A 
BRANCH  49  63
ATOM     63  C   UNL A   1      40.723  29.630  29.650  1.00  0.00    -0.014 A 
ATOM     64  C   UNL A   1      39.760  30.063  28.721  1.00  0.00     0.010 A 
ATOM     65  C   UNL A   1      40.371  29.540  31.009  1.00  0.00     0.010 A 
ATOM     66  C   UNL A   1      38.483  30.436  29.147  1.00  0.00     0.020 A 
ATOM     67  C   UNL A   1      39.088  29.891  31.437  1.00  0.00     0.020 A 
ATOM     68  C   UNL A   1      38.157  30.353  30.504  1.00  0.00     0.054 A 
BRANCH  68  69
ATOM     69  S   UNL A   1      36.485  30.825  31.027  1.00  0.00     0.124 S 
ATOM     70  O   UNL A   1      36.209  29.843  32.073  1.00  0.00    -0.237 OA
ATOM     71  O   UNL A   1      36.667  32.198  31.487  1.00  0.00    -0.237 OA
ATOM     72  O   UNL A   1      35.688  30.680  29.811  1.00  0.00    -0.744 OA
ENDBRANCH  68  69
ENDBRANCH  49  63
BRANCH  50  73
ATOM     73  C   UNL A   1      49.622  26.613  26.260  1.00  0.00    -0.014 A 
ATOM     74  C   UNL A   1      49.978  26.932  24.938  1.00  0.00     0.010 A 
ATOM     75  C   UNL A   1      50.531  25.897  27.061  1.00  0.00     0.010 A 
ATOM     76  C   UNL A   1      51.216  26.534  24.424  1.00  0.00     0.020 A 
ATOM     77  C   UNL A   1      51.779  25.518  26.558  1.00  0.00     0.020 A 
ATOM     78  C   UNL A   1      52.108  25.830  25.237  1.00  0.00     0.054 A 
BRANCH  78  79
ATOM     79  S   UNL A   1      53.733  25.374  24.567  1.00  0.00     0.124 S 
ATOM     80  O   UNL A   1      54.630  26.227  25.341  1.00  0.00    -0.237 OA
ATOM     81  O   UNL A   1      53.807  23.946  24.862  1.00  0.00    -0.237 OA
ATOM     82  O   UNL A   1      53.620  25.704  23.148  1.00  0.00    -0.744 OA
ENDBRANCH  78  79
ENDBRANCH  50  73
BRANCH  62  83
ATOM     83  C   UNL A   1      47.236  32.617  28.885  1.00  0.00    -0.014 A 
ATOM     84  C   UNL A   1      47.177  33.626  27.908  1.00  0.00     0.010 A 
ATOM     85  C   UNL A   1      47.843  32.893  30.124  1.00  0.00     0.010 A 
ATOM     86  C   UNL A   1      47.727  34.885  28.160  1.00  0.00     0.020 A 
ATOM     87  C   UNL A   1      48.374  34.158  30.388  1.00  0.00     0.020 A 
ATOM     88  C   UNL A   1      48.320  35.144  29.400  1.00  0.00     0.054 A 
BRANCH  88  89
ATOM     89  S   UNL A   1      48.968  36.807  29.729  1.00  0.00     0.124 S 
ATOM     90  O   UNL A   1      50.281  36.514  30.297  1.00  0.00    -0.237 OA
ATOM     91  O   UNL A   1      48.979  37.415  28.400  1.00  0.00    -0.237 OA
ATOM     92  O   UNL A   1      47.998  37.379  30.661  1.00  0.00    -0.744 OA
ENDBRANCH  88  89
ENDBRANCH  62  83
ENDBRANCH  36  37
ENDBRANCH  28  31
ENDBRANCH  26  27
ENDBRANCH  25  26
ENDBRANCH  24  25
ENDBRANCH   1  24
TORSDOF 20
ENDMDL
