MODEL 1
REMARK VINA RESULT:     -10.0      0.000      0.000
REMARK SMILES CC[C@H](C)[NH+]1CCN(C(=O)CC(=O)NCCCCNC(=O)c2ccc(-c3c4nc(c(-c5ccc(S(=O)(=O)[O-])cc5)c5ccc([nH]5)c(-c5ccc(S(=O)(=O)[O-])cc5)c5nc(c(-c6ccc(S(=O)(=O)[O-])cc6)c6ccc3[nH]6)C=C5)C=C4)cc2)CC1
REMARK SMILES IDX 16 1 15 2 14 3 12 4 13 5 11 7 9 8 5 9 6 10 83 11 7 13 82 14
REMARK SMILES IDX 8 15 10 16 3 17 4 18 2 19 1 20 17 21 18 22 19 23 20 24 21 26
REMARK SMILES IDX 22 27 23 28 81 29 24 30 80 31 25 32 26 33 27 34 74 35 28 36
REMARK SMILES IDX 79 37 73 38 75 39 29 40 78 41 72 42 71 43 30 45 60 46 41 47
REMARK SMILES IDX 59 48 42 49 45 50 58 51 76 52 43 53 44 54 57 56 77 57 46 58
REMARK SMILES IDX 31 59 32 60 40 61 33 62 39 63 34 64 35 65 36 66 37 67 38 68
REMARK SMILES IDX 61 69 62 70 70 71 63 72 69 73 64 74 65 75 66 76 67 77 68 78
REMARK SMILES IDX 47 79 48 80 56 81 49 82 55 83 50 84 51 85 52 86 53 87 54 88
REMARK H PARENT 14 6 5 12 19 25 75 44 45 55
REMARK Flexibility Score: inf
ROOT
ATOM      1  C   UNL A   1      41.426  21.135  26.263  1.00  0.00     0.023 C 
ENDROOT
BRANCH   1   2
ATOM      2  C   UNL A   1      42.917  20.874  26.045  1.00  0.00     0.116 C 
BRANCH   2   3
ATOM      3  N   UNL A   1      43.441  21.658  24.942  1.00  0.00    -0.356 N 
ATOM      4  C   UNL A   1      44.648  22.283  24.843  1.00  0.00     0.229 C 
ATOM      5  O   UNL A   1      44.893  22.935  23.826  1.00  0.00    -0.275 OA
ATOM      6  H   UNL A   1      42.847  21.752  24.163  1.00  0.00     0.163 HD
BRANCH   4   7
ATOM      7  C   UNL A   1      45.669  22.150  25.943  1.00  0.00     0.200 C 
BRANCH   7   8
ATOM      8  C   UNL A   1      46.152  23.463  26.511  1.00  0.00     0.232 C 
ATOM      9  N   UNL A   1      44.411  25.116  30.139  1.00  0.00    -0.330 N 
ATOM     10  C   UNL A   1      45.345  25.878  29.295  1.00  0.00     0.284 C 
ATOM     11  C   UNL A   1      43.664  24.156  29.317  1.00  0.00     0.284 C 
ATOM     12  H   UNL A   1      43.710  25.758  30.509  1.00  0.00     0.348 HD
ATOM     13  C   UNL A   1      46.236  25.061  28.348  1.00  0.00     0.181 C 
ATOM     14  C   UNL A   1      44.509  23.252  28.406  1.00  0.00     0.181 C 
ATOM     15  N   UNL A   1      45.553  23.962  27.658  1.00  0.00    -0.331 N 
ATOM     16  O   UNL A   1      47.067  24.066  25.944  1.00  0.00    -0.274 OA
BRANCH   9  17
ATOM     17  C   UNL A   1      44.974  24.632  31.413  1.00  0.00     0.180 C 
ATOM     18  C   UNL A   1      45.842  25.754  32.011  1.00  0.00     0.075 C 
BRANCH  17  19
ATOM     19  C   UNL A   1      43.980  24.104  32.467  1.00  0.00     0.061 C 
ATOM     20  C   UNL A   1      44.619  23.148  33.469  1.00  0.00     0.010 C 
ENDBRANCH  17  19
ENDBRANCH   9  17
ENDBRANCH   7   8
ENDBRANCH   4   7
ENDBRANCH   2   3
ENDBRANCH   1   2
BRANCH   1  21
ATOM     21  C   UNL A   1      41.094  21.921  27.536  1.00  0.00     0.023 C 
BRANCH  21  22
ATOM     22  C   UNL A   1      40.373  23.248  27.317  1.00  0.00     0.116 C 
BRANCH  22  23
ATOM     23  N   UNL A   1      40.919  24.022  26.214  1.00  0.00    -0.352 N 
ATOM     24  C   UNL A   1      41.236  25.361  26.169  1.00  0.00     0.251 C 
ATOM     25  H   UNL A   1      41.084  23.519  25.384  1.00  0.00     0.163 HD
ATOM     26  O   UNL A   1      41.574  25.874  25.111  1.00  0.00    -0.269 OA
BRANCH  24  27
ATOM     27  C   UNL A   1      41.130  26.180  27.398  1.00  0.00     0.039 A 
ATOM     28  C   UNL A   1      42.099  27.159  27.636  1.00  0.00     0.014 A 
ATOM     29  C   UNL A   1      40.078  25.999  28.300  1.00  0.00     0.014 A 
ATOM     30  C   UNL A   1      41.977  27.995  28.748  1.00  0.00     0.010 A 
ATOM     31  C   UNL A   1      39.916  26.885  29.362  1.00  0.00     0.010 A 
ATOM     32  C   UNL A   1      40.865  27.889  29.602  1.00  0.00    -0.014 A 
BRANCH  32  33
ATOM     33  C   UNL A   1      40.684  28.830  30.738  1.00  0.00     0.031 A 
ATOM     34  C   UNL A   1      41.534  28.710  31.974  1.00  0.00     0.074 A 
ATOM     35  C   UNL A   1      39.714  29.766  30.678  1.00  0.00     0.049 A 
ATOM     36  N   UNL A   1      41.519  29.443  33.058  1.00  0.00    -0.248 NA
ATOM     37  C   UNL A   1      42.512  27.610  32.008  1.00  0.00     0.031 C 
ATOM     38  C   UNL A   1      38.782  29.949  29.561  1.00  0.00     0.029 A 
ATOM     39  N   UNL A   1      39.351  30.741  31.573  1.00  0.00    -0.354 N 
ATOM     40  C   UNL A   1      42.467  28.884  33.907  1.00  0.00     0.074 A 
ATOM     41  C   UNL A   1      42.999  27.719  33.235  1.00  0.00     0.031 C 
ATOM     42  C   UNL A   1      37.980  30.992  29.825  1.00  0.00     0.029 A 
ATOM     43  C   UNL A   1      38.312  31.530  31.140  1.00  0.00     0.049 A 
ATOM     44  H   UNL A   1      39.793  30.863  32.444  1.00  0.00     0.167 HD
ATOM     45  C   UNL A   1      42.874  29.311  35.127  1.00  0.00     0.031 A 
ATOM     46  C   UNL A   1      37.692  32.571  31.731  1.00  0.00     0.031 A 
ATOM     47  C   UNL A   1      42.346  30.476  35.788  1.00  0.00     0.049 A 
ATOM     48  C   UNL A   1      38.168  33.037  33.079  1.00  0.00     0.074 A 
ATOM     49  C   UNL A   1      42.741  31.033  36.993  1.00  0.00     0.029 A 
ATOM     50  N   UNL A   1      41.306  31.257  35.309  1.00  0.00    -0.354 N 
ATOM     51  N   UNL A   1      39.129  32.549  33.827  1.00  0.00    -0.248 NA
ATOM     52  C   UNL A   1      37.489  34.206  33.656  1.00  0.00     0.031 C 
ATOM     53  C   UNL A   1      41.899  32.114  37.271  1.00  0.00     0.029 A 
ATOM     54  C   UNL A   1      41.025  32.274  36.206  1.00  0.00     0.049 A 
ATOM     55  H   UNL A   1      40.837  31.112  34.455  1.00  0.00     0.167 HD
ATOM     56  C   UNL A   1      39.188  33.368  34.949  1.00  0.00     0.074 A 
ATOM     57  C   UNL A   1      38.176  34.389  34.774  1.00  0.00     0.031 C 
ATOM     58  C   UNL A   1      40.012  33.284  36.024  1.00  0.00     0.031 A 
BRANCH  45  59
ATOM     59  C   UNL A   1      43.935  28.505  35.831  1.00  0.00    -0.014 A 
ATOM     60  C   UNL A   1      45.305  28.767  35.635  1.00  0.00     0.010 A 
ATOM     61  C   UNL A   1      43.559  27.486  36.726  1.00  0.00     0.010 A 
ATOM     62  C   UNL A   1      46.274  27.994  36.278  1.00  0.00     0.020 A 
ATOM     63  C   UNL A   1      44.526  26.733  37.398  1.00  0.00     0.020 A 
ATOM     64  C   UNL A   1      45.878  26.979  37.153  1.00  0.00     0.054 A 
BRANCH  64  65
ATOM     65  S   UNL A   1      47.159  25.998  37.982  1.00  0.00     0.124 S 
ATOM     66  O   UNL A   1      47.534  25.049  36.936  1.00  0.00    -0.237 OA
ATOM     67  O   UNL A   1      48.168  27.001  38.312  1.00  0.00    -0.237 OA
ATOM     68  O   UNL A   1      46.465  25.416  39.129  1.00  0.00    -0.744 OA
ENDBRANCH  64  65
ENDBRANCH  45  59
BRANCH  46  69
ATOM     69  C   UNL A   1      36.569  33.255  31.031  1.00  0.00    -0.014 A 
ATOM     70  C   UNL A   1      35.277  33.265  31.587  1.00  0.00     0.010 A 
ATOM     71  C   UNL A   1      36.796  33.931  29.818  1.00  0.00     0.010 A 
ATOM     72  C   UNL A   1      34.232  33.930  30.938  1.00  0.00     0.020 A 
ATOM     73  C   UNL A   1      35.760  34.621  29.182  1.00  0.00     0.020 A 
ATOM     74  C   UNL A   1      34.482  34.610  29.742  1.00  0.00     0.054 A 
BRANCH  74  75
ATOM     75  S   UNL A   1      33.127  35.522  28.955  1.00  0.00     0.124 S 
ATOM     76  O   UNL A   1      32.485  34.485  28.154  1.00  0.00    -0.237 OA
ATOM     77  O   UNL A   1      32.362  36.002  30.103  1.00  0.00    -0.237 OA
ATOM     78  O   UNL A   1      33.813  36.566  28.195  1.00  0.00    -0.744 OA
ENDBRANCH  74  75
ENDBRANCH  46  69
BRANCH  58  79
ATOM     79  C   UNL A   1      39.883  34.344  37.085  1.00  0.00    -0.014 A 
ATOM     80  C   UNL A   1      40.475  35.610  36.934  1.00  0.00     0.010 A 
ATOM     81  C   UNL A   1      39.102  34.087  38.228  1.00  0.00     0.010 A 
ATOM     82  C   UNL A   1      40.317  36.588  37.921  1.00  0.00     0.020 A 
ATOM     83  C   UNL A   1      38.916  35.071  39.201  1.00  0.00     0.020 A 
ATOM     84  C   UNL A   1      39.536  36.312  39.048  1.00  0.00     0.054 A 
BRANCH  84  85
ATOM     85  S   UNL A   1      39.310  37.611  40.293  1.00  0.00     0.124 S 
ATOM     86  O   UNL A   1      38.298  38.458  39.667  1.00  0.00    -0.237 OA
ATOM     87  O   UNL A   1      38.863  36.859  41.463  1.00  0.00    -0.237 OA
ATOM     88  O   UNL A   1      40.637  38.212  40.413  1.00  0.00    -0.744 OA
ENDBRANCH  84  85
ENDBRANCH  58  79
ENDBRANCH  32  33
ENDBRANCH  24  27
ENDBRANCH  22  23
ENDBRANCH  21  22
ENDBRANCH   1  21
TORSDOF 17
ENDMDL
MODEL 2
REMARK VINA RESULT:      -9.9      3.189      5.592
REMARK SMILES CC[C@H](C)[NH+]1CCN(C(=O)CC(=O)NCCCCNC(=O)c2ccc(-c3c4nc(c(-c5ccc(S(=O)(=O)[O-])cc5)c5ccc([nH]5)c(-c5ccc(S(=O)(=O)[O-])cc5)c5nc(c(-c6ccc(S(=O)(=O)[O-])cc6)c6ccc3[nH]6)C=C5)C=C4)cc2)CC1
REMARK SMILES IDX 16 1 15 2 14 3 12 4 13 5 11 7 9 8 5 9 6 10 83 11 7 13 82 14
REMARK SMILES IDX 8 15 10 16 3 17 4 18 2 19 1 20 17 21 18 22 19 23 20 24 21 26
REMARK SMILES IDX 22 27 23 28 81 29 24 30 80 31 25 32 26 33 27 34 74 35 28 36
REMARK SMILES IDX 79 37 73 38 75 39 29 40 78 41 72 42 71 43 30 45 60 46 41 47
REMARK SMILES IDX 59 48 42 49 45 50 58 51 76 52 43 53 44 54 57 56 77 57 46 58
REMARK SMILES IDX 31 59 32 60 40 61 33 62 39 63 34 64 35 65 36 66 37 67 38 68
REMARK SMILES IDX 61 69 62 70 70 71 63 72 69 73 64 74 65 75 66 76 67 77 68 78
REMARK SMILES IDX 47 79 48 80 56 81 49 82 55 83 50 84 51 85 52 86 53 87 54 88
REMARK H PARENT 14 6 5 12 19 25 75 44 45 55
REMARK Flexibility Score: inf
ROOT
ATOM      1  C   UNL A   1      38.199  24.056  26.622  1.00  0.00     0.023 C 
ENDROOT
BRANCH   1   2
ATOM      2  C   UNL A   1      36.954  23.528  25.908  1.00  0.00     0.116 C 
BRANCH   2   3
ATOM      3  N   UNL A   1      37.183  23.363  24.484  1.00  0.00    -0.356 N 
ATOM      4  C   UNL A   1      36.278  23.083  23.505  1.00  0.00     0.229 C 
ATOM      5  O   UNL A   1      36.683  22.948  22.349  1.00  0.00    -0.275 OA
ATOM      6  H   UNL A   1      38.115  23.468  24.187  1.00  0.00     0.163 HD
BRANCH   4   7
ATOM      7  C   UNL A   1      34.811  22.973  23.831  1.00  0.00     0.200 C 
BRANCH   7   8
ATOM      8  C   UNL A   1      33.953  24.059  23.227  1.00  0.00     0.232 C 
ATOM      9  N   UNL A   1      32.506  27.378  25.637  1.00  0.00    -0.330 N 
ATOM     10  C   UNL A   1      32.037  27.140  24.263  1.00  0.00     0.284 C 
ATOM     11  C   UNL A   1      32.890  26.108  26.263  1.00  0.00     0.284 C 
ATOM     12  H   UNL A   1      31.724  27.727  26.192  1.00  0.00     0.348 HD
ATOM     13  C   UNL A   1      32.936  26.268  23.374  1.00  0.00     0.181 C 
ATOM     14  C   UNL A   1      33.855  25.226  25.455  1.00  0.00     0.181 C 
ATOM     15  N   UNL A   1      33.497  25.087  24.039  1.00  0.00    -0.331 N 
ATOM     16  O   UNL A   1      33.673  24.010  22.025  1.00  0.00    -0.274 OA
BRANCH   9  17
ATOM     17  C   UNL A   1      33.425  28.522  25.793  1.00  0.00     0.180 C 
ATOM     18  C   UNL A   1      32.726  29.777  25.238  1.00  0.00     0.075 C 
BRANCH  17  19
ATOM     19  C   UNL A   1      33.974  28.796  27.208  1.00  0.00     0.061 C 
ATOM     20  C   UNL A   1      34.328  30.262  27.440  1.00  0.00     0.010 C 
ENDBRANCH  17  19
ENDBRANCH   9  17
ENDBRANCH   7   8
ENDBRANCH   4   7
ENDBRANCH   2   3
ENDBRANCH   1   2
BRANCH   1  21
ATOM     21  C   UNL A   1      39.401  23.107  26.595  1.00  0.00     0.023 C 
BRANCH  21  22
ATOM     22  C   UNL A   1      40.728  23.718  27.037  1.00  0.00     0.116 C 
BRANCH  22  23
ATOM     23  N   UNL A   1      41.427  24.407  25.964  1.00  0.00    -0.352 N 
ATOM     24  C   UNL A   1      41.724  25.746  25.844  1.00  0.00     0.251 C 
ATOM     25  H   UNL A   1      41.729  23.837  25.221  1.00  0.00     0.163 HD
ATOM     26  O   UNL A   1      42.215  26.172  24.807  1.00  0.00    -0.269 OA
BRANCH  24  27
ATOM     27  C   UNL A   1      41.413  26.668  26.959  1.00  0.00     0.039 A 
ATOM     28  C   UNL A   1      40.496  26.260  27.931  1.00  0.00     0.014 A 
ATOM     29  C   UNL A   1      42.031  27.918  27.057  1.00  0.00     0.014 A 
ATOM     30  C   UNL A   1      40.245  27.081  29.032  1.00  0.00     0.010 A 
ATOM     31  C   UNL A   1      41.840  28.698  28.195  1.00  0.00     0.010 A 
ATOM     32  C   UNL A   1      40.942  28.292  29.193  1.00  0.00    -0.014 A 
BRANCH  32  33
ATOM     33  C   UNL A   1      40.744  29.131  30.404  1.00  0.00     0.031 A 
ATOM     34  C   UNL A   1      41.589  28.915  31.630  1.00  0.00     0.074 A 
ATOM     35  C   UNL A   1      39.764  30.058  30.417  1.00  0.00     0.049 A 
ATOM     36  N   UNL A   1      41.560  29.552  32.773  1.00  0.00    -0.248 NA
ATOM     37  C   UNL A   1      42.579  27.826  31.577  1.00  0.00     0.031 C 
ATOM     38  C   UNL A   1      38.836  30.324  29.315  1.00  0.00     0.029 A 
ATOM     39  N   UNL A   1      39.385  30.949  31.391  1.00  0.00    -0.354 N 
ATOM     40  C   UNL A   1      42.509  28.933  33.577  1.00  0.00     0.074 A 
ATOM     41  C   UNL A   1      43.059  27.836  32.812  1.00  0.00     0.031 C 
ATOM     42  C   UNL A   1      38.021  31.332  29.661  1.00  0.00     0.029 A 
ATOM     43  C   UNL A   1      38.339  31.760  31.019  1.00  0.00     0.049 A 
ATOM     44  H   UNL A   1      39.821  31.001  32.271  1.00  0.00     0.167 HD
ATOM     45  C   UNL A   1      42.905  29.260  34.832  1.00  0.00     0.031 A 
ATOM     46  C   UNL A   1      37.705  32.741  31.693  1.00  0.00     0.031 A 
ATOM     47  C   UNL A   1      42.361  30.358  35.586  1.00  0.00     0.049 A 
ATOM     48  C   UNL A   1      38.168  33.095  33.079  1.00  0.00     0.074 A 
ATOM     49  C   UNL A   1      42.743  30.815  36.836  1.00  0.00     0.029 A 
ATOM     50  N   UNL A   1      41.315  31.166  35.168  1.00  0.00    -0.354 N 
ATOM     51  N   UNL A   1      39.130  32.556  33.788  1.00  0.00    -0.248 NA
ATOM     52  C   UNL A   1      37.472  34.203  33.749  1.00  0.00     0.031 C 
ATOM     53  C   UNL A   1      41.887  31.859  37.200  1.00  0.00     0.029 A 
ATOM     54  C   UNL A   1      41.017  32.100  36.147  1.00  0.00     0.049 A 
ATOM     55  H   UNL A   1      40.851  31.089  34.303  1.00  0.00     0.167 HD
ATOM     56  C   UNL A   1      39.175  33.277  34.977  1.00  0.00     0.074 A 
ATOM     57  C   UNL A   1      38.152  34.298  34.883  1.00  0.00     0.031 C 
ATOM     58  C   UNL A   1      39.993  33.110  36.046  1.00  0.00     0.031 A 
BRANCH  45  59
ATOM     59  C   UNL A   1      43.972  28.408  35.471  1.00  0.00    -0.014 A 
ATOM     60  C   UNL A   1      45.339  28.711  35.322  1.00  0.00     0.010 A 
ATOM     61  C   UNL A   1      43.603  27.301  36.259  1.00  0.00     0.010 A 
ATOM     62  C   UNL A   1      46.314  27.897  35.903  1.00  0.00     0.020 A 
ATOM     63  C   UNL A   1      44.574  26.504  36.869  1.00  0.00     0.020 A 
ATOM     64  C   UNL A   1      45.925  26.796  36.670  1.00  0.00     0.054 A 
BRANCH  64  65
ATOM     65  S   UNL A   1      47.213  25.762  37.420  1.00  0.00     0.124 S 
ATOM     66  O   UNL A   1      47.121  26.141  38.828  1.00  0.00    -0.237 OA
ATOM     67  O   UNL A   1      46.764  24.409  37.103  1.00  0.00    -0.237 OA
ATOM     68  O   UNL A   1      48.437  26.184  36.742  1.00  0.00    -0.744 OA
ENDBRANCH  64  65
ENDBRANCH  45  59
BRANCH  46  69
ATOM     69  C   UNL A   1      36.578  33.469  31.046  1.00  0.00    -0.014 A 
ATOM     70  C   UNL A   1      36.692  33.943  29.728  1.00  0.00     0.010 A 
ATOM     71  C   UNL A   1      35.368  33.662  31.739  1.00  0.00     0.010 A 
ATOM     72  C   UNL A   1      35.622  34.605  29.117  1.00  0.00     0.020 A 
ATOM     73  C   UNL A   1      34.287  34.296  31.122  1.00  0.00     0.020 A 
ATOM     74  C   UNL A   1      34.423  34.771  29.817  1.00  0.00     0.054 A 
BRANCH  74  75
ATOM     75  S   UNL A   1      33.026  35.571  28.980  1.00  0.00     0.124 S 
ATOM     76  O   UNL A   1      32.203  36.002  30.105  1.00  0.00    -0.237 OA
ATOM     77  O   UNL A   1      33.679  36.637  28.226  1.00  0.00    -0.237 OA
ATOM     78  O   UNL A   1      32.458  34.499  28.163  1.00  0.00    -0.744 OA
ENDBRANCH  74  75
ENDBRANCH  46  69
BRANCH  58  79
ATOM     79  C   UNL A   1      39.846  34.075  37.192  1.00  0.00    -0.014 A 
ATOM     80  C   UNL A   1      40.435  35.351  37.158  1.00  0.00     0.010 A 
ATOM     81  C   UNL A   1      39.053  33.717  38.299  1.00  0.00     0.010 A 
ATOM     82  C   UNL A   1      40.261  36.239  38.223  1.00  0.00     0.020 A 
ATOM     83  C   UNL A   1      38.850  34.613  39.351  1.00  0.00     0.020 A 
ATOM     84  C   UNL A   1      39.467  35.865  39.313  1.00  0.00     0.054 A 
BRANCH  84  85
ATOM     85  S   UNL A   1      39.220  37.051  40.662  1.00  0.00     0.124 S 
ATOM     86  O   UNL A   1      40.578  37.537  40.893  1.00  0.00    -0.237 OA
ATOM     87  O   UNL A   1      38.299  38.019  40.071  1.00  0.00    -0.237 OA
ATOM     88  O   UNL A   1      38.657  36.240  41.739  1.00  0.00    -0.744 OA
ENDBRANCH  84  85
ENDBRANCH  58  79
ENDBRANCH  32  33
ENDBRANCH  24  27
ENDBRANCH  22  23
ENDBRANCH  21  22
ENDBRANCH   1  21
TORSDOF 17
ENDMDL
MODEL 3
REMARK VINA RESULT:      -9.4      3.419      4.468
REMARK SMILES CC[C@H](C)[NH+]1CCN(C(=O)CC(=O)NCCCCNC(=O)c2ccc(-c3c4nc(c(-c5ccc(S(=O)(=O)[O-])cc5)c5ccc([nH]5)c(-c5ccc(S(=O)(=O)[O-])cc5)c5nc(c(-c6ccc(S(=O)(=O)[O-])cc6)c6ccc3[nH]6)C=C5)C=C4)cc2)CC1
REMARK SMILES IDX 16 1 15 2 14 3 12 4 13 5 11 7 9 8 5 9 6 10 83 11 7 13 82 14
REMARK SMILES IDX 8 15 10 16 3 17 4 18 2 19 1 20 17 21 18 22 19 23 20 24 21 26
REMARK SMILES IDX 22 27 23 28 81 29 24 30 80 31 25 32 26 33 27 34 74 35 28 36
REMARK SMILES IDX 79 37 73 38 75 39 29 40 78 41 72 42 71 43 30 45 60 46 41 47
REMARK SMILES IDX 59 48 42 49 45 50 58 51 76 52 43 53 44 54 57 56 77 57 46 58
REMARK SMILES IDX 31 59 32 60 40 61 33 62 39 63 34 64 35 65 36 66 37 67 38 68
REMARK SMILES IDX 61 69 62 70 70 71 63 72 69 73 64 74 65 75 66 76 67 77 68 78
REMARK SMILES IDX 47 79 48 80 56 81 49 82 55 83 50 84 51 85 52 86 53 87 54 88
REMARK H PARENT 14 6 5 12 19 25 75 44 45 55
REMARK Flexibility Score: inf
ROOT
ATOM      1  C   UNL A   1      42.517  22.874  26.781  1.00  0.00     0.023 C 
ENDROOT
BRANCH   1   2
ATOM      2  C   UNL A   1      43.704  23.358  25.947  1.00  0.00     0.116 C 
BRANCH   2   3
ATOM      3  N   UNL A   1      44.605  22.269  25.617  1.00  0.00    -0.356 N 
ATOM      4  C   UNL A   1      45.850  22.333  25.065  1.00  0.00     0.229 C 
ATOM      5  O   UNL A   1      46.445  21.280  24.829  1.00  0.00    -0.275 OA
ATOM      6  H   UNL A   1      44.273  21.364  25.818  1.00  0.00     0.163 HD
BRANCH   4   7
ATOM      7  C   UNL A   1      46.490  23.667  24.782  1.00  0.00     0.200 C 
BRANCH   7   8
ATOM      8  C   UNL A   1      46.917  24.430  26.014  1.00  0.00     0.232 C 
ATOM      9  N   UNL A   1      47.198  28.770  25.982  1.00  0.00    -0.330 N 
ATOM     10  C   UNL A   1      47.693  27.957  27.104  1.00  0.00     0.284 C 
ATOM     11  C   UNL A   1      47.280  28.003  24.734  1.00  0.00     0.284 C 
ATOM     12  H   UNL A   1      47.826  29.564  25.854  1.00  0.00     0.348 HD
ATOM     13  C   UNL A   1      47.125  26.535  27.222  1.00  0.00     0.181 C 
ATOM     14  C   UNL A   1      46.656  26.600  24.766  1.00  0.00     0.181 C 
ATOM     15  N   UNL A   1      47.013  25.812  25.951  1.00  0.00    -0.331 N 
ATOM     16  O   UNL A   1      47.172  23.809  27.050  1.00  0.00    -0.274 OA
BRANCH   9  17
ATOM     17  C   UNL A   1      45.949  29.508  26.249  1.00  0.00     0.180 C 
ATOM     18  C   UNL A   1      45.078  28.652  27.187  1.00  0.00     0.075 C 
BRANCH  17  19
ATOM     19  C   UNL A   1      46.081  30.942  26.801  1.00  0.00     0.061 C 
ATOM     20  C   UNL A   1      45.980  31.011  28.321  1.00  0.00     0.010 C 
ENDBRANCH  17  19
ENDBRANCH   9  17
ENDBRANCH   7   8
ENDBRANCH   4   7
ENDBRANCH   2   3
ENDBRANCH   1   2
BRANCH   1  21
ATOM     21  C   UNL A   1      41.679  21.774  26.122  1.00  0.00     0.023 C 
BRANCH  21  22
ATOM     22  C   UNL A   1      40.324  21.508  26.769  1.00  0.00     0.116 C 
BRANCH  22  23
ATOM     23  N   UNL A   1      39.202  21.944  25.953  1.00  0.00    -0.352 N 
ATOM     24  C   UNL A   1      38.589  23.176  25.912  1.00  0.00     0.251 C 
ATOM     25  H   UNL A   1      38.830  21.265  25.346  1.00  0.00     0.163 HD
ATOM     26  O   UNL A   1      37.573  23.331  25.248  1.00  0.00    -0.269 OA
BRANCH  24  27
ATOM     27  C   UNL A   1      39.144  24.298  26.703  1.00  0.00     0.039 A 
ATOM     28  C   UNL A   1      39.957  25.234  26.059  1.00  0.00     0.014 A 
ATOM     29  C   UNL A   1      38.854  24.437  28.063  1.00  0.00     0.014 A 
ATOM     30  C   UNL A   1      40.428  26.342  26.767  1.00  0.00     0.010 A 
ATOM     31  C   UNL A   1      39.259  25.583  28.744  1.00  0.00     0.010 A 
ATOM     32  C   UNL A   1      40.054  26.545  28.106  1.00  0.00    -0.014 A 
BRANCH  32  33
ATOM     33  C   UNL A   1      40.481  27.765  28.841  1.00  0.00     0.031 A 
ATOM     34  C   UNL A   1      41.836  27.831  29.492  1.00  0.00     0.074 A 
ATOM     35  C   UNL A   1      39.625  28.800  28.965  1.00  0.00     0.049 A 
ATOM     36  N   UNL A   1      42.378  28.811  30.169  1.00  0.00    -0.248 NA
ATOM     37  C   UNL A   1      42.684  26.631  29.392  1.00  0.00     0.031 C 
ATOM     38  C   UNL A   1      38.260  28.838  28.433  1.00  0.00     0.029 A 
ATOM     39  N   UNL A   1      39.775  30.020  29.578  1.00  0.00    -0.354 N 
ATOM     40  C   UNL A   1      43.618  28.342  30.589  1.00  0.00     0.074 A 
ATOM     41  C   UNL A   1      43.725  26.972  30.138  1.00  0.00     0.031 C 
ATOM     42  C   UNL A   1      37.713  30.031  28.712  1.00  0.00     0.029 A 
ATOM     43  C   UNL A   1      38.668  30.829  29.473  1.00  0.00     0.049 A 
ATOM     44  H   UNL A   1      40.596  30.288  30.048  1.00  0.00     0.167 HD
ATOM     45  C   UNL A   1      44.588  28.997  31.270  1.00  0.00     0.031 A 
ATOM     46  C   UNL A   1      38.444  32.075  29.936  1.00  0.00     0.031 A 
ATOM     47  C   UNL A   1      44.480  30.364  31.709  1.00  0.00     0.049 A 
ATOM     48  C   UNL A   1      39.539  32.789  30.678  1.00  0.00     0.074 A 
ATOM     49  C   UNL A   1      45.435  31.141  32.344  1.00  0.00     0.029 A 
ATOM     50  N   UNL A   1      43.350  31.155  31.569  1.00  0.00    -0.354 N 
ATOM     51  N   UNL A   1      40.739  32.360  30.987  1.00  0.00    -0.248 NA
ATOM     52  C   UNL A   1      39.257  34.163  31.119  1.00  0.00     0.031 C 
ATOM     53  C   UNL A   1      44.860  32.380  32.642  1.00  0.00     0.029 A 
ATOM     54  C   UNL A   1      43.572  32.402  32.131  1.00  0.00     0.049 A 
ATOM     55  H   UNL A   1      42.514  30.873  31.134  1.00  0.00     0.167 HD
ATOM     56  C   UNL A   1      41.366  33.420  31.633  1.00  0.00     0.074 A 
ATOM     57  C   UNL A   1      40.417  34.514  31.658  1.00  0.00     0.031 C 
ATOM     58  C   UNL A   1      42.618  33.482  32.154  1.00  0.00     0.031 A 
BRANCH  45  59
ATOM     59  C   UNL A   1      45.850  28.237  31.593  1.00  0.00    -0.014 A 
ATOM     60  C   UNL A   1      45.967  27.479  32.773  1.00  0.00     0.010 A 
ATOM     61  C   UNL A   1      46.927  28.256  30.686  1.00  0.00     0.010 A 
ATOM     62  C   UNL A   1      47.152  26.800  33.066  1.00  0.00     0.020 A 
ATOM     63  C   UNL A   1      48.101  27.551  30.960  1.00  0.00     0.020 A 
ATOM     64  C   UNL A   1      48.214  26.843  32.158  1.00  0.00     0.054 A 
BRANCH  64  65
ATOM     65  S   UNL A   1      49.737  25.943  32.560  1.00  0.00     0.124 S 
ATOM     66  O   UNL A   1      49.224  24.815  33.333  1.00  0.00    -0.237 OA
ATOM     67  O   UNL A   1      50.270  25.612  31.241  1.00  0.00    -0.237 OA
ATOM     68  O   UNL A   1      50.522  26.913  33.321  1.00  0.00    -0.744 OA
ENDBRANCH  64  65
ENDBRANCH  45  59
BRANCH  46  69
ATOM     69  C   UNL A   1      37.130  32.730  29.684  1.00  0.00    -0.014 A 
ATOM     70  C   UNL A   1      36.092  32.644  30.629  1.00  0.00     0.010 A 
ATOM     71  C   UNL A   1      36.922  33.474  28.508  1.00  0.00     0.010 A 
ATOM     72  C   UNL A   1      34.869  33.282  30.398  1.00  0.00     0.020 A 
ATOM     73  C   UNL A   1      35.712  34.137  28.288  1.00  0.00     0.020 A 
ATOM     74  C   UNL A   1      34.689  34.030  29.231  1.00  0.00     0.054 A 
BRANCH  74  75
ATOM     75  S   UNL A   1      33.119  34.905  28.986  1.00  0.00     0.124 S 
ATOM     76  O   UNL A   1      33.565  36.195  28.472  1.00  0.00    -0.237 OA
ATOM     77  O   UNL A   1      32.425  34.045  28.030  1.00  0.00    -0.237 OA
ATOM     78  O   UNL A   1      32.531  34.934  30.325  1.00  0.00    -0.744 OA
ENDBRANCH  74  75
ENDBRANCH  46  69
BRANCH  58  79
ATOM     79  C   UNL A   1      43.054  34.788  32.765  1.00  0.00    -0.014 A 
ATOM     80  C   UNL A   1      43.751  35.752  32.017  1.00  0.00     0.010 A 
ATOM     81  C   UNL A   1      42.705  35.077  34.098  1.00  0.00     0.010 A 
ATOM     82  C   UNL A   1      44.120  36.968  32.599  1.00  0.00     0.020 A 
ATOM     83  C   UNL A   1      43.044  36.303  34.674  1.00  0.00     0.020 A 
ATOM     84  C   UNL A   1      43.762  37.236  33.925  1.00  0.00     0.054 A 
BRANCH  84  85
ATOM     85  S   UNL A   1      44.214  38.839  34.644  1.00  0.00     0.124 S 
ATOM     86  O   UNL A   1      44.148  38.559  36.076  1.00  0.00    -0.237 OA
ATOM     87  O   UNL A   1      45.554  39.063  34.109  1.00  0.00    -0.237 OA
ATOM     88  O   UNL A   1      43.186  39.748  34.139  1.00  0.00    -0.744 OA
ENDBRANCH  84  85
ENDBRANCH  58  79
ENDBRANCH  32  33
ENDBRANCH  24  27
ENDBRANCH  22  23
ENDBRANCH  21  22
ENDBRANCH   1  21
TORSDOF 17
ENDMDL
