MODEL 1
REMARK VINA RESULT:     -12.8      0.000      0.000
REMARK SMILES Cc1ccc2c(c1)c(-c1ccnc3c(C)cccc13)c(C)n2CC(=O)NCCCCNC(=O)c1ccc(-c2c3nc(c(-c4ccc(S(=O)(=O)[O-])cc4)c4ccc([nH]4)c(-c4ccc(S(=O)(=O)[O-])cc4)c4nc(c(-c5ccc(S(=O)(=O)[O-])cc5)c5ccc2[nH]5)C=C4)C=C3)cc1
REMARK SMILES IDX 29 1 28 2 27 3 26 4 24 5 25 6 23 8 22 9 1 10 2 11 3 12 7 13
REMARK SMILES IDX 4 14 6 15 5 16 8 17 20 18 21 19 9 20 10 21 19 22 11 23 13 24
REMARK SMILES IDX 18 25 12 26 14 27 17 28 15 29 16 30 30 31 31 32 32 33 33 35
REMARK SMILES IDX 34 36 35 37 93 38 36 39 92 40 37 41 38 42 39 43 86 44 40 45
REMARK SMILES IDX 91 46 85 47 87 48 41 49 90 50 84 51 83 52 42 54 72 55 53 56
REMARK SMILES IDX 71 57 54 58 57 59 70 60 88 61 55 62 56 63 69 65 89 66 58 67
REMARK SMILES IDX 43 68 44 69 52 70 45 71 51 72 46 73 47 74 48 75 49 76 50 77
REMARK SMILES IDX 73 78 74 79 82 80 75 81 81 82 76 83 77 84 78 85 79 86 80 87
REMARK SMILES IDX 59 88 60 89 68 90 61 91 67 92 62 93 63 94 64 95 65 96 66 97
REMARK H PARENT 26 7 31 34 87 53 57 64
REMARK Flexibility Score: inf
ROOT
ATOM      1  C   UNL A   1      40.688  21.525  26.113  1.00  0.00     0.023 C 
ENDROOT
BRANCH   1   2
ATOM      2  C   UNL A   1      40.110  22.405  27.227  1.00  0.00     0.023 C 
BRANCH   2   3
ATOM      3  C   UNL A   1      38.944  23.286  26.791  1.00  0.00     0.116 C 
BRANCH   3   4
ATOM      4  N   UNL A   1      38.544  23.037  25.421  1.00  0.00    -0.355 N 
ATOM      5  C   UNL A   1      37.600  22.171  24.949  1.00  0.00     0.239 C 
ATOM      6  O   UNL A   1      37.365  22.175  23.738  1.00  0.00    -0.273 OA
ATOM      7  H   UNL A   1      39.016  23.565  24.737  1.00  0.00     0.163 HD
BRANCH   5   8
ATOM      8  C   UNL A   1      36.805  21.295  25.900  1.00  0.00     0.222 C 
BRANCH   8   9
ATOM      9  N   UNL A   1      35.367  21.311  25.652  1.00  0.00    -0.335 N 
ATOM     10  C   UNL A   1      31.875  17.769  22.955  1.00  0.00     0.044 C 
ATOM     11  C   UNL A   1      32.847  18.640  23.695  1.00  0.00    -0.050 A 
ATOM     12  C   UNL A   1      34.136  18.185  23.971  1.00  0.00     0.005 A 
ATOM     13  C   UNL A   1      32.448  19.905  24.155  1.00  0.00     0.014 A 
ATOM     14  C   UNL A   1      35.055  18.980  24.663  1.00  0.00     0.027 A 
ATOM     15  C   UNL A   1      33.363  20.735  24.841  1.00  0.00     0.008 A 
ATOM     16  C   UNL A   1      34.660  20.271  25.065  1.00  0.00     0.049 A 
ATOM     17  C   UNL A   1      33.279  22.040  25.405  1.00  0.00     0.011 A 
ATOM     18  C   UNL A   1      34.515  22.358  25.948  1.00  0.00     0.024 A 
ATOM     19  C   UNL A   1      34.932  23.599  26.671  1.00  0.00     0.065 C 
BRANCH  17  20
ATOM     20  C   UNL A   1      32.126  22.929  25.475  1.00  0.00    -0.005 A 
ATOM     21  C   UNL A   1      31.281  22.791  26.575  1.00  0.00     0.029 A 
ATOM     22  C   UNL A   1      31.855  23.908  24.484  1.00  0.00     0.008 A 
ATOM     23  C   UNL A   1      30.212  23.648  26.674  1.00  0.00     0.112 A 
ATOM     24  C   UNL A   1      30.732  24.746  24.685  1.00  0.00     0.074 A 
ATOM     25  C   UNL A   1      32.639  24.075  23.316  1.00  0.00     0.011 A 
ATOM     26  N   UNL A   1      29.941  24.611  25.774  1.00  0.00    -0.256 NA
ATOM     27  C   UNL A   1      30.453  25.731  23.727  1.00  0.00    -0.025 A 
ATOM     28  C   UNL A   1      32.328  25.034  22.361  1.00  0.00     0.001 A 
ATOM     29  C   UNL A   1      29.268  26.651  23.864  1.00  0.00     0.047 C 
ATOM     30  C   UNL A   1      31.235  25.859  22.564  1.00  0.00     0.005 A 
ENDBRANCH  17  20
ENDBRANCH   8   9
ENDBRANCH   5   8
ENDBRANCH   3   4
ENDBRANCH   2   3
ENDBRANCH   1   2
BRANCH   1  31
ATOM     31  C   UNL A   1      42.205  21.338  26.194  1.00  0.00     0.116 C 
BRANCH  31  32
ATOM     32  N   UNL A   1      42.944  22.139  25.238  1.00  0.00    -0.352 N 
ATOM     33  C   UNL A   1      43.280  23.461  25.156  1.00  0.00     0.251 C 
ATOM     34  H   UNL A   1      43.278  21.612  24.477  1.00  0.00     0.163 HD
ATOM     35  O   UNL A   1      44.053  23.769  24.244  1.00  0.00    -0.269 OA
BRANCH  33  36
ATOM     36  C   UNL A   1      42.721  24.530  26.022  1.00  0.00     0.039 A 
ATOM     37  C   UNL A   1      41.889  25.562  25.591  1.00  0.00     0.014 A 
ATOM     38  C   UNL A   1      43.151  24.525  27.363  1.00  0.00     0.014 A 
ATOM     39  C   UNL A   1      41.617  26.638  26.419  1.00  0.00     0.010 A 
ATOM     40  C   UNL A   1      42.858  25.585  28.209  1.00  0.00     0.010 A 
ATOM     41  C   UNL A   1      42.149  26.669  27.706  1.00  0.00    -0.014 A 
BRANCH  41  42
ATOM     42  C   UNL A   1      41.877  27.858  28.500  1.00  0.00     0.031 A 
ATOM     43  C   UNL A   1      42.962  28.877  28.494  1.00  0.00     0.074 A 
ATOM     44  C   UNL A   1      40.706  28.043  29.138  1.00  0.00     0.049 A 
ATOM     45  N   UNL A   1      43.650  29.327  29.492  1.00  0.00    -0.248 NA
ATOM     46  C   UNL A   1      43.421  29.359  27.181  1.00  0.00     0.031 C 
ATOM     47  C   UNL A   1      39.475  27.260  29.002  1.00  0.00     0.029 A 
ATOM     48  N   UNL A   1      40.333  29.064  29.954  1.00  0.00    -0.354 N 
ATOM     49  C   UNL A   1      44.516  30.282  28.962  1.00  0.00     0.074 A 
ATOM     50  C   UNL A   1      44.433  30.152  27.529  1.00  0.00     0.031 C 
ATOM     51  C   UNL A   1      38.439  27.980  29.487  1.00  0.00     0.029 A 
ATOM     52  C   UNL A   1      38.959  29.190  30.099  1.00  0.00     0.049 A 
ATOM     53  H   UNL A   1      40.978  29.659  30.402  1.00  0.00     0.167 HD
ATOM     54  C   UNL A   1      45.100  31.244  29.726  1.00  0.00     0.031 A 
ATOM     55  C   UNL A   1      38.296  30.267  30.589  1.00  0.00     0.031 A 
ATOM     56  C   UNL A   1      45.052  30.924  31.124  1.00  0.00     0.049 A 
ATOM     57  C   UNL A   1      39.266  31.059  31.386  1.00  0.00     0.074 A 
ATOM     58  C   UNL A   1      45.595  29.928  31.909  1.00  0.00     0.029 A 
ATOM     59  N   UNL A   1      44.053  31.502  31.870  1.00  0.00    -0.354 N 
ATOM     60  N   UNL A   1      39.815  30.633  32.490  1.00  0.00    -0.248 NA
ATOM     61  C   UNL A   1      39.961  32.155  30.727  1.00  0.00     0.031 C 
ATOM     62  C   UNL A   1      44.599  29.650  32.886  1.00  0.00     0.029 A 
ATOM     63  C   UNL A   1      43.532  30.531  32.684  1.00  0.00     0.049 A 
ATOM     64  H   UNL A   1      43.764  32.442  31.827  1.00  0.00     0.167 HD
ATOM     65  C   UNL A   1      41.120  31.104  32.444  1.00  0.00     0.074 A 
ATOM     66  C   UNL A   1      41.120  32.114  31.388  1.00  0.00     0.031 C 
ATOM     67  C   UNL A   1      42.137  30.445  33.072  1.00  0.00     0.031 A 
BRANCH  54  68
ATOM     68  C   UNL A   1      45.418  32.633  29.229  1.00  0.00    -0.014 A 
ATOM     69  C   UNL A   1      46.602  32.943  28.531  1.00  0.00     0.010 A 
ATOM     70  C   UNL A   1      44.403  33.615  29.227  1.00  0.00     0.010 A 
ATOM     71  C   UNL A   1      46.780  34.160  27.871  1.00  0.00     0.020 A 
ATOM     72  C   UNL A   1      44.552  34.822  28.528  1.00  0.00     0.020 A 
ATOM     73  C   UNL A   1      45.744  35.086  27.858  1.00  0.00     0.054 A 
BRANCH  73  74
ATOM     74  S   UNL A   1      45.968  36.590  26.878  1.00  0.00     0.124 S 
ATOM     75  O   UNL A   1      46.620  36.071  25.678  1.00  0.00    -0.237 OA
ATOM     76  O   UNL A   1      44.594  37.052  26.699  1.00  0.00    -0.237 OA
ATOM     77  O   UNL A   1      46.802  37.432  27.731  1.00  0.00    -0.744 OA
ENDBRANCH  73  74
ENDBRANCH  54  68
BRANCH  55  78
ATOM     78  C   UNL A   1      37.065  30.863  30.008  1.00  0.00    -0.014 A 
ATOM     79  C   UNL A   1      37.036  31.214  28.641  1.00  0.00     0.010 A 
ATOM     80  C   UNL A   1      36.037  31.355  30.834  1.00  0.00     0.010 A 
ATOM     81  C   UNL A   1      36.059  32.071  28.127  1.00  0.00     0.020 A 
ATOM     82  C   UNL A   1      35.051  32.219  30.323  1.00  0.00     0.020 A 
ATOM     83  C   UNL A   1      35.091  32.596  28.978  1.00  0.00     0.054 A 
BRANCH  83  84
ATOM     84  S   UNL A   1      33.946  33.839  28.312  1.00  0.00     0.124 S 
ATOM     85  O   UNL A   1      32.930  33.002  27.672  1.00  0.00    -0.237 OA
ATOM     86  O   UNL A   1      33.503  34.537  29.521  1.00  0.00    -0.237 OA
ATOM     87  O   UNL A   1      34.770  34.625  27.409  1.00  0.00    -0.744 OA
ENDBRANCH  83  84
ENDBRANCH  55  78
BRANCH  67  88
ATOM     88  C   UNL A   1      41.809  29.347  34.060  1.00  0.00    -0.014 A 
ATOM     89  C   UNL A   1      42.036  29.621  35.422  1.00  0.00     0.010 A 
ATOM     90  C   UNL A   1      41.525  28.020  33.681  1.00  0.00     0.010 A 
ATOM     91  C   UNL A   1      42.034  28.601  36.373  1.00  0.00     0.020 A 
ATOM     92  C   UNL A   1      41.495  26.992  34.638  1.00  0.00     0.020 A 
ATOM     93  C   UNL A   1      41.785  27.288  35.973  1.00  0.00     0.054 A 
BRANCH  93  94
ATOM     94  S   UNL A   1      41.859  25.976  37.221  1.00  0.00     0.124 S 
ATOM     95  O   UNL A   1      42.273  24.819  36.431  1.00  0.00    -0.237 OA
ATOM     96  O   UNL A   1      42.856  26.473  38.167  1.00  0.00    -0.237 OA
ATOM     97  O   UNL A   1      40.496  25.916  37.742  1.00  0.00    -0.744 OA
ENDBRANCH  93  94
ENDBRANCH  67  88
ENDBRANCH  41  42
ENDBRANCH  33  36
ENDBRANCH  31  32
ENDBRANCH   1  31
TORSDOF 16
ENDMDL
MODEL 2
REMARK VINA RESULT:     -12.6      2.742      9.406
REMARK SMILES Cc1ccc2c(c1)c(-c1ccnc3c(C)cccc13)c(C)n2CC(=O)NCCCCNC(=O)c1ccc(-c2c3nc(c(-c4ccc(S(=O)(=O)[O-])cc4)c4ccc([nH]4)c(-c4ccc(S(=O)(=O)[O-])cc4)c4nc(c(-c5ccc(S(=O)(=O)[O-])cc5)c5ccc2[nH]5)C=C4)C=C3)cc1
REMARK SMILES IDX 29 1 28 2 27 3 26 4 24 5 25 6 23 8 22 9 1 10 2 11 3 12 7 13
REMARK SMILES IDX 4 14 6 15 5 16 8 17 20 18 21 19 9 20 10 21 19 22 11 23 13 24
REMARK SMILES IDX 18 25 12 26 14 27 17 28 15 29 16 30 30 31 31 32 32 33 33 35
REMARK SMILES IDX 34 36 35 37 93 38 36 39 92 40 37 41 38 42 39 43 86 44 40 45
REMARK SMILES IDX 91 46 85 47 87 48 41 49 90 50 84 51 83 52 42 54 72 55 53 56
REMARK SMILES IDX 71 57 54 58 57 59 70 60 88 61 55 62 56 63 69 65 89 66 58 67
REMARK SMILES IDX 43 68 44 69 52 70 45 71 51 72 46 73 47 74 48 75 49 76 50 77
REMARK SMILES IDX 73 78 74 79 82 80 75 81 81 82 76 83 77 84 78 85 79 86 80 87
REMARK SMILES IDX 59 88 60 89 68 90 61 91 67 92 62 93 63 94 64 95 65 96 66 97
REMARK H PARENT 26 7 31 34 87 53 57 64
REMARK Flexibility Score: inf
ROOT
ATOM      1  C   UNL A   1      33.930  33.634  28.617  1.00  0.00     0.023 C 
ENDROOT
BRANCH   1   2
ATOM      2  C   UNL A   1      35.187  32.975  28.037  1.00  0.00     0.023 C 
BRANCH   2   3
ATOM      3  C   UNL A   1      34.986  31.535  27.577  1.00  0.00     0.116 C 
BRANCH   3   4
ATOM      4  N   UNL A   1      33.674  31.023  27.916  1.00  0.00    -0.355 N 
ATOM      5  C   UNL A   1      32.839  30.245  27.166  1.00  0.00     0.239 C 
ATOM      6  O   UNL A   1      31.790  29.856  27.685  1.00  0.00    -0.273 OA
ATOM      7  H   UNL A   1      33.338  31.268  28.809  1.00  0.00     0.163 HD
BRANCH   5   8
ATOM      8  C   UNL A   1      33.236  29.803  25.771  1.00  0.00     0.222 C 
BRANCH   8   9
ATOM      9  N   UNL A   1      32.426  28.708  25.247  1.00  0.00    -0.335 N 
ATOM     10  C   UNL A   1      27.395  28.518  22.664  1.00  0.00     0.044 C 
ATOM     11  C   UNL A   1      28.744  28.644  23.309  1.00  0.00    -0.050 A 
ATOM     12  C   UNL A   1      29.350  29.893  23.444  1.00  0.00     0.005 A 
ATOM     13  C   UNL A   1      29.425  27.495  23.742  1.00  0.00     0.014 A 
ATOM     14  C   UNL A   1      30.608  30.029  24.040  1.00  0.00     0.027 A 
ATOM     15  C   UNL A   1      30.689  27.608  24.362  1.00  0.00     0.008 A 
ATOM     16  C   UNL A   1      31.253  28.874  24.523  1.00  0.00     0.049 A 
ATOM     17  C   UNL A   1      31.605  26.666  24.912  1.00  0.00     0.011 A 
ATOM     18  C   UNL A   1      32.698  27.362  25.408  1.00  0.00     0.024 A 
ATOM     19  C   UNL A   1      33.934  26.830  26.060  1.00  0.00     0.065 C 
BRANCH  17  20
ATOM     20  C   UNL A   1      31.504  25.212  24.949  1.00  0.00    -0.005 A 
ATOM     21  C   UNL A   1      30.859  24.647  26.047  1.00  0.00     0.029 A 
ATOM     22  C   UNL A   1      32.023  24.383  23.921  1.00  0.00     0.008 A 
ATOM     23  C   UNL A   1      30.722  23.280  26.078  1.00  0.00     0.112 A 
ATOM     24  C   UNL A   1      31.822  22.988  24.044  1.00  0.00     0.074 A 
ATOM     25  C   UNL A   1      32.733  24.882  22.800  1.00  0.00     0.011 A 
ATOM     26  N   UNL A   1      31.170  22.463  25.106  1.00  0.00    -0.256 NA
ATOM     27  C   UNL A   1      32.314  22.150  23.032  1.00  0.00    -0.025 A 
ATOM     28  C   UNL A   1      33.241  24.034  21.825  1.00  0.00     0.001 A 
ATOM     29  C   UNL A   1      32.150  20.654  23.099  1.00  0.00     0.047 C 
ATOM     30  C   UNL A   1      33.035  22.671  21.942  1.00  0.00     0.005 A 
ENDBRANCH  17  20
ENDBRANCH   8   9
ENDBRANCH   5   8
ENDBRANCH   3   4
ENDBRANCH   2   3
ENDBRANCH   1   2
BRANCH   1  31
ATOM     31  C   UNL A   1      34.209  34.584  29.783  1.00  0.00     0.116 C 
BRANCH  31  32
ATOM     32  N   UNL A   1      34.011  33.982  31.087  1.00  0.00    -0.352 N 
ATOM     33  C   UNL A   1      34.729  33.110  31.856  1.00  0.00     0.251 C 
ATOM     34  H   UNL A   1      33.170  34.265  31.514  1.00  0.00     0.163 HD
ATOM     35  O   UNL A   1      34.306  32.919  33.000  1.00  0.00    -0.269 OA
BRANCH  33  36
ATOM     36  C   UNL A   1      35.904  32.336  31.382  1.00  0.00     0.039 A 
ATOM     37  C   UNL A   1      35.923  30.961  31.150  1.00  0.00     0.014 A 
ATOM     38  C   UNL A   1      37.105  33.059  31.247  1.00  0.00     0.014 A 
ATOM     39  C   UNL A   1      37.121  30.300  30.942  1.00  0.00     0.010 A 
ATOM     40  C   UNL A   1      38.306  32.408  31.009  1.00  0.00     0.010 A 
ATOM     41  C   UNL A   1      38.313  31.021  30.927  1.00  0.00    -0.014 A 
BRANCH  41  42
ATOM     42  C   UNL A   1      39.541  30.256  30.769  1.00  0.00     0.031 A 
ATOM     43  C   UNL A   1      40.303  30.025  32.026  1.00  0.00     0.074 A 
ATOM     44  C   UNL A   1      39.920  29.746  29.581  1.00  0.00     0.049 A 
ATOM     45  N   UNL A   1      41.503  30.401  32.321  1.00  0.00    -0.248 NA
ATOM     46  C   UNL A   1      39.576  29.402  33.144  1.00  0.00     0.031 C 
ATOM     47  C   UNL A   1      39.137  29.667  28.346  1.00  0.00     0.029 A 
ATOM     48  N   UNL A   1      41.056  29.067  29.271  1.00  0.00    -0.354 N 
ATOM     49  C   UNL A   1      41.755  29.912  33.602  1.00  0.00     0.074 A 
ATOM     50  C   UNL A   1      40.492  29.440  34.110  1.00  0.00     0.031 C 
ATOM     51  C   UNL A   1      39.704  28.757  27.523  1.00  0.00     0.029 A 
ATOM     52  C   UNL A   1      40.958  28.315  28.109  1.00  0.00     0.049 A 
ATOM     53  H   UNL A   1      41.873  29.105  29.819  1.00  0.00     0.167 HD
ATOM     54  C   UNL A   1      43.015  29.752  34.090  1.00  0.00     0.031 A 
ATOM     55  C   UNL A   1      41.795  27.323  27.718  1.00  0.00     0.031 A 
ATOM     56  C   UNL A   1      43.983  30.493  33.332  1.00  0.00     0.049 A 
ATOM     57  C   UNL A   1      43.072  27.506  28.453  1.00  0.00     0.074 A 
ATOM     58  C   UNL A   1      44.211  31.833  33.098  1.00  0.00     0.029 A 
ATOM     59  N   UNL A   1      44.696  29.808  32.378  1.00  0.00    -0.354 N 
ATOM     60  N   UNL A   1      43.866  28.527  28.283  1.00  0.00    -0.248 NA
ATOM     61  C   UNL A   1      43.257  26.772  29.696  1.00  0.00     0.031 C 
ATOM     62  C   UNL A   1      44.659  31.897  31.749  1.00  0.00     0.029 A 
ATOM     63  C   UNL A   1      44.740  30.592  31.255  1.00  0.00     0.049 A 
ATOM     64  H   UNL A   1      45.101  28.916  32.481  1.00  0.00     0.167 HD
ATOM     65  C   UNL A   1      44.348  28.818  29.551  1.00  0.00     0.074 A 
ATOM     66  C   UNL A   1      44.018  27.646  30.360  1.00  0.00     0.031 C 
ATOM     67  C   UNL A   1      44.725  30.084  29.897  1.00  0.00     0.031 A 
BRANCH  54  68
ATOM     68  C   UNL A   1      43.412  28.658  35.051  1.00  0.00    -0.014 A 
ATOM     69  C   UNL A   1      42.757  27.411  35.101  1.00  0.00     0.010 A 
ATOM     70  C   UNL A   1      44.631  28.765  35.754  1.00  0.00     0.010 A 
ATOM     71  C   UNL A   1      43.274  26.329  35.814  1.00  0.00     0.020 A 
ATOM     72  C   UNL A   1      45.183  27.671  36.435  1.00  0.00     0.020 A 
ATOM     73  C   UNL A   1      44.495  26.460  36.462  1.00  0.00     0.054 A 
BRANCH  73  74
ATOM     74  S   UNL A   1      45.191  24.992  37.260  1.00  0.00     0.124 S 
ATOM     75  O   UNL A   1      44.614  23.915  36.459  1.00  0.00    -0.237 OA
ATOM     76  O   UNL A   1      46.627  25.200  37.095  1.00  0.00    -0.237 OA
ATOM     77  O   UNL A   1      44.701  25.085  38.632  1.00  0.00    -0.744 OA
ENDBRANCH  73  74
ENDBRANCH  54  68
BRANCH  55  78
ATOM     78  C   UNL A   1      41.380  26.013  27.152  1.00  0.00    -0.014 A 
ATOM     79  C   UNL A   1      40.196  25.397  27.612  1.00  0.00     0.010 A 
ATOM     80  C   UNL A   1      42.272  25.235  26.393  1.00  0.00     0.010 A 
ATOM     81  C   UNL A   1      39.938  24.044  27.377  1.00  0.00     0.020 A 
ATOM     82  C   UNL A   1      42.019  23.871  26.154  1.00  0.00     0.020 A 
ATOM     83  C   UNL A   1      40.868  23.279  26.679  1.00  0.00     0.054 A 
BRANCH  83  84
ATOM     84  S   UNL A   1      40.581  21.491  26.546  1.00  0.00     0.124 S 
ATOM     85  O   UNL A   1      40.655  21.068  27.945  1.00  0.00    -0.237 OA
ATOM     86  O   UNL A   1      39.243  21.431  25.950  1.00  0.00    -0.237 OA
ATOM     87  O   UNL A   1      41.661  21.025  25.693  1.00  0.00    -0.744 OA
ENDBRANCH  83  84
ENDBRANCH  55  78
BRANCH  67  88
ATOM     88  C   UNL A   1      44.884  31.130  28.815  1.00  0.00    -0.014 A 
ATOM     89  C   UNL A   1      43.926  32.159  28.773  1.00  0.00     0.010 A 
ATOM     90  C   UNL A   1      45.776  30.997  27.732  1.00  0.00     0.010 A 
ATOM     91  C   UNL A   1      43.819  32.999  27.664  1.00  0.00     0.020 A 
ATOM     92  C   UNL A   1      45.690  31.857  26.625  1.00  0.00     0.020 A 
ATOM     93  C   UNL A   1      44.688  32.830  26.586  1.00  0.00     0.054 A 
BRANCH  93  94
ATOM     94  S   UNL A   1      44.477  33.892  25.133  1.00  0.00     0.124 S 
ATOM     95  O   UNL A   1      43.353  34.738  25.527  1.00  0.00    -0.237 OA
ATOM     96  O   UNL A   1      45.765  34.576  25.030  1.00  0.00    -0.237 OA
ATOM     97  O   UNL A   1      44.196  32.950  24.054  1.00  0.00    -0.744 OA
ENDBRANCH  93  94
ENDBRANCH  67  88
ENDBRANCH  41  42
ENDBRANCH  33  36
ENDBRANCH  31  32
ENDBRANCH   1  31
TORSDOF 16
ENDMDL
MODEL 3
REMARK VINA RESULT:     -12.3      1.620      2.881
REMARK SMILES Cc1ccc2c(c1)c(-c1ccnc3c(C)cccc13)c(C)n2CC(=O)NCCCCNC(=O)c1ccc(-c2c3nc(c(-c4ccc(S(=O)(=O)[O-])cc4)c4ccc([nH]4)c(-c4ccc(S(=O)(=O)[O-])cc4)c4nc(c(-c5ccc(S(=O)(=O)[O-])cc5)c5ccc2[nH]5)C=C4)C=C3)cc1
REMARK SMILES IDX 29 1 28 2 27 3 26 4 24 5 25 6 23 8 22 9 1 10 2 11 3 12 7 13
REMARK SMILES IDX 4 14 6 15 5 16 8 17 20 18 21 19 9 20 10 21 19 22 11 23 13 24
REMARK SMILES IDX 18 25 12 26 14 27 17 28 15 29 16 30 30 31 31 32 32 33 33 35
REMARK SMILES IDX 34 36 35 37 93 38 36 39 92 40 37 41 38 42 39 43 86 44 40 45
REMARK SMILES IDX 91 46 85 47 87 48 41 49 90 50 84 51 83 52 42 54 72 55 53 56
REMARK SMILES IDX 71 57 54 58 57 59 70 60 88 61 55 62 56 63 69 65 89 66 58 67
REMARK SMILES IDX 43 68 44 69 52 70 45 71 51 72 46 73 47 74 48 75 49 76 50 77
REMARK SMILES IDX 73 78 74 79 82 80 75 81 81 82 76 83 77 84 78 85 79 86 80 87
REMARK SMILES IDX 59 88 60 89 68 90 61 91 67 92 62 93 63 94 64 95 65 96 66 97
REMARK H PARENT 26 7 31 34 87 53 57 64
REMARK Flexibility Score: inf
ROOT
ATOM      1  C   UNL A   1      38.912  22.975  26.478  1.00  0.00     0.023 C 
ENDROOT
BRANCH   1   2
ATOM      2  C   UNL A   1      38.002  22.377  25.398  1.00  0.00     0.023 C 
BRANCH   2   3
ATOM      3  C   UNL A   1      36.534  22.770  25.525  1.00  0.00     0.116 C 
BRANCH   3   4
ATOM      4  N   UNL A   1      35.638  21.672  25.219  1.00  0.00    -0.355 N 
ATOM      5  C   UNL A   1      34.614  21.629  24.317  1.00  0.00     0.239 C 
ATOM      6  O   UNL A   1      34.024  20.557  24.163  1.00  0.00    -0.273 OA
ATOM      7  H   UNL A   1      35.789  20.844  25.731  1.00  0.00     0.163 HD
BRANCH   5   8
ATOM      8  C   UNL A   1      34.276  22.841  23.469  1.00  0.00     0.222 C 
BRANCH   8   9
ATOM      9  N   UNL A   1      33.308  23.741  24.089  1.00  0.00    -0.335 N 
ATOM     10  C   UNL A   1      28.916  22.900  27.554  1.00  0.00     0.044 C 
ATOM     11  C   UNL A   1      30.121  23.057  26.674  1.00  0.00    -0.050 A 
ATOM     12  C   UNL A   1      31.000  21.992  26.481  1.00  0.00     0.005 A 
ATOM     13  C   UNL A   1      30.395  24.297  26.074  1.00  0.00     0.014 A 
ATOM     14  C   UNL A   1      32.130  22.122  25.668  1.00  0.00     0.027 A 
ATOM     15  C   UNL A   1      31.521  24.448  25.235  1.00  0.00     0.008 A 
ATOM     16  C   UNL A   1      32.360  23.352  25.024  1.00  0.00     0.049 A 
ATOM     17  C   UNL A   1      32.053  25.536  24.485  1.00  0.00     0.011 A 
ATOM     18  C   UNL A   1      33.189  25.093  23.824  1.00  0.00     0.024 A 
ATOM     19  C   UNL A   1      34.114  25.857  22.932  1.00  0.00     0.065 C 
BRANCH  17  20
ATOM     20  C   UNL A   1      31.571  26.910  24.407  1.00  0.00    -0.005 A 
ATOM     21  C   UNL A   1      30.698  27.220  23.366  1.00  0.00     0.029 A 
ATOM     22  C   UNL A   1      31.952  27.907  25.342  1.00  0.00     0.008 A 
ATOM     23  C   UNL A   1      30.205  28.500  23.302  1.00  0.00     0.112 A 
ATOM     24  C   UNL A   1      31.381  29.193  25.191  1.00  0.00     0.074 A 
ATOM     25  C   UNL A   1      32.872  27.680  26.395  1.00  0.00     0.011 A 
ATOM     26  N   UNL A   1      30.515  29.465  24.188  1.00  0.00    -0.256 NA
ATOM     27  C   UNL A   1      31.731  30.192  26.112  1.00  0.00    -0.025 A 
ATOM     28  C   UNL A   1      33.232  28.690  27.278  1.00  0.00     0.001 A 
ATOM     29  C   UNL A   1      31.176  31.589  26.010  1.00  0.00     0.047 C 
ATOM     30  C   UNL A   1      32.665  29.944  27.135  1.00  0.00     0.005 A 
ENDBRANCH  17  20
ENDBRANCH   8   9
ENDBRANCH   5   8
ENDBRANCH   3   4
ENDBRANCH   2   3
ENDBRANCH   1   2
BRANCH   1  31
ATOM     31  C   UNL A   1      40.173  22.152  26.751  1.00  0.00     0.116 C 
BRANCH  31  32
ATOM     32  N   UNL A   1      41.215  22.336  25.761  1.00  0.00    -0.352 N 
ATOM     33  C   UNL A   1      42.170  23.290  25.544  1.00  0.00     0.251 C 
ATOM     34  H   UNL A   1      41.240  21.611  25.096  1.00  0.00     0.163 HD
ATOM     35  O   UNL A   1      42.994  23.041  24.659  1.00  0.00    -0.269 OA
BRANCH  33  36
ATOM     36  C   UNL A   1      42.221  24.605  26.231  1.00  0.00     0.039 A 
ATOM     37  C   UNL A   1      42.970  24.887  27.373  1.00  0.00     0.014 A 
ATOM     38  C   UNL A   1      41.370  25.602  25.719  1.00  0.00     0.014 A 
ATOM     39  C   UNL A   1      42.767  26.065  28.073  1.00  0.00     0.010 A 
ATOM     40  C   UNL A   1      41.182  26.797  26.398  1.00  0.00     0.010 A 
ATOM     41  C   UNL A   1      41.833  26.989  27.611  1.00  0.00    -0.014 A 
BRANCH  41  42
ATOM     42  C   UNL A   1      41.622  28.174  28.429  1.00  0.00     0.031 A 
ATOM     43  C   UNL A   1      42.724  29.172  28.381  1.00  0.00     0.074 A 
ATOM     44  C   UNL A   1      40.486  28.374  29.123  1.00  0.00     0.049 A 
ATOM     45  N   UNL A   1      43.467  29.599  29.349  1.00  0.00    -0.248 NA
ATOM     46  C   UNL A   1      43.129  29.660  27.052  1.00  0.00     0.031 C 
ATOM     47  C   UNL A   1      39.235  27.615  29.038  1.00  0.00     0.029 A 
ATOM     48  N   UNL A   1      40.172  29.393  29.966  1.00  0.00    -0.354 N 
ATOM     49  C   UNL A   1      44.326  30.543  28.787  1.00  0.00     0.074 A 
ATOM     50  C   UNL A   1      44.172  30.429  27.359  1.00  0.00     0.031 C 
ATOM     51  C   UNL A   1      38.238  28.350  29.579  1.00  0.00     0.029 A 
ATOM     52  C   UNL A   1      38.809  29.544  30.178  1.00  0.00     0.049 A 
ATOM     53  H   UNL A   1      40.849  29.971  30.388  1.00  0.00     0.167 HD
ATOM     54  C   UNL A   1      44.964  31.486  29.532  1.00  0.00     0.031 A 
ATOM     55  C   UNL A   1      38.191  30.628  30.709  1.00  0.00     0.031 A 
ATOM     56  C   UNL A   1      44.975  31.152  30.928  1.00  0.00     0.049 A 
ATOM     57  C   UNL A   1      39.213  31.393  31.467  1.00  0.00     0.074 A 
ATOM     58  C   UNL A   1      45.536  30.138  31.677  1.00  0.00     0.029 A 
ATOM     59  N   UNL A   1      44.024  31.741  31.726  1.00  0.00    -0.354 N 
ATOM     60  N   UNL A   1      39.805  30.945  32.539  1.00  0.00    -0.248 NA
ATOM     61  C   UNL A   1      39.896  32.482  30.786  1.00  0.00     0.031 C 
ATOM     62  C   UNL A   1      44.582  29.868  32.697  1.00  0.00     0.029 A 
ATOM     63  C   UNL A   1      43.525  30.771  32.554  1.00  0.00     0.049 A 
ATOM     64  H   UNL A   1      43.752  32.687  31.706  1.00  0.00     0.167 HD
ATOM     65  C   UNL A   1      41.115  31.391  32.435  1.00  0.00     0.074 A 
ATOM     66  C   UNL A   1      41.085  32.413  31.390  1.00  0.00     0.031 C 
ATOM     67  C   UNL A   1      42.148  30.707  33.008  1.00  0.00     0.031 A 
BRANCH  54  68
ATOM     68  C   UNL A   1      45.284  32.874  29.034  1.00  0.00    -0.014 A 
ATOM     69  C   UNL A   1      44.305  33.744  28.512  1.00  0.00     0.010 A 
ATOM     70  C   UNL A   1      46.546  33.437  29.323  1.00  0.00     0.010 A 
ATOM     71  C   UNL A   1      44.561  35.096  28.279  1.00  0.00     0.020 A 
ATOM     72  C   UNL A   1      46.799  34.804  29.138  1.00  0.00     0.020 A 
ATOM     73  C   UNL A   1      45.802  35.623  28.612  1.00  0.00     0.054 A 
BRANCH  73  74
ATOM     74  S   UNL A   1      46.043  37.406  28.420  1.00  0.00     0.124 S 
ATOM     75  O   UNL A   1      47.125  37.664  29.366  1.00  0.00    -0.237 OA
ATOM     76  O   UNL A   1      46.399  37.521  27.008  1.00  0.00    -0.237 OA
ATOM     77  O   UNL A   1      44.745  37.967  28.782  1.00  0.00    -0.744 OA
ENDBRANCH  73  74
ENDBRANCH  54  68
BRANCH  55  78
ATOM     78  C   UNL A   1      36.945  31.253  30.193  1.00  0.00    -0.014 A 
ATOM     79  C   UNL A   1      36.898  31.723  28.863  1.00  0.00     0.010 A 
ATOM     80  C   UNL A   1      35.918  31.653  31.067  1.00  0.00     0.010 A 
ATOM     81  C   UNL A   1      35.902  32.605  28.434  1.00  0.00     0.020 A 
ATOM     82  C   UNL A   1      34.914  32.543  30.643  1.00  0.00     0.020 A 
ATOM     83  C   UNL A   1      34.935  33.038  29.337  1.00  0.00     0.054 A 
BRANCH  83  84
ATOM     84  S   UNL A   1      33.765  34.316  28.792  1.00  0.00     0.124 S 
ATOM     85  O   UNL A   1      34.664  35.347  28.273  1.00  0.00    -0.237 OA
ATOM     86  O   UNL A   1      32.979  33.609  27.777  1.00  0.00    -0.237 OA
ATOM     87  O   UNL A   1      33.042  34.667  30.002  1.00  0.00    -0.744 OA
ENDBRANCH  83  84
ENDBRANCH  55  78
BRANCH  67  88
ATOM     88  C   UNL A   1      41.846  29.605  34.000  1.00  0.00    -0.014 A 
ATOM     89  C   UNL A   1      42.178  29.846  35.346  1.00  0.00     0.010 A 
ATOM     90  C   UNL A   1      41.484  28.297  33.621  1.00  0.00     0.010 A 
ATOM     91  C   UNL A   1      42.202  28.810  36.279  1.00  0.00     0.020 A 
ATOM     92  C   UNL A   1      41.480  27.254  34.562  1.00  0.00     0.020 A 
ATOM     93  C   UNL A   1      41.873  27.515  35.878  1.00  0.00     0.054 A 
BRANCH  93  94
ATOM     94  S   UNL A   1      41.982  26.179  37.098  1.00  0.00     0.124 S 
ATOM     95  O   UNL A   1      40.606  26.087  37.581  1.00  0.00    -0.237 OA
ATOM     96  O   UNL A   1      42.441  25.041  36.305  1.00  0.00    -0.237 OA
ATOM     97  O   UNL A   1      42.948  26.678  38.072  1.00  0.00    -0.744 OA
ENDBRANCH  93  94
ENDBRANCH  67  88
ENDBRANCH  41  42
ENDBRANCH  33  36
ENDBRANCH  31  32
ENDBRANCH   1  31
TORSDOF 16
ENDMDL
