MODEL 1
REMARK VINA RESULT:     -12.3      0.000      0.000
REMARK SMILES O=C(NCCCCNC(=O)[C@H]1CC2=c3ccccc3=N[C@H]2[C@@H](c2ccccc2)[NH2+]1)c1ccc(-c2c3nc(c(-c4ccc(S(=O)(=O)[O-])cc4)c4ccc([nH]4)c(-c4ccc(S(=O)(=O)[O-])cc4)c4nc(c(-c5ccc(S(=O)(=O)[O-])cc5)c5ccc2[nH]5)C=C4)C=C3)cc1
REMARK SMILES IDX 4 1 3 2 1 3 2 4 30 6 31 7 89 8 32 9 88 10 33 11 34 12 35 13
REMARK SMILES IDX 82 14 36 15 87 16 81 17 83 18 37 19 86 20 80 21 79 22 38 24
REMARK SMILES IDX 68 25 49 26 67 27 50 28 53 29 66 30 84 31 51 32 52 33 65 35
REMARK SMILES IDX 85 36 54 37 39 38 40 39 48 40 41 41 47 42 42 43 43 44 44 45
REMARK SMILES IDX 45 46 46 47 69 48 70 49 78 50 71 51 77 52 72 53 73 54 74 55
REMARK SMILES IDX 75 56 76 57 55 58 56 59 64 60 57 61 63 62 58 63 59 64 60 65
REMARK SMILES IDX 61 66 62 67 5 68 6 69 7 70 8 71 9 72 10 74 11 75 12 76 29 77
REMARK SMILES IDX 13 78 22 79 14 82 21 83 15 84 19 85 20 86 16 87 18 88 17 89
REMARK SMILES IDX 23 90 24 91 28 92 25 93 27 94 26 95
REMARK H PARENT 3 5 83 23 53 34 8 73 29 80 29 81
REMARK Flexibility Score: inf
ROOT
ATOM      1  C   UNL A   1      33.861  28.982  26.275  1.00  0.00     0.116 C 
ENDROOT
BRANCH   1   2
ATOM      2  N   UNL A   1      33.606  30.210  27.018  1.00  0.00    -0.352 N 
ATOM      3  O   UNL A   1      33.974  31.794  28.578  1.00  0.00    -0.269 OA
ATOM      4  C   UNL A   1      34.395  30.820  27.962  1.00  0.00     0.251 C 
ATOM      5  H   UNL A   1      32.754  30.660  26.818  1.00  0.00     0.163 HD
BRANCH   4   6
ATOM      6  C   UNL A   1      35.736  30.272  28.240  1.00  0.00     0.039 A 
ATOM      7  C   UNL A   1      36.756  30.468  27.309  1.00  0.00     0.014 A 
ATOM      8  C   UNL A   1      35.991  29.600  29.439  1.00  0.00     0.014 A 
ATOM      9  C   UNL A   1      38.047  30.033  27.607  1.00  0.00     0.010 A 
ATOM     10  C   UNL A   1      37.293  29.263  29.777  1.00  0.00     0.010 A 
ATOM     11  C   UNL A   1      38.329  29.451  28.855  1.00  0.00    -0.014 A 
BRANCH  11  12
ATOM     12  C   UNL A   1      39.698  28.992  29.193  1.00  0.00     0.031 A 
ATOM     13  C   UNL A   1      40.602  29.875  30.007  1.00  0.00     0.074 A 
ATOM     14  C   UNL A   1      40.131  27.799  28.746  1.00  0.00     0.049 A 
ATOM     15  N   UNL A   1      41.824  29.646  30.415  1.00  0.00    -0.248 NA
ATOM     16  C   UNL A   1      40.082  31.199  30.390  1.00  0.00     0.031 C 
ATOM     17  C   UNL A   1      39.362  26.883  27.900  1.00  0.00     0.029 A 
ATOM     18  N   UNL A   1      41.317  27.143  28.955  1.00  0.00    -0.354 N 
ATOM     19  C   UNL A   1      42.212  30.792  31.097  1.00  0.00     0.074 A 
ATOM     20  C   UNL A   1      41.135  31.747  30.975  1.00  0.00     0.031 C 
ATOM     21  C   UNL A   1      40.072  25.761  27.711  1.00  0.00     0.029 A 
ATOM     22  C   UNL A   1      41.357  25.888  28.393  1.00  0.00     0.049 A 
ATOM     23  H   UNL A   1      42.068  27.532  29.458  1.00  0.00     0.167 HD
ATOM     24  C   UNL A   1      43.345  31.015  31.803  1.00  0.00     0.031 A 
ATOM     25  C   UNL A   1      42.312  24.937  28.440  1.00  0.00     0.031 A 
ATOM     26  C   UNL A   1      44.402  30.052  31.938  1.00  0.00     0.049 A 
ATOM     27  C   UNL A   1      43.559  25.196  29.236  1.00  0.00     0.074 A 
ATOM     28  C   UNL A   1      45.575  30.160  32.662  1.00  0.00     0.029 A 
ATOM     29  N   UNL A   1      44.411  28.798  31.343  1.00  0.00    -0.354 N 
ATOM     30  N   UNL A   1      43.890  26.267  29.916  1.00  0.00    -0.248 NA
ATOM     31  C   UNL A   1      44.555  24.118  29.283  1.00  0.00     0.031 C 
ATOM     32  C   UNL A   1      46.315  28.990  32.466  1.00  0.00     0.029 A 
ATOM     33  C   UNL A   1      45.578  28.129  31.668  1.00  0.00     0.049 A 
ATOM     34  H   UNL A   1      43.692  28.437  30.774  1.00  0.00     0.167 HD
ATOM     35  C   UNL A   1      45.134  25.996  30.473  1.00  0.00     0.074 A 
ATOM     36  C   UNL A   1      45.481  24.645  30.076  1.00  0.00     0.031 C 
ATOM     37  C   UNL A   1      45.920  26.795  31.237  1.00  0.00     0.031 A 
BRANCH  24  38
ATOM     38  C   UNL A   1      43.475  32.338  32.511  1.00  0.00    -0.014 A 
ATOM     39  C   UNL A   1      43.000  32.489  33.826  1.00  0.00     0.010 A 
ATOM     40  C   UNL A   1      44.030  33.453  31.853  1.00  0.00     0.010 A 
ATOM     41  C   UNL A   1      43.072  33.729  34.467  1.00  0.00     0.020 A 
ATOM     42  C   UNL A   1      44.133  34.685  32.502  1.00  0.00     0.020 A 
ATOM     43  C   UNL A   1      43.636  34.820  33.800  1.00  0.00     0.054 A 
BRANCH  43  44
ATOM     44  S   UNL A   1      43.743  36.418  34.652  1.00  0.00     0.124 S 
ATOM     45  O   UNL A   1      44.707  37.141  33.830  1.00  0.00    -0.237 OA
ATOM     46  O   UNL A   1      42.367  36.906  34.591  1.00  0.00    -0.237 OA
ATOM     47  O   UNL A   1      44.204  36.058  35.991  1.00  0.00    -0.744 OA
ENDBRANCH  43  44
ENDBRANCH  24  38
BRANCH  25  48
ATOM     48  C   UNL A   1      42.057  23.634  27.768  1.00  0.00    -0.014 A 
ATOM     49  C   UNL A   1      41.335  22.620  28.426  1.00  0.00     0.010 A 
ATOM     50  C   UNL A   1      42.646  23.355  26.523  1.00  0.00     0.010 A 
ATOM     51  C   UNL A   1      41.268  21.333  27.887  1.00  0.00     0.020 A 
ATOM     52  C   UNL A   1      42.560  22.075  25.967  1.00  0.00     0.020 A 
ATOM     53  C   UNL A   1      41.902  21.063  26.671  1.00  0.00     0.054 A 
BRANCH  53  54
ATOM     54  S   UNL A   1      41.894  19.362  26.041  1.00  0.00     0.124 S 
ATOM     55  O   UNL A   1      42.753  19.477  24.865  1.00  0.00    -0.237 OA
ATOM     56  O   UNL A   1      42.455  18.605  27.157  1.00  0.00    -0.237 OA
ATOM     57  O   UNL A   1      40.484  19.106  25.763  1.00  0.00    -0.744 OA
ENDBRANCH  53  54
ENDBRANCH  25  48
BRANCH  37  58
ATOM     58  C   UNL A   1      47.256  26.254  31.669  1.00  0.00    -0.014 A 
ATOM     59  C   UNL A   1      48.363  26.336  30.802  1.00  0.00     0.010 A 
ATOM     60  C   UNL A   1      47.389  25.566  32.888  1.00  0.00     0.010 A 
ATOM     61  C   UNL A   1      49.570  25.719  31.136  1.00  0.00     0.020 A 
ATOM     62  C   UNL A   1      48.604  24.974  33.239  1.00  0.00     0.020 A 
ATOM     63  C   UNL A   1      49.680  25.034  32.349  1.00  0.00     0.054 A 
BRANCH  63  64
ATOM     64  S   UNL A   1      51.254  24.234  32.766  1.00  0.00     0.124 S 
ATOM     65  O   UNL A   1      52.189  24.915  31.875  1.00  0.00    -0.237 OA
ATOM     66  O   UNL A   1      51.404  24.536  34.188  1.00  0.00    -0.237 OA
ATOM     67  O   UNL A   1      51.011  22.825  32.460  1.00  0.00    -0.744 OA
ENDBRANCH  63  64
ENDBRANCH  37  58
ENDBRANCH  11  12
ENDBRANCH   4   6
ENDBRANCH   1   2
BRANCH   1  68
ATOM     68  C   UNL A   1      33.131  28.918  24.943  1.00  0.00     0.023 C 
BRANCH  68  69
ATOM     69  C   UNL A   1      31.616  29.029  25.047  1.00  0.00     0.023 C 
BRANCH  69  70
ATOM     70  C   UNL A   1      30.855  27.716  24.867  1.00  0.00     0.116 C 
BRANCH  70  71
ATOM     71  N   UNL A   1      31.092  26.812  25.975  1.00  0.00    -0.351 N 
ATOM     72  C   UNL A   1      31.679  25.578  26.005  1.00  0.00     0.278 C 
ATOM     73  H   UNL A   1      30.780  27.141  26.849  1.00  0.00     0.163 HD
ATOM     74  O   UNL A   1      31.637  24.956  27.071  1.00  0.00    -0.268 OA
BRANCH  72  75
ATOM     75  C   UNL A   1      32.388  24.984  24.765  1.00  0.00     0.277 C 
ATOM     76  C   UNL A   1      33.869  25.426  24.663  1.00  0.00     0.109 C 
ATOM     77  N   UNL A   1      32.115  23.525  24.706  1.00  0.00    -0.327 N 
ATOM     78  C   UNL A   1      34.754  24.279  24.313  1.00  0.00    -0.024 C 
ATOM     79  C   UNL A   1      32.814  22.826  23.597  1.00  0.00     0.243 C 
ATOM     80  H   UNL A   1      31.110  23.391  24.587  1.00  0.00     0.347 HD
ATOM     81  H   UNL A   1      32.462  23.122  25.576  1.00  0.00     0.347 HD
ATOM     82  C   UNL A   1      35.872  23.810  24.855  1.00  0.00     0.002 A 
ATOM     83  C   UNL A   1      34.249  23.371  23.230  1.00  0.00     0.196 C 
ATOM     84  C   UNL A   1      36.726  24.183  25.933  1.00  0.00     0.010 A 
ATOM     85  C   UNL A   1      36.108  22.582  24.074  1.00  0.00     0.066 A 
ATOM     86  N   UNL A   1      35.288  22.312  23.105  1.00  0.00    -0.270 NA
ATOM     87  C   UNL A   1      37.725  23.355  26.284  1.00  0.00     0.001 A 
ATOM     88  C   UNL A   1      37.247  21.740  24.496  1.00  0.00     0.028 A 
ATOM     89  C   UNL A   1      37.973  22.118  25.561  1.00  0.00     0.002 A 
BRANCH  79  90
ATOM     90  C   UNL A   1      32.774  21.315  23.829  1.00  0.00     0.012 A 
ATOM     91  C   UNL A   1      32.351  20.423  22.826  1.00  0.00     0.010 A 
ATOM     92  C   UNL A   1      33.096  20.793  25.092  1.00  0.00     0.010 A 
ATOM     93  C   UNL A   1      32.236  19.056  23.085  1.00  0.00     0.001 A 
ATOM     94  C   UNL A   1      32.981  19.425  25.348  1.00  0.00     0.001 A 
ATOM     95  C   UNL A   1      32.547  18.559  24.347  1.00  0.00     0.000 A 
ENDBRANCH  79  90
ENDBRANCH  72  75
ENDBRANCH  70  71
ENDBRANCH  69  70
ENDBRANCH  68  69
ENDBRANCH   1  68
TORSDOF 15
ENDMDL
MODEL 2
REMARK VINA RESULT:     -12.2      2.569      9.645
REMARK SMILES O=C(NCCCCNC(=O)[C@H]1CC2=c3ccccc3=N[C@H]2[C@@H](c2ccccc2)[NH2+]1)c1ccc(-c2c3nc(c(-c4ccc(S(=O)(=O)[O-])cc4)c4ccc([nH]4)c(-c4ccc(S(=O)(=O)[O-])cc4)c4nc(c(-c5ccc(S(=O)(=O)[O-])cc5)c5ccc2[nH]5)C=C4)C=C3)cc1
REMARK SMILES IDX 4 1 3 2 1 3 2 4 30 6 31 7 89 8 32 9 88 10 33 11 34 12 35 13
REMARK SMILES IDX 82 14 36 15 87 16 81 17 83 18 37 19 86 20 80 21 79 22 38 24
REMARK SMILES IDX 68 25 49 26 67 27 50 28 53 29 66 30 84 31 51 32 52 33 65 35
REMARK SMILES IDX 85 36 54 37 39 38 40 39 48 40 41 41 47 42 42 43 43 44 44 45
REMARK SMILES IDX 45 46 46 47 69 48 70 49 78 50 71 51 77 52 72 53 73 54 74 55
REMARK SMILES IDX 75 56 76 57 55 58 56 59 64 60 57 61 63 62 58 63 59 64 60 65
REMARK SMILES IDX 61 66 62 67 5 68 6 69 7 70 8 71 9 72 10 74 11 75 12 76 29 77
REMARK SMILES IDX 13 78 22 79 14 82 21 83 15 84 19 85 20 86 16 87 18 88 17 89
REMARK SMILES IDX 23 90 24 91 28 92 25 93 27 94 26 95
REMARK H PARENT 3 5 83 23 53 34 8 73 29 80 29 81
REMARK Flexibility Score: inf
ROOT
ATOM      1  C   UNL A   1      36.852  23.627  25.120  1.00  0.00     0.116 C 
ENDROOT
BRANCH   1   2
ATOM      2  N   UNL A   1      37.881  22.629  25.380  1.00  0.00    -0.352 N 
ATOM      3  O   UNL A   1      39.879  21.857  26.081  1.00  0.00    -0.269 OA
ATOM      4  C   UNL A   1      39.069  22.778  26.054  1.00  0.00     0.251 C 
ATOM      5  H   UNL A   1      37.702  21.729  25.024  1.00  0.00     0.163 HD
BRANCH   4   6
ATOM      6  C   UNL A   1      39.364  24.064  26.713  1.00  0.00     0.039 A 
ATOM      7  C   UNL A   1      38.972  24.253  28.039  1.00  0.00     0.014 A 
ATOM      8  C   UNL A   1      40.063  25.064  26.032  1.00  0.00     0.014 A 
ATOM      9  C   UNL A   1      39.328  25.429  28.696  1.00  0.00     0.010 A 
ATOM     10  C   UNL A   1      40.506  26.185  26.718  1.00  0.00     0.010 A 
ATOM     11  C   UNL A   1      40.121  26.392  28.049  1.00  0.00    -0.014 A 
BRANCH  11  12
ATOM     12  C   UNL A   1      40.518  27.644  28.736  1.00  0.00     0.031 A 
ATOM     13  C   UNL A   1      41.919  27.796  29.260  1.00  0.00     0.074 A 
ATOM     14  C   UNL A   1      39.614  28.626  28.909  1.00  0.00     0.049 A 
ATOM     15  N   UNL A   1      42.459  28.817  29.876  1.00  0.00    -0.248 NA
ATOM     16  C   UNL A   1      42.825  26.646  29.102  1.00  0.00     0.031 C 
ATOM     17  C   UNL A   1      38.211  28.566  28.493  1.00  0.00     0.029 A 
ATOM     18  N   UNL A   1      39.745  29.873  29.465  1.00  0.00    -0.354 N 
ATOM     19  C   UNL A   1      43.759  28.428  30.174  1.00  0.00     0.074 A 
ATOM     20  C   UNL A   1      43.901  27.054  29.754  1.00  0.00     0.031 C 
ATOM     21  C   UNL A   1      37.627  29.745  28.755  1.00  0.00     0.029 A 
ATOM     22  C   UNL A   1      38.600  30.632  29.385  1.00  0.00     0.049 A 
ATOM     23  H   UNL A   1      40.576  30.195  29.881  1.00  0.00     0.167 HD
ATOM     24  C   UNL A   1      44.761  29.165  30.708  1.00  0.00     0.031 A 
ATOM     25  C   UNL A   1      38.367  31.907  29.756  1.00  0.00     0.031 A 
ATOM     26  C   UNL A   1      44.618  30.538  31.103  1.00  0.00     0.049 A 
ATOM     27  C   UNL A   1      39.492  32.714  30.338  1.00  0.00     0.074 A 
ATOM     28  C   UNL A   1      45.579  31.389  31.618  1.00  0.00     0.029 A 
ATOM     29  N   UNL A   1      43.440  31.267  31.019  1.00  0.00    -0.354 N 
ATOM     30  N   UNL A   1      40.730  32.347  30.569  1.00  0.00    -0.248 NA
ATOM     31  C   UNL A   1      39.197  34.107  30.698  1.00  0.00     0.031 C 
ATOM     32  C   UNL A   1      44.970  32.617  31.891  1.00  0.00     0.029 A 
ATOM     33  C   UNL A   1      43.644  32.552  31.490  1.00  0.00     0.049 A 
ATOM     34  H   UNL A   1      42.585  30.921  30.674  1.00  0.00     0.167 HD
ATOM     35  C   UNL A   1      41.365  33.462  31.103  1.00  0.00     0.074 A 
ATOM     36  C   UNL A   1      40.380  34.526  31.130  1.00  0.00     0.031 C 
ATOM     37  C   UNL A   1      42.643  33.590  31.538  1.00  0.00     0.031 A 
BRANCH  24  38
ATOM     38  C   UNL A   1      46.107  28.504  30.857  1.00  0.00    -0.014 A 
ATOM     39  C   UNL A   1      47.032  28.531  29.799  1.00  0.00     0.010 A 
ATOM     40  C   UNL A   1      46.440  27.812  32.038  1.00  0.00     0.010 A 
ATOM     41  C   UNL A   1      48.261  27.874  29.914  1.00  0.00     0.020 A 
ATOM     42  C   UNL A   1      47.680  27.183  32.169  1.00  0.00     0.020 A 
ATOM     43  C   UNL A   1      48.575  27.203  31.099  1.00  0.00     0.054 A 
BRANCH  43  44
ATOM     44  S   UNL A   1      50.183  26.373  31.243  1.00  0.00     0.124 S 
ATOM     45  O   UNL A   1      50.230  26.042  32.663  1.00  0.00    -0.237 OA
ATOM     46  O   UNL A   1      50.041  25.240  30.333  1.00  0.00    -0.237 OA
ATOM     47  O   UNL A   1      51.132  27.394  30.805  1.00  0.00    -0.744 OA
ENDBRANCH  43  44
ENDBRANCH  24  38
BRANCH  25  48
ATOM     48  C   UNL A   1      37.023  32.492  29.499  1.00  0.00    -0.014 A 
ATOM     49  C   UNL A   1      36.758  33.171  28.295  1.00  0.00     0.010 A 
ATOM     50  C   UNL A   1      36.046  32.487  30.510  1.00  0.00     0.010 A 
ATOM     51  C   UNL A   1      35.572  33.893  28.135  1.00  0.00     0.020 A 
ATOM     52  C   UNL A   1      34.848  33.187  30.343  1.00  0.00     0.020 A 
ATOM     53  C   UNL A   1      34.635  33.916  29.171  1.00  0.00     0.054 A 
BRANCH  53  54
ATOM     54  S   UNL A   1      33.152  34.944  28.984  1.00  0.00     0.124 S 
ATOM     55  O   UNL A   1      32.601  34.918  30.337  1.00  0.00    -0.237 OA
ATOM     56  O   UNL A   1      33.704  36.227  28.556  1.00  0.00    -0.237 OA
ATOM     57  O   UNL A   1      32.369  34.237  27.976  1.00  0.00    -0.744 OA
ENDBRANCH  53  54
ENDBRANCH  25  48
BRANCH  37  58
ATOM     58  C   UNL A   1      43.054  34.915  32.121  1.00  0.00    -0.014 A 
ATOM     59  C   UNL A   1      42.773  35.210  33.469  1.00  0.00     0.010 A 
ATOM     60  C   UNL A   1      43.618  35.911  31.304  1.00  0.00     0.010 A 
ATOM     61  C   UNL A   1      43.027  36.483  33.983  1.00  0.00     0.020 A 
ATOM     62  C   UNL A   1      43.901  37.177  31.823  1.00  0.00     0.020 A 
ATOM     63  C   UNL A   1      43.582  37.462  33.153  1.00  0.00     0.054 A 
BRANCH  63  64
ATOM     64  S   UNL A   1      43.901  39.112  33.834  1.00  0.00     0.124 S 
ATOM     65  O   UNL A   1      44.057  38.830  35.259  1.00  0.00    -0.237 OA
ATOM     66  O   UNL A   1      45.117  39.521  33.136  1.00  0.00    -0.237 OA
ATOM     67  O   UNL A   1      42.702  39.866  33.473  1.00  0.00    -0.744 OA
ENDBRANCH  63  64
ENDBRANCH  37  58
ENDBRANCH  11  12
ENDBRANCH   4   6
ENDBRANCH   1   2
BRANCH   1  68
ATOM     68  C   UNL A   1      35.741  23.636  26.156  1.00  0.00     0.023 C 
BRANCH  68  69
ATOM     69  C   UNL A   1      35.164  22.263  26.476  1.00  0.00     0.023 C 
BRANCH  69  70
ATOM     70  C   UNL A   1      33.841  21.937  25.784  1.00  0.00     0.116 C 
BRANCH  70  71
ATOM     71  N   UNL A   1      32.719  22.524  26.488  1.00  0.00    -0.351 N 
ATOM     72  C   UNL A   1      32.207  23.791  26.445  1.00  0.00     0.278 C 
ATOM     73  H   UNL A   1      32.248  21.910  27.096  1.00  0.00     0.163 HD
ATOM     74  O   UNL A   1      31.316  24.070  27.253  1.00  0.00    -0.268 OA
BRANCH  72  75
ATOM     75  C   UNL A   1      32.702  24.835  25.416  1.00  0.00     0.277 C 
ATOM     76  C   UNL A   1      31.769  24.938  24.184  1.00  0.00     0.109 C 
ATOM     77  N   UNL A   1      33.023  26.098  26.127  1.00  0.00    -0.327 N 
ATOM     78  C   UNL A   1      31.520  26.360  23.811  1.00  0.00    -0.024 C 
ATOM     79  C   UNL A   1      33.435  27.208  25.227  1.00  0.00     0.243 C 
ATOM     80  H   UNL A   1      33.786  25.915  26.779  1.00  0.00     0.347 HD
ATOM     81  H   UNL A   1      32.170  26.399  26.598  1.00  0.00     0.347 HD
ATOM     82  C   UNL A   1      30.406  27.046  23.582  1.00  0.00     0.002 A 
ATOM     83  C   UNL A   1      32.723  27.258  23.819  1.00  0.00     0.196 C 
ATOM     84  C   UNL A   1      29.012  26.756  23.543  1.00  0.00     0.010 A 
ATOM     85  C   UNL A   1      30.914  28.419  23.406  1.00  0.00     0.066 A 
ATOM     86  N   UNL A   1      32.199  28.601  23.452  1.00  0.00    -0.270 NA
ATOM     87  C   UNL A   1      28.143  27.773  23.412  1.00  0.00     0.001 A 
ATOM     88  C   UNL A   1      29.900  29.480  23.231  1.00  0.00     0.028 A 
ATOM     89  C   UNL A   1      28.599  29.146  23.268  1.00  0.00     0.002 A 
BRANCH  79  90
ATOM     90  C   UNL A   1      33.387  28.534  25.985  1.00  0.00     0.012 A 
ATOM     91  C   UNL A   1      34.560  29.225  26.343  1.00  0.00     0.010 A 
ATOM     92  C   UNL A   1      32.153  29.057  26.405  1.00  0.00     0.010 A 
ATOM     93  C   UNL A   1      34.500  30.389  27.111  1.00  0.00     0.001 A 
ATOM     94  C   UNL A   1      32.096  30.221  27.173  1.00  0.00     0.001 A 
ATOM     95  C   UNL A   1      33.268  30.883  27.530  1.00  0.00     0.000 A 
ENDBRANCH  79  90
ENDBRANCH  72  75
ENDBRANCH  70  71
ENDBRANCH  69  70
ENDBRANCH  68  69
ENDBRANCH   1  68
TORSDOF 15
ENDMDL
MODEL 3
REMARK VINA RESULT:     -12.1      1.053      2.491
REMARK SMILES O=C(NCCCCNC(=O)[C@H]1CC2=c3ccccc3=N[C@H]2[C@@H](c2ccccc2)[NH2+]1)c1ccc(-c2c3nc(c(-c4ccc(S(=O)(=O)[O-])cc4)c4ccc([nH]4)c(-c4ccc(S(=O)(=O)[O-])cc4)c4nc(c(-c5ccc(S(=O)(=O)[O-])cc5)c5ccc2[nH]5)C=C4)C=C3)cc1
REMARK SMILES IDX 4 1 3 2 1 3 2 4 30 6 31 7 89 8 32 9 88 10 33 11 34 12 35 13
REMARK SMILES IDX 82 14 36 15 87 16 81 17 83 18 37 19 86 20 80 21 79 22 38 24
REMARK SMILES IDX 68 25 49 26 67 27 50 28 53 29 66 30 84 31 51 32 52 33 65 35
REMARK SMILES IDX 85 36 54 37 39 38 40 39 48 40 41 41 47 42 42 43 43 44 44 45
REMARK SMILES IDX 45 46 46 47 69 48 70 49 78 50 71 51 77 52 72 53 73 54 74 55
REMARK SMILES IDX 75 56 76 57 55 58 56 59 64 60 57 61 63 62 58 63 59 64 60 65
REMARK SMILES IDX 61 66 62 67 5 68 6 69 7 70 8 71 9 72 10 74 11 75 12 76 29 77
REMARK SMILES IDX 13 78 22 79 14 82 21 83 15 84 19 85 20 86 16 87 18 88 17 89
REMARK SMILES IDX 23 90 24 91 28 92 25 93 27 94 26 95
REMARK H PARENT 3 5 83 23 53 34 8 73 29 80 29 81
REMARK Flexibility Score: inf
ROOT
ATOM      1  C   UNL A   1      33.762  28.859  26.515  1.00  0.00     0.116 C 
ENDROOT
BRANCH   1   2
ATOM      2  N   UNL A   1      33.566  30.161  27.139  1.00  0.00    -0.352 N 
ATOM      3  O   UNL A   1      34.032  31.883  28.516  1.00  0.00    -0.269 OA
ATOM      4  C   UNL A   1      34.406  30.842  27.985  1.00  0.00     0.251 C 
ATOM      5  H   UNL A   1      32.716  30.612  26.927  1.00  0.00     0.163 HD
BRANCH   4   6
ATOM      6  C   UNL A   1      35.745  30.288  28.266  1.00  0.00     0.039 A 
ATOM      7  C   UNL A   1      36.755  30.442  27.316  1.00  0.00     0.014 A 
ATOM      8  C   UNL A   1      36.007  29.655  29.484  1.00  0.00     0.014 A 
ATOM      9  C   UNL A   1      38.045  30.003  27.614  1.00  0.00     0.010 A 
ATOM     10  C   UNL A   1      37.310  29.316  29.818  1.00  0.00     0.010 A 
ATOM     11  C   UNL A   1      38.337  29.461  28.877  1.00  0.00    -0.014 A 
BRANCH  11  12
ATOM     12  C   UNL A   1      39.705  28.999  29.214  1.00  0.00     0.031 A 
ATOM     13  C   UNL A   1      40.611  29.879  30.030  1.00  0.00     0.074 A 
ATOM     14  C   UNL A   1      40.135  27.805  28.766  1.00  0.00     0.049 A 
ATOM     15  N   UNL A   1      41.832  29.647  30.437  1.00  0.00    -0.248 NA
ATOM     16  C   UNL A   1      40.093  31.204  30.415  1.00  0.00     0.031 C 
ATOM     17  C   UNL A   1      39.364  26.892  27.919  1.00  0.00     0.029 A 
ATOM     18  N   UNL A   1      41.320  27.147  28.973  1.00  0.00    -0.354 N 
ATOM     19  C   UNL A   1      42.222  30.792  31.120  1.00  0.00     0.074 A 
ATOM     20  C   UNL A   1      41.147  31.748  31.000  1.00  0.00     0.031 C 
ATOM     21  C   UNL A   1      40.072  25.769  27.728  1.00  0.00     0.029 A 
ATOM     22  C   UNL A   1      41.358  25.893  28.410  1.00  0.00     0.049 A 
ATOM     23  H   UNL A   1      42.072  27.533  29.477  1.00  0.00     0.167 HD
ATOM     24  C   UNL A   1      43.356  31.010  31.827  1.00  0.00     0.031 A 
ATOM     25  C   UNL A   1      42.310  24.940  28.455  1.00  0.00     0.031 A 
ATOM     26  C   UNL A   1      44.411  30.045  31.960  1.00  0.00     0.049 A 
ATOM     27  C   UNL A   1      43.558  25.195  29.251  1.00  0.00     0.074 A 
ATOM     28  C   UNL A   1      45.584  30.150  32.684  1.00  0.00     0.029 A 
ATOM     29  N   UNL A   1      44.417  28.792  31.364  1.00  0.00    -0.354 N 
ATOM     30  N   UNL A   1      43.891  26.265  29.933  1.00  0.00    -0.248 NA
ATOM     31  C   UNL A   1      44.552  24.115  29.297  1.00  0.00     0.031 C 
ATOM     32  C   UNL A   1      46.323  28.980  32.485  1.00  0.00     0.029 A 
ATOM     33  C   UNL A   1      45.583  28.121  31.687  1.00  0.00     0.049 A 
ATOM     34  H   UNL A   1      43.698  28.434  30.794  1.00  0.00     0.167 HD
ATOM     35  C   UNL A   1      45.135  25.990  30.489  1.00  0.00     0.074 A 
ATOM     36  C   UNL A   1      45.479  24.639  30.090  1.00  0.00     0.031 C 
ATOM     37  C   UNL A   1      45.922  26.787  31.254  1.00  0.00     0.031 A 
BRANCH  24  38
ATOM     38  C   UNL A   1      43.489  32.333  32.536  1.00  0.00    -0.014 A 
ATOM     39  C   UNL A   1      43.082  32.463  33.876  1.00  0.00     0.010 A 
ATOM     40  C   UNL A   1      43.978  33.466  31.857  1.00  0.00     0.010 A 
ATOM     41  C   UNL A   1      43.154  33.701  34.521  1.00  0.00     0.020 A 
ATOM     42  C   UNL A   1      44.083  34.697  32.509  1.00  0.00     0.020 A 
ATOM     43  C   UNL A   1      43.653  34.810  33.833  1.00  0.00     0.054 A 
BRANCH  43  44
ATOM     44  S   UNL A   1      43.763  36.406  34.690  1.00  0.00     0.124 S 
ATOM     45  O   UNL A   1      42.609  37.121  34.156  1.00  0.00    -0.237 OA
ATOM     46  O   UNL A   1      43.674  36.021  36.097  1.00  0.00    -0.237 OA
ATOM     47  O   UNL A   1      45.067  36.922  34.279  1.00  0.00    -0.744 OA
ENDBRANCH  43  44
ENDBRANCH  24  38
BRANCH  25  48
ATOM     48  C   UNL A   1      42.052  23.638  27.782  1.00  0.00    -0.014 A 
ATOM     49  C   UNL A   1      41.363  22.611  28.453  1.00  0.00     0.010 A 
ATOM     50  C   UNL A   1      42.609  23.375  26.518  1.00  0.00     0.010 A 
ATOM     51  C   UNL A   1      41.297  21.327  27.906  1.00  0.00     0.020 A 
ATOM     52  C   UNL A   1      42.524  22.098  25.956  1.00  0.00     0.020 A 
ATOM     53  C   UNL A   1      41.899  21.073  26.671  1.00  0.00     0.054 A 
BRANCH  53  54
ATOM     54  S   UNL A   1      41.894  19.376  26.029  1.00  0.00     0.124 S 
ATOM     55  O   UNL A   1      42.406  18.625  27.172  1.00  0.00    -0.237 OA
ATOM     56  O   UNL A   1      40.485  19.158  25.713  1.00  0.00    -0.237 OA
ATOM     57  O   UNL A   1      42.786  19.444  24.875  1.00  0.00    -0.744 OA
ENDBRANCH  53  54
ENDBRANCH  25  48
BRANCH  37  58
ATOM     58  C   UNL A   1      47.258  26.243  31.685  1.00  0.00    -0.014 A 
ATOM     59  C   UNL A   1      48.326  26.192  30.769  1.00  0.00     0.010 A 
ATOM     60  C   UNL A   1      47.422  25.680  32.963  1.00  0.00     0.010 A 
ATOM     61  C   UNL A   1      49.526  25.567  31.116  1.00  0.00     0.020 A 
ATOM     62  C   UNL A   1      48.631  25.081  33.323  1.00  0.00     0.020 A 
ATOM     63  C   UNL A   1      49.668  25.008  32.389  1.00  0.00     0.054 A 
BRANCH  63  64
ATOM     64  S   UNL A   1      51.230  24.195  32.822  1.00  0.00     0.124 S 
ATOM     65  O   UNL A   1      51.201  24.234  34.281  1.00  0.00    -0.237 OA
ATOM     66  O   UNL A   1      51.084  22.871  32.223  1.00  0.00    -0.237 OA
ATOM     67  O   UNL A   1      52.241  25.045  32.194  1.00  0.00    -0.744 OA
ENDBRANCH  63  64
ENDBRANCH  37  58
ENDBRANCH  11  12
ENDBRANCH   4   6
ENDBRANCH   1   2
BRANCH   1  68
ATOM     68  C   UNL A   1      32.649  28.473  25.555  1.00  0.00     0.023 C 
BRANCH  68  69
ATOM     69  C   UNL A   1      32.998  28.642  24.082  1.00  0.00     0.023 C 
BRANCH  69  70
ATOM     70  C   UNL A   1      31.935  28.147  23.102  1.00  0.00     0.116 C 
BRANCH  70  71
ATOM     71  N   UNL A   1      32.498  27.230  22.132  1.00  0.00    -0.351 N 
ATOM     72  C   UNL A   1      33.101  26.015  22.303  1.00  0.00     0.278 C 
ATOM     73  H   UNL A   1      32.435  27.530  21.197  1.00  0.00     0.163 HD
ATOM     74  O   UNL A   1      33.617  25.493  21.310  1.00  0.00    -0.268 OA
BRANCH  72  75
ATOM     75  C   UNL A   1      33.126  25.305  23.678  1.00  0.00     0.277 C 
ATOM     76  C   UNL A   1      32.026  24.221  23.802  1.00  0.00     0.109 C 
ATOM     77  N   UNL A   1      34.518  24.889  23.981  1.00  0.00    -0.327 N 
ATOM     78  C   UNL A   1      32.561  22.973  24.416  1.00  0.00    -0.024 C 
ATOM     79  C   UNL A   1      34.655  24.120  25.246  1.00  0.00     0.243 C 
ATOM     80  H   UNL A   1      35.096  25.728  24.051  1.00  0.00     0.347 HD
ATOM     81  H   UNL A   1      34.816  24.272  23.225  1.00  0.00     0.347 HD
ATOM     82  C   UNL A   1      32.509  21.698  24.049  1.00  0.00     0.002 A 
ATOM     83  C   UNL A   1      33.453  23.163  25.608  1.00  0.00     0.196 C 
ATOM     84  C   UNL A   1      31.917  20.960  22.984  1.00  0.00     0.010 A 
ATOM     85  C   UNL A   1      33.368  21.047  25.054  1.00  0.00     0.066 A 
ATOM     86  N   UNL A   1      33.869  21.787  25.996  1.00  0.00    -0.270 NA
ATOM     87  C   UNL A   1      32.209  19.654  22.861  1.00  0.00     0.001 A 
ATOM     88  C   UNL A   1      33.616  19.601  24.874  1.00  0.00     0.028 A 
ATOM     89  C   UNL A   1      33.078  18.979  23.812  1.00  0.00     0.002 A 
BRANCH  79  90
ATOM     90  C   UNL A   1      36.021  23.433  25.289  1.00  0.00     0.012 A 
ATOM     91  C   UNL A   1      36.318  22.325  24.474  1.00  0.00     0.010 A 
ATOM     92  C   UNL A   1      36.990  23.861  26.210  1.00  0.00     0.010 A 
ATOM     93  C   UNL A   1      37.538  21.656  24.590  1.00  0.00     0.001 A 
ATOM     94  C   UNL A   1      38.209  23.191  26.325  1.00  0.00     0.001 A 
ATOM     95  C   UNL A   1      38.480  22.087  25.519  1.00  0.00     0.000 A 
ENDBRANCH  79  90
ENDBRANCH  72  75
ENDBRANCH  70  71
ENDBRANCH  69  70
ENDBRANCH  68  69
ENDBRANCH   1  68
TORSDOF 15
ENDMDL
