MODEL 1
REMARK VINA RESULT:     -10.5      0.000      0.000
REMARK SMILES O=C(C[C@H]1CN(C(=O)c2sccc2Br)CCO1)NCCCCNC(=O)c1ccc(-c2c3nc(c(-c4ccc(S(=O)(=O)[O-])cc4)c4ccc([nH]4)c(-c4ccc(S(=O)(=O)[O-])cc4)c4nc(c(-c5ccc(S(=O)(=O)[O-])cc5)c5ccc2[nH]5)C=C4)C=C3)cc1
REMARK SMILES IDX 20 1 19 2 18 3 1 4 2 5 3 7 4 8 5 9 17 10 6 11 16 12 15 13
REMARK SMILES IDX 7 14 8 15 9 16 10 17 13 18 11 19 12 20 14 21 21 22 22 23
REMARK SMILES IDX 23 24 24 25 25 27 26 28 27 29 85 30 28 31 84 32 29 33 30 34
REMARK SMILES IDX 31 35 78 36 32 37 83 38 77 39 79 40 33 41 82 42 76 43 75 44
REMARK SMILES IDX 34 46 64 47 45 48 63 49 46 50 49 51 62 52 80 53 47 54 48 55
REMARK SMILES IDX 61 57 81 58 50 59 35 60 36 61 44 62 37 63 43 64 38 65 39 66
REMARK SMILES IDX 40 67 41 68 42 69 65 70 66 71 74 72 67 73 73 74 68 75 69 76
REMARK SMILES IDX 70 77 71 78 72 79 51 80 52 81 60 82 53 83 59 84 54 85 55 86
REMARK SMILES IDX 56 87 57 88 58 89
REMARK H PARENT 18 6 23 26 79 45 49 56
REMARK Flexibility Score: inf
ROOT
ATOM      1  C   UNL A   1      32.175  29.197  24.723  1.00  0.00     0.023 C 
ENDROOT
BRANCH   1   2
ATOM      2  C   UNL A   1      31.085  28.131  24.818  1.00  0.00     0.116 C 
BRANCH   2   3
ATOM      3  N   UNL A   1      31.605  26.781  24.804  1.00  0.00    -0.356 N 
ATOM      4  O   UNL A   1      30.220  26.048  26.461  1.00  0.00    -0.275 OA
ATOM      5  C   UNL A   1      31.073  25.808  25.608  1.00  0.00     0.222 C 
ATOM      6  H   UNL A   1      32.355  26.557  24.207  1.00  0.00     0.163 HD
BRANCH   5   7
ATOM      7  C   UNL A   1      31.615  24.404  25.443  1.00  0.00     0.133 C 
BRANCH   7   8
ATOM      8  C   UNL A   1      31.220  23.296  26.431  1.00  0.00     0.147 C 
ATOM      9  C   UNL A   1      31.337  21.890  25.779  1.00  0.00     0.152 C 
ATOM     10  O   UNL A   1      31.919  23.336  27.689  1.00  0.00    -0.374 OA
ATOM     11  N   UNL A   1      32.747  21.492  25.692  1.00  0.00    -0.333 N 
ATOM     12  C   UNL A   1      33.300  22.941  27.593  1.00  0.00     0.182 C 
ATOM     13  C   UNL A   1      33.453  21.557  26.969  1.00  0.00     0.148 C 
BRANCH  11  14
ATOM     14  C   UNL A   1      33.448  21.175  24.529  1.00  0.00     0.265 C 
ATOM     15  O   UNL A   1      32.903  20.568  23.605  1.00  0.00    -0.268 OA
BRANCH  14  16
ATOM     16  C   UNL A   1      34.814  21.636  24.417  1.00  0.00     0.106 A 
ATOM     17  S   UNL A   1      36.060  20.592  24.970  1.00  0.00    -0.137 S 
ATOM     18  C   UNL A   1      35.325  22.855  24.035  1.00  0.00     0.041 A 
ATOM     19  C   UNL A   1      37.265  21.770  24.678  1.00  0.00     0.067 A 
ATOM     20  C   UNL A   1      36.739  22.929  24.150  1.00  0.00     0.028 A 
ATOM     21  Br  UNL A   1      34.346  24.349  23.427  1.00  0.00    -0.049 Br
ENDBRANCH  14  16
ENDBRANCH  11  14
ENDBRANCH   7   8
ENDBRANCH   5   7
ENDBRANCH   2   3
ENDBRANCH   1   2
BRANCH   1  22
ATOM     22  C   UNL A   1      33.594  28.690  24.984  1.00  0.00     0.023 C 
BRANCH  22  23
ATOM     23  C   UNL A   1      34.029  28.674  26.445  1.00  0.00     0.116 C 
BRANCH  23  24
ATOM     24  N   UNL A   1      33.850  29.955  27.110  1.00  0.00    -0.352 N 
ATOM     25  C   UNL A   1      34.690  30.605  27.981  1.00  0.00     0.251 C 
ATOM     26  H   UNL A   1      33.007  30.421  26.908  1.00  0.00     0.163 HD
ATOM     27  O   UNL A   1      34.317  31.634  28.538  1.00  0.00    -0.269 OA
BRANCH  25  28
ATOM     28  C   UNL A   1      36.029  30.048  28.274  1.00  0.00     0.039 A 
ATOM     29  C   UNL A   1      37.022  30.133  27.294  1.00  0.00     0.014 A 
ATOM     30  C   UNL A   1      36.311  29.454  29.507  1.00  0.00     0.014 A 
ATOM     31  C   UNL A   1      38.316  29.688  27.576  1.00  0.00     0.010 A 
ATOM     32  C   UNL A   1      37.617  29.071  29.810  1.00  0.00     0.010 A 
ATOM     33  C   UNL A   1      38.633  29.187  28.849  1.00  0.00    -0.014 A 
BRANCH  33  34
ATOM     34  C   UNL A   1      40.023  28.793  29.199  1.00  0.00     0.031 A 
ATOM     35  C   UNL A   1      40.944  29.774  29.871  1.00  0.00     0.074 A 
ATOM     36  C   UNL A   1      40.478  27.572  28.850  1.00  0.00     0.049 A 
ATOM     37  N   UNL A   1      42.207  29.636  30.187  1.00  0.00    -0.248 NA
ATOM     38  C   UNL A   1      40.380  31.090  30.211  1.00  0.00     0.031 C 
ATOM     39  C   UNL A   1      39.700  26.541  28.159  1.00  0.00     0.029 A 
ATOM     40  N   UNL A   1      41.712  26.995  29.023  1.00  0.00    -0.354 N 
ATOM     41  C   UNL A   1      42.592  30.849  30.746  1.00  0.00     0.074 A 
ATOM     42  C   UNL A   1      41.442  31.725  30.686  1.00  0.00     0.031 C 
ATOM     43  C   UNL A   1      40.468  25.454  27.983  1.00  0.00     0.029 A 
ATOM     44  C   UNL A   1      41.801  25.719  28.515  1.00  0.00     0.049 A 
ATOM     45  H   UNL A   1      42.463  27.451  29.467  1.00  0.00     0.167 HD
ATOM     46  C   UNL A   1      43.789  31.197  31.278  1.00  0.00     0.031 A 
ATOM     47  C   UNL A   1      42.839  24.861  28.474  1.00  0.00     0.031 A 
ATOM     48  C   UNL A   1      44.928  30.321  31.352  1.00  0.00     0.049 A 
ATOM     49  C   UNL A   1      44.157  25.271  29.072  1.00  0.00     0.074 A 
ATOM     50  C   UNL A   1      46.166  30.566  31.920  1.00  0.00     0.029 A 
ATOM     51  N   UNL A   1      44.969  29.031  30.845  1.00  0.00    -0.354 N 
ATOM     52  N   UNL A   1      44.484  26.403  29.646  1.00  0.00    -0.248 NA
ATOM     53  C   UNL A   1      45.243  24.280  29.026  1.00  0.00     0.031 C 
ATOM     54  C   UNL A   1      46.971  29.439  31.720  1.00  0.00     0.029 A 
ATOM     55  C   UNL A   1      46.217  28.474  31.072  1.00  0.00     0.049 A 
ATOM     56  H   UNL A   1      44.222  28.578  30.392  1.00  0.00     0.167 HD
ATOM     57  C   UNL A   1      45.805  26.253  30.052  1.00  0.00     0.074 A 
ATOM     58  C   UNL A   1      46.212  24.917  29.670  1.00  0.00     0.031 C 
ATOM     59  C   UNL A   1      46.608  27.142  30.686  1.00  0.00     0.031 A 
BRANCH  46  60
ATOM     60  C   UNL A   1      43.925  32.594  31.823  1.00  0.00    -0.014 A 
ATOM     61  C   UNL A   1      43.676  32.870  33.179  1.00  0.00     0.010 A 
ATOM     62  C   UNL A   1      44.346  33.637  30.978  1.00  0.00     0.010 A 
ATOM     63  C   UNL A   1      43.803  34.171  33.672  1.00  0.00     0.020 A 
ATOM     64  C   UNL A   1      44.500  34.935  31.473  1.00  0.00     0.020 A 
ATOM     65  C   UNL A   1      44.210  35.196  32.814  1.00  0.00     0.054 A 
BRANCH  65  66
ATOM     66  S   UNL A   1      44.384  36.874  33.483  1.00  0.00     0.124 S 
ATOM     67  O   UNL A   1      45.442  37.426  32.640  1.00  0.00    -0.237 OA
ATOM     68  O   UNL A   1      43.055  37.442  33.274  1.00  0.00    -0.237 OA
ATOM     69  O   UNL A   1      44.752  36.654  34.879  1.00  0.00    -0.744 OA
ENDBRANCH  65  66
ENDBRANCH  46  60
BRANCH  47  70
ATOM     70  C   UNL A   1      42.669  23.520  27.853  1.00  0.00    -0.014 A 
ATOM     71  C   UNL A   1      43.183  23.258  26.571  1.00  0.00     0.010 A 
ATOM     72  C   UNL A   1      41.999  22.495  28.545  1.00  0.00     0.010 A 
ATOM     73  C   UNL A   1      43.015  22.000  25.985  1.00  0.00     0.020 A 
ATOM     74  C   UNL A   1      41.852  21.228  27.972  1.00  0.00     0.020 A 
ATOM     75  C   UNL A   1      42.351  20.993  26.689  1.00  0.00     0.054 A 
BRANCH  75  76
ATOM     76  S   UNL A   1      42.188  19.352  25.931  1.00  0.00     0.124 S 
ATOM     77  O   UNL A   1      40.745  19.252  25.734  1.00  0.00    -0.237 OA
ATOM     78  O   UNL A   1      42.986  19.484  24.715  1.00  0.00    -0.237 OA
ATOM     79  O   UNL A   1      42.748  18.454  26.940  1.00  0.00    -0.744 OA
ENDBRANCH  75  76
ENDBRANCH  47  70
BRANCH  59  80
ATOM     80  C   UNL A   1      48.000  26.691  31.037  1.00  0.00    -0.014 A 
ATOM     81  C   UNL A   1      49.072  26.879  30.148  1.00  0.00     0.010 A 
ATOM     82  C   UNL A   1      48.246  26.119  32.299  1.00  0.00     0.010 A 
ATOM     83  C   UNL A   1      50.362  26.477  30.503  1.00  0.00     0.020 A 
ATOM     84  C   UNL A   1      49.539  25.738  32.667  1.00  0.00     0.020 A 
ATOM     85  C   UNL A   1      50.587  25.908  31.761  1.00  0.00     0.054 A 
BRANCH  85  86
ATOM     86  S   UNL A   1      52.278  25.437  32.217  1.00  0.00     0.124 S 
ATOM     87  O   UNL A   1      52.470  26.169  33.467  1.00  0.00    -0.237 OA
ATOM     88  O   UNL A   1      52.185  23.984  32.348  1.00  0.00    -0.237 OA
ATOM     89  O   UNL A   1      53.084  25.903  31.091  1.00  0.00    -0.744 OA
ENDBRANCH  85  86
ENDBRANCH  59  80
ENDBRANCH  33  34
ENDBRANCH  25  28
ENDBRANCH  23  24
ENDBRANCH  22  23
ENDBRANCH   1  22
TORSDOF 17
ENDMDL
MODEL 2
REMARK VINA RESULT:     -10.3      3.185      4.218
REMARK SMILES O=C(C[C@H]1CN(C(=O)c2sccc2Br)CCO1)NCCCCNC(=O)c1ccc(-c2c3nc(c(-c4ccc(S(=O)(=O)[O-])cc4)c4ccc([nH]4)c(-c4ccc(S(=O)(=O)[O-])cc4)c4nc(c(-c5ccc(S(=O)(=O)[O-])cc5)c5ccc2[nH]5)C=C4)C=C3)cc1
REMARK SMILES IDX 20 1 19 2 18 3 1 4 2 5 3 7 4 8 5 9 17 10 6 11 16 12 15 13
REMARK SMILES IDX 7 14 8 15 9 16 10 17 13 18 11 19 12 20 14 21 21 22 22 23
REMARK SMILES IDX 23 24 24 25 25 27 26 28 27 29 85 30 28 31 84 32 29 33 30 34
REMARK SMILES IDX 31 35 78 36 32 37 83 38 77 39 79 40 33 41 82 42 76 43 75 44
REMARK SMILES IDX 34 46 64 47 45 48 63 49 46 50 49 51 62 52 80 53 47 54 48 55
REMARK SMILES IDX 61 57 81 58 50 59 35 60 36 61 44 62 37 63 43 64 38 65 39 66
REMARK SMILES IDX 40 67 41 68 42 69 65 70 66 71 74 72 67 73 73 74 68 75 69 76
REMARK SMILES IDX 70 77 71 78 72 79 51 80 52 81 60 82 53 83 59 84 54 85 55 86
REMARK SMILES IDX 56 87 57 88 58 89
REMARK H PARENT 18 6 23 26 79 45 49 56
REMARK Flexibility Score: inf
ROOT
ATOM      1  C   UNL A   1      34.869  30.686  27.806  1.00  0.00     0.023 C 
ENDROOT
BRANCH   1   2
ATOM      2  C   UNL A   1      33.695  30.468  26.855  1.00  0.00     0.116 C 
BRANCH   2   3
ATOM      3  N   UNL A   1      33.948  29.447  25.861  1.00  0.00    -0.356 N 
ATOM      4  O   UNL A   1      32.774  27.836  26.968  1.00  0.00    -0.275 OA
ATOM      5  C   UNL A   1      33.401  28.197  25.973  1.00  0.00     0.222 C 
ATOM      6  H   UNL A   1      34.524  29.655  25.090  1.00  0.00     0.163 HD
BRANCH   5   7
ATOM      7  C   UNL A   1      33.638  27.235  24.829  1.00  0.00     0.133 C 
BRANCH   7   8
ATOM      8  C   UNL A   1      33.042  27.514  23.441  1.00  0.00     0.147 C 
ATOM      9  C   UNL A   1      33.552  26.488  22.391  1.00  0.00     0.152 C 
ATOM     10  O   UNL A   1      31.605  27.605  23.411  1.00  0.00    -0.374 OA
ATOM     11  N   UNL A   1      32.868  25.202  22.570  1.00  0.00    -0.333 N 
ATOM     12  C   UNL A   1      30.945  26.337  23.586  1.00  0.00     0.182 C 
ATOM     13  C   UNL A   1      31.412  25.307  22.561  1.00  0.00     0.148 C 
BRANCH  11  14
ATOM     14  C   UNL A   1      33.472  23.974  22.838  1.00  0.00     0.265 C 
ATOM     15  O   UNL A   1      33.715  23.175  21.932  1.00  0.00    -0.268 OA
BRANCH  14  16
ATOM     16  C   UNL A   1      33.861  23.697  24.203  1.00  0.00     0.106 A 
ATOM     17  S   UNL A   1      35.526  23.821  24.602  1.00  0.00    -0.137 S 
ATOM     18  C   UNL A   1      33.132  23.223  25.269  1.00  0.00     0.041 A 
ATOM     19  C   UNL A   1      35.253  23.259  26.195  1.00  0.00     0.067 A 
ATOM     20  C   UNL A   1      33.920  23.000  26.430  1.00  0.00     0.028 A 
ATOM     21  Br  UNL A   1      31.282  22.851  25.296  1.00  0.00    -0.049 Br
ENDBRANCH  14  16
ENDBRANCH  11  14
ENDBRANCH   7   8
ENDBRANCH   5   7
ENDBRANCH   2   3
ENDBRANCH   1   2
BRANCH   1  22
ATOM     22  C   UNL A   1      35.209  32.152  28.082  1.00  0.00     0.023 C 
BRANCH  22  23
ATOM     23  C   UNL A   1      36.090  32.406  29.300  1.00  0.00     0.116 C 
BRANCH  23  24
ATOM     24  N   UNL A   1      35.790  31.524  30.418  1.00  0.00    -0.352 N 
ATOM     25  C   UNL A   1      36.551  30.516  30.955  1.00  0.00     0.251 C 
ATOM     26  H   UNL A   1      34.917  31.672  30.849  1.00  0.00     0.163 HD
ATOM     27  O   UNL A   1      36.082  29.794  31.831  1.00  0.00    -0.269 OA
BRANCH  25  28
ATOM     28  C   UNL A   1      37.923  30.276  30.456  1.00  0.00     0.039 A 
ATOM     29  C   UNL A   1      38.976  30.236  31.374  1.00  0.00     0.014 A 
ATOM     30  C   UNL A   1      38.174  30.081  29.094  1.00  0.00     0.014 A 
ATOM     31  C   UNL A   1      40.268  29.931  30.938  1.00  0.00     0.010 A 
ATOM     32  C   UNL A   1      39.449  29.714  28.670  1.00  0.00     0.010 A 
ATOM     33  C   UNL A   1      40.509  29.631  29.587  1.00  0.00    -0.014 A 
BRANCH  33  34
ATOM     34  C   UNL A   1      41.856  29.215  29.117  1.00  0.00     0.031 A 
ATOM     35  C   UNL A   1      42.973  30.219  29.031  1.00  0.00     0.074 A 
ATOM     36  C   UNL A   1      42.057  27.947  28.705  1.00  0.00     0.049 A 
ATOM     37  N   UNL A   1      44.192  30.059  28.580  1.00  0.00    -0.248 NA
ATOM     38  C   UNL A   1      42.677  31.585  29.488  1.00  0.00     0.031 C 
ATOM     39  C   UNL A   1      41.047  26.886  28.699  1.00  0.00     0.029 A 
ATOM     40  N   UNL A   1      43.179  27.337  28.201  1.00  0.00    -0.354 N 
ATOM     41  C   UNL A   1      44.801  31.304  28.683  1.00  0.00     0.074 A 
ATOM     42  C   UNL A   1      43.805  32.218  29.198  1.00  0.00     0.031 C 
ATOM     43  C   UNL A   1      41.599  25.754  28.234  1.00  0.00     0.029 A 
ATOM     44  C   UNL A   1      42.990  26.014  27.874  1.00  0.00     0.049 A 
ATOM     45  H   UNL A   1      44.038  27.803  28.083  1.00  0.00     0.167 HD
ATOM     46  C   UNL A   1      46.077  31.653  28.392  1.00  0.00     0.031 A 
ATOM     47  C   UNL A   1      43.836  25.113  27.340  1.00  0.00     0.031 A 
ATOM     48  C   UNL A   1      47.072  30.740  27.895  1.00  0.00     0.049 A 
ATOM     49  C   UNL A   1      45.248  25.523  27.027  1.00  0.00     0.074 A 
ATOM     50  C   UNL A   1      48.406  30.987  27.621  1.00  0.00     0.029 A 
ATOM     51  N   UNL A   1      46.845  29.405  27.598  1.00  0.00    -0.354 N 
ATOM     52  N   UNL A   1      45.820  26.693  27.184  1.00  0.00    -0.248 NA
ATOM     53  C   UNL A   1      46.134  24.487  26.474  1.00  0.00     0.031 C 
ATOM     54  C   UNL A   1      48.976  29.813  27.119  1.00  0.00     0.029 A 
ATOM     55  C   UNL A   1      48.009  28.821  27.128  1.00  0.00     0.049 A 
ATOM     56  H   UNL A   1      45.984  28.941  27.707  1.00  0.00     0.167 HD
ATOM     57  C   UNL A   1      47.138  26.527  26.774  1.00  0.00     0.074 A 
ATOM     58  C   UNL A   1      47.282  25.143  26.374  1.00  0.00     0.031 C 
ATOM     59  C   UNL A   1      48.139  27.440  26.734  1.00  0.00     0.031 A 
BRANCH  46  60
ATOM     60  C   UNL A   1      46.470  33.090  28.607  1.00  0.00    -0.014 A 
ATOM     61  C   UNL A   1      46.321  34.042  27.583  1.00  0.00     0.010 A 
ATOM     62  C   UNL A   1      46.957  33.503  29.860  1.00  0.00     0.010 A 
ATOM     63  C   UNL A   1      46.692  35.373  27.793  1.00  0.00     0.020 A 
ATOM     64  C   UNL A   1      47.305  34.838  30.083  1.00  0.00     0.020 A 
ATOM     65  C   UNL A   1      47.186  35.761  29.041  1.00  0.00     0.054 A 
BRANCH  65  66
ATOM     66  S   UNL A   1      47.645  37.498  29.294  1.00  0.00     0.124 S 
ATOM     67  O   UNL A   1      47.527  38.040  27.943  1.00  0.00    -0.237 OA
ATOM     68  O   UNL A   1      46.639  37.961  30.246  1.00  0.00    -0.237 OA
ATOM     69  O   UNL A   1      49.007  37.425  29.817  1.00  0.00    -0.744 OA
ENDBRANCH  65  66
ENDBRANCH  46  60
BRANCH  47  70
ATOM     70  C   UNL A   1      43.371  23.724  27.076  1.00  0.00    -0.014 A 
ATOM     71  C   UNL A   1      43.157  23.281  25.759  1.00  0.00     0.010 A 
ATOM     72  C   UNL A   1      43.149  22.834  28.143  1.00  0.00     0.010 A 
ATOM     73  C   UNL A   1      42.711  21.979  25.514  1.00  0.00     0.020 A 
ATOM     74  C   UNL A   1      42.729  21.523  27.899  1.00  0.00     0.020 A 
ATOM     75  C   UNL A   1      42.501  21.108  26.585  1.00  0.00     0.054 A 
BRANCH  75  76
ATOM     76  S   UNL A   1      41.971  19.406  26.242  1.00  0.00     0.124 S 
ATOM     77  O   UNL A   1      42.436  18.699  27.432  1.00  0.00    -0.237 OA
ATOM     78  O   UNL A   1      40.523  19.544  26.111  1.00  0.00    -0.237 OA
ATOM     79  O   UNL A   1      42.672  19.076  25.002  1.00  0.00    -0.744 OA
ENDBRANCH  75  76
ENDBRANCH  47  70
BRANCH  59  80
ATOM     80  C   UNL A   1      49.490  26.967  26.271  1.00  0.00    -0.014 A 
ATOM     81  C   UNL A   1      50.385  26.341  27.155  1.00  0.00     0.010 A 
ATOM     82  C   UNL A   1      49.846  27.104  24.916  1.00  0.00     0.010 A 
ATOM     83  C   UNL A   1      51.624  25.884  26.700  1.00  0.00     0.020 A 
ATOM     84  C   UNL A   1      51.074  26.627  24.452  1.00  0.00     0.020 A 
ATOM     85  C   UNL A   1      51.961  26.032  25.350  1.00  0.00     0.054 A 
BRANCH  85  86
ATOM     86  S   UNL A   1      53.556  25.390  24.772  1.00  0.00     0.124 S 
ATOM     87  O   UNL A   1      53.548  25.779  23.364  1.00  0.00    -0.237 OA
ATOM     88  O   UNL A   1      54.515  26.100  25.615  1.00  0.00    -0.237 OA
ATOM     89  O   UNL A   1      53.463  23.953  25.022  1.00  0.00    -0.744 OA
ENDBRANCH  85  86
ENDBRANCH  59  80
ENDBRANCH  33  34
ENDBRANCH  25  28
ENDBRANCH  23  24
ENDBRANCH  22  23
ENDBRANCH   1  22
TORSDOF 17
ENDMDL
MODEL 3
REMARK VINA RESULT:     -10.2      4.653     10.483
REMARK SMILES O=C(C[C@H]1CN(C(=O)c2sccc2Br)CCO1)NCCCCNC(=O)c1ccc(-c2c3nc(c(-c4ccc(S(=O)(=O)[O-])cc4)c4ccc([nH]4)c(-c4ccc(S(=O)(=O)[O-])cc4)c4nc(c(-c5ccc(S(=O)(=O)[O-])cc5)c5ccc2[nH]5)C=C4)C=C3)cc1
REMARK SMILES IDX 20 1 19 2 18 3 1 4 2 5 3 7 4 8 5 9 17 10 6 11 16 12 15 13
REMARK SMILES IDX 7 14 8 15 9 16 10 17 13 18 11 19 12 20 14 21 21 22 22 23
REMARK SMILES IDX 23 24 24 25 25 27 26 28 27 29 85 30 28 31 84 32 29 33 30 34
REMARK SMILES IDX 31 35 78 36 32 37 83 38 77 39 79 40 33 41 82 42 76 43 75 44
REMARK SMILES IDX 34 46 64 47 45 48 63 49 46 50 49 51 62 52 80 53 47 54 48 55
REMARK SMILES IDX 61 57 81 58 50 59 35 60 36 61 44 62 37 63 43 64 38 65 39 66
REMARK SMILES IDX 40 67 41 68 42 69 65 70 66 71 74 72 67 73 73 74 68 75 69 76
REMARK SMILES IDX 70 77 71 78 72 79 51 80 52 81 60 82 53 83 59 84 54 85 55 86
REMARK SMILES IDX 56 87 57 88 58 89
REMARK H PARENT 18 6 23 26 79 45 49 56
REMARK Flexibility Score: inf
ROOT
ATOM      1  C   UNL A   1      40.400  21.528  27.329  1.00  0.00     0.023 C 
ENDROOT
BRANCH   1   2
ATOM      2  C   UNL A   1      39.942  20.820  26.056  1.00  0.00     0.116 C 
BRANCH   2   3
ATOM      3  N   UNL A   1      38.795  21.447  25.435  1.00  0.00    -0.356 N 
ATOM      4  O   UNL A   1      37.790  19.472  24.898  1.00  0.00    -0.275 OA
ATOM      5  C   UNL A   1      37.756  20.701  24.947  1.00  0.00     0.222 C 
ATOM      6  H   UNL A   1      38.761  22.428  25.362  1.00  0.00     0.163 HD
BRANCH   5   7
ATOM      7  C   UNL A   1      36.556  21.454  24.415  1.00  0.00     0.133 C 
BRANCH   7   8
ATOM      8  C   UNL A   1      36.703  22.896  23.907  1.00  0.00     0.147 C 
ATOM      9  C   UNL A   1      35.387  23.402  23.253  1.00  0.00     0.152 C 
ATOM     10  O   UNL A   1      37.179  23.834  24.890  1.00  0.00    -0.374 OA
ATOM     11  N   UNL A   1      34.404  23.730  24.291  1.00  0.00    -0.333 N 
ATOM     12  C   UNL A   1      36.205  24.149  25.902  1.00  0.00     0.182 C 
ATOM     13  C   UNL A   1      34.903  24.663  25.296  1.00  0.00     0.148 C 
BRANCH  11  14
ATOM     14  C   UNL A   1      33.137  23.166  24.438  1.00  0.00     0.265 C 
ATOM     15  O   UNL A   1      32.119  23.854  24.329  1.00  0.00    -0.268 OA
BRANCH  14  16
ATOM     16  C   UNL A   1      33.054  21.739  24.658  1.00  0.00     0.106 A 
ATOM     17  S   UNL A   1      32.430  20.768  23.387  1.00  0.00    -0.137 S 
ATOM     18  C   UNL A   1      33.288  20.986  25.785  1.00  0.00     0.041 A 
ATOM     19  C   UNL A   1      32.496  19.354  24.348  1.00  0.00     0.067 A 
ATOM     20  C   UNL A   1      33.001  19.606  25.605  1.00  0.00     0.028 A 
ATOM     21  Br  UNL A   1      33.904  21.614  27.454  1.00  0.00    -0.049 Br
ENDBRANCH  14  16
ENDBRANCH  11  14
ENDBRANCH   7   8
ENDBRANCH   5   7
ENDBRANCH   2   3
ENDBRANCH   1   2
BRANCH   1  22
ATOM     22  C   UNL A   1      40.405  23.056  27.249  1.00  0.00     0.023 C 
BRANCH  22  23
ATOM     23  C   UNL A   1      41.781  23.711  27.265  1.00  0.00     0.116 C 
BRANCH  23  24
ATOM     24  N   UNL A   1      42.083  24.441  26.043  1.00  0.00    -0.352 N 
ATOM     25  C   UNL A   1      42.013  25.790  25.799  1.00  0.00     0.251 C 
ATOM     26  H   UNL A   1      42.377  23.888  25.283  1.00  0.00     0.163 HD
ATOM     27  O   UNL A   1      42.195  26.218  24.662  1.00  0.00    -0.269 OA
BRANCH  25  28
ATOM     28  C   UNL A   1      41.684  26.726  26.898  1.00  0.00     0.039 A 
ATOM     29  C   UNL A   1      40.625  26.413  27.753  1.00  0.00     0.014 A 
ATOM     30  C   UNL A   1      42.419  27.899  27.092  1.00  0.00     0.014 A 
ATOM     31  C   UNL A   1      40.347  27.239  28.846  1.00  0.00     0.010 A 
ATOM     32  C   UNL A   1      42.183  28.686  28.218  1.00  0.00     0.010 A 
ATOM     33  C   UNL A   1      41.147  28.363  29.109  1.00  0.00    -0.014 A 
BRANCH  33  34
ATOM     34  C   UNL A   1      40.927  29.202  30.315  1.00  0.00     0.031 A 
ATOM     35  C   UNL A   1      41.763  28.995  31.548  1.00  0.00     0.074 A 
ATOM     36  C   UNL A   1      39.927  30.108  30.323  1.00  0.00     0.049 A 
ATOM     37  N   UNL A   1      41.670  29.580  32.715  1.00  0.00    -0.248 NA
ATOM     38  C   UNL A   1      42.827  27.983  31.467  1.00  0.00     0.031 C 
ATOM     39  C   UNL A   1      39.017  30.379  29.208  1.00  0.00     0.029 A 
ATOM     40  N   UNL A   1      39.503  30.962  31.311  1.00  0.00    -0.354 N 
ATOM     41  C   UNL A   1      42.648  28.997  33.511  1.00  0.00     0.074 A 
ATOM     42  C   UNL A   1      43.295  27.982  32.707  1.00  0.00     0.031 C 
ATOM     43  C   UNL A   1      38.156  31.345  29.566  1.00  0.00     0.029 A 
ATOM     44  C   UNL A   1      38.426  31.737  30.946  1.00  0.00     0.049 A 
ATOM     45  H   UNL A   1      39.928  31.014  32.197  1.00  0.00     0.167 HD
ATOM     46  C   UNL A   1      42.991  29.289  34.789  1.00  0.00     0.031 A 
ATOM     47  C   UNL A   1      37.730  32.656  31.643  1.00  0.00     0.031 A 
ATOM     48  C   UNL A   1      42.358  30.309  35.583  1.00  0.00     0.049 A 
ATOM     49  C   UNL A   1      38.130  32.965  33.059  1.00  0.00     0.074 A 
ATOM     50  C   UNL A   1      42.670  30.715  36.868  1.00  0.00     0.029 A 
ATOM     51  N   UNL A   1      41.287  31.086  35.168  1.00  0.00    -0.354 N 
ATOM     52  N   UNL A   1      39.096  32.440  33.775  1.00  0.00    -0.248 NA
ATOM     53  C   UNL A   1      37.353  33.999  33.758  1.00  0.00     0.031 C 
ATOM     54  C   UNL A   1      41.762  31.709  37.247  1.00  0.00     0.029 A 
ATOM     55  C   UNL A   1      40.916  31.956  36.179  1.00  0.00     0.049 A 
ATOM     56  H   UNL A   1      40.855  31.028  34.285  1.00  0.00     0.167 HD
ATOM     57  C   UNL A   1      39.058  33.098  34.999  1.00  0.00     0.074 A 
ATOM     58  C   UNL A   1      37.984  34.066  34.922  1.00  0.00     0.031 C 
ATOM     59  C   UNL A   1      39.844  32.916  36.089  1.00  0.00     0.031 A 
BRANCH  46  60
ATOM     60  C   UNL A   1      44.106  28.491  35.408  1.00  0.00    -0.014 A 
ATOM     61  C   UNL A   1      45.442  28.920  35.318  1.00  0.00     0.010 A 
ATOM     62  C   UNL A   1      43.812  27.316  36.124  1.00  0.00     0.010 A 
ATOM     63  C   UNL A   1      46.469  28.168  35.895  1.00  0.00     0.020 A 
ATOM     64  C   UNL A   1      44.832  26.574  36.725  1.00  0.00     0.020 A 
ATOM     65  C   UNL A   1      46.157  26.997  36.591  1.00  0.00     0.054 A 
BRANCH  65  66
ATOM     66  S   UNL A   1      47.507  26.047  37.345  1.00  0.00     0.124 S 
ATOM     67  O   UNL A   1      47.418  26.457  38.744  1.00  0.00    -0.237 OA
ATOM     68  O   UNL A   1      47.120  24.666  37.070  1.00  0.00    -0.237 OA
ATOM     69  O   UNL A   1      48.696  26.511  36.635  1.00  0.00    -0.744 OA
ENDBRANCH  65  66
ENDBRANCH  46  60
BRANCH  47  70
ATOM     70  C   UNL A   1      36.586  33.361  31.004  1.00  0.00    -0.014 A 
ATOM     71  C   UNL A   1      35.319  33.361  31.613  1.00  0.00     0.010 A 
ATOM     72  C   UNL A   1      36.761  34.045  29.787  1.00  0.00     0.010 A 
ATOM     73  C   UNL A   1      34.243  34.016  31.008  1.00  0.00     0.020 A 
ATOM     74  C   UNL A   1      35.693  34.724  29.193  1.00  0.00     0.020 A 
ATOM     75  C   UNL A   1      34.437  34.694  29.802  1.00  0.00     0.054 A 
BRANCH  75  76
ATOM     76  S   UNL A   1      33.039  35.581  29.058  1.00  0.00     0.124 S 
ATOM     77  O   UNL A   1      32.297  36.018  30.237  1.00  0.00    -0.237 OA
ATOM     78  O   UNL A   1      33.701  36.638  28.299  1.00  0.00    -0.237 OA
ATOM     79  O   UNL A   1      32.381  34.560  28.246  1.00  0.00    -0.744 OA
ENDBRANCH  75  76
ENDBRANCH  47  70
BRANCH  59  80
ATOM     80  C   UNL A   1      39.595  33.803  37.278  1.00  0.00    -0.014 A 
ATOM     81  C   UNL A   1      38.787  33.378  38.347  1.00  0.00     0.010 A 
ATOM     82  C   UNL A   1      40.225  35.059  37.350  1.00  0.00     0.010 A 
ATOM     83  C   UNL A   1      38.590  34.206  39.455  1.00  0.00     0.020 A 
ATOM     84  C   UNL A   1      40.050  35.880  38.468  1.00  0.00     0.020 A 
ATOM     85  C   UNL A   1      39.222  35.453  39.507  1.00  0.00     0.054 A 
BRANCH  85  86
ATOM     86  S   UNL A   1      38.988  36.491  40.977  1.00  0.00     0.124 S 
ATOM     87  O   UNL A   1      38.589  37.766  40.387  1.00  0.00    -0.237 OA
ATOM     88  O   UNL A   1      37.941  35.782  41.709  1.00  0.00    -0.237 OA
ATOM     89  O   UNL A   1      40.301  36.484  41.618  1.00  0.00    -0.744 OA
ENDBRANCH  85  86
ENDBRANCH  59  80
ENDBRANCH  33  34
ENDBRANCH  25  28
ENDBRANCH  23  24
ENDBRANCH  22  23
ENDBRANCH   1  22
TORSDOF 17
ENDMDL
