MODEL 1
REMARK VINA RESULT:     -11.7      0.000      0.000
REMARK SMILES COc1ccc(C2=NN=C[C@@H]2C(=O)NCCCCNC(=O)c2ccc(-c3c4nc(c(-c5ccc(S(=O)(=O)[O-])cc5)c5ccc([nH]5)c(-c5ccc(S(=O)(=O)[O-])cc5)c5nc(c(-c6ccc(S(=O)(=O)[O-])cc6)c6ccc3[nH]6)C=C5)C=C4)cc2)cc1OC
REMARK SMILES IDX 17 1 16 2 15 3 14 4 12 5 13 6 11 8 7 9 8 10 9 11 10 12 6 13
REMARK SMILES IDX 3 14 4 15 83 16 5 17 82 18 2 19 1 20 84 21 85 22 18 23 19 24
REMARK SMILES IDX 20 25 21 27 22 28 23 29 81 30 24 31 80 32 25 33 26 34 27 35
REMARK SMILES IDX 74 36 28 37 79 38 73 39 75 40 29 41 78 42 72 43 71 44 30 46
REMARK SMILES IDX 60 47 41 48 59 49 42 50 45 51 58 52 76 53 43 54 44 55 57 57
REMARK SMILES IDX 77 58 46 59 31 60 32 61 40 62 33 63 39 64 34 65 35 66 36 67
REMARK SMILES IDX 37 68 38 69 61 70 62 71 70 72 63 73 69 74 64 75 65 76 66 77
REMARK SMILES IDX 67 78 68 79 47 80 48 81 56 82 49 83 55 84 50 85 51 86 52 87
REMARK SMILES IDX 53 88 54 89
REMARK H PARENT 14 7 19 26 75 45 45 56
REMARK Flexibility Score: inf
ROOT
ATOM      1  C   UNL A   1      39.386  22.259  26.400  1.00  0.00     0.023 C 
ENDROOT
BRANCH   1   2
ATOM      2  C   UNL A   1      38.719  23.634  26.570  1.00  0.00     0.023 C 
BRANCH   2   3
ATOM      3  C   UNL A   1      37.293  23.754  26.019  1.00  0.00     0.116 C 
BRANCH   3   4
ATOM      4  N   UNL A   1      37.258  23.603  24.572  1.00  0.00    -0.355 N 
ATOM      5  C   UNL A   1      36.392  22.937  23.761  1.00  0.00     0.234 C 
ATOM      6  O   UNL A   1      36.669  22.890  22.558  1.00  0.00    -0.274 OA
ATOM      7  H   UNL A   1      37.987  24.062  24.098  1.00  0.00     0.163 HD
BRANCH   5   8
ATOM      8  C   UNL A   1      35.138  22.278  24.256  1.00  0.00     0.173 C 
ATOM      9  C   UNL A   1      34.265  23.102  25.131  1.00  0.00     0.088 C 
ATOM     10  N   UNL A   1      34.013  22.540  26.276  1.00  0.00    -0.154 NA
ATOM     11  N   UNL A   1      34.681  21.273  26.301  1.00  0.00    -0.162 NA
ATOM     12  C   UNL A   1      35.320  21.138  25.184  1.00  0.00     0.128 C 
BRANCH   9  13
ATOM     13  C   UNL A   1      33.776  24.418  24.720  1.00  0.00     0.003 A 
ATOM     14  C   UNL A   1      32.920  26.907  23.823  1.00  0.00     0.160 A 
ATOM     15  C   UNL A   1      33.691  26.807  24.989  1.00  0.00     0.051 A 
ATOM     16  C   UNL A   1      32.554  25.752  23.116  1.00  0.00     0.161 A 
ATOM     17  C   UNL A   1      34.113  25.558  25.448  1.00  0.00     0.014 A 
ATOM     18  C   UNL A   1      32.997  24.507  23.568  1.00  0.00     0.060 A 
BRANCH  14  19
ATOM     19  O   UNL A   1      32.711  28.149  23.294  1.00  0.00    -0.493 OA
ATOM     20  C   UNL A   1      33.908  28.786  22.840  1.00  0.00     0.278 C 
ENDBRANCH  14  19
BRANCH  16  21
ATOM     21  O   UNL A   1      31.833  25.675  21.955  1.00  0.00    -0.493 OA
ATOM     22  C   UNL A   1      32.591  25.626  20.755  1.00  0.00     0.278 C 
ENDBRANCH  16  21
ENDBRANCH   9  13
ENDBRANCH   5   8
ENDBRANCH   3   4
ENDBRANCH   2   3
ENDBRANCH   1   2
BRANCH   1  23
ATOM     23  C   UNL A   1      40.710  22.102  27.135  1.00  0.00     0.116 C 
BRANCH  23  24
ATOM     24  N   UNL A   1      41.872  22.077  26.242  1.00  0.00    -0.352 N 
ATOM     25  C   UNL A   1      42.486  23.150  25.604  1.00  0.00     0.251 C 
ATOM     26  H   UNL A   1      42.268  21.192  26.073  1.00  0.00     0.163 HD
ATOM     27  O   UNL A   1      43.161  22.985  24.603  1.00  0.00    -0.269 OA
BRANCH  25  28
ATOM     28  C   UNL A   1      42.320  24.492  26.197  1.00  0.00     0.039 A 
ATOM     29  C   UNL A   1      41.545  25.502  25.615  1.00  0.00     0.014 A 
ATOM     30  C   UNL A   1      42.967  24.707  27.407  1.00  0.00     0.014 A 
ATOM     31  C   UNL A   1      41.393  26.709  26.304  1.00  0.00     0.010 A 
ATOM     32  C   UNL A   1      42.625  25.776  28.177  1.00  0.00     0.010 A 
ATOM     33  C   UNL A   1      41.941  26.829  27.589  1.00  0.00    -0.014 A 
BRANCH  33  34
ATOM     34  C   UNL A   1      41.788  28.009  28.428  1.00  0.00     0.031 A 
ATOM     35  C   UNL A   1      42.841  29.038  28.215  1.00  0.00     0.074 A 
ATOM     36  C   UNL A   1      40.611  28.272  29.046  1.00  0.00     0.049 A 
ATOM     37  N   UNL A   1      43.784  29.397  29.020  1.00  0.00    -0.248 NA
ATOM     38  C   UNL A   1      42.966  29.616  26.862  1.00  0.00     0.031 C 
ATOM     39  C   UNL A   1      39.351  27.513  28.977  1.00  0.00     0.029 A 
ATOM     40  N   UNL A   1      40.245  29.358  29.775  1.00  0.00    -0.354 N 
ATOM     41  C   UNL A   1      44.470  30.419  28.364  1.00  0.00     0.074 A 
ATOM     42  C   UNL A   1      44.088  30.327  26.981  1.00  0.00     0.031 C 
ATOM     43  C   UNL A   1      38.330  28.277  29.433  1.00  0.00     0.029 A 
ATOM     44  C   UNL A   1      38.874  29.506  29.978  1.00  0.00     0.049 A 
ATOM     45  H   UNL A   1      40.902  29.996  30.135  1.00  0.00     0.167 HD
ATOM     46  C   UNL A   1      45.066  31.438  29.050  1.00  0.00     0.031 A 
ATOM     47  C   UNL A   1      38.243  30.583  30.526  1.00  0.00     0.031 A 
ATOM     48  C   UNL A   1      45.119  31.148  30.461  1.00  0.00     0.049 A 
ATOM     49  C   UNL A   1      39.281  31.387  31.211  1.00  0.00     0.074 A 
ATOM     50  C   UNL A   1      45.708  30.174  31.239  1.00  0.00     0.029 A 
ATOM     51  N   UNL A   1      44.127  31.707  31.233  1.00  0.00    -0.354 N 
ATOM     52  N   UNL A   1      39.937  30.962  32.251  1.00  0.00    -0.248 NA
ATOM     53  C   UNL A   1      39.927  32.440  30.441  1.00  0.00     0.031 C 
ATOM     54  C   UNL A   1      44.740  29.872  32.241  1.00  0.00     0.029 A 
ATOM     55  C   UNL A   1      43.655  30.736  32.076  1.00  0.00     0.049 A 
ATOM     56  H   UNL A   1      43.812  32.639  31.190  1.00  0.00     0.167 HD
ATOM     57  C   UNL A   1      41.244  31.370  32.031  1.00  0.00     0.074 A 
ATOM     58  C   UNL A   1      41.163  32.342  30.940  1.00  0.00     0.031 C 
ATOM     59  C   UNL A   1      42.291  30.668  32.550  1.00  0.00     0.031 A 
BRANCH  46  60
ATOM     60  C   UNL A   1      45.199  32.856  28.531  1.00  0.00    -0.014 A 
ATOM     61  C   UNL A   1      46.454  33.492  28.643  1.00  0.00     0.010 A 
ATOM     62  C   UNL A   1      44.105  33.676  28.189  1.00  0.00     0.010 A 
ATOM     63  C   UNL A   1      46.586  34.882  28.513  1.00  0.00     0.020 A 
ATOM     64  C   UNL A   1      44.232  35.056  28.015  1.00  0.00     0.020 A 
ATOM     65  C   UNL A   1      45.466  35.656  28.216  1.00  0.00     0.054 A 
BRANCH  65  66
ATOM     66  S   UNL A   1      45.622  37.457  28.157  1.00  0.00     0.124 S 
ATOM     67  O   UNL A   1      46.317  37.739  29.408  1.00  0.00    -0.237 OA
ATOM     68  O   UNL A   1      46.399  37.658  26.937  1.00  0.00    -0.237 OA
ATOM     69  O   UNL A   1      44.237  37.917  28.091  1.00  0.00    -0.744 OA
ENDBRANCH  65  66
ENDBRANCH  46  60
BRANCH  47  70
ATOM     70  C   UNL A   1      36.983  31.227  30.077  1.00  0.00    -0.014 A 
ATOM     71  C   UNL A   1      36.049  31.790  30.967  1.00  0.00     0.010 A 
ATOM     72  C   UNL A   1      36.888  31.584  28.720  1.00  0.00     0.010 A 
ATOM     73  C   UNL A   1      35.036  32.659  30.503  1.00  0.00     0.020 A 
ATOM     74  C   UNL A   1      35.906  32.465  28.259  1.00  0.00     0.020 A 
ATOM     75  C   UNL A   1      34.971  32.989  29.147  1.00  0.00     0.054 A 
BRANCH  75  76
ATOM     76  S   UNL A   1      33.695  34.140  28.541  1.00  0.00     0.124 S 
ATOM     77  O   UNL A   1      34.498  35.197  27.934  1.00  0.00    -0.237 OA
ATOM     78  O   UNL A   1      32.925  33.314  27.617  1.00  0.00    -0.237 OA
ATOM     79  O   UNL A   1      32.986  34.536  29.758  1.00  0.00    -0.744 OA
ENDBRANCH  75  76
ENDBRANCH  47  70
BRANCH  59  80
ATOM     80  C   UNL A   1      41.994  29.589  33.564  1.00  0.00    -0.014 A 
ATOM     81  C   UNL A   1      41.776  28.234  33.241  1.00  0.00     0.010 A 
ATOM     82  C   UNL A   1      42.127  29.946  34.914  1.00  0.00     0.010 A 
ATOM     83  C   UNL A   1      41.700  27.262  34.253  1.00  0.00     0.020 A 
ATOM     84  C   UNL A   1      42.068  28.985  35.922  1.00  0.00     0.020 A 
ATOM     85  C   UNL A   1      41.854  27.647  35.588  1.00  0.00     0.054 A 
BRANCH  85  86
ATOM     86  S   UNL A   1      41.845  26.389  36.897  1.00  0.00     0.124 S 
ATOM     87  O   UNL A   1      41.910  25.142  36.139  1.00  0.00    -0.237 OA
ATOM     88  O   UNL A   1      43.039  26.718  37.673  1.00  0.00    -0.237 OA
ATOM     89  O   UNL A   1      40.581  26.622  37.595  1.00  0.00    -0.744 OA
ENDBRANCH  85  86
ENDBRANCH  59  80
ENDBRANCH  33  34
ENDBRANCH  25  28
ENDBRANCH  23  24
ENDBRANCH   1  23
TORSDOF 17
ENDMDL
MODEL 2
REMARK VINA RESULT:     -11.5      2.191      3.148
REMARK SMILES COc1ccc(C2=NN=C[C@@H]2C(=O)NCCCCNC(=O)c2ccc(-c3c4nc(c(-c5ccc(S(=O)(=O)[O-])cc5)c5ccc([nH]5)c(-c5ccc(S(=O)(=O)[O-])cc5)c5nc(c(-c6ccc(S(=O)(=O)[O-])cc6)c6ccc3[nH]6)C=C5)C=C4)cc2)cc1OC
REMARK SMILES IDX 17 1 16 2 15 3 14 4 12 5 13 6 11 8 7 9 8 10 9 11 10 12 6 13
REMARK SMILES IDX 3 14 4 15 83 16 5 17 82 18 2 19 1 20 84 21 85 22 18 23 19 24
REMARK SMILES IDX 20 25 21 27 22 28 23 29 81 30 24 31 80 32 25 33 26 34 27 35
REMARK SMILES IDX 74 36 28 37 79 38 73 39 75 40 29 41 78 42 72 43 71 44 30 46
REMARK SMILES IDX 60 47 41 48 59 49 42 50 45 51 58 52 76 53 43 54 44 55 57 57
REMARK SMILES IDX 77 58 46 59 31 60 32 61 40 62 33 63 39 64 34 65 35 66 36 67
REMARK SMILES IDX 37 68 38 69 61 70 62 71 70 72 63 73 69 74 64 75 65 76 66 77
REMARK SMILES IDX 67 78 68 79 47 80 48 81 56 82 49 83 55 84 50 85 51 86 52 87
REMARK SMILES IDX 53 88 54 89
REMARK H PARENT 14 7 19 26 75 45 45 56
REMARK Flexibility Score: inf
ROOT
ATOM      1  C   UNL A   1      36.845  22.554  23.975  1.00  0.00     0.023 C 
ENDROOT
BRANCH   1   2
ATOM      2  C   UNL A   1      35.314  22.567  23.840  1.00  0.00     0.023 C 
BRANCH   2   3
ATOM      3  C   UNL A   1      34.693  23.907  23.429  1.00  0.00     0.116 C 
BRANCH   3   4
ATOM      4  N   UNL A   1      34.681  24.858  24.530  1.00  0.00    -0.355 N 
ATOM      5  C   UNL A   1      33.685  25.243  25.373  1.00  0.00     0.234 C 
ATOM      6  O   UNL A   1      33.935  26.161  26.160  1.00  0.00    -0.274 OA
ATOM      7  H   UNL A   1      35.545  25.301  24.694  1.00  0.00     0.163 HD
BRANCH   5   8
ATOM      8  C   UNL A   1      32.327  24.605  25.389  1.00  0.00     0.173 C 
ATOM      9  C   UNL A   1      31.172  25.523  25.569  1.00  0.00     0.088 C 
ATOM     10  N   UNL A   1      30.414  25.198  26.574  1.00  0.00    -0.154 NA
ATOM     11  N   UNL A   1      30.965  24.022  27.180  1.00  0.00    -0.162 NA
ATOM     12  C   UNL A   1      32.038  23.706  26.529  1.00  0.00     0.128 C 
BRANCH   9  13
ATOM     13  C   UNL A   1      30.957  26.679  24.699  1.00  0.00     0.003 A 
ATOM     14  C   UNL A   1      30.447  28.917  23.130  1.00  0.00     0.160 A 
ATOM     15  C   UNL A   1      30.248  27.632  22.608  1.00  0.00     0.051 A 
ATOM     16  C   UNL A   1      30.927  29.082  24.438  1.00  0.00     0.161 A 
ATOM     17  C   UNL A   1      30.515  26.506  23.388  1.00  0.00     0.014 A 
ATOM     18  C   UNL A   1      31.170  27.952  25.222  1.00  0.00     0.060 A 
BRANCH  14  19
ATOM     19  O   UNL A   1      29.976  29.982  22.416  1.00  0.00    -0.493 OA
ATOM     20  C   UNL A   1      28.758  30.525  22.934  1.00  0.00     0.278 C 
ENDBRANCH  14  19
BRANCH  16  21
ATOM     21  O   UNL A   1      31.149  30.256  25.105  1.00  0.00    -0.493 OA
ATOM     22  C   UNL A   1      32.265  30.271  25.984  1.00  0.00     0.278 C 
ENDBRANCH  16  21
ENDBRANCH   9  13
ENDBRANCH   5   8
ENDBRANCH   3   4
ENDBRANCH   2   3
ENDBRANCH   1   2
BRANCH   1  23
ATOM     23  C   UNL A   1      37.366  23.018  25.328  1.00  0.00     0.116 C 
BRANCH  23  24
ATOM     24  N   UNL A   1      38.185  22.012  26.012  1.00  0.00    -0.352 N 
ATOM     25  C   UNL A   1      39.410  22.191  26.645  1.00  0.00     0.251 C 
ATOM     26  H   UNL A   1      37.821  21.097  26.026  1.00  0.00     0.163 HD
ATOM     27  O   UNL A   1      40.171  21.254  26.819  1.00  0.00    -0.269 OA
BRANCH  25  28
ATOM     28  C   UNL A   1      39.747  23.544  27.129  1.00  0.00     0.039 A 
ATOM     29  C   UNL A   1      38.847  24.616  27.110  1.00  0.00     0.014 A 
ATOM     30  C   UNL A   1      41.028  23.706  27.642  1.00  0.00     0.014 A 
ATOM     31  C   UNL A   1      39.247  25.834  27.668  1.00  0.00     0.010 A 
ATOM     32  C   UNL A   1      41.324  24.803  28.391  1.00  0.00     0.010 A 
ATOM     33  C   UNL A   1      40.492  25.910  28.307  1.00  0.00    -0.014 A 
BRANCH  33  34
ATOM     34  C   UNL A   1      40.985  27.102  28.983  1.00  0.00     0.031 A 
ATOM     35  C   UNL A   1      42.144  27.742  28.304  1.00  0.00     0.074 A 
ATOM     36  C   UNL A   1      40.225  27.740  29.906  1.00  0.00     0.049 A 
ATOM     37  N   UNL A   1      43.369  27.810  28.704  1.00  0.00    -0.248 NA
ATOM     38  C   UNL A   1      41.949  28.212  26.918  1.00  0.00     0.031 C 
ATOM     39  C   UNL A   1      38.860  27.413  30.351  1.00  0.00     0.029 A 
ATOM     40  N   UNL A   1      40.462  28.905  30.561  1.00  0.00    -0.354 N 
ATOM     41  C   UNL A   1      44.044  28.545  27.731  1.00  0.00     0.074 A 
ATOM     42  C   UNL A   1      43.194  28.538  26.571  1.00  0.00     0.031 C 
ATOM     43  C   UNL A   1      38.325  28.471  31.005  1.00  0.00     0.029 A 
ATOM     44  C   UNL A   1      39.351  29.483  31.174  1.00  0.00     0.049 A 
ATOM     45  H   UNL A   1      41.356  29.315  30.599  1.00  0.00     0.167 HD
ATOM     46  C   UNL A   1      45.106  29.344  28.043  1.00  0.00     0.031 A 
ATOM     47  C   UNL A   1      39.286  30.718  31.745  1.00  0.00     0.031 A 
ATOM     48  C   UNL A   1      45.563  29.094  29.386  1.00  0.00     0.049 A 
ATOM     49  C   UNL A   1      40.681  31.175  31.942  1.00  0.00     0.074 A 
ATOM     50  C   UNL A   1      46.082  28.006  30.057  1.00  0.00     0.029 A 
ATOM     51  N   UNL A   1      45.106  29.957  30.355  1.00  0.00    -0.354 N 
ATOM     52  N   UNL A   1      41.508  30.596  32.762  1.00  0.00    -0.248 NA
ATOM     53  C   UNL A   1      41.289  31.949  30.871  1.00  0.00     0.031 C 
ATOM     54  C   UNL A   1      45.482  28.053  31.349  1.00  0.00     0.029 A 
ATOM     55  C   UNL A   1      44.703  29.208  31.428  1.00  0.00     0.049 A 
ATOM     56  H   UNL A   1      45.075  30.940  30.290  1.00  0.00     0.167 HD
ATOM     57  C   UNL A   1      42.715  30.566  32.079  1.00  0.00     0.074 A 
ATOM     58  C   UNL A   1      42.538  31.482  30.951  1.00  0.00     0.031 C 
ATOM     59  C   UNL A   1      43.631  29.586  32.322  1.00  0.00     0.031 A 
BRANCH  46  60
ATOM     60  C   UNL A   1      45.448  30.633  27.322  1.00  0.00    -0.014 A 
ATOM     61  C   UNL A   1      46.801  30.887  27.015  1.00  0.00     0.010 A 
ATOM     62  C   UNL A   1      44.554  31.713  27.171  1.00  0.00     0.010 A 
ATOM     63  C   UNL A   1      47.247  32.171  26.670  1.00  0.00     0.020 A 
ATOM     64  C   UNL A   1      44.980  32.987  26.787  1.00  0.00     0.020 A 
ATOM     65  C   UNL A   1      46.331  33.217  26.576  1.00  0.00     0.054 A 
BRANCH  65  66
ATOM     66  S   UNL A   1      46.927  34.891  26.237  1.00  0.00     0.124 S 
ATOM     67  O   UNL A   1      47.587  35.233  27.492  1.00  0.00    -0.237 OA
ATOM     68  O   UNL A   1      47.807  34.678  25.092  1.00  0.00    -0.237 OA
ATOM     69  O   UNL A   1      45.703  35.636  25.948  1.00  0.00    -0.744 OA
ENDBRANCH  65  66
ENDBRANCH  46  60
BRANCH  47  70
ATOM     70  C   UNL A   1      38.188  31.713  31.644  1.00  0.00    -0.014 A 
ATOM     71  C   UNL A   1      37.173  31.641  30.671  1.00  0.00     0.010 A 
ATOM     72  C   UNL A   1      37.968  32.547  32.755  1.00  0.00     0.010 A 
ATOM     73  C   UNL A   1      35.991  32.404  30.796  1.00  0.00     0.020 A 
ATOM     74  C   UNL A   1      36.788  33.283  32.899  1.00  0.00     0.020 A 
ATOM     75  C   UNL A   1      35.808  33.224  31.913  1.00  0.00     0.054 A 
BRANCH  75  76
ATOM     76  S   UNL A   1      34.271  34.182  32.107  1.00  0.00     0.124 S 
ATOM     77  O   UNL A   1      33.523  33.372  33.063  1.00  0.00    -0.237 OA
ATOM     78  O   UNL A   1      34.751  35.468  32.602  1.00  0.00    -0.237 OA
ATOM     79  O   UNL A   1      33.709  34.205  30.757  1.00  0.00    -0.744 OA
ENDBRANCH  75  76
ENDBRANCH  47  70
BRANCH  59  80
ATOM     80  C   UNL A   1      43.412  28.684  33.514  1.00  0.00    -0.014 A 
ATOM     81  C   UNL A   1      43.971  28.904  34.789  1.00  0.00     0.010 A 
ATOM     82  C   UNL A   1      42.446  27.678  33.366  1.00  0.00     0.010 A 
ATOM     83  C   UNL A   1      43.564  28.131  35.890  1.00  0.00     0.020 A 
ATOM     84  C   UNL A   1      42.026  26.918  34.457  1.00  0.00     0.020 A 
ATOM     85  C   UNL A   1      42.586  27.147  35.715  1.00  0.00     0.054 A 
BRANCH  85  86
ATOM     86  S   UNL A   1      41.989  26.203  37.146  1.00  0.00     0.124 S 
ATOM     87  O   UNL A   1      41.904  24.844  36.617  1.00  0.00    -0.237 OA
ATOM     88  O   UNL A   1      43.035  26.427  38.142  1.00  0.00    -0.237 OA
ATOM     89  O   UNL A   1      40.703  26.825  37.461  1.00  0.00    -0.744 OA
ENDBRANCH  85  86
ENDBRANCH  59  80
ENDBRANCH  33  34
ENDBRANCH  25  28
ENDBRANCH  23  24
ENDBRANCH   1  23
TORSDOF 17
ENDMDL
MODEL 3
REMARK VINA RESULT:     -11.0      3.120      9.309
REMARK SMILES COc1ccc(C2=NN=C[C@@H]2C(=O)NCCCCNC(=O)c2ccc(-c3c4nc(c(-c5ccc(S(=O)(=O)[O-])cc5)c5ccc([nH]5)c(-c5ccc(S(=O)(=O)[O-])cc5)c5nc(c(-c6ccc(S(=O)(=O)[O-])cc6)c6ccc3[nH]6)C=C5)C=C4)cc2)cc1OC
REMARK SMILES IDX 17 1 16 2 15 3 14 4 12 5 13 6 11 8 7 9 8 10 9 11 10 12 6 13
REMARK SMILES IDX 3 14 4 15 83 16 5 17 82 18 2 19 1 20 84 21 85 22 18 23 19 24
REMARK SMILES IDX 20 25 21 27 22 28 23 29 81 30 24 31 80 32 25 33 26 34 27 35
REMARK SMILES IDX 74 36 28 37 79 38 73 39 75 40 29 41 78 42 72 43 71 44 30 46
REMARK SMILES IDX 60 47 41 48 59 49 42 50 45 51 58 52 76 53 43 54 44 55 57 57
REMARK SMILES IDX 77 58 46 59 31 60 32 61 40 62 33 63 39 64 34 65 35 66 36 67
REMARK SMILES IDX 37 68 38 69 61 70 62 71 70 72 63 73 69 74 64 75 65 76 66 77
REMARK SMILES IDX 67 78 68 79 47 80 48 81 56 82 49 83 55 84 50 85 51 86 52 87
REMARK SMILES IDX 53 88 54 89
REMARK H PARENT 14 7 19 26 75 45 45 56
REMARK Flexibility Score: inf
ROOT
ATOM      1  C   UNL A   1      33.821  30.641  27.578  1.00  0.00     0.023 C 
ENDROOT
BRANCH   1   2
ATOM      2  C   UNL A   1      34.501  29.374  27.034  1.00  0.00     0.023 C 
BRANCH   2   3
ATOM      3  C   UNL A   1      33.629  28.480  26.145  1.00  0.00     0.116 C 
BRANCH   3   4
ATOM      4  N   UNL A   1      33.998  28.588  24.741  1.00  0.00    -0.355 N 
ATOM      5  C   UNL A   1      33.243  28.557  23.609  1.00  0.00     0.234 C 
ATOM      6  O   UNL A   1      33.844  28.567  22.530  1.00  0.00    -0.274 OA
ATOM      7  H   UNL A   1      34.962  28.706  24.583  1.00  0.00     0.163 HD
BRANCH   5   8
ATOM      8  C   UNL A   1      31.744  28.517  23.620  1.00  0.00     0.173 C 
ATOM      9  C   UNL A   1      31.110  27.420  22.843  1.00  0.00     0.088 C 
ATOM     10  N   UNL A   1      30.257  27.848  21.960  1.00  0.00    -0.154 NA
ATOM     11  N   UNL A   1      30.213  29.278  22.044  1.00  0.00    -0.162 NA
ATOM     12  C   UNL A   1      31.054  29.647  22.956  1.00  0.00     0.128 C 
BRANCH   9  13
ATOM     13  C   UNL A   1      31.454  26.016  23.062  1.00  0.00     0.003 A 
ATOM     14  C   UNL A   1      32.173  23.383  23.594  1.00  0.00     0.160 A 
ATOM     15  C   UNL A   1      32.646  24.022  22.440  1.00  0.00     0.051 A 
ATOM     16  C   UNL A   1      31.315  24.059  24.475  1.00  0.00     0.161 A 
ATOM     17  C   UNL A   1      32.277  25.340  22.164  1.00  0.00     0.014 A 
ATOM     18  C   UNL A   1      30.967  25.384  24.205  1.00  0.00     0.060 A 
BRANCH  14  19
ATOM     19  O   UNL A   1      32.723  22.180  23.935  1.00  0.00    -0.493 OA
ATOM     20  C   UNL A   1      32.388  21.121  23.033  1.00  0.00     0.278 C 
ENDBRANCH  14  19
BRANCH  16  21
ATOM     21  O   UNL A   1      30.788  23.595  25.650  1.00  0.00    -0.493 OA
ATOM     22  C   UNL A   1      31.528  23.897  26.824  1.00  0.00     0.278 C 
ENDBRANCH  16  21
ENDBRANCH   9  13
ENDBRANCH   5   8
ENDBRANCH   3   4
ENDBRANCH   2   3
ENDBRANCH   1   2
BRANCH   1  23
ATOM     23  C   UNL A   1      34.762  31.814  27.813  1.00  0.00     0.116 C 
BRANCH  23  24
ATOM     24  N   UNL A   1      34.516  32.512  29.079  1.00  0.00    -0.352 N 
ATOM     25  C   UNL A   1      34.958  32.160  30.350  1.00  0.00     0.251 C 
ATOM     26  H   UNL A   1      33.974  33.331  29.022  1.00  0.00     0.163 HD
ATOM     27  O   UNL A   1      34.383  32.561  31.348  1.00  0.00    -0.269 OA
BRANCH  25  28
ATOM     28  C   UNL A   1      36.162  31.313  30.454  1.00  0.00     0.039 A 
ATOM     29  C   UNL A   1      36.118  29.917  30.543  1.00  0.00     0.014 A 
ATOM     30  C   UNL A   1      37.380  31.982  30.434  1.00  0.00     0.014 A 
ATOM     31  C   UNL A   1      37.323  29.210  30.556  1.00  0.00     0.010 A 
ATOM     32  C   UNL A   1      38.529  31.289  30.206  1.00  0.00     0.010 A 
ATOM     33  C   UNL A   1      38.524  29.914  30.385  1.00  0.00    -0.014 A 
BRANCH  33  34
ATOM     34  C   UNL A   1      39.832  29.279  30.312  1.00  0.00     0.031 A 
ATOM     35  C   UNL A   1      40.480  29.082  31.637  1.00  0.00     0.074 A 
ATOM     36  C   UNL A   1      40.222  28.619  29.194  1.00  0.00     0.049 A 
ATOM     37  N   UNL A   1      41.523  29.674  32.115  1.00  0.00    -0.248 NA
ATOM     38  C   UNL A   1      39.769  28.248  32.626  1.00  0.00     0.031 C 
ATOM     39  C   UNL A   1      39.462  28.396  27.953  1.00  0.00     0.029 A 
ATOM     40  N   UNL A   1      41.343  27.887  28.973  1.00  0.00    -0.354 N 
ATOM     41  C   UNL A   1      41.738  29.105  33.370  1.00  0.00     0.074 A 
ATOM     42  C   UNL A   1      40.510  28.442  33.718  1.00  0.00     0.031 C 
ATOM     43  C   UNL A   1      40.044  27.409  27.230  1.00  0.00     0.029 A 
ATOM     44  C   UNL A   1      41.297  27.043  27.863  1.00  0.00     0.049 A 
ATOM     45  H   UNL A   1      42.134  27.946  29.556  1.00  0.00     0.167 HD
ATOM     46  C   UNL A   1      42.992  28.973  33.892  1.00  0.00     0.031 A 
ATOM     47  C   UNL A   1      42.214  26.095  27.522  1.00  0.00     0.031 A 
ATOM     48  C   UNL A   1      43.952  29.726  33.125  1.00  0.00     0.049 A 
ATOM     49  C   UNL A   1      43.438  26.378  28.306  1.00  0.00     0.074 A 
ATOM     50  C   UNL A   1      44.133  31.059  32.820  1.00  0.00     0.029 A 
ATOM     51  N   UNL A   1      44.672  29.019  32.190  1.00  0.00    -0.354 N 
ATOM     52  N   UNL A   1      44.156  27.450  28.138  1.00  0.00    -0.248 NA
ATOM     53  C   UNL A   1      43.572  25.722  29.597  1.00  0.00     0.031 C 
ATOM     54  C   UNL A   1      44.545  31.069  31.456  1.00  0.00     0.029 A 
ATOM     55  C   UNL A   1      44.680  29.746  31.030  1.00  0.00     0.049 A 
ATOM     56  H   UNL A   1      45.106  28.145  32.329  1.00  0.00     0.167 HD
ATOM     57  C   UNL A   1      44.495  27.849  29.422  1.00  0.00     0.074 A 
ATOM     58  C   UNL A   1      44.173  26.704  30.275  1.00  0.00     0.031 C 
ATOM     59  C   UNL A   1      44.725  29.161  29.708  1.00  0.00     0.031 A 
BRANCH  46  60
ATOM     60  C   UNL A   1      43.425  27.842  34.803  1.00  0.00    -0.014 A 
ATOM     61  C   UNL A   1      44.158  28.164  35.965  1.00  0.00     0.010 A 
ATOM     62  C   UNL A   1      43.379  26.479  34.445  1.00  0.00     0.010 A 
ATOM     63  C   UNL A   1      44.881  27.192  36.670  1.00  0.00     0.020 A 
ATOM     64  C   UNL A   1      44.061  25.495  35.164  1.00  0.00     0.020 A 
ATOM     65  C   UNL A   1      44.839  25.863  36.251  1.00  0.00     0.054 A 
BRANCH  65  66
ATOM     66  S   UNL A   1      45.859  24.633  37.098  1.00  0.00     0.124 S 
ATOM     67  O   UNL A   1      45.050  23.426  36.960  1.00  0.00    -0.237 OA
ATOM     68  O   UNL A   1      47.092  24.665  36.318  1.00  0.00    -0.237 OA
ATOM     69  O   UNL A   1      45.971  25.161  38.456  1.00  0.00    -0.744 OA
ENDBRANCH  65  66
ENDBRANCH  46  60
BRANCH  47  70
ATOM     70  C   UNL A   1      41.960  24.723  27.014  1.00  0.00    -0.014 A 
ATOM     71  C   UNL A   1      42.779  24.095  26.056  1.00  0.00     0.010 A 
ATOM     72  C   UNL A   1      41.085  23.911  27.756  1.00  0.00     0.010 A 
ATOM     73  C   UNL A   1      42.700  22.703  25.833  1.00  0.00     0.020 A 
ATOM     74  C   UNL A   1      41.021  22.528  27.559  1.00  0.00     0.020 A 
ATOM     75  C   UNL A   1      41.815  21.927  26.588  1.00  0.00     0.054 A 
BRANCH  75  76
ATOM     76  S   UNL A   1      41.731  20.124  26.338  1.00  0.00     0.124 S 
ATOM     77  O   UNL A   1      42.691  19.919  25.258  1.00  0.00    -0.237 OA
ATOM     78  O   UNL A   1      42.118  19.598  27.643  1.00  0.00    -0.237 OA
ATOM     79  O   UNL A   1      40.335  19.896  25.965  1.00  0.00    -0.744 OA
ENDBRANCH  75  76
ENDBRANCH  47  70
BRANCH  59  80
ATOM     80  C   UNL A   1      44.843  30.132  28.557  1.00  0.00    -0.014 A 
ATOM     81  C   UNL A   1      43.761  30.549  27.756  1.00  0.00     0.010 A 
ATOM     82  C   UNL A   1      46.078  30.781  28.411  1.00  0.00     0.010 A 
ATOM     83  C   UNL A   1      43.917  31.599  26.834  1.00  0.00     0.020 A 
ATOM     84  C   UNL A   1      46.237  31.833  27.510  1.00  0.00     0.020 A 
ATOM     85  C   UNL A   1      45.156  32.238  26.725  1.00  0.00     0.054 A 
BRANCH  85  86
ATOM     86  S   UNL A   1      45.347  33.651  25.601  1.00  0.00     0.124 S 
ATOM     87  O   UNL A   1      46.798  33.792  25.511  1.00  0.00    -0.237 OA
ATOM     88  O   UNL A   1      44.681  33.191  24.384  1.00  0.00    -0.237 OA
ATOM     89  O   UNL A   1      44.662  34.742  26.295  1.00  0.00    -0.744 OA
ENDBRANCH  85  86
ENDBRANCH  59  80
ENDBRANCH  33  34
ENDBRANCH  25  28
ENDBRANCH  23  24
ENDBRANCH   1  23
TORSDOF 17
ENDMDL
