MODEL 1
REMARK VINA RESULT:     -10.0      0.000      0.000
REMARK SMILES Cn1cc(C(=O)NCCCCNC(=O)c2ccc(-c3c4nc(c(-c5ccc(S(=O)(=O)[O-])cc5)c5ccc([nH]5)c(-c5ccc(S(=O)(=O)[O-])cc5)c5nc(c(-c6ccc(S(=O)(=O)[O-])cc6)c6ccc3[nH]6)C=C5)C=C4)cc2)c(C(F)F)n1
REMARK SMILES IDX 10 1 9 2 8 3 7 4 5 5 6 6 4 8 1 9 2 10 3 11 79 12 75 13 76 14
REMARK SMILES IDX 77 15 78 16 11 17 12 18 13 19 14 21 15 22 16 23 74 24 17 25
REMARK SMILES IDX 73 26 18 27 19 28 20 29 67 30 21 31 72 32 66 33 68 34 22 35
REMARK SMILES IDX 71 36 65 37 64 38 23 40 53 41 34 42 52 43 35 44 38 45 51 46
REMARK SMILES IDX 69 47 36 48 37 49 50 51 70 52 39 53 24 54 25 55 33 56 26 57
REMARK SMILES IDX 32 58 27 59 28 60 29 61 30 62 31 63 54 64 55 65 63 66 56 67
REMARK SMILES IDX 62 68 57 69 58 70 59 71 60 72 61 73 40 74 41 75 49 76 42 77
REMARK SMILES IDX 48 78 43 79 44 80 45 81 46 82 47 83
REMARK H PARENT 7 7 12 20 68 39 38 50
REMARK Flexibility Score: inf
ROOT
ATOM      1  C   UNL A   1      33.977  28.163  25.932  1.00  0.00     0.023 C 
ENDROOT
BRANCH   1   2
ATOM      2  C   UNL A   1      33.804  26.701  25.503  1.00  0.00     0.023 C 
BRANCH   2   3
ATOM      3  C   UNL A   1      32.354  26.305  25.234  1.00  0.00     0.116 C 
BRANCH   3   4
ATOM      4  N   UNL A   1      31.835  25.478  26.303  1.00  0.00    -0.352 N 
ATOM      5  C   UNL A   1      31.676  24.127  26.449  1.00  0.00     0.254 C 
ATOM      6  O   UNL A   1      31.195  23.753  27.516  1.00  0.00    -0.269 OA
ATOM      7  H   UNL A   1      31.535  25.995  27.086  1.00  0.00     0.163 HD
BRANCH   5   8
ATOM      8  C   UNL A   1      32.073  23.158  25.433  1.00  0.00     0.086 A 
ATOM      9  C   UNL A   1      32.035  21.179  22.406  1.00  0.00     0.173 C 
ATOM     10  N   UNL A   1      32.262  21.842  23.668  1.00  0.00    -0.275 N 
ATOM     11  C   UNL A   1      31.411  22.688  24.313  1.00  0.00     0.122 A 
ATOM     12  N   UNL A   1      33.405  21.634  24.323  1.00  0.00    -0.171 NA
ATOM     13  C   UNL A   1      33.310  22.415  25.420  1.00  0.00     0.141 A 
BRANCH  13  14
ATOM     14  C   UNL A   1      34.417  22.426  26.440  1.00  0.00     0.394 C 
ATOM     15  F   UNL A   1      35.394  21.526  26.116  1.00  0.00    -0.203 F 
ATOM     16  F   UNL A   1      35.036  23.644  26.487  1.00  0.00    -0.203 F 
ENDBRANCH  13  14
ENDBRANCH   5   8
ENDBRANCH   3   4
ENDBRANCH   2   3
ENDBRANCH   1   2
BRANCH   1  17
ATOM     17  C   UNL A   1      33.445  28.496  27.324  1.00  0.00     0.116 C 
BRANCH  17  18
ATOM     18  N   UNL A   1      33.391  29.927  27.588  1.00  0.00    -0.352 N 
ATOM     19  C   UNL A   1      34.375  30.739  28.099  1.00  0.00     0.251 C 
ATOM     20  H   UNL A   1      32.539  30.371  27.373  1.00  0.00     0.163 HD
ATOM     21  O   UNL A   1      34.129  31.906  28.382  1.00  0.00    -0.269 OA
BRANCH  19  22
ATOM     22  C   UNL A   1      35.719  30.175  28.335  1.00  0.00     0.039 A 
ATOM     23  C   UNL A   1      36.665  30.224  27.310  1.00  0.00     0.014 A 
ATOM     24  C   UNL A   1      36.054  29.649  29.586  1.00  0.00     0.014 A 
ATOM     25  C   UNL A   1      37.973  29.809  27.564  1.00  0.00     0.010 A 
ATOM     26  C   UNL A   1      37.375  29.312  29.859  1.00  0.00     0.010 A 
ATOM     27  C   UNL A   1      38.348  29.387  28.851  1.00  0.00    -0.014 A 
BRANCH  27  28
ATOM     28  C   UNL A   1      39.755  29.030  29.164  1.00  0.00     0.031 A 
ATOM     29  C   UNL A   1      40.672  30.045  29.788  1.00  0.00     0.074 A 
ATOM     30  C   UNL A   1      40.224  27.811  28.826  1.00  0.00     0.049 A 
ATOM     31  N   UNL A   1      41.941  29.936  30.089  1.00  0.00    -0.248 NA
ATOM     32  C   UNL A   1      40.096  31.366  30.089  1.00  0.00     0.031 C 
ATOM     33  C   UNL A   1      39.447  26.755  28.175  1.00  0.00     0.029 A 
ATOM     34  N   UNL A   1      41.471  27.259  28.979  1.00  0.00    -0.354 N 
ATOM     35  C   UNL A   1      42.316  31.172  30.601  1.00  0.00     0.074 A 
ATOM     36  C   UNL A   1      41.158  32.034  30.512  1.00  0.00     0.031 C 
ATOM     37  C   UNL A   1      40.226  25.673  28.012  1.00  0.00     0.029 A 
ATOM     38  C   UNL A   1      41.567  25.971  28.504  1.00  0.00     0.049 A 
ATOM     39  H   UNL A   1      42.226  27.738  29.392  1.00  0.00     0.167 HD
ATOM     40  C   UNL A   1      43.510  31.550  31.120  1.00  0.00     0.031 A 
ATOM     41  C   UNL A   1      42.617  25.127  28.460  1.00  0.00     0.031 A 
ATOM     42  C   UNL A   1      44.658  30.689  31.202  1.00  0.00     0.049 A 
ATOM     43  C   UNL A   1      43.938  25.575  29.022  1.00  0.00     0.074 A 
ATOM     44  C   UNL A   1      45.898  30.959  31.753  1.00  0.00     0.029 A 
ATOM     45  N   UNL A   1      44.713  29.391  30.713  1.00  0.00    -0.354 N 
ATOM     46  N   UNL A   1      44.255  26.725  29.567  1.00  0.00    -0.248 NA
ATOM     47  C   UNL A   1      45.042  24.606  28.975  1.00  0.00     0.031 C 
ATOM     48  C   UNL A   1      46.722  29.849  31.542  1.00  0.00     0.029 A 
ATOM     49  C   UNL A   1      45.974  28.858  30.925  1.00  0.00     0.049 A 
ATOM     50  H   UNL A   1      43.965  28.919  30.280  1.00  0.00     0.167 HD
ATOM     51  C   UNL A   1      45.585  26.608  29.953  1.00  0.00     0.074 A 
ATOM     52  C   UNL A   1      46.008  25.270  29.593  1.00  0.00     0.031 C 
ATOM     53  C   UNL A   1      46.383  27.526  30.555  1.00  0.00     0.031 A 
BRANCH  40  54
ATOM     54  C   UNL A   1      43.628  32.965  31.625  1.00  0.00    -0.014 A 
ATOM     55  C   UNL A   1      44.215  33.974  30.837  1.00  0.00     0.010 A 
ATOM     56  C   UNL A   1      43.129  33.299  32.897  1.00  0.00     0.010 A 
ATOM     57  C   UNL A   1      44.348  35.274  31.333  1.00  0.00     0.020 A 
ATOM     58  C   UNL A   1      43.228  34.606  33.383  1.00  0.00     0.020 A 
ATOM     59  C   UNL A   1      43.858  35.580  32.606  1.00  0.00     0.054 A 
BRANCH  59  60
ATOM     60  S   UNL A   1      44.041  37.277  33.220  1.00  0.00     0.124 S 
ATOM     61  O   UNL A   1      43.019  37.331  34.262  1.00  0.00    -0.237 OA
ATOM     62  O   UNL A   1      45.422  37.299  33.693  1.00  0.00    -0.237 OA
ATOM     63  O   UNL A   1      43.774  38.102  32.044  1.00  0.00    -0.744 OA
ENDBRANCH  59  60
ENDBRANCH  40  54
BRANCH  41  64
ATOM     64  C   UNL A   1      42.450  23.769  27.873  1.00  0.00    -0.014 A 
ATOM     65  C   UNL A   1      42.643  23.556  26.496  1.00  0.00     0.010 A 
ATOM     66  C   UNL A   1      42.125  22.674  28.694  1.00  0.00     0.010 A 
ATOM     67  C   UNL A   1      42.502  22.275  25.951  1.00  0.00     0.020 A 
ATOM     68  C   UNL A   1      42.015  21.388  28.158  1.00  0.00     0.020 A 
ATOM     69  C   UNL A   1      42.196  21.198  26.788  1.00  0.00     0.054 A 
BRANCH  69  70
ATOM     70  S   UNL A   1      42.085  19.536  26.068  1.00  0.00     0.124 S 
ATOM     71  O   UNL A   1      42.552  18.697  27.167  1.00  0.00    -0.237 OA
ATOM     72  O   UNL A   1      40.664  19.427  25.747  1.00  0.00    -0.237 OA
ATOM     73  O   UNL A   1      42.974  19.605  24.911  1.00  0.00    -0.744 OA
ENDBRANCH  69  70
ENDBRANCH  41  64
BRANCH  53  74
ATOM     74  C   UNL A   1      47.790  27.106  30.898  1.00  0.00    -0.014 A 
ATOM     75  C   UNL A   1      48.077  26.397  32.078  1.00  0.00     0.010 A 
ATOM     76  C   UNL A   1      48.832  27.378  29.992  1.00  0.00     0.010 A 
ATOM     77  C   UNL A   1      49.386  25.995  32.359  1.00  0.00     0.020 A 
ATOM     78  C   UNL A   1      50.135  26.950  30.254  1.00  0.00     0.020 A 
ATOM     79  C   UNL A   1      50.406  26.272  31.444  1.00  0.00     0.054 A 
BRANCH  79  80
ATOM     80  S   UNL A   1      52.087  25.700  31.813  1.00  0.00     0.124 S 
ATOM     81  O   UNL A   1      51.871  24.288  32.110  1.00  0.00    -0.237 OA
ATOM     82  O   UNL A   1      52.799  25.979  30.568  1.00  0.00    -0.237 OA
ATOM     83  O   UNL A   1      52.491  26.521  32.952  1.00  0.00    -0.744 OA
ENDBRANCH  79  80
ENDBRANCH  53  74
ENDBRANCH  27  28
ENDBRANCH  19  22
ENDBRANCH  17  18
ENDBRANCH   1  17
TORSDOF 15
ENDMDL
MODEL 2
REMARK VINA RESULT:     -10.0      1.708      2.482
REMARK SMILES Cn1cc(C(=O)NCCCCNC(=O)c2ccc(-c3c4nc(c(-c5ccc(S(=O)(=O)[O-])cc5)c5ccc([nH]5)c(-c5ccc(S(=O)(=O)[O-])cc5)c5nc(c(-c6ccc(S(=O)(=O)[O-])cc6)c6ccc3[nH]6)C=C5)C=C4)cc2)c(C(F)F)n1
REMARK SMILES IDX 10 1 9 2 8 3 7 4 5 5 6 6 4 8 1 9 2 10 3 11 79 12 75 13 76 14
REMARK SMILES IDX 77 15 78 16 11 17 12 18 13 19 14 21 15 22 16 23 74 24 17 25
REMARK SMILES IDX 73 26 18 27 19 28 20 29 67 30 21 31 72 32 66 33 68 34 22 35
REMARK SMILES IDX 71 36 65 37 64 38 23 40 53 41 34 42 52 43 35 44 38 45 51 46
REMARK SMILES IDX 69 47 36 48 37 49 50 51 70 52 39 53 24 54 25 55 33 56 26 57
REMARK SMILES IDX 32 58 27 59 28 60 29 61 30 62 31 63 54 64 55 65 63 66 56 67
REMARK SMILES IDX 62 68 57 69 58 70 59 71 60 72 61 73 40 74 41 75 49 76 42 77
REMARK SMILES IDX 48 78 43 79 44 80 45 81 46 82 47 83
REMARK H PARENT 7 7 12 20 68 39 38 50
REMARK Flexibility Score: inf
ROOT
ATOM      1  C   UNL A   1      33.986  28.133  25.856  1.00  0.00     0.023 C 
ENDROOT
BRANCH   1   2
ATOM      2  C   UNL A   1      33.249  26.986  25.151  1.00  0.00     0.023 C 
BRANCH   2   3
ATOM      3  C   UNL A   1      32.476  26.075  26.102  1.00  0.00     0.116 C 
BRANCH   3   4
ATOM      4  N   UNL A   1      31.877  24.967  25.388  1.00  0.00    -0.352 N 
ATOM      5  C   UNL A   1      31.043  24.893  24.306  1.00  0.00     0.254 C 
ATOM      6  O   UNL A   1      30.722  23.762  23.949  1.00  0.00    -0.269 OA
ATOM      7  H   UNL A   1      32.120  24.088  25.757  1.00  0.00     0.163 HD
BRANCH   5   8
ATOM      8  C   UNL A   1      30.570  26.064  23.575  1.00  0.00     0.086 A 
ATOM      9  C   UNL A   1      28.698  29.049  22.759  1.00  0.00     0.173 C 
ATOM     10  N   UNL A   1      29.555  27.892  22.860  1.00  0.00    -0.275 N 
ATOM     11  C   UNL A   1      29.510  26.920  23.814  1.00  0.00     0.122 A 
ATOM     12  N   UNL A   1      30.505  27.696  21.944  1.00  0.00    -0.171 NA
ATOM     13  C   UNL A   1      31.132  26.571  22.347  1.00  0.00     0.141 A 
BRANCH  13  14
ATOM     14  C   UNL A   1      32.266  26.003  21.535  1.00  0.00     0.394 C 
ATOM     15  F   UNL A   1      31.904  25.852  20.225  1.00  0.00    -0.203 F 
ATOM     16  F   UNL A   1      33.342  26.845  21.527  1.00  0.00    -0.203 F 
ENDBRANCH  13  14
ENDBRANCH   5   8
ENDBRANCH   3   4
ENDBRANCH   2   3
ENDBRANCH   1   2
BRANCH   1  17
ATOM     17  C   UNL A   1      33.485  28.458  27.261  1.00  0.00     0.116 C 
BRANCH  17  18
ATOM     18  N   UNL A   1      33.438  29.887  27.535  1.00  0.00    -0.352 N 
ATOM     19  C   UNL A   1      34.420  30.689  28.065  1.00  0.00     0.251 C 
ATOM     20  H   UNL A   1      32.592  30.339  27.309  1.00  0.00     0.163 HD
ATOM     21  O   UNL A   1      34.178  31.855  28.353  1.00  0.00    -0.269 OA
BRANCH  19  22
ATOM     22  C   UNL A   1      35.756  30.113  28.317  1.00  0.00     0.039 A 
ATOM     23  C   UNL A   1      36.719  30.166  27.307  1.00  0.00     0.014 A 
ATOM     24  C   UNL A   1      36.068  29.572  29.567  1.00  0.00     0.014 A 
ATOM     25  C   UNL A   1      38.019  29.739  27.577  1.00  0.00     0.010 A 
ATOM     26  C   UNL A   1      37.382  29.223  29.857  1.00  0.00     0.010 A 
ATOM     27  C   UNL A   1      38.372  29.302  28.866  1.00  0.00    -0.014 A 
BRANCH  27  28
ATOM     28  C   UNL A   1      39.771  28.932  29.198  1.00  0.00     0.031 A 
ATOM     29  C   UNL A   1      40.682  29.932  29.855  1.00  0.00     0.074 A 
ATOM     30  C   UNL A   1      40.240  27.717  28.847  1.00  0.00     0.049 A 
ATOM     31  N   UNL A   1      41.945  29.810  30.176  1.00  0.00    -0.248 NA
ATOM     32  C   UNL A   1      40.107  31.251  30.168  1.00  0.00     0.031 C 
ATOM     33  C   UNL A   1      39.469  26.675  28.165  1.00  0.00     0.029 A 
ATOM     34  N   UNL A   1      41.481  27.155  29.013  1.00  0.00    -0.354 N 
ATOM     35  C   UNL A   1      42.317  31.036  30.716  1.00  0.00     0.074 A 
ATOM     36  C   UNL A   1      41.165  31.906  30.621  1.00  0.00     0.031 C 
ATOM     37  C   UNL A   1      40.245  25.592  27.997  1.00  0.00     0.029 A 
ATOM     38  C   UNL A   1      41.579  25.875  28.518  1.00  0.00     0.049 A 
ATOM     39  H   UNL A   1      42.231  27.623  29.447  1.00  0.00     0.167 HD
ATOM     40  C   UNL A   1      43.503  31.399  31.261  1.00  0.00     0.031 A 
ATOM     41  C   UNL A   1      42.625  25.027  28.479  1.00  0.00     0.031 A 
ATOM     42  C   UNL A   1      44.645  30.530  31.349  1.00  0.00     0.049 A 
ATOM     43  C   UNL A   1      43.939  25.458  29.070  1.00  0.00     0.074 A 
ATOM     44  C   UNL A   1      45.877  30.785  31.926  1.00  0.00     0.029 A 
ATOM     45  N   UNL A   1      44.703  29.241  30.839  1.00  0.00    -0.354 N 
ATOM     46  N   UNL A   1      44.251  26.597  29.640  1.00  0.00    -0.248 NA
ATOM     47  C   UNL A   1      45.038  24.484  29.026  1.00  0.00     0.031 C 
ATOM     48  C   UNL A   1      46.699  29.674  31.711  1.00  0.00     0.029 A 
ATOM     49  C   UNL A   1      45.957  28.698  31.064  1.00  0.00     0.049 A 
ATOM     50  H   UNL A   1      43.960  28.780  30.385  1.00  0.00     0.167 HD
ATOM     51  C   UNL A   1      45.574  26.467  30.048  1.00  0.00     0.074 A 
ATOM     52  C   UNL A   1      45.996  25.133  29.673  1.00  0.00     0.031 C 
ATOM     53  C   UNL A   1      46.366  27.369  30.679  1.00  0.00     0.031 A 
BRANCH  40  54
ATOM     54  C   UNL A   1      43.620  32.805  31.792  1.00  0.00    -0.014 A 
ATOM     55  C   UNL A   1      43.332  33.102  33.138  1.00  0.00     0.010 A 
ATOM     56  C   UNL A   1      44.044  33.842  30.941  1.00  0.00     0.010 A 
ATOM     57  C   UNL A   1      43.413  34.416  33.607  1.00  0.00     0.020 A 
ATOM     58  C   UNL A   1      44.160  35.152  31.415  1.00  0.00     0.020 A 
ATOM     59  C   UNL A   1      43.822  35.434  32.740  1.00  0.00     0.054 A 
BRANCH  59  60
ATOM     60  S   UNL A   1      43.922  37.128  33.380  1.00  0.00     0.124 S 
ATOM     61  O   UNL A   1      43.878  37.916  32.151  1.00  0.00    -0.237 OA
ATOM     62  O   UNL A   1      42.737  37.220  34.228  1.00  0.00    -0.237 OA
ATOM     63  O   UNL A   1      45.198  37.155  34.091  1.00  0.00    -0.744 OA
ENDBRANCH  59  60
ENDBRANCH  40  54
BRANCH  41  64
ATOM     64  C   UNL A   1      42.462  23.679  27.865  1.00  0.00    -0.014 A 
ATOM     65  C   UNL A   1      42.950  23.417  26.573  1.00  0.00     0.010 A 
ATOM     66  C   UNL A   1      41.842  22.641  28.584  1.00  0.00     0.010 A 
ATOM     67  C   UNL A   1      42.809  22.145  26.007  1.00  0.00     0.020 A 
ATOM     68  C   UNL A   1      41.728  21.361  28.035  1.00  0.00     0.020 A 
ATOM     69  C   UNL A   1      42.206  21.124  26.746  1.00  0.00     0.054 A 
BRANCH  69  70
ATOM     70  S   UNL A   1      42.097  19.466  26.017  1.00  0.00     0.124 S 
ATOM     71  O   UNL A   1      42.897  19.612  24.805  1.00  0.00    -0.237 OA
ATOM     72  O   UNL A   1      42.676  18.625  27.062  1.00  0.00    -0.237 OA
ATOM     73  O   UNL A   1      40.663  19.280  25.801  1.00  0.00    -0.744 OA
ENDBRANCH  69  70
ENDBRANCH  41  64
BRANCH  53  74
ATOM     74  C   UNL A   1      47.764  26.937  31.039  1.00  0.00    -0.014 A 
ATOM     75  C   UNL A   1      48.051  26.341  32.280  1.00  0.00     0.010 A 
ATOM     76  C   UNL A   1      48.797  27.078  30.093  1.00  0.00     0.010 A 
ATOM     77  C   UNL A   1      49.351  25.923  32.579  1.00  0.00     0.020 A 
ATOM     78  C   UNL A   1      50.090  26.633  30.376  1.00  0.00     0.020 A 
ATOM     79  C   UNL A   1      50.362  26.069  31.624  1.00  0.00     0.054 A 
BRANCH  79  80
ATOM     80  S   UNL A   1      52.029  25.478  32.021  1.00  0.00     0.124 S 
ATOM     81  O   UNL A   1      52.795  25.923  30.861  1.00  0.00    -0.237 OA
ATOM     82  O   UNL A   1      52.324  26.171  33.273  1.00  0.00    -0.237 OA
ATOM     83  O   UNL A   1      51.865  24.031  32.141  1.00  0.00    -0.744 OA
ENDBRANCH  79  80
ENDBRANCH  53  74
ENDBRANCH  27  28
ENDBRANCH  19  22
ENDBRANCH  17  18
ENDBRANCH   1  17
TORSDOF 15
ENDMDL
MODEL 3
REMARK VINA RESULT:      -9.9      2.618      9.286
REMARK SMILES Cn1cc(C(=O)NCCCCNC(=O)c2ccc(-c3c4nc(c(-c5ccc(S(=O)(=O)[O-])cc5)c5ccc([nH]5)c(-c5ccc(S(=O)(=O)[O-])cc5)c5nc(c(-c6ccc(S(=O)(=O)[O-])cc6)c6ccc3[nH]6)C=C5)C=C4)cc2)c(C(F)F)n1
REMARK SMILES IDX 10 1 9 2 8 3 7 4 5 5 6 6 4 8 1 9 2 10 3 11 79 12 75 13 76 14
REMARK SMILES IDX 77 15 78 16 11 17 12 18 13 19 14 21 15 22 16 23 74 24 17 25
REMARK SMILES IDX 73 26 18 27 19 28 20 29 67 30 21 31 72 32 66 33 68 34 22 35
REMARK SMILES IDX 71 36 65 37 64 38 23 40 53 41 34 42 52 43 35 44 38 45 51 46
REMARK SMILES IDX 69 47 36 48 37 49 50 51 70 52 39 53 24 54 25 55 33 56 26 57
REMARK SMILES IDX 32 58 27 59 28 60 29 61 30 62 31 63 54 64 55 65 63 66 56 67
REMARK SMILES IDX 62 68 57 69 58 70 59 71 60 72 61 73 40 74 41 75 49 76 42 77
REMARK SMILES IDX 48 78 43 79 44 80 45 81 46 82 47 83
REMARK H PARENT 7 7 12 20 68 39 38 50
REMARK Flexibility Score: inf
ROOT
ATOM      1  C   UNL A   1      35.522  22.973  25.106  1.00  0.00     0.023 C 
ENDROOT
BRANCH   1   2
ATOM      2  C   UNL A   1      34.927  22.397  26.397  1.00  0.00     0.023 C 
BRANCH   2   3
ATOM      3  C   UNL A   1      33.676  21.550  26.175  1.00  0.00     0.116 C 
BRANCH   3   4
ATOM      4  N   UNL A   1      32.535  22.119  26.860  1.00  0.00    -0.352 N 
ATOM      5  C   UNL A   1      31.881  23.316  26.754  1.00  0.00     0.254 C 
ATOM      6  O   UNL A   1      30.923  23.476  27.507  1.00  0.00    -0.269 OA
ATOM      7  H   UNL A   1      32.152  21.523  27.543  1.00  0.00     0.163 HD
BRANCH   5   8
ATOM      8  C   UNL A   1      32.251  24.351  25.794  1.00  0.00     0.086 A 
ATOM      9  C   UNL A   1      33.674  27.378  24.421  1.00  0.00     0.173 C 
ATOM     10  N   UNL A   1      33.023  26.130  24.734  1.00  0.00    -0.275 N 
ATOM     11  C   UNL A   1      32.829  25.595  25.972  1.00  0.00     0.122 A 
ATOM     12  N   UNL A   1      32.530  25.380  23.747  1.00  0.00    -0.171 NA
ATOM     13  C   UNL A   1      32.033  24.290  24.369  1.00  0.00     0.141 A 
BRANCH  13  14
ATOM     14  C   UNL A   1      31.353  23.208  23.574  1.00  0.00     0.394 C 
ATOM     15  F   UNL A   1      30.164  23.648  23.062  1.00  0.00    -0.203 F 
ATOM     16  F   UNL A   1      32.106  22.835  22.496  1.00  0.00    -0.203 F 
ENDBRANCH  13  14
ENDBRANCH   5   8
ENDBRANCH   3   4
ENDBRANCH   2   3
ENDBRANCH   1   2
BRANCH   1  17
ATOM     17  C   UNL A   1      36.887  23.639  25.262  1.00  0.00     0.116 C 
BRANCH  17  18
ATOM     18  N   UNL A   1      37.963  22.688  25.496  1.00  0.00    -0.352 N 
ATOM     19  C   UNL A   1      39.165  22.896  26.131  1.00  0.00     0.251 C 
ATOM     20  H   UNL A   1      37.811  21.775  25.157  1.00  0.00     0.163 HD
ATOM     21  O   UNL A   1      40.023  22.020  26.134  1.00  0.00    -0.269 OA
BRANCH  19  22
ATOM     22  C   UNL A   1      39.419  24.201  26.772  1.00  0.00     0.039 A 
ATOM     23  C   UNL A   1      38.974  24.413  28.078  1.00  0.00     0.014 A 
ATOM     24  C   UNL A   1      40.144  25.190  26.100  1.00  0.00     0.014 A 
ATOM     25  C   UNL A   1      39.319  25.594  28.736  1.00  0.00     0.010 A 
ATOM     26  C   UNL A   1      40.552  26.328  26.784  1.00  0.00     0.010 A 
ATOM     27  C   UNL A   1      40.144  26.543  28.109  1.00  0.00    -0.014 A 
BRANCH  27  28
ATOM     28  C   UNL A   1      40.597  27.762  28.826  1.00  0.00     0.031 A 
ATOM     29  C   UNL A   1      41.960  27.803  29.462  1.00  0.00     0.074 A 
ATOM     30  C   UNL A   1      39.757  28.808  28.960  1.00  0.00     0.049 A 
ATOM     31  N   UNL A   1      42.512  28.756  30.169  1.00  0.00    -0.248 NA
ATOM     32  C   UNL A   1      42.802  26.605  29.306  1.00  0.00     0.031 C 
ATOM     33  C   UNL A   1      38.394  28.873  28.429  1.00  0.00     0.029 A 
ATOM     34  N   UNL A   1      39.924  30.016  29.590  1.00  0.00    -0.354 N 
ATOM     35  C   UNL A   1      43.757  28.270  30.551  1.00  0.00     0.074 A 
ATOM     36  C   UNL A   1      43.853  26.916  30.051  1.00  0.00     0.031 C 
ATOM     37  C   UNL A   1      37.861  30.069  28.729  1.00  0.00     0.029 A 
ATOM     38  C   UNL A   1      38.824  30.838  29.511  1.00  0.00     0.049 A 
ATOM     39  H   UNL A   1      40.754  30.271  30.054  1.00  0.00     0.167 HD
ATOM     40  C   UNL A   1      44.741  28.900  31.237  1.00  0.00     0.031 A 
ATOM     41  C   UNL A   1      38.609  32.068  30.018  1.00  0.00     0.031 A 
ATOM     42  C   UNL A   1      44.637  30.246  31.734  1.00  0.00     0.049 A 
ATOM     43  C   UNL A   1      39.706  32.741  30.795  1.00  0.00     0.074 A 
ATOM     44  C   UNL A   1      45.594  30.993  32.398  1.00  0.00     0.029 A 
ATOM     45  N   UNL A   1      43.508  31.045  31.630  1.00  0.00    -0.354 N 
ATOM     46  N   UNL A   1      40.904  32.293  31.086  1.00  0.00    -0.248 NA
ATOM     47  C   UNL A   1      39.429  34.093  31.301  1.00  0.00     0.031 C 
ATOM     48  C   UNL A   1      45.024  32.220  32.750  1.00  0.00     0.029 A 
ATOM     49  C   UNL A   1      43.734  32.267  32.242  1.00  0.00     0.049 A 
ATOM     50  H   UNL A   1      42.669  30.783  31.186  1.00  0.00     0.167 HD
ATOM     51  C   UNL A   1      41.533  33.317  31.784  1.00  0.00     0.074 A 
ATOM     52  C   UNL A   1      40.589  34.413  31.857  1.00  0.00     0.031 C 
ATOM     53  C   UNL A   1      42.782  33.348  32.313  1.00  0.00     0.031 A 
BRANCH  40  54
ATOM     54  C   UNL A   1      46.009  28.128  31.497  1.00  0.00    -0.014 A 
ATOM     55  C   UNL A   1      47.105  28.209  30.617  1.00  0.00     0.010 A 
ATOM     56  C   UNL A   1      46.116  27.325  32.647  1.00  0.00     0.010 A 
ATOM     57  C   UNL A   1      48.261  27.461  30.854  1.00  0.00     0.020 A 
ATOM     58  C   UNL A   1      47.284  26.602  32.906  1.00  0.00     0.020 A 
ATOM     59  C   UNL A   1      48.341  26.658  31.996  1.00  0.00     0.054 A 
BRANCH  59  60
ATOM     60  S   UNL A   1      49.856  25.703  32.279  1.00  0.00     0.124 S 
ATOM     61  O   UNL A   1      50.042  25.044  30.988  1.00  0.00    -0.237 OA
ATOM     62  O   UNL A   1      50.833  26.740  32.601  1.00  0.00    -0.237 OA
ATOM     63  O   UNL A   1      49.506  24.814  33.385  1.00  0.00    -0.744 OA
ENDBRANCH  59  60
ENDBRANCH  40  54
BRANCH  41  64
ATOM     64  C   UNL A   1      37.300  32.742  29.791  1.00  0.00    -0.014 A 
ATOM     65  C   UNL A   1      36.262  32.627  30.733  1.00  0.00     0.010 A 
ATOM     66  C   UNL A   1      37.096  33.530  28.644  1.00  0.00     0.010 A 
ATOM     67  C   UNL A   1      35.041  33.276  30.524  1.00  0.00     0.020 A 
ATOM     68  C   UNL A   1      35.888  34.206  28.447  1.00  0.00     0.020 A 
ATOM     69  C   UNL A   1      34.865  34.067  29.386  1.00  0.00     0.054 A 
BRANCH  69  70
ATOM     70  S   UNL A   1      33.296  34.954  29.172  1.00  0.00     0.124 S 
ATOM     71  O   UNL A   1      33.745  36.248  28.667  1.00  0.00    -0.237 OA
ATOM     72  O   UNL A   1      32.587  34.110  28.212  1.00  0.00    -0.237 OA
ATOM     73  O   UNL A   1      32.726  34.970  30.517  1.00  0.00    -0.744 OA
ENDBRANCH  69  70
ENDBRANCH  41  64
BRANCH  53  74
ATOM     74  C   UNL A   1      43.219  34.621  32.991  1.00  0.00    -0.014 A 
ATOM     75  C   UNL A   1      43.793  35.679  32.265  1.00  0.00     0.010 A 
ATOM     76  C   UNL A   1      42.996  34.780  34.372  1.00  0.00     0.010 A 
ATOM     77  C   UNL A   1      44.165  36.861  32.913  1.00  0.00     0.020 A 
ATOM     78  C   UNL A   1      43.336  35.971  35.017  1.00  0.00     0.020 A 
ATOM     79  C   UNL A   1      43.932  37.000  34.284  1.00  0.00     0.054 A 
BRANCH  79  80
ATOM     80  S   UNL A   1      44.382  38.560  35.091  1.00  0.00     0.124 S 
ATOM     81  O   UNL A   1      43.972  38.319  36.471  1.00  0.00    -0.237 OA
ATOM     82  O   UNL A   1      45.824  38.632  34.866  1.00  0.00    -0.237 OA
ATOM     83  O   UNL A   1      43.595  39.562  34.374  1.00  0.00    -0.744 OA
ENDBRANCH  79  80
ENDBRANCH  53  74
ENDBRANCH  27  28
ENDBRANCH  19  22
ENDBRANCH  17  18
ENDBRANCH   1  17
TORSDOF 15
ENDMDL
