MODEL 1
REMARK VINA RESULT:     -12.0      0.000      0.000
REMARK SMILES Cc1ccc(S(=O)(=O)N2CCN(C(=O)[C@H]3CCCC[C@H]3C(=O)NCCCCNC(=O)c3ccc(-c4c5nc(c(-c6ccc(S(=O)(=O)[O-])cc6)c6ccc([nH]6)c(-c6ccc(S(=O)(=O)[O-])cc6)c6nc(c(-c7ccc(S(=O)(=O)[O-])cc7)c7ccc4[nH]7)C=C6)C=C5)cc3)CC2)cc1C
REMARK SMILES IDX 25 1 24 2 23 3 21 4 22 5 20 7 15 8 16 9 17 10 19 11 18 12
REMARK SMILES IDX 13 13 9 14 10 15 92 16 11 17 91 18 12 19 14 20 6 21 7 22
REMARK SMILES IDX 8 23 5 24 1 25 2 26 3 27 94 28 4 29 93 30 95 31 26 32 27 33
REMARK SMILES IDX 28 34 29 35 30 37 31 38 32 39 90 40 33 41 89 42 34 43 35 44
REMARK SMILES IDX 36 45 83 46 37 47 88 48 82 49 84 50 38 51 87 52 81 53 80 54
REMARK SMILES IDX 39 56 69 57 50 58 68 59 51 60 54 61 67 62 85 63 52 64 53 65
REMARK SMILES IDX 66 67 86 68 55 69 40 70 41 71 49 72 42 73 48 74 43 75 44 76
REMARK SMILES IDX 45 77 46 78 47 79 70 80 71 81 79 82 72 83 78 84 73 85 74 86
REMARK SMILES IDX 75 87 76 88 77 89 56 90 57 91 65 92 58 93 64 94 59 95 60 96
REMARK SMILES IDX 61 97 62 98 63 99
REMARK H PARENT 23 6 28 36 84 55 54 66
REMARK Flexibility Score: inf
ROOT
ATOM      1  C   UNL A   1      34.966  30.755  28.087  1.00  0.00     0.023 C 
ENDROOT
BRANCH   1   2
ATOM      2  C   UNL A   1      34.810  29.445  27.321  1.00  0.00     0.116 C 
BRANCH   2   3
ATOM      3  N   UNL A   1      33.592  28.748  27.673  1.00  0.00    -0.356 N 
ATOM      4  C   UNL A   1      32.465  28.486  26.959  1.00  0.00     0.223 C 
ATOM      5  O   UNL A   1      31.520  27.974  27.569  1.00  0.00    -0.275 OA
ATOM      6  H   UNL A   1      33.577  28.402  28.595  1.00  0.00     0.163 HD
BRANCH   4   7
ATOM      7  C   UNL A   1      32.333  28.738  25.450  1.00  0.00     0.091 C 
ATOM      8  C   UNL A   1      33.255  27.909  24.508  1.00  0.00     0.091 C 
ATOM      9  C   UNL A   1      32.948  28.158  23.024  1.00  0.00     0.014 C 
ATOM     10  C   UNL A   1      31.461  28.130  22.707  1.00  0.00     0.001 C 
ATOM     11  C   UNL A   1      30.872  28.927  25.004  1.00  0.00     0.014 C 
ATOM     12  C   UNL A   1      30.735  29.195  23.513  1.00  0.00     0.001 C 
BRANCH   8  13
ATOM     13  C   UNL A   1      33.496  26.453  24.906  1.00  0.00     0.226 C 
ATOM     14  N   UNL A   1      31.960  22.679  24.035  1.00  0.00    -0.194 NA
ATOM     15  C   UNL A   1      31.239  23.416  25.077  1.00  0.00     0.124 C 
ATOM     16  C   UNL A   1      32.327  23.494  22.866  1.00  0.00     0.124 C 
ATOM     17  C   UNL A   1      32.064  24.623  25.513  1.00  0.00     0.136 C 
ATOM     18  C   UNL A   1      33.121  24.742  23.273  1.00  0.00     0.136 C 
ATOM     19  N   UNL A   1      32.609  25.472  24.446  1.00  0.00    -0.340 N 
ATOM     20  O   UNL A   1      34.517  26.125  25.510  1.00  0.00    -0.275 OA
BRANCH  14  21
ATOM     21  S   UNL A   1      32.412  21.078  24.224  1.00  0.00     0.243 S 
ATOM     22  O   UNL A   1      32.227  20.416  22.944  1.00  0.00    -0.207 OA
ATOM     23  O   UNL A   1      31.754  20.595  25.416  1.00  0.00    -0.207 OA
BRANCH  21  24
ATOM     24  C   UNL A   1      34.162  21.034  24.557  1.00  0.00     0.082 A 
ATOM     25  C   UNL A   1      38.381  21.059  25.504  1.00  0.00     0.044 C 
ATOM     26  C   UNL A   1      36.917  21.093  25.156  1.00  0.00    -0.048 A 
ATOM     27  C   UNL A   1      36.247  19.878  24.946  1.00  0.00     0.005 A 
ATOM     28  C   UNL A   1      36.196  22.298  25.058  1.00  0.00    -0.047 A 
ATOM     29  C   UNL A   1      34.880  19.850  24.657  1.00  0.00     0.022 A 
ATOM     30  C   UNL A   1      34.822  22.256  24.742  1.00  0.00     0.025 A 
ATOM     31  C   UNL A   1      36.830  23.647  25.270  1.00  0.00     0.044 C 
ENDBRANCH  21  24
ENDBRANCH  14  21
ENDBRANCH   8  13
ENDBRANCH   4   7
ENDBRANCH   2   3
ENDBRANCH   1   2
BRANCH   1  32
ATOM     32  C   UNL A   1      34.499  32.008  27.377  1.00  0.00     0.023 C 
BRANCH  32  33
ATOM     33  C   UNL A   1      33.139  32.509  27.837  1.00  0.00     0.116 C 
BRANCH  33  34
ATOM     34  N   UNL A   1      33.035  33.966  27.908  1.00  0.00    -0.352 N 
ATOM     35  C   UNL A   1      33.691  34.856  28.729  1.00  0.00     0.251 C 
ATOM     36  H   UNL A   1      32.402  34.372  27.272  1.00  0.00     0.163 HD
ATOM     37  O   UNL A   1      33.389  36.045  28.719  1.00  0.00    -0.269 OA
BRANCH  35  38
ATOM     38  C   UNL A   1      34.738  34.349  29.635  1.00  0.00     0.039 A 
ATOM     39  C   UNL A   1      34.386  33.578  30.744  1.00  0.00     0.014 A 
ATOM     40  C   UNL A   1      36.080  34.573  29.324  1.00  0.00     0.014 A 
ATOM     41  C   UNL A   1      35.388  32.949  31.485  1.00  0.00     0.010 A 
ATOM     42  C   UNL A   1      37.059  33.844  29.976  1.00  0.00     0.010 A 
ATOM     43  C   UNL A   1      36.728  33.035  31.073  1.00  0.00    -0.014 A 
BRANCH  43  44
ATOM     44  C   UNL A   1      37.826  32.333  31.782  1.00  0.00     0.031 A 
ATOM     45  C   UNL A   1      38.279  32.852  33.122  1.00  0.00     0.074 A 
ATOM     46  C   UNL A   1      38.480  31.316  31.187  1.00  0.00     0.049 A 
ATOM     47  N   UNL A   1      39.327  32.517  33.827  1.00  0.00    -0.248 NA
ATOM     48  C   UNL A   1      37.478  33.938  33.718  1.00  0.00     0.031 C 
ATOM     49  C   UNL A   1      38.184  30.767  29.860  1.00  0.00     0.029 A 
ATOM     50  N   UNL A   1      39.547  30.569  31.620  1.00  0.00    -0.354 N 
ATOM     51  C   UNL A   1      39.334  33.380  34.918  1.00  0.00     0.074 A 
ATOM     52  C   UNL A   1      38.229  34.293  34.748  1.00  0.00     0.031 C 
ATOM     53  C   UNL A   1      39.028  29.754  29.603  1.00  0.00     0.029 A 
ATOM     54  C   UNL A   1      39.948  29.605  30.725  1.00  0.00     0.049 A 
ATOM     55  H   UNL A   1      39.985  30.712  32.490  1.00  0.00     0.167 HD
ATOM     56  C   UNL A   1      40.165  33.391  35.987  1.00  0.00     0.031 A 
ATOM     57  C   UNL A   1      40.945  28.703  30.805  1.00  0.00     0.031 A 
ATOM     58  C   UNL A   1      41.222  32.438  36.181  1.00  0.00     0.049 A 
ATOM     59  C   UNL A   1      41.797  28.673  32.044  1.00  0.00     0.074 A 
ATOM     60  C   UNL A   1      42.091  32.319  37.250  1.00  0.00     0.029 A 
ATOM     61  N   UNL A   1      41.528  31.415  35.296  1.00  0.00    -0.354 N 
ATOM     62  N   UNL A   1      41.771  29.477  33.080  1.00  0.00    -0.248 NA
ATOM     63  C   UNL A   1      42.799  27.602  32.135  1.00  0.00     0.031 C 
ATOM     64  C   UNL A   1      42.932  31.227  37.006  1.00  0.00     0.029 A 
ATOM     65  C   UNL A   1      42.561  30.649  35.802  1.00  0.00     0.049 A 
ATOM     66  H   UNL A   1      41.078  31.260  34.435  1.00  0.00     0.167 HD
ATOM     67  C   UNL A   1      42.731  28.992  33.959  1.00  0.00     0.074 A 
ATOM     68  C   UNL A   1      43.311  27.818  33.338  1.00  0.00     0.031 C 
ATOM     69  C   UNL A   1      43.103  29.474  35.170  1.00  0.00     0.031 A 
BRANCH  56  70
ATOM     70  C   UNL A   1      39.932  34.449  37.030  1.00  0.00    -0.014 A 
ATOM     71  C   UNL A   1      40.611  35.681  36.970  1.00  0.00     0.010 A 
ATOM     72  C   UNL A   1      39.027  34.219  38.080  1.00  0.00     0.010 A 
ATOM     73  C   UNL A   1      40.432  36.639  37.969  1.00  0.00     0.020 A 
ATOM     74  C   UNL A   1      38.821  35.189  39.067  1.00  0.00     0.020 A 
ATOM     75  C   UNL A   1      39.543  36.384  39.015  1.00  0.00     0.054 A 
BRANCH  75  76
ATOM     76  S   UNL A   1      39.320  37.650  40.295  1.00  0.00     0.124 S 
ATOM     77  O   UNL A   1      39.172  36.836  41.499  1.00  0.00    -0.237 OA
ATOM     78  O   UNL A   1      40.557  38.420  40.207  1.00  0.00    -0.237 OA
ATOM     79  O   UNL A   1      38.115  38.361  39.871  1.00  0.00    -0.744 OA
ENDBRANCH  75  76
ENDBRANCH  56  70
BRANCH  57  80
ATOM     80  C   UNL A   1      41.165  27.732  29.700  1.00  0.00    -0.014 A 
ATOM     81  C   UNL A   1      42.347  27.775  28.940  1.00  0.00     0.010 A 
ATOM     82  C   UNL A   1      40.202  26.750  29.407  1.00  0.00     0.010 A 
ATOM     83  C   UNL A   1      42.552  26.874  27.892  1.00  0.00     0.020 A 
ATOM     84  C   UNL A   1      40.413  25.831  28.374  1.00  0.00     0.020 A 
ATOM     85  C   UNL A   1      41.581  25.909  27.613  1.00  0.00     0.054 A 
BRANCH  85  86
ATOM     86  S   UNL A   1      41.884  24.718  26.277  1.00  0.00     0.124 S 
ATOM     87  O   UNL A   1      41.975  25.591  25.110  1.00  0.00    -0.237 OA
ATOM     88  O   UNL A   1      43.133  24.084  26.692  1.00  0.00    -0.237 OA
ATOM     89  O   UNL A   1      40.709  23.851  26.322  1.00  0.00    -0.744 OA
ENDBRANCH  85  86
ENDBRANCH  57  80
BRANCH  69  90
ATOM     90  C   UNL A   1      44.150  28.705  35.926  1.00  0.00    -0.014 A 
ATOM     91  C   UNL A   1      45.513  29.017  35.800  1.00  0.00     0.010 A 
ATOM     92  C   UNL A   1      43.751  27.695  36.819  1.00  0.00     0.010 A 
ATOM     93  C   UNL A   1      46.466  28.309  36.536  1.00  0.00     0.020 A 
ATOM     94  C   UNL A   1      44.698  27.001  37.573  1.00  0.00     0.020 A 
ATOM     95  C   UNL A   1      46.053  27.303  37.416  1.00  0.00     0.054 A 
BRANCH  95  96
ATOM     96  S   UNL A   1      47.303  26.428  38.395  1.00  0.00     0.124 S 
ATOM     97  O   UNL A   1      48.249  26.003  37.368  1.00  0.00    -0.237 OA
ATOM     98  O   UNL A   1      47.785  27.466  39.304  1.00  0.00    -0.237 OA
ATOM     99  O   UNL A   1      46.549  25.352  39.035  1.00  0.00    -0.744 OA
ENDBRANCH  95  96
ENDBRANCH  69  90
ENDBRANCH  43  44
ENDBRANCH  35  38
ENDBRANCH  33  34
ENDBRANCH  32  33
ENDBRANCH   1  32
TORSDOF 17
ENDMDL
MODEL 2
REMARK VINA RESULT:     -11.9      2.224      9.015
REMARK SMILES Cc1ccc(S(=O)(=O)N2CCN(C(=O)[C@H]3CCCC[C@H]3C(=O)NCCCCNC(=O)c3ccc(-c4c5nc(c(-c6ccc(S(=O)(=O)[O-])cc6)c6ccc([nH]6)c(-c6ccc(S(=O)(=O)[O-])cc6)c6nc(c(-c7ccc(S(=O)(=O)[O-])cc7)c7ccc4[nH]7)C=C6)C=C5)cc3)CC2)cc1C
REMARK SMILES IDX 25 1 24 2 23 3 21 4 22 5 20 7 15 8 16 9 17 10 19 11 18 12
REMARK SMILES IDX 13 13 9 14 10 15 92 16 11 17 91 18 12 19 14 20 6 21 7 22
REMARK SMILES IDX 8 23 5 24 1 25 2 26 3 27 94 28 4 29 93 30 95 31 26 32 27 33
REMARK SMILES IDX 28 34 29 35 30 37 31 38 32 39 90 40 33 41 89 42 34 43 35 44
REMARK SMILES IDX 36 45 83 46 37 47 88 48 82 49 84 50 38 51 87 52 81 53 80 54
REMARK SMILES IDX 39 56 69 57 50 58 68 59 51 60 54 61 67 62 85 63 52 64 53 65
REMARK SMILES IDX 66 67 86 68 55 69 40 70 41 71 49 72 42 73 48 74 43 75 44 76
REMARK SMILES IDX 45 77 46 78 47 79 70 80 71 81 79 82 72 83 78 84 73 85 74 86
REMARK SMILES IDX 75 87 76 88 77 89 56 90 57 91 65 92 58 93 64 94 59 95 60 96
REMARK SMILES IDX 61 97 62 98 63 99
REMARK H PARENT 23 6 28 36 84 55 54 66
REMARK Flexibility Score: inf
ROOT
ATOM      1  C   UNL A   1      37.982  22.191  25.408  1.00  0.00     0.023 C 
ENDROOT
BRANCH   1   2
ATOM      2  C   UNL A   1      36.554  21.705  25.181  1.00  0.00     0.116 C 
BRANCH   2   3
ATOM      3  N   UNL A   1      35.690  22.009  26.301  1.00  0.00    -0.356 N 
ATOM      4  C   UNL A   1      34.405  21.656  26.569  1.00  0.00     0.223 C 
ATOM      5  O   UNL A   1      33.874  22.175  27.558  1.00  0.00    -0.275 OA
ATOM      6  H   UNL A   1      36.108  22.570  26.993  1.00  0.00     0.163 HD
BRANCH   4   7
ATOM      7  C   UNL A   1      33.615  20.624  25.751  1.00  0.00     0.091 C 
ATOM      8  C   UNL A   1      32.516  21.168  24.793  1.00  0.00     0.091 C 
ATOM      9  C   UNL A   1      31.881  20.058  23.942  1.00  0.00     0.014 C 
ATOM     10  C   UNL A   1      32.904  19.115  23.328  1.00  0.00     0.001 C 
ATOM     11  C   UNL A   1      34.501  19.484  25.218  1.00  0.00     0.014 C 
ATOM     12  C   UNL A   1      33.723  18.448  24.421  1.00  0.00     0.001 C 
BRANCH   8  13
ATOM     13  C   UNL A   1      32.840  22.469  24.059  1.00  0.00     0.226 C 
ATOM     14  N   UNL A   1      31.685  26.472  24.135  1.00  0.00    -0.194 NA
ATOM     15  C   UNL A   1      30.826  25.594  23.333  1.00  0.00     0.124 C 
ATOM     16  C   UNL A   1      32.078  25.906  25.434  1.00  0.00     0.124 C 
ATOM     17  C   UNL A   1      31.515  24.247  23.136  1.00  0.00     0.136 C 
ATOM     18  C   UNL A   1      32.735  24.528  25.277  1.00  0.00     0.136 C 
ATOM     19  N   UNL A   1      32.074  23.609  24.335  1.00  0.00    -0.340 N 
ATOM     20  O   UNL A   1      33.832  22.555  23.336  1.00  0.00    -0.275 OA
BRANCH  14  21
ATOM     21  S   UNL A   1      32.247  27.940  23.557  1.00  0.00     0.243 S 
ATOM     22  O   UNL A   1      31.145  28.588  22.866  1.00  0.00    -0.207 OA
ATOM     23  O   UNL A   1      33.497  27.675  22.886  1.00  0.00    -0.207 OA
BRANCH  21  24
ATOM     24  C   UNL A   1      32.631  28.973  24.958  1.00  0.00     0.082 A 
ATOM     25  C   UNL A   1      33.741  31.504  28.283  1.00  0.00     0.044 C 
ATOM     26  C   UNL A   1      33.382  30.590  27.142  1.00  0.00    -0.048 A 
ATOM     27  C   UNL A   1      32.144  30.762  26.505  1.00  0.00     0.005 A 
ATOM     28  C   UNL A   1      34.256  29.586  26.681  1.00  0.00    -0.047 A 
ATOM     29  C   UNL A   1      31.776  29.966  25.418  1.00  0.00     0.022 A 
ATOM     30  C   UNL A   1      33.861  28.774  25.598  1.00  0.00     0.025 A 
ATOM     31  C   UNL A   1      35.604  29.331  27.301  1.00  0.00     0.044 C 
ENDBRANCH  21  24
ENDBRANCH  14  21
ENDBRANCH   8  13
ENDBRANCH   4   7
ENDBRANCH   2   3
ENDBRANCH   1   2
BRANCH   1  32
ATOM     32  C   UNL A   1      38.135  23.532  26.095  1.00  0.00     0.023 C 
BRANCH  32  33
ATOM     33  C   UNL A   1      39.412  23.669  26.907  1.00  0.00     0.116 C 
BRANCH  33  34
ATOM     34  N   UNL A   1      40.570  24.103  26.125  1.00  0.00    -0.352 N 
ATOM     35  C   UNL A   1      41.255  25.297  26.155  1.00  0.00     0.251 C 
ATOM     36  H   UNL A   1      40.912  23.441  25.481  1.00  0.00     0.163 HD
ATOM     37  O   UNL A   1      42.142  25.523  25.339  1.00  0.00    -0.269 OA
BRANCH  35  38
ATOM     38  C   UNL A   1      40.884  26.305  27.166  1.00  0.00     0.039 A 
ATOM     39  C   UNL A   1      40.071  25.944  28.242  1.00  0.00     0.014 A 
ATOM     40  C   UNL A   1      41.421  27.589  27.081  1.00  0.00     0.014 A 
ATOM     41  C   UNL A   1      39.881  26.850  29.288  1.00  0.00     0.010 A 
ATOM     42  C   UNL A   1      41.340  28.432  28.176  1.00  0.00     0.010 A 
ATOM     43  C   UNL A   1      40.558  28.081  29.286  1.00  0.00    -0.014 A 
BRANCH  43  44
ATOM     44  C   UNL A   1      40.445  29.053  30.401  1.00  0.00     0.031 A 
ATOM     45  C   UNL A   1      41.337  28.889  31.604  1.00  0.00     0.074 A 
ATOM     46  C   UNL A   1      39.486  29.999  30.385  1.00  0.00     0.049 A 
ATOM     47  N   UNL A   1      41.287  29.499  32.759  1.00  0.00    -0.248 NA
ATOM     48  C   UNL A   1      42.387  27.858  31.516  1.00  0.00     0.031 C 
ATOM     49  C   UNL A   1      38.513  30.214  29.309  1.00  0.00     0.029 A 
ATOM     50  N   UNL A   1      39.161  30.953  31.316  1.00  0.00    -0.354 N 
ATOM     51  C   UNL A   1      42.262  28.892  33.544  1.00  0.00     0.074 A 
ATOM     52  C   UNL A   1      42.841  27.827  32.759  1.00  0.00     0.031 C 
ATOM     53  C   UNL A   1      37.723  31.252  29.630  1.00  0.00     0.029 A 
ATOM     54  C   UNL A   1      38.105  31.752  30.946  1.00  0.00     0.049 A 
ATOM     55  H   UNL A   1      39.640  31.054  32.171  1.00  0.00     0.167 HD
ATOM     56  C   UNL A   1      42.667  29.215  34.795  1.00  0.00     0.031 A 
ATOM     57  C   UNL A   1      37.515  32.772  31.597  1.00  0.00     0.031 A 
ATOM     58  C   UNL A   1      42.132  30.317  35.544  1.00  0.00     0.049 A 
ATOM     59  C   UNL A   1      38.043  33.173  32.947  1.00  0.00     0.074 A 
ATOM     60  C   UNL A   1      42.502  30.769  36.797  1.00  0.00     0.029 A 
ATOM     61  N   UNL A   1      41.132  31.162  35.089  1.00  0.00    -0.354 N 
ATOM     62  N   UNL A   1      38.986  32.608  33.662  1.00  0.00    -0.248 NA
ATOM     63  C   UNL A   1      37.443  34.361  33.569  1.00  0.00     0.031 C 
ATOM     64  C   UNL A   1      41.716  31.887  37.104  1.00  0.00     0.029 A 
ATOM     65  C   UNL A   1      40.883  32.146  36.027  1.00  0.00     0.049 A 
ATOM     66  H   UNL A   1      40.666  31.074  34.226  1.00  0.00     0.167 HD
ATOM     67  C   UNL A   1      39.113  33.387  34.805  1.00  0.00     0.074 A 
ATOM     68  C   UNL A   1      38.158  34.470  34.679  1.00  0.00     0.031 C 
ATOM     69  C   UNL A   1      39.941  33.222  35.865  1.00  0.00     0.031 A 
BRANCH  56  70
ATOM     70  C   UNL A   1      43.759  28.377  35.403  1.00  0.00    -0.014 A 
ATOM     71  C   UNL A   1      45.113  28.706  35.204  1.00  0.00     0.010 A 
ATOM     72  C   UNL A   1      43.436  27.253  36.183  1.00  0.00     0.010 A 
ATOM     73  C   UNL A   1      46.123  27.896  35.725  1.00  0.00     0.020 A 
ATOM     74  C   UNL A   1      44.445  26.457  36.733  1.00  0.00     0.020 A 
ATOM     75  C   UNL A   1      45.782  26.772  36.481  1.00  0.00     0.054 A 
BRANCH  75  76
ATOM     76  S   UNL A   1      47.114  25.742  37.157  1.00  0.00     0.124 S 
ATOM     77  O   UNL A   1      46.729  25.639  38.562  1.00  0.00    -0.237 OA
ATOM     78  O   UNL A   1      46.994  24.510  36.382  1.00  0.00    -0.237 OA
ATOM     79  O   UNL A   1      48.322  26.523  36.896  1.00  0.00    -0.744 OA
ENDBRANCH  75  76
ENDBRANCH  56  70
BRANCH  57  80
ATOM     80  C   UNL A   1      36.388  33.511  30.964  1.00  0.00    -0.014 A 
ATOM     81  C   UNL A   1      36.530  34.054  29.675  1.00  0.00     0.010 A 
ATOM     82  C   UNL A   1      35.166  33.667  31.640  1.00  0.00     0.010 A 
ATOM     83  C   UNL A   1      35.480  34.761  29.083  1.00  0.00     0.020 A 
ATOM     84  C   UNL A   1      34.104  34.353  31.042  1.00  0.00     0.020 A 
ATOM     85  C   UNL A   1      34.274  34.909  29.772  1.00  0.00     0.054 A 
BRANCH  85  86
ATOM     86  S   UNL A   1      32.906  35.792  28.969  1.00  0.00     0.124 S 
ATOM     87  O   UNL A   1      33.611  36.843  28.241  1.00  0.00    -0.237 OA
ATOM     88  O   UNL A   1      32.295  34.752  28.145  1.00  0.00    -0.237 OA
ATOM     89  O   UNL A   1      32.089  36.246  30.092  1.00  0.00    -0.744 OA
ENDBRANCH  85  86
ENDBRANCH  57  80
BRANCH  69  90
ATOM     90  C   UNL A   1      39.889  34.263  36.948  1.00  0.00    -0.014 A 
ATOM     91  C   UNL A   1      40.655  35.437  36.865  1.00  0.00     0.010 A 
ATOM     92  C   UNL A   1      39.012  34.084  38.033  1.00  0.00     0.010 A 
ATOM     93  C   UNL A   1      40.567  36.405  37.868  1.00  0.00     0.020 A 
ATOM     94  C   UNL A   1      38.904  35.060  39.025  1.00  0.00     0.020 A 
ATOM     95  C   UNL A   1      39.694  36.209  38.943  1.00  0.00     0.054 A 
BRANCH  95  96
ATOM     96  S   UNL A   1      39.561  37.500  40.210  1.00  0.00     0.124 S 
ATOM     97  O   UNL A   1      40.775  38.276  39.979  1.00  0.00    -0.237 OA
ATOM     98  O   UNL A   1      38.309  38.169  39.859  1.00  0.00    -0.237 OA
ATOM     99  O   UNL A   1      39.527  36.750  41.464  1.00  0.00    -0.744 OA
ENDBRANCH  95  96
ENDBRANCH  69  90
ENDBRANCH  43  44
ENDBRANCH  35  38
ENDBRANCH  33  34
ENDBRANCH  32  33
ENDBRANCH   1  32
TORSDOF 17
ENDMDL
MODEL 3
REMARK VINA RESULT:     -11.5      6.006     10.531
REMARK SMILES Cc1ccc(S(=O)(=O)N2CCN(C(=O)[C@H]3CCCC[C@H]3C(=O)NCCCCNC(=O)c3ccc(-c4c5nc(c(-c6ccc(S(=O)(=O)[O-])cc6)c6ccc([nH]6)c(-c6ccc(S(=O)(=O)[O-])cc6)c6nc(c(-c7ccc(S(=O)(=O)[O-])cc7)c7ccc4[nH]7)C=C6)C=C5)cc3)CC2)cc1C
REMARK SMILES IDX 25 1 24 2 23 3 21 4 22 5 20 7 15 8 16 9 17 10 19 11 18 12
REMARK SMILES IDX 13 13 9 14 10 15 92 16 11 17 91 18 12 19 14 20 6 21 7 22
REMARK SMILES IDX 8 23 5 24 1 25 2 26 3 27 94 28 4 29 93 30 95 31 26 32 27 33
REMARK SMILES IDX 28 34 29 35 30 37 31 38 32 39 90 40 33 41 89 42 34 43 35 44
REMARK SMILES IDX 36 45 83 46 37 47 88 48 82 49 84 50 38 51 87 52 81 53 80 54
REMARK SMILES IDX 39 56 69 57 50 58 68 59 51 60 54 61 67 62 85 63 52 64 53 65
REMARK SMILES IDX 66 67 86 68 55 69 40 70 41 71 49 72 42 73 48 74 43 75 44 76
REMARK SMILES IDX 45 77 46 78 47 79 70 80 71 81 79 82 72 83 78 84 73 85 74 86
REMARK SMILES IDX 75 87 76 88 77 89 56 90 57 91 65 92 58 93 64 94 59 95 60 96
REMARK SMILES IDX 61 97 62 98 63 99
REMARK H PARENT 23 6 28 36 84 55 54 66
REMARK Flexibility Score: inf
ROOT
ATOM      1  C   UNL A   1      33.180  30.787  27.622  1.00  0.00     0.023 C 
ENDROOT
BRANCH   1   2
ATOM      2  C   UNL A   1      32.505  30.336  26.330  1.00  0.00     0.116 C 
BRANCH   2   3
ATOM      3  N   UNL A   1      33.424  29.654  25.445  1.00  0.00    -0.356 N 
ATOM      4  C   UNL A   1      33.221  28.981  24.281  1.00  0.00     0.223 C 
ATOM      5  O   UNL A   1      34.191  28.383  23.802  1.00  0.00    -0.275 OA
ATOM      6  H   UNL A   1      34.363  29.682  25.737  1.00  0.00     0.163 HD
BRANCH   4   7
ATOM      7  C   UNL A   1      31.887  28.976  23.519  1.00  0.00     0.091 C 
ATOM      8  C   UNL A   1      31.344  27.596  23.048  1.00  0.00     0.091 C 
ATOM      9  C   UNL A   1      29.952  27.703  22.409  1.00  0.00     0.014 C 
ATOM     10  C   UNL A   1      28.991  28.568  23.210  1.00  0.00     0.001 C 
ATOM     11  C   UNL A   1      30.863  29.964  24.107  1.00  0.00     0.014 C 
ATOM     12  C   UNL A   1      29.545  29.977  23.348  1.00  0.00     0.001 C 
BRANCH   8  13
ATOM     13  C   UNL A   1      31.550  26.424  24.007  1.00  0.00     0.226 C 
ATOM     14  N   UNL A   1      33.229  22.610  23.967  1.00  0.00    -0.194 NA
ATOM     15  C   UNL A   1      31.846  22.683  23.487  1.00  0.00     0.124 C 
ATOM     16  C   UNL A   1      34.098  23.685  23.465  1.00  0.00     0.124 C 
ATOM     17  C   UNL A   1      31.255  24.046  23.835  1.00  0.00     0.136 C 
ATOM     18  C   UNL A   1      33.511  25.072  23.760  1.00  0.00     0.136 C 
ATOM     19  N   UNL A   1      32.069  25.223  23.504  1.00  0.00    -0.340 N 
ATOM     20  O   UNL A   1      31.388  26.563  25.219  1.00  0.00    -0.275 OA
BRANCH  14  21
ATOM     21  S   UNL A   1      33.728  21.459  25.076  1.00  0.00     0.243 S 
ATOM     22  O   UNL A   1      33.501  20.152  24.482  1.00  0.00    -0.207 OA
ATOM     23  O   UNL A   1      33.138  21.815  26.345  1.00  0.00    -0.207 OA
BRANCH  21  24
ATOM     24  C   UNL A   1      35.492  21.613  25.275  1.00  0.00     0.082 A 
ATOM     25  C   UNL A   1      39.742  22.067  25.932  1.00  0.00     0.044 C 
ATOM     26  C   UNL A   1      38.259  21.955  25.699  1.00  0.00    -0.048 A 
ATOM     27  C   UNL A   1      37.749  20.760  25.171  1.00  0.00     0.005 A 
ATOM     28  C   UNL A   1      37.368  22.999  26.014  1.00  0.00    -0.047 A 
ATOM     29  C   UNL A   1      36.377  20.589  24.969  1.00  0.00     0.022 A 
ATOM     30  C   UNL A   1      35.989  22.821  25.782  1.00  0.00     0.025 A 
ATOM     31  C   UNL A   1      37.824  24.315  26.587  1.00  0.00     0.044 C 
ENDBRANCH  21  24
ENDBRANCH  14  21
ENDBRANCH   8  13
ENDBRANCH   4   7
ENDBRANCH   2   3
ENDBRANCH   1   2
BRANCH   1  32
ATOM     32  C   UNL A   1      34.647  31.147  27.524  1.00  0.00     0.023 C 
BRANCH  32  33
ATOM     33  C   UNL A   1      35.583  30.086  28.079  1.00  0.00     0.116 C 
BRANCH  33  34
ATOM     34  N   UNL A   1      35.628  30.038  29.540  1.00  0.00    -0.352 N 
ATOM     35  C   UNL A   1      36.625  29.585  30.375  1.00  0.00     0.251 C 
ATOM     36  H   UNL A   1      34.825  30.381  29.996  1.00  0.00     0.163 HD
ATOM     37  O   UNL A   1      36.437  29.520  31.585  1.00  0.00    -0.269 OA
BRANCH  35  38
ATOM     38  C   UNL A   1      37.907  29.157  29.785  1.00  0.00     0.039 A 
ATOM     39  C   UNL A   1      38.170  29.404  28.437  1.00  0.00     0.014 A 
ATOM     40  C   UNL A   1      38.880  28.585  30.605  1.00  0.00     0.014 A 
ATOM     41  C   UNL A   1      39.452  29.166  27.936  1.00  0.00     0.010 A 
ATOM     42  C   UNL A   1      40.180  28.476  30.140  1.00  0.00     0.010 A 
ATOM     43  C   UNL A   1      40.479  28.751  28.798  1.00  0.00    -0.014 A 
BRANCH  43  44
ATOM     44  C   UNL A   1      41.874  28.547  28.335  1.00  0.00     0.031 A 
ATOM     45  C   UNL A   1      42.295  27.177  27.869  1.00  0.00     0.074 A 
ATOM     46  C   UNL A   1      42.777  29.542  28.434  1.00  0.00     0.049 A 
ATOM     47  N   UNL A   1      43.493  26.728  27.601  1.00  0.00    -0.248 NA
ATOM     48  C   UNL A   1      41.233  26.161  27.750  1.00  0.00     0.031 C 
ATOM     49  C   UNL A   1      42.509  30.894  28.937  1.00  0.00     0.029 A 
ATOM     50  N   UNL A   1      44.114  29.565  28.129  1.00  0.00    -0.354 N 
ATOM     51  C   UNL A   1      43.330  25.373  27.329  1.00  0.00     0.074 A 
ATOM     52  C   UNL A   1      41.935  25.061  27.529  1.00  0.00     0.031 C 
ATOM     53  C   UNL A   1      43.639  31.618  28.877  1.00  0.00     0.029 A 
ATOM     54  C   UNL A   1      44.717  30.778  28.368  1.00  0.00     0.049 A 
ATOM     55  H   UNL A   1      44.597  28.785  27.772  1.00  0.00     0.167 HD
ATOM     56  C   UNL A   1      44.254  24.474  26.914  1.00  0.00     0.031 A 
ATOM     57  C   UNL A   1      45.995  31.164  28.195  1.00  0.00     0.031 A 
ATOM     58  C   UNL A   1      45.627  24.807  26.654  1.00  0.00     0.049 A 
ATOM     59  C   UNL A   1      46.984  30.173  27.645  1.00  0.00     0.074 A 
ATOM     60  C   UNL A   1      46.637  23.990  26.181  1.00  0.00     0.029 A 
ATOM     61  N   UNL A   1      46.171  26.071  26.815  1.00  0.00    -0.354 N 
ATOM     62  N   UNL A   1      46.807  28.903  27.364  1.00  0.00    -0.248 NA
ATOM     63  C   UNL A   1      48.338  30.670  27.368  1.00  0.00     0.031 C 
ATOM     64  C   UNL A   1      47.799  24.763  26.064  1.00  0.00     0.029 A 
ATOM     65  C   UNL A   1      47.498  26.065  26.432  1.00  0.00     0.049 A 
ATOM     66  H   UNL A   1      45.684  26.857  27.153  1.00  0.00     0.167 HD
ATOM     67  C   UNL A   1      48.018  28.457  26.851  1.00  0.00     0.074 A 
ATOM     68  C   UNL A   1      48.915  29.596  26.847  1.00  0.00     0.031 C 
ATOM     69  C   UNL A   1      48.360  27.218  26.422  1.00  0.00     0.031 A 
BRANCH  56  70
ATOM     70  C   UNL A   1      43.787  23.061  26.692  1.00  0.00    -0.014 A 
ATOM     71  C   UNL A   1      43.022  22.394  27.667  1.00  0.00     0.010 A 
ATOM     72  C   UNL A   1      44.111  22.390  25.500  1.00  0.00     0.010 A 
ATOM     73  C   UNL A   1      42.638  21.065  27.480  1.00  0.00     0.020 A 
ATOM     74  C   UNL A   1      43.700  21.069  25.295  1.00  0.00     0.020 A 
ATOM     75  C   UNL A   1      42.985  20.408  26.297  1.00  0.00     0.054 A 
BRANCH  75  76
ATOM     76  S   UNL A   1      42.463  18.686  26.074  1.00  0.00     0.124 S 
ATOM     77  O   UNL A   1      42.750  18.113  27.387  1.00  0.00    -0.237 OA
ATOM     78  O   UNL A   1      41.047  18.818  25.743  1.00  0.00    -0.237 OA
ATOM     79  O   UNL A   1      43.312  18.206  24.985  1.00  0.00    -0.744 OA
ENDBRANCH  75  76
ENDBRANCH  56  70
BRANCH  57  80
ATOM     80  C   UNL A   1      46.403  32.561  28.506  1.00  0.00    -0.014 A 
ATOM     81  C   UNL A   1      46.893  32.890  29.782  1.00  0.00     0.010 A 
ATOM     82  C   UNL A   1      46.317  33.566  27.528  1.00  0.00     0.010 A 
ATOM     83  C   UNL A   1      47.263  34.203  30.084  1.00  0.00     0.020 A 
ATOM     84  C   UNL A   1      46.709  34.878  27.817  1.00  0.00     0.020 A 
ATOM     85  C   UNL A   1      47.166  35.190  29.099  1.00  0.00     0.054 A 
BRANCH  85  86
ATOM     86  S   UNL A   1      47.694  36.881  29.495  1.00  0.00     0.124 S 
ATOM     87  O   UNL A   1      46.823  37.679  28.636  1.00  0.00    -0.237 OA
ATOM     88  O   UNL A   1      47.425  36.972  30.929  1.00  0.00    -0.237 OA
ATOM     89  O   UNL A   1      49.109  36.888  29.134  1.00  0.00    -0.744 OA
ENDBRANCH  85  86
ENDBRANCH  57  80
BRANCH  69  90
ATOM     90  C   UNL A   1      49.745  27.040  25.866  1.00  0.00    -0.014 A 
ATOM     91  C   UNL A   1      50.786  26.531  26.659  1.00  0.00     0.010 A 
ATOM     92  C   UNL A   1      49.986  27.332  24.512  1.00  0.00     0.010 A 
ATOM     93  C   UNL A   1      52.058  26.344  26.113  1.00  0.00     0.020 A 
ATOM     94  C   UNL A   1      51.250  27.125  23.956  1.00  0.00     0.020 A 
ATOM     95  C   UNL A   1      52.282  26.645  24.765  1.00  0.00     0.054 A 
BRANCH  95  96
ATOM     96  S   UNL A   1      53.929  26.352  24.065  1.00  0.00     0.124 S 
ATOM     97  O   UNL A   1      53.616  26.053  22.671  1.00  0.00    -0.237 OA
ATOM     98  O   UNL A   1      54.611  27.623  24.300  1.00  0.00    -0.237 OA
ATOM     99  O   UNL A   1      54.439  25.226  24.846  1.00  0.00    -0.744 OA
ENDBRANCH  95  96
ENDBRANCH  69  90
ENDBRANCH  43  44
ENDBRANCH  35  38
ENDBRANCH  33  34
ENDBRANCH  32  33
ENDBRANCH   1  32
TORSDOF 17
ENDMDL
