MODEL 1
REMARK VINA RESULT:     -12.7      0.000      0.000
REMARK SMILES CN1C(=O)C[C@@H](C(=O)NCCCCNC(=O)c2ccc(-c3c4nc(c(-c5ccc(S(=O)(=O)[O-])cc5)c5ccc([nH]5)c(-c5ccc(S(=O)(=O)[O-])cc5)c5nc(c(-c6ccc(S(=O)(=O)[O-])cc6)c6ccc3[nH]6)C=C5)C=C4)cc2)C12CCN(C(=O)c1ccccc1-n1cccn1)CC2
REMARK SMILES IDX 12 1 11 2 10 3 9 4 7 5 8 6 6 8 1 9 2 10 3 11 77 12 4 13 5 14
REMARK SMILES IDX 78 15 95 16 79 17 94 18 80 19 81 20 82 21 83 22 84 23 88 24
REMARK SMILES IDX 85 25 87 26 86 27 89 28 90 29 93 30 91 31 92 32 13 33 14 34
REMARK SMILES IDX 15 35 16 37 17 38 18 39 76 40 19 41 75 42 20 43 21 44 22 45
REMARK SMILES IDX 69 46 23 47 74 48 68 49 70 50 24 51 73 52 67 53 66 54 25 56
REMARK SMILES IDX 55 57 36 58 54 59 37 60 40 61 53 62 71 63 38 64 39 65 52 67
REMARK SMILES IDX 72 68 41 69 26 70 27 71 35 72 28 73 34 74 29 75 30 76 31 77
REMARK SMILES IDX 32 78 33 79 56 80 57 81 65 82 58 83 64 84 59 85 60 86 61 87
REMARK SMILES IDX 62 88 63 89 42 90 43 91 51 92 44 93 50 94 45 95 46 96 47 97
REMARK SMILES IDX 48 98 49 99
REMARK H PARENT 9 7 14 36 70 55 40 66
REMARK Flexibility Score: inf
ROOT
ATOM      1  C   UNL A   1      31.852  32.092  26.894  1.00  0.00     0.023 C 
ENDROOT
BRANCH   1   2
ATOM      2  C   UNL A   1      32.014  30.575  26.832  1.00  0.00     0.023 C 
BRANCH   2   3
ATOM      3  C   UNL A   1      31.773  29.958  25.449  1.00  0.00     0.116 C 
BRANCH   3   4
ATOM      4  N   UNL A   1      32.982  29.729  24.670  1.00  0.00    -0.356 N 
ATOM      5  C   UNL A   1      33.238  29.120  23.483  1.00  0.00     0.226 C 
ATOM      6  O   UNL A   1      34.413  29.157  23.094  1.00  0.00    -0.275 OA
ATOM      7  H   UNL A   1      33.790  30.096  25.097  1.00  0.00     0.163 HD
BRANCH   5   8
ATOM      8  C   UNL A   1      32.218  28.361  22.626  1.00  0.00     0.113 C 
ATOM      9  C   UNL A   1      29.619  26.585  24.637  1.00  0.00     0.147 C 
ATOM     10  N   UNL A   1      30.407  27.400  23.732  1.00  0.00    -0.339 N 
ATOM     11  C   UNL A   1      29.898  28.563  23.163  1.00  0.00     0.223 C 
ATOM     12  C   UNL A   1      31.709  27.005  23.166  1.00  0.00     0.058 C 
ATOM     13  O   UNL A   1      28.784  29.032  23.330  1.00  0.00    -0.275 OA
ATOM     14  C   UNL A   1      30.973  29.191  22.320  1.00  0.00     0.116 C 
ATOM     15  C   UNL A   1      32.692  26.363  24.167  1.00  0.00     0.051 C 
ATOM     16  C   UNL A   1      31.417  25.982  22.017  1.00  0.00     0.051 C 
ATOM     17  C   UNL A   1      33.911  25.741  23.502  1.00  0.00     0.122 C 
ATOM     18  C   UNL A   1      32.645  25.237  21.489  1.00  0.00     0.122 C 
ATOM     19  N   UNL A   1      33.452  24.716  22.585  1.00  0.00    -0.338 N 
ATOM     20  C   UNL A   1      33.675  23.346  22.715  1.00  0.00     0.256 C 
ATOM     21  O   UNL A   1      33.204  22.506  21.952  1.00  0.00    -0.269 OA
BRANCH  20  22
ATOM     22  C   UNL A   1      34.581  22.857  23.784  1.00  0.00     0.065 A 
ATOM     23  C   UNL A   1      35.909  22.631  23.379  1.00  0.00     0.016 A 
ATOM     24  C   UNL A   1      34.237  22.709  25.137  1.00  0.00     0.077 A 
ATOM     25  C   UNL A   1      36.892  22.303  24.314  1.00  0.00     0.001 A 
ATOM     26  C   UNL A   1      35.249  22.436  26.077  1.00  0.00     0.029 A 
ATOM     27  C   UNL A   1      36.565  22.222  25.664  1.00  0.00     0.002 A 
BRANCH  24  28
ATOM     28  N   UNL A   1      32.909  22.813  25.620  1.00  0.00    -0.240 N 
ATOM     29  C   UNL A   1      31.818  22.021  25.335  1.00  0.00     0.115 A 
ATOM     30  N   UNL A   1      32.582  23.788  26.510  1.00  0.00    -0.177 NA
ATOM     31  C   UNL A   1      30.753  22.527  26.043  1.00  0.00     0.042 A 
ATOM     32  C   UNL A   1      31.278  23.628  26.731  1.00  0.00     0.135 A 
ENDBRANCH  24  28
ENDBRANCH  20  22
ENDBRANCH   5   8
ENDBRANCH   3   4
ENDBRANCH   2   3
ENDBRANCH   1   2
BRANCH   1  33
ATOM     33  C   UNL A   1      33.121  32.832  27.283  1.00  0.00     0.116 C 
BRANCH  33  34
ATOM     34  N   UNL A   1      32.854  34.101  27.949  1.00  0.00    -0.352 N 
ATOM     35  C   UNL A   1      33.454  34.627  29.064  1.00  0.00     0.251 C 
ATOM     36  H   UNL A   1      32.148  34.656  27.543  1.00  0.00     0.163 HD
ATOM     37  O   UNL A   1      33.012  35.647  29.585  1.00  0.00    -0.269 OA
BRANCH  35  38
ATOM     38  C   UNL A   1      34.615  33.928  29.640  1.00  0.00     0.039 A 
ATOM     39  C   UNL A   1      35.900  34.294  29.236  1.00  0.00     0.014 A 
ATOM     40  C   UNL A   1      34.426  32.949  30.619  1.00  0.00     0.014 A 
ATOM     41  C   UNL A   1      37.002  33.713  29.860  1.00  0.00     0.010 A 
ATOM     42  C   UNL A   1      35.521  32.444  31.302  1.00  0.00     0.010 A 
ATOM     43  C   UNL A   1      36.820  32.808  30.919  1.00  0.00    -0.014 A 
BRANCH  43  44
ATOM     44  C   UNL A   1      37.972  32.195  31.621  1.00  0.00     0.031 A 
ATOM     45  C   UNL A   1      38.391  32.732  32.962  1.00  0.00     0.074 A 
ATOM     46  C   UNL A   1      38.678  31.216  31.024  1.00  0.00     0.049 A 
ATOM     47  N   UNL A   1      39.416  32.396  33.701  1.00  0.00    -0.248 NA
ATOM     48  C   UNL A   1      37.572  33.818  33.530  1.00  0.00     0.031 C 
ATOM     49  C   UNL A   1      38.399  30.651  29.701  1.00  0.00     0.029 A 
ATOM     50  N   UNL A   1      39.782  30.524  31.452  1.00  0.00    -0.354 N 
ATOM     51  C   UNL A   1      39.382  33.247  34.800  1.00  0.00     0.074 A 
ATOM     52  C   UNL A   1      38.270  34.151  34.605  1.00  0.00     0.031 C 
ATOM     53  C   UNL A   1      39.288  29.678  29.441  1.00  0.00     0.029 A 
ATOM     54  C   UNL A   1      40.219  29.575  30.560  1.00  0.00     0.049 A 
ATOM     55  H   UNL A   1      40.219  30.692  32.318  1.00  0.00     0.167 HD
ATOM     56  C   UNL A   1      40.186  33.258  35.889  1.00  0.00     0.031 A 
ATOM     57  C   UNL A   1      41.254  28.717  30.637  1.00  0.00     0.031 A 
ATOM     58  C   UNL A   1      41.266  32.333  36.092  1.00  0.00     0.049 A 
ATOM     59  C   UNL A   1      42.112  28.721  31.873  1.00  0.00     0.074 A 
ATOM     60  C   UNL A   1      42.104  32.214  37.187  1.00  0.00     0.029 A 
ATOM     61  N   UNL A   1      41.650  31.357  35.183  1.00  0.00    -0.354 N 
ATOM     62  N   UNL A   1      42.028  29.494  32.930  1.00  0.00    -0.248 NA
ATOM     63  C   UNL A   1      43.191  27.728  31.934  1.00  0.00     0.031 C 
ATOM     64  C   UNL A   1      43.019  31.188  36.924  1.00  0.00     0.029 A 
ATOM     65  C   UNL A   1      42.718  30.637  35.688  1.00  0.00     0.049 A 
ATOM     66  H   UNL A   1      41.226  31.202  34.309  1.00  0.00     0.167 HD
ATOM     67  C   UNL A   1      43.024  29.059  33.796  1.00  0.00     0.074 A 
ATOM     68  C   UNL A   1      43.691  27.950  33.143  1.00  0.00     0.031 C 
ATOM     69  C   UNL A   1      43.359  29.532  35.022  1.00  0.00     0.031 A 
BRANCH  56  70
ATOM     70  C   UNL A   1      39.915  34.301  36.938  1.00  0.00    -0.014 A 
ATOM     71  C   UNL A   1      40.412  35.611  36.805  1.00  0.00     0.010 A 
ATOM     72  C   UNL A   1      39.141  33.977  38.067  1.00  0.00     0.010 A 
ATOM     73  C   UNL A   1      40.184  36.561  37.803  1.00  0.00     0.020 A 
ATOM     74  C   UNL A   1      38.884  34.933  39.053  1.00  0.00     0.020 A 
ATOM     75  C   UNL A   1      39.426  36.214  38.924  1.00  0.00     0.054 A 
BRANCH  75  76
ATOM     76  S   UNL A   1      39.132  37.471  40.198  1.00  0.00     0.124 S 
ATOM     77  O   UNL A   1      38.580  36.669  41.288  1.00  0.00    -0.237 OA
ATOM     78  O   UNL A   1      40.469  38.011  40.432  1.00  0.00    -0.237 OA
ATOM     79  O   UNL A   1      38.192  38.393  39.565  1.00  0.00    -0.744 OA
ENDBRANCH  75  76
ENDBRANCH  56  70
BRANCH  57  80
ATOM     80  C   UNL A   1      41.511  27.759  29.528  1.00  0.00    -0.014 A 
ATOM     81  C   UNL A   1      40.679  26.640  29.349  1.00  0.00     0.010 A 
ATOM     82  C   UNL A   1      42.577  27.968  28.635  1.00  0.00     0.010 A 
ATOM     83  C   UNL A   1      40.920  25.737  28.309  1.00  0.00     0.020 A 
ATOM     84  C   UNL A   1      42.805  27.082  27.579  1.00  0.00     0.020 A 
ATOM     85  C   UNL A   1      41.981  25.963  27.430  1.00  0.00     0.054 A 
BRANCH  85  86
ATOM     86  S   UNL A   1      42.245  24.806  26.058  1.00  0.00     0.124 S 
ATOM     87  O   UNL A   1      43.543  24.229  26.393  1.00  0.00    -0.237 OA
ATOM     88  O   UNL A   1      41.101  23.904  26.179  1.00  0.00    -0.237 OA
ATOM     89  O   UNL A   1      42.227  25.666  24.878  1.00  0.00    -0.744 OA
ENDBRANCH  85  86
ENDBRANCH  57  80
BRANCH  69  90
ATOM     90  C   UNL A   1      44.465  28.825  35.757  1.00  0.00    -0.014 A 
ATOM     91  C   UNL A   1      44.199  27.730  36.597  1.00  0.00     0.010 A 
ATOM     92  C   UNL A   1      45.796  29.233  35.555  1.00  0.00     0.010 A 
ATOM     93  C   UNL A   1      45.246  27.074  37.248  1.00  0.00     0.020 A 
ATOM     94  C   UNL A   1      46.846  28.563  36.183  1.00  0.00     0.020 A 
ATOM     95  C   UNL A   1      46.563  27.496  37.039  1.00  0.00     0.054 A 
BRANCH  95  96
ATOM     96  S   UNL A   1      47.910  26.601  37.861  1.00  0.00     0.124 S 
ATOM     97  O   UNL A   1      48.575  27.669  38.601  1.00  0.00    -0.237 OA
ATOM     98  O   UNL A   1      47.194  25.622  38.677  1.00  0.00    -0.237 OA
ATOM     99  O   UNL A   1      48.677  26.037  36.753  1.00  0.00    -0.744 OA
ENDBRANCH  95  96
ENDBRANCH  69  90
ENDBRANCH  43  44
ENDBRANCH  35  38
ENDBRANCH  33  34
ENDBRANCH   1  33
TORSDOF 16
ENDMDL
MODEL 2
REMARK VINA RESULT:     -12.4      5.796     11.532
REMARK SMILES CN1C(=O)C[C@@H](C(=O)NCCCCNC(=O)c2ccc(-c3c4nc(c(-c5ccc(S(=O)(=O)[O-])cc5)c5ccc([nH]5)c(-c5ccc(S(=O)(=O)[O-])cc5)c5nc(c(-c6ccc(S(=O)(=O)[O-])cc6)c6ccc3[nH]6)C=C5)C=C4)cc2)C12CCN(C(=O)c1ccccc1-n1cccn1)CC2
REMARK SMILES IDX 12 1 11 2 10 3 9 4 7 5 8 6 6 8 1 9 2 10 3 11 77 12 4 13 5 14
REMARK SMILES IDX 78 15 95 16 79 17 94 18 80 19 81 20 82 21 83 22 84 23 88 24
REMARK SMILES IDX 85 25 87 26 86 27 89 28 90 29 93 30 91 31 92 32 13 33 14 34
REMARK SMILES IDX 15 35 16 37 17 38 18 39 76 40 19 41 75 42 20 43 21 44 22 45
REMARK SMILES IDX 69 46 23 47 74 48 68 49 70 50 24 51 73 52 67 53 66 54 25 56
REMARK SMILES IDX 55 57 36 58 54 59 37 60 40 61 53 62 71 63 38 64 39 65 52 67
REMARK SMILES IDX 72 68 41 69 26 70 27 71 35 72 28 73 34 74 29 75 30 76 31 77
REMARK SMILES IDX 32 78 33 79 56 80 57 81 65 82 58 83 64 84 59 85 60 86 61 87
REMARK SMILES IDX 62 88 63 89 42 90 43 91 51 92 44 93 50 94 45 95 46 96 47 97
REMARK SMILES IDX 48 98 49 99
REMARK H PARENT 9 7 14 36 70 55 40 66
REMARK Flexibility Score: inf
ROOT
ATOM      1  C   UNL A   1      38.474  20.768  24.932  1.00  0.00     0.023 C 
ENDROOT
BRANCH   1   2
ATOM      2  C   UNL A   1      37.281  19.817  24.997  1.00  0.00     0.023 C 
BRANCH   2   3
ATOM      3  C   UNL A   1      35.910  20.504  25.008  1.00  0.00     0.116 C 
BRANCH   3   4
ATOM      4  N   UNL A   1      35.578  21.172  26.259  1.00  0.00    -0.356 N 
ATOM      5  C   UNL A   1      34.414  21.451  26.900  1.00  0.00     0.226 C 
ATOM      6  O   UNL A   1      34.517  22.007  28.001  1.00  0.00    -0.275 OA
ATOM      7  H   UNL A   1      36.372  21.491  26.746  1.00  0.00     0.163 HD
BRANCH   5   8
ATOM      8  C   UNL A   1      33.005  21.182  26.356  1.00  0.00     0.113 C 
ATOM      9  C   UNL A   1      32.676  21.838  22.694  1.00  0.00     0.147 C 
ATOM     10  N   UNL A   1      32.710  21.324  24.050  1.00  0.00    -0.339 N 
ATOM     11  C   UNL A   1      32.781  19.961  24.315  1.00  0.00     0.223 C 
ATOM     12  C   UNL A   1      32.475  22.133  25.259  1.00  0.00     0.058 C 
ATOM     13  O   UNL A   1      32.817  19.058  23.495  1.00  0.00    -0.275 OA
ATOM     14  C   UNL A   1      32.847  19.767  25.804  1.00  0.00     0.116 C 
ATOM     15  C   UNL A   1      33.181  23.505  25.278  1.00  0.00     0.051 C 
ATOM     16  C   UNL A   1      30.930  22.358  25.366  1.00  0.00     0.051 C 
ATOM     17  C   UNL A   1      32.716  24.409  26.411  1.00  0.00     0.122 C 
ATOM     18  C   UNL A   1      30.500  23.408  26.393  1.00  0.00     0.122 C 
ATOM     19  N   UNL A   1      31.290  24.626  26.258  1.00  0.00    -0.338 N 
ATOM     20  C   UNL A   1      30.678  25.841  25.953  1.00  0.00     0.256 C 
ATOM     21  O   UNL A   1      29.471  25.964  25.761  1.00  0.00    -0.269 OA
BRANCH  20  22
ATOM     22  C   UNL A   1      31.498  27.078  25.920  1.00  0.00     0.065 A 
ATOM     23  C   UNL A   1      31.486  27.829  27.109  1.00  0.00     0.016 A 
ATOM     24  C   UNL A   1      32.328  27.474  24.861  1.00  0.00     0.077 A 
ATOM     25  C   UNL A   1      32.320  28.938  27.258  1.00  0.00     0.001 A 
ATOM     26  C   UNL A   1      33.208  28.559  25.045  1.00  0.00     0.029 A 
ATOM     27  C   UNL A   1      33.193  29.292  26.234  1.00  0.00     0.002 A 
BRANCH  24  28
ATOM     28  N   UNL A   1      32.330  26.843  23.592  1.00  0.00    -0.240 N 
ATOM     29  C   UNL A   1      31.389  26.913  22.587  1.00  0.00     0.115 A 
ATOM     30  N   UNL A   1      33.377  26.057  23.223  1.00  0.00    -0.177 NA
ATOM     31  C   UNL A   1      31.838  26.121  21.556  1.00  0.00     0.042 A 
ATOM     32  C   UNL A   1      33.056  25.602  22.013  1.00  0.00     0.135 A 
ENDBRANCH  24  28
ENDBRANCH  20  22
ENDBRANCH   5   8
ENDBRANCH   3   4
ENDBRANCH   2   3
ENDBRANCH   1   2
BRANCH   1  33
ATOM     33  C   UNL A   1      39.357  20.733  26.168  1.00  0.00     0.116 C 
BRANCH  33  34
ATOM     34  N   UNL A   1      40.341  19.657  26.130  1.00  0.00    -0.352 N 
ATOM     35  C   UNL A   1      41.709  19.747  26.157  1.00  0.00     0.251 C 
ATOM     36  H   UNL A   1      39.975  18.745  26.078  1.00  0.00     0.163 HD
ATOM     37  O   UNL A   1      42.401  18.750  25.971  1.00  0.00    -0.269 OA
BRANCH  35  38
ATOM     38  C   UNL A   1      42.329  21.063  26.382  1.00  0.00     0.039 A 
ATOM     39  C   UNL A   1      42.538  21.913  25.294  1.00  0.00     0.014 A 
ATOM     40  C   UNL A   1      42.652  21.471  27.679  1.00  0.00     0.014 A 
ATOM     41  C   UNL A   1      43.021  23.201  25.519  1.00  0.00     0.010 A 
ATOM     42  C   UNL A   1      43.041  22.781  27.908  1.00  0.00     0.010 A 
ATOM     43  C   UNL A   1      43.245  23.654  26.830  1.00  0.00    -0.014 A 
BRANCH  43  44
ATOM     44  C   UNL A   1      43.732  25.027  27.102  1.00  0.00     0.031 A 
ATOM     45  C   UNL A   1      45.188  25.348  26.901  1.00  0.00     0.074 A 
ATOM     46  C   UNL A   1      42.888  25.953  27.596  1.00  0.00     0.049 A 
ATOM     47  N   UNL A   1      45.830  26.457  27.160  1.00  0.00    -0.248 NA
ATOM     48  C   UNL A   1      46.042  24.268  26.376  1.00  0.00     0.031 C 
ATOM     49  C   UNL A   1      41.466  25.741  27.883  1.00  0.00     0.029 A 
ATOM     50  N   UNL A   1      43.105  27.260  27.949  1.00  0.00    -0.354 N 
ATOM     51  C   UNL A   1      47.163  26.198  26.860  1.00  0.00     0.074 A 
ATOM     52  C   UNL A   1      47.246  24.812  26.454  1.00  0.00     0.031 C 
ATOM     53  C   UNL A   1      40.934  26.887  28.338  1.00  0.00     0.029 A 
ATOM     54  C   UNL A   1      41.980  27.902  28.409  1.00  0.00     0.049 A 
ATOM     55  H   UNL A   1      43.985  27.696  27.880  1.00  0.00     0.167 HD
ATOM     56  C   UNL A   1      48.219  27.043  26.891  1.00  0.00     0.031 A 
ATOM     57  C   UNL A   1      41.813  29.167  28.836  1.00  0.00     0.031 A 
ATOM     58  C   UNL A   1      48.122  28.428  27.261  1.00  0.00     0.049 A 
ATOM     59  C   UNL A   1      42.992  30.101  28.828  1.00  0.00     0.074 A 
ATOM     60  C   UNL A   1      49.116  29.390  27.268  1.00  0.00     0.029 A 
ATOM     61  N   UNL A   1      46.955  29.052  27.679  1.00  0.00    -0.354 N 
ATOM     62  N   UNL A   1      44.235  29.854  28.483  1.00  0.00    -0.248 NA
ATOM     63  C   UNL A   1      42.745  31.486  29.248  1.00  0.00     0.031 C 
ATOM     64  C   UNL A   1      48.557  30.589  27.724  1.00  0.00     0.029 A 
ATOM     65  C   UNL A   1      47.206  30.385  27.953  1.00  0.00     0.049 A 
ATOM     66  H   UNL A   1      46.079  28.611  27.767  1.00  0.00     0.167 HD
ATOM     67  C   UNL A   1      44.910  31.061  28.616  1.00  0.00     0.074 A 
ATOM     68  C   UNL A   1      43.937  32.038  29.062  1.00  0.00     0.031 C 
ATOM     69  C   UNL A   1      46.217  31.339  28.388  1.00  0.00     0.031 A 
BRANCH  56  70
ATOM     70  C   UNL A   1      49.564  26.486  26.510  1.00  0.00    -0.014 A 
ATOM     71  C   UNL A   1      49.999  26.492  25.172  1.00  0.00     0.010 A 
ATOM     72  C   UNL A   1      50.412  25.962  27.501  1.00  0.00     0.010 A 
ATOM     73  C   UNL A   1      51.234  25.940  24.825  1.00  0.00     0.020 A 
ATOM     74  C   UNL A   1      51.663  25.435  27.164  1.00  0.00     0.020 A 
ATOM     75  C   UNL A   1      52.056  25.409  25.824  1.00  0.00     0.054 A 
BRANCH  75  76
ATOM     76  S   UNL A   1      53.661  24.711  25.349  1.00  0.00     0.124 S 
ATOM     77  O   UNL A   1      54.035  25.561  24.221  1.00  0.00    -0.237 OA
ATOM     78  O   UNL A   1      54.460  24.888  26.559  1.00  0.00    -0.237 OA
ATOM     79  O   UNL A   1      53.349  23.326  25.008  1.00  0.00    -0.744 OA
ENDBRANCH  75  76
ENDBRANCH  56  70
BRANCH  57  80
ATOM     80  C   UNL A   1      40.469  29.634  29.271  1.00  0.00    -0.014 A 
ATOM     81  C   UNL A   1      39.478  29.932  28.319  1.00  0.00     0.010 A 
ATOM     82  C   UNL A   1      40.165  29.767  30.638  1.00  0.00     0.010 A 
ATOM     83  C   UNL A   1      38.215  30.374  28.724  1.00  0.00     0.020 A 
ATOM     84  C   UNL A   1      38.895  30.183  31.048  1.00  0.00     0.020 A 
ATOM     85  C   UNL A   1      37.931  30.496  30.087  1.00  0.00     0.054 A 
BRANCH  85  86
ATOM     86  S   UNL A   1      36.269  31.022  30.592  1.00  0.00     0.124 S 
ATOM     87  O   UNL A   1      35.542  30.987  29.328  1.00  0.00    -0.237 OA
ATOM     88  O   UNL A   1      35.896  29.999  31.567  1.00  0.00    -0.237 OA
ATOM     89  O   UNL A   1      36.489  32.353  31.153  1.00  0.00    -0.744 OA
ENDBRANCH  85  86
ENDBRANCH  57  80
BRANCH  69  90
ATOM     90  C   UNL A   1      46.664  32.764  28.574  1.00  0.00    -0.014 A 
ATOM     91  C   UNL A   1      46.590  33.694  27.523  1.00  0.00     0.010 A 
ATOM     92  C   UNL A   1      47.110  33.187  29.839  1.00  0.00     0.010 A 
ATOM     93  C   UNL A   1      46.985  35.017  27.727  1.00  0.00     0.020 A 
ATOM     94  C   UNL A   1      47.480  34.515  30.053  1.00  0.00     0.020 A 
ATOM     95  C   UNL A   1      47.430  35.419  28.991  1.00  0.00     0.054 A 
BRANCH  95  96
ATOM     96  S   UNL A   1      47.897  37.153  29.244  1.00  0.00     0.124 S 
ATOM     97  O   UNL A   1      47.362  37.420  30.575  1.00  0.00    -0.237 OA
ATOM     98  O   UNL A   1      49.355  37.111  29.150  1.00  0.00    -0.237 OA
ATOM     99  O   UNL A   1      47.229  37.854  28.149  1.00  0.00    -0.744 OA
ENDBRANCH  95  96
ENDBRANCH  69  90
ENDBRANCH  43  44
ENDBRANCH  35  38
ENDBRANCH  33  34
ENDBRANCH   1  33
TORSDOF 16
ENDMDL
MODEL 3
REMARK VINA RESULT:     -12.3      1.180      2.153
REMARK SMILES CN1C(=O)C[C@@H](C(=O)NCCCCNC(=O)c2ccc(-c3c4nc(c(-c5ccc(S(=O)(=O)[O-])cc5)c5ccc([nH]5)c(-c5ccc(S(=O)(=O)[O-])cc5)c5nc(c(-c6ccc(S(=O)(=O)[O-])cc6)c6ccc3[nH]6)C=C5)C=C4)cc2)C12CCN(C(=O)c1ccccc1-n1cccn1)CC2
REMARK SMILES IDX 12 1 11 2 10 3 9 4 7 5 8 6 6 8 1 9 2 10 3 11 77 12 4 13 5 14
REMARK SMILES IDX 78 15 95 16 79 17 94 18 80 19 81 20 82 21 83 22 84 23 88 24
REMARK SMILES IDX 85 25 87 26 86 27 89 28 90 29 93 30 91 31 92 32 13 33 14 34
REMARK SMILES IDX 15 35 16 37 17 38 18 39 76 40 19 41 75 42 20 43 21 44 22 45
REMARK SMILES IDX 69 46 23 47 74 48 68 49 70 50 24 51 73 52 67 53 66 54 25 56
REMARK SMILES IDX 55 57 36 58 54 59 37 60 40 61 53 62 71 63 38 64 39 65 52 67
REMARK SMILES IDX 72 68 41 69 26 70 27 71 35 72 28 73 34 74 29 75 30 76 31 77
REMARK SMILES IDX 32 78 33 79 56 80 57 81 65 82 58 83 64 84 59 85 60 86 61 87
REMARK SMILES IDX 62 88 63 89 42 90 43 91 51 92 44 93 50 94 45 95 46 96 47 97
REMARK SMILES IDX 48 98 49 99
REMARK H PARENT 9 7 14 36 70 55 40 66
REMARK Flexibility Score: inf
ROOT
ATOM      1  C   UNL A   1      33.610  31.543  27.628  1.00  0.00     0.023 C 
ENDROOT
BRANCH   1   2
ATOM      2  C   UNL A   1      34.775  30.631  28.001  1.00  0.00     0.023 C 
BRANCH   2   3
ATOM      3  C   UNL A   1      34.673  29.200  27.459  1.00  0.00     0.116 C 
BRANCH   3   4
ATOM      4  N   UNL A   1      33.360  28.587  27.613  1.00  0.00    -0.356 N 
ATOM      5  C   UNL A   1      32.404  28.175  26.741  1.00  0.00     0.226 C 
ATOM      6  O   UNL A   1      31.405  27.641  27.241  1.00  0.00    -0.275 OA
ATOM      7  H   UNL A   1      33.113  28.441  28.554  1.00  0.00     0.163 HD
BRANCH   5   8
ATOM      8  C   UNL A   1      32.438  28.359  25.219  1.00  0.00     0.113 C 
ATOM      9  C   UNL A   1      29.374  27.091  23.501  1.00  0.00     0.147 C 
ATOM     10  N   UNL A   1      30.501  27.828  24.040  1.00  0.00    -0.339 N 
ATOM     11  C   UNL A   1      30.493  29.216  24.126  1.00  0.00     0.223 C 
ATOM     12  C   UNL A   1      31.814  27.239  24.356  1.00  0.00     0.058 C 
ATOM     13  O   UNL A   1      29.596  29.965  23.778  1.00  0.00    -0.275 OA
ATOM     14  C   UNL A   1      31.778  29.660  24.768  1.00  0.00     0.116 C 
ATOM     15  C   UNL A   1      31.766  25.884  25.094  1.00  0.00     0.051 C 
ATOM     16  C   UNL A   1      32.568  27.048  22.998  1.00  0.00     0.051 C 
ATOM     17  C   UNL A   1      33.118  25.191  25.174  1.00  0.00     0.122 C 
ATOM     18  C   UNL A   1      33.834  26.192  23.077  1.00  0.00     0.122 C 
ATOM     19  N   UNL A   1      33.589  24.963  23.821  1.00  0.00    -0.338 N 
ATOM     20  C   UNL A   1      33.754  23.719  23.215  1.00  0.00     0.256 C 
ATOM     21  O   UNL A   1      34.087  23.575  22.041  1.00  0.00    -0.269 OA
BRANCH  20  22
ATOM     22  C   UNL A   1      33.592  22.488  24.028  1.00  0.00     0.065 A 
ATOM     23  C   UNL A   1      32.344  21.853  23.900  1.00  0.00     0.016 A 
ATOM     24  C   UNL A   1      34.596  21.887  24.802  1.00  0.00     0.077 A 
ATOM     25  C   UNL A   1      32.110  20.615  24.501  1.00  0.00     0.001 A 
ATOM     26  C   UNL A   1      34.368  20.611  25.354  1.00  0.00     0.029 A 
ATOM     27  C   UNL A   1      33.127  19.987  25.213  1.00  0.00     0.002 A 
BRANCH  24  28
ATOM     28  N   UNL A   1      35.845  22.501  25.073  1.00  0.00    -0.240 N 
ATOM     29  C   UNL A   1      37.030  22.399  24.377  1.00  0.00     0.115 A 
ATOM     30  N   UNL A   1      35.976  23.340  26.134  1.00  0.00    -0.177 NA
ATOM     31  C   UNL A   1      37.955  23.175  25.035  1.00  0.00     0.042 A 
ATOM     32  C   UNL A   1      37.254  23.713  26.123  1.00  0.00     0.135 A 
ENDBRANCH  24  28
ENDBRANCH  20  22
ENDBRANCH   5   8
ENDBRANCH   3   4
ENDBRANCH   2   3
ENDBRANCH   1   2
BRANCH   1  33
ATOM     33  C   UNL A   1      34.027  32.955  27.255  1.00  0.00     0.116 C 
BRANCH  33  34
ATOM     34  N   UNL A   1      33.289  33.976  27.989  1.00  0.00    -0.352 N 
ATOM     35  C   UNL A   1      33.450  34.381  29.288  1.00  0.00     0.251 C 
ATOM     36  H   UNL A   1      32.580  34.437  27.484  1.00  0.00     0.163 HD
ATOM     37  O   UNL A   1      32.648  35.156  29.802  1.00  0.00    -0.269 OA
BRANCH  35  38
ATOM     38  C   UNL A   1      34.583  33.846  30.063  1.00  0.00     0.039 A 
ATOM     39  C   UNL A   1      34.349  32.854  31.016  1.00  0.00     0.014 A 
ATOM     40  C   UNL A   1      35.881  34.294  29.800  1.00  0.00     0.014 A 
ATOM     41  C   UNL A   1      35.432  32.268  31.670  1.00  0.00     0.010 A 
ATOM     42  C   UNL A   1      36.959  33.645  30.382  1.00  0.00     0.010 A 
ATOM     43  C   UNL A   1      36.745  32.637  31.334  1.00  0.00    -0.014 A 
BRANCH  43  44
ATOM     44  C   UNL A   1      37.917  32.013  31.991  1.00  0.00     0.031 A 
ATOM     45  C   UNL A   1      38.356  32.506  33.343  1.00  0.00     0.074 A 
ATOM     46  C   UNL A   1      38.623  31.065  31.345  1.00  0.00     0.049 A 
ATOM     47  N   UNL A   1      39.399  32.156  34.049  1.00  0.00    -0.248 NA
ATOM     48  C   UNL A   1      37.536  33.561  33.966  1.00  0.00     0.031 C 
ATOM     49  C   UNL A   1      38.325  30.545  30.008  1.00  0.00     0.029 A 
ATOM     50  N   UNL A   1      39.742  30.371  31.727  1.00  0.00    -0.354 N 
ATOM     51  C   UNL A   1      39.376  32.965  35.179  1.00  0.00     0.074 A 
ATOM     52  C   UNL A   1      38.251  33.862  35.038  1.00  0.00     0.031 C 
ATOM     53  C   UNL A   1      39.219  29.594  29.696  1.00  0.00     0.029 A 
ATOM     54  C   UNL A   1      40.173  29.461  30.792  1.00  0.00     0.049 A 
ATOM     55  H   UNL A   1      40.194  30.513  32.590  1.00  0.00     0.167 HD
ATOM     56  C   UNL A   1      40.201  32.946  36.253  1.00  0.00     0.031 A 
ATOM     57  C   UNL A   1      41.219  28.614  30.818  1.00  0.00     0.031 A 
ATOM     58  C   UNL A   1      41.296  32.027  36.401  1.00  0.00     0.049 A 
ATOM     59  C   UNL A   1      42.101  28.583  32.037  1.00  0.00     0.074 A 
ATOM     60  C   UNL A   1      42.155  31.879  37.475  1.00  0.00     0.029 A 
ATOM     61  N   UNL A   1      41.673  31.091  35.450  1.00  0.00    -0.354 N 
ATOM     62  N   UNL A   1      42.028  29.315  33.124  1.00  0.00    -0.248 NA
ATOM     63  C   UNL A   1      43.192  27.601  32.041  1.00  0.00     0.031 C 
ATOM     64  C   UNL A   1      43.077  30.875  37.157  1.00  0.00     0.029 A 
ATOM     65  C   UNL A   1      42.758  30.365  35.908  1.00  0.00     0.049 A 
ATOM     66  H   UNL A   1      41.233  30.962  34.579  1.00  0.00     0.167 HD
ATOM     67  C   UNL A   1      43.046  28.861  33.954  1.00  0.00     0.074 A 
ATOM     68  C   UNL A   1      43.712  27.785  33.248  1.00  0.00     0.031 C 
ATOM     69  C   UNL A   1      43.398  29.293  35.190  1.00  0.00     0.031 A 
BRANCH  56  70
ATOM     70  C   UNL A   1      39.938  33.947  37.345  1.00  0.00    -0.014 A 
ATOM     71  C   UNL A   1      39.110  33.630  38.437  1.00  0.00     0.010 A 
ATOM     72  C   UNL A   1      40.539  35.218  37.289  1.00  0.00     0.010 A 
ATOM     73  C   UNL A   1      38.846  34.581  39.426  1.00  0.00     0.020 A 
ATOM     74  C   UNL A   1      40.302  36.162  38.293  1.00  0.00     0.020 A 
ATOM     75  C   UNL A   1      39.440  35.843  39.344  1.00  0.00     0.054 A 
BRANCH  75  76
ATOM     76  S   UNL A   1      39.092  37.053  40.649  1.00  0.00     0.124 S 
ATOM     77  O   UNL A   1      40.421  37.601  40.912  1.00  0.00    -0.237 OA
ATOM     78  O   UNL A   1      38.155  37.967  40.000  1.00  0.00    -0.237 OA
ATOM     79  O   UNL A   1      38.526  36.247  41.728  1.00  0.00    -0.744 OA
ENDBRANCH  75  76
ENDBRANCH  56  70
BRANCH  57  80
ATOM     80  C   UNL A   1      41.466  27.700  29.671  1.00  0.00    -0.014 A 
ATOM     81  C   UNL A   1      42.525  27.946  28.780  1.00  0.00     0.010 A 
ATOM     82  C   UNL A   1      40.654  26.568  29.471  1.00  0.00     0.010 A 
ATOM     83  C   UNL A   1      42.757  27.090  27.700  1.00  0.00     0.020 A 
ATOM     84  C   UNL A   1      40.899  25.695  28.407  1.00  0.00     0.020 A 
ATOM     85  C   UNL A   1      41.943  25.969  27.520  1.00  0.00     0.054 A 
BRANCH  85  86
ATOM     86  S   UNL A   1      42.293  24.843  26.140  1.00  0.00     0.124 S 
ATOM     87  O   UNL A   1      43.739  24.678  26.243  1.00  0.00    -0.237 OA
ATOM     88  O   UNL A   1      41.496  23.667  26.482  1.00  0.00    -0.237 OA
ATOM     89  O   UNL A   1      41.827  25.583  24.970  1.00  0.00    -0.744 OA
ENDBRANCH  85  86
ENDBRANCH  57  80
BRANCH  69  90
ATOM     90  C   UNL A   1      44.527  28.573  35.877  1.00  0.00    -0.014 A 
ATOM     91  C   UNL A   1      45.856  29.013  35.751  1.00  0.00     0.010 A 
ATOM     92  C   UNL A   1      44.239  27.474  36.707  1.00  0.00     0.010 A 
ATOM     93  C   UNL A   1      46.883  28.345  36.421  1.00  0.00     0.020 A 
ATOM     94  C   UNL A   1      45.260  26.821  37.398  1.00  0.00     0.020 A 
ATOM     95  C   UNL A   1      46.579  27.251  37.239  1.00  0.00     0.054 A 
BRANCH  95  96
ATOM     96  S   UNL A   1      47.924  26.425  38.132  1.00  0.00     0.124 S 
ATOM     97  O   UNL A   1      48.659  27.558  38.686  1.00  0.00    -0.237 OA
ATOM     98  O   UNL A   1      47.207  25.604  39.105  1.00  0.00    -0.237 OA
ATOM     99  O   UNL A   1      48.623  25.677  37.090  1.00  0.00    -0.744 OA
ENDBRANCH  95  96
ENDBRANCH  69  90
ENDBRANCH  43  44
ENDBRANCH  35  38
ENDBRANCH  33  34
ENDBRANCH   1  33
TORSDOF 16
ENDMDL
