MODEL 1
REMARK VINA RESULT:     -11.8      0.000      0.000
REMARK SMILES O=C(NCCCCNC(=O)[C@H]1O[C@@H](Oc2c(-c3cc(O)c(O)c(O)c3)oc3cc(O)cc(O)c3c2=O)[C@H](O)[C@@H](O)[C@@H]1O)c1ccc(-c2c3nc(c(-c4ccc(S(=O)(=O)[O-])cc4)c4ccc([nH]4)c(-c4ccc(S(=O)(=O)[O-])cc4)c4nc(c(-c5ccc(S(=O)(=O)[O-])cc5)c5ccc2[nH]5)C=C4)C=C3)cc1
REMARK SMILES IDX 6 1 5 2 4 3 3 4 1 5 2 6 43 8 44 9 102 10 45 11 101 12 46 13
REMARK SMILES IDX 47 14 48 15 95 16 49 17 100 18 94 19 96 20 50 21 99 22 93 23
REMARK SMILES IDX 92 24 51 26 81 27 62 28 80 29 63 30 66 31 79 32 97 33 64 34
REMARK SMILES IDX 65 35 78 37 98 38 67 39 52 40 53 41 61 42 54 43 60 44 55 45
REMARK SMILES IDX 56 46 57 47 58 48 59 49 82 50 83 51 91 52 84 53 90 54 85 55
REMARK SMILES IDX 86 56 87 57 88 58 89 59 68 60 69 61 77 62 70 63 76 64 71 65
REMARK SMILES IDX 72 66 73 67 74 68 75 69 7 70 8 71 9 72 10 74 11 75 12 76
REMARK SMILES IDX 41 77 13 78 39 79 37 80 42 81 14 83 15 84 16 85 35 86 26 87
REMARK SMILES IDX 34 88 36 89 27 90 32 91 28 92 31 93 29 94 17 95 18 96 25 97
REMARK SMILES IDX 19 98 23 99 21 100 20 101 24 103 22 105 33 107 30 109 40 111
REMARK SMILES IDX 38 113
REMARK H PARENT 3 7 96 25 66 36 8 73 42 82 20 102 24 104 22 106 33 108 30 110
REMARK H PARENT 40 112 38 114
REMARK Flexibility Score: inf
ROOT
ATOM      1  C   UNL A   1      31.810  29.485  25.440  1.00  0.00     0.023 C 
ENDROOT
BRANCH   1   2
ATOM      2  C   UNL A   1      32.919  28.580  25.957  1.00  0.00     0.023 C 
BRANCH   2   3
ATOM      3  C   UNL A   1      34.138  29.321  26.477  1.00  0.00     0.116 C 
BRANCH   3   4
ATOM      4  N   UNL A   1      33.840  30.679  26.923  1.00  0.00    -0.352 N 
ATOM      5  O   UNL A   1      34.047  32.510  28.236  1.00  0.00    -0.269 OA
ATOM      6  C   UNL A   1      34.502  31.430  27.862  1.00  0.00     0.251 C 
ATOM      7  H   UNL A   1      33.065  31.111  26.495  1.00  0.00     0.163 HD
BRANCH   6   8
ATOM      8  C   UNL A   1      35.735  30.892  28.462  1.00  0.00     0.039 A 
ATOM      9  C   UNL A   1      35.677  29.847  29.388  1.00  0.00     0.014 A 
ATOM     10  C   UNL A   1      36.953  31.485  28.128  1.00  0.00     0.014 A 
ATOM     11  C   UNL A   1      36.821  29.487  30.086  1.00  0.00     0.010 A 
ATOM     12  C   UNL A   1      38.115  31.064  28.771  1.00  0.00     0.010 A 
ATOM     13  C   UNL A   1      38.050  30.085  29.775  1.00  0.00    -0.014 A 
BRANCH  13  14
ATOM     14  C   UNL A   1      39.282  29.644  30.465  1.00  0.00     0.031 A 
ATOM     15  C   UNL A   1      39.767  30.353  31.695  1.00  0.00     0.074 A 
ATOM     16  C   UNL A   1      39.976  28.616  29.943  1.00  0.00     0.049 A 
ATOM     17  N   UNL A   1      40.871  30.165  32.369  1.00  0.00    -0.248 NA
ATOM     18  C   UNL A   1      38.906  31.418  32.233  1.00  0.00     0.031 C 
ATOM     19  C   UNL A   1      39.587  27.857  28.751  1.00  0.00     0.029 A 
ATOM     20  N   UNL A   1      41.152  28.039  30.339  1.00  0.00    -0.354 N 
ATOM     21  C   UNL A   1      40.858  31.108  33.389  1.00  0.00     0.074 A 
ATOM     22  C   UNL A   1      39.640  31.876  33.238  1.00  0.00     0.031 C 
ATOM     23  C   UNL A   1      40.501  26.904  28.521  1.00  0.00     0.029 A 
ATOM     24  C   UNL A   1      41.567  27.027  29.508  1.00  0.00     0.049 A 
ATOM     25  H   UNL A   1      41.650  28.320  31.140  1.00  0.00     0.167 HD
ATOM     26  C   UNL A   1      41.783  31.316  34.357  1.00  0.00     0.031 A 
ATOM     27  C   UNL A   1      42.699  26.299  29.515  1.00  0.00     0.031 A 
ATOM     28  C   UNL A   1      42.991  30.544  34.488  1.00  0.00     0.049 A 
ATOM     29  C   UNL A   1      43.717  26.555  30.583  1.00  0.00     0.074 A 
ATOM     30  C   UNL A   1      43.983  30.652  35.447  1.00  0.00     0.029 A 
ATOM     31  N   UNL A   1      43.372  29.521  33.631  1.00  0.00    -0.354 N 
ATOM     32  N   UNL A   1      43.682  27.440  31.552  1.00  0.00    -0.248 NA
ATOM     33  C   UNL A   1      44.922  25.719  30.567  1.00  0.00     0.031 C 
ATOM     34  C   UNL A   1      44.985  29.723  35.143  1.00  0.00     0.029 A 
ATOM     35  C   UNL A   1      44.592  29.001  34.026  1.00  0.00     0.049 A 
ATOM     36  H   UNL A   1      42.851  29.210  32.856  1.00  0.00     0.167 HD
ATOM     37  C   UNL A   1      44.851  27.255  32.275  1.00  0.00     0.074 A 
ATOM     38  C   UNL A   1      45.570  26.169  31.634  1.00  0.00     0.031 C 
ATOM     39  C   UNL A   1      45.288  27.920  33.372  1.00  0.00     0.031 A 
BRANCH  26  40
ATOM     40  C   UNL A   1      41.540  32.452  35.315  1.00  0.00    -0.014 A 
ATOM     41  C   UNL A   1      42.054  33.739  35.072  1.00  0.00     0.010 A 
ATOM     42  C   UNL A   1      40.784  32.226  36.479  1.00  0.00     0.010 A 
ATOM     43  C   UNL A   1      41.863  34.763  36.004  1.00  0.00     0.020 A 
ATOM     44  C   UNL A   1      40.571  33.254  37.401  1.00  0.00     0.020 A 
ATOM     45  C   UNL A   1      41.134  34.510  37.170  1.00  0.00     0.054 A 
BRANCH  45  46
ATOM     46  S   UNL A   1      40.924  35.846  38.380  1.00  0.00     0.124 S 
ATOM     47  O   UNL A   1      40.038  36.760  37.663  1.00  0.00    -0.237 OA
ATOM     48  O   UNL A   1      40.326  35.158  39.520  1.00  0.00    -0.237 OA
ATOM     49  O   UNL A   1      42.283  36.336  38.594  1.00  0.00    -0.744 OA
ENDBRANCH  45  46
ENDBRANCH  26  40
BRANCH  27  50
ATOM     50  C   UNL A   1      42.900  25.275  28.459  1.00  0.00    -0.014 A 
ATOM     51  C   UNL A   1      43.587  25.596  27.277  1.00  0.00     0.010 A 
ATOM     52  C   UNL A   1      42.499  23.944  28.682  1.00  0.00     0.010 A 
ATOM     53  C   UNL A   1      43.881  24.602  26.341  1.00  0.00     0.020 A 
ATOM     54  C   UNL A   1      42.813  22.943  27.759  1.00  0.00     0.020 A 
ATOM     55  C   UNL A   1      43.501  23.279  26.593  1.00  0.00     0.054 A 
BRANCH  55  56
ATOM     56  S   UNL A   1      43.993  21.987  25.416  1.00  0.00     0.124 S 
ATOM     57  O   UNL A   1      45.438  21.942  25.604  1.00  0.00    -0.237 OA
ATOM     58  O   UNL A   1      43.254  20.823  25.899  1.00  0.00    -0.237 OA
ATOM     59  O   UNL A   1      43.542  22.510  24.129  1.00  0.00    -0.744 OA
ENDBRANCH  55  56
ENDBRANCH  27  50
BRANCH  39  60
ATOM     60  C   UNL A   1      46.588  27.471  33.977  1.00  0.00    -0.014 A 
ATOM     61  C   UNL A   1      47.805  28.069  33.609  1.00  0.00     0.010 A 
ATOM     62  C   UNL A   1      46.575  26.492  34.988  1.00  0.00     0.010 A 
ATOM     63  C   UNL A   1      48.993  27.686  34.236  1.00  0.00     0.020 A 
ATOM     64  C   UNL A   1      47.758  26.123  35.631  1.00  0.00     0.020 A 
ATOM     65  C   UNL A   1      48.961  26.718  35.245  1.00  0.00     0.054 A 
BRANCH  65  66
ATOM     66  S   UNL A   1      50.505  26.291  36.097  1.00  0.00     0.124 S 
ATOM     67  O   UNL A   1      51.503  26.545  35.062  1.00  0.00    -0.237 OA
ATOM     68  O   UNL A   1      50.518  27.220  37.224  1.00  0.00    -0.237 OA
ATOM     69  O   UNL A   1      50.324  24.887  36.458  1.00  0.00    -0.744 OA
ENDBRANCH  65  66
ENDBRANCH  39  60
ENDBRANCH  13  14
ENDBRANCH   6   8
ENDBRANCH   3   4
ENDBRANCH   2   3
ENDBRANCH   1   2
BRANCH   1  70
ATOM     70  C   UNL A   1      31.270  29.127  24.060  1.00  0.00     0.116 C 
BRANCH  70  71
ATOM     71  N   UNL A   1      30.140  28.237  24.158  1.00  0.00    -0.354 N 
ATOM     72  C   UNL A   1      30.093  26.909  23.842  1.00  0.00     0.252 C 
ATOM     73  H   UNL A   1      29.303  28.634  24.491  1.00  0.00     0.163 HD
ATOM     74  O   UNL A   1      28.985  26.369  23.792  1.00  0.00    -0.272 OA
BRANCH  72  75
ATOM     75  C   UNL A   1      31.390  26.103  23.617  1.00  0.00     0.242 C 
ATOM     76  O   UNL A   1      31.459  24.856  24.328  1.00  0.00    -0.324 OA
ATOM     77  C   UNL A   1      31.583  25.836  22.119  1.00  0.00     0.184 C 
ATOM     78  C   UNL A   1      32.769  24.296  24.304  1.00  0.00     0.340 C 
ATOM     79  C   UNL A   1      32.960  25.204  21.899  1.00  0.00     0.181 C 
ATOM     80  C   UNL A   1      33.223  24.036  22.850  1.00  0.00     0.214 C 
BRANCH  77  81
ATOM     81  O   UNL A   1      31.517  27.018  21.320  1.00  0.00    -0.387 OA
ATOM     82  H   UNL A   1      31.622  26.783  20.384  1.00  0.00     0.211 HD
ENDBRANCH  77  81
BRANCH  78  83
ATOM     83  O   UNL A   1      32.949  23.060  25.048  1.00  0.00    -0.454 OA
BRANCH  83  84
ATOM     84  C   UNL A   1      34.231  22.552  25.201  1.00  0.00     0.214 A 
ATOM     85  C   UNL A   1      34.609  21.339  24.743  1.00  0.00     0.181 A 
ATOM     86  C   UNL A   1      35.319  23.485  25.637  1.00  0.00     0.239 A 
ATOM     87  O   UNL A   1      35.881  20.819  24.805  1.00  0.00    -0.452 OA
ATOM     88  C   UNL A   1      36.698  22.923  25.714  1.00  0.00     0.111 A 
ATOM     89  O   UNL A   1      35.049  24.649  25.907  1.00  0.00    -0.285 OA
ATOM     90  C   UNL A   1      36.884  21.599  25.308  1.00  0.00     0.146 A 
ATOM     91  C   UNL A   1      37.801  23.627  26.228  1.00  0.00     0.134 A 
ATOM     92  C   UNL A   1      38.128  20.976  25.422  1.00  0.00     0.094 A 
ATOM     93  C   UNL A   1      39.048  23.007  26.349  1.00  0.00     0.093 A 
ATOM     94  C   UNL A   1      39.189  21.683  25.959  1.00  0.00     0.123 A 
BRANCH  85  95
ATOM     95  C   UNL A   1      33.660  20.407  24.121  1.00  0.00     0.029 A 
ATOM     96  C   UNL A   1      32.857  20.841  23.051  1.00  0.00     0.062 A 
ATOM     97  C   UNL A   1      33.628  19.062  24.521  1.00  0.00     0.062 A 
ATOM     98  C   UNL A   1      32.138  19.906  22.318  1.00  0.00     0.162 A 
ATOM     99  C   UNL A   1      32.886  18.149  23.786  1.00  0.00     0.162 A 
ATOM    100  C   UNL A   1      32.176  18.562  22.666  1.00  0.00     0.200 A 
BRANCH  98 101
ATOM    101  O   UNL A   1      31.448  20.324  21.218  1.00  0.00    -0.504 OA
ATOM    102  H   UNL A   1      31.900  20.475  20.412  1.00  0.00     0.293 HD
ENDBRANCH  98 101
BRANCH  99 103
ATOM    103  O   UNL A   1      32.935  16.830  24.129  1.00  0.00    -0.504 OA
ATOM    104  H   UNL A   1      33.500  16.546  24.820  1.00  0.00     0.293 HD
ENDBRANCH  99 103
BRANCH 100 105
ATOM    105  O   UNL A   1      31.596  17.618  21.863  1.00  0.00    -0.502 OA
ATOM    106  H   UNL A   1      31.966  16.759  21.808  1.00  0.00     0.293 HD
ENDBRANCH 100 105
ENDBRANCH  85  95
BRANCH  91 107
ATOM    107  O   UNL A   1      37.671  24.915  26.659  1.00  0.00    -0.507 OA
ATOM    108  H   UNL A   1      36.838  25.230  26.949  1.00  0.00     0.293 HD
ENDBRANCH  91 107
BRANCH  94 109
ATOM    109  O   UNL A   1      40.373  21.043  26.171  1.00  0.00    -0.508 OA
ATOM    110  H   UNL A   1      41.178  21.450  25.915  1.00  0.00     0.293 HD
ENDBRANCH  94 109
ENDBRANCH  83  84
ENDBRANCH  78  83
BRANCH  79 111
ATOM    111  O   UNL A   1      33.033  24.777  20.518  1.00  0.00    -0.387 OA
ATOM    112  H   UNL A   1      32.603  25.437  19.952  1.00  0.00     0.211 HD
ENDBRANCH  79 111
BRANCH  80 113
ATOM    113  O   UNL A   1      34.610  23.676  22.785  1.00  0.00    -0.384 OA
ATOM    114  H   UNL A   1      35.139  24.463  22.578  1.00  0.00     0.211 HD
ENDBRANCH  80 113
ENDBRANCH  72  75
ENDBRANCH  70  71
ENDBRANCH   1  70
TORSDOF 25
ENDMDL
MODEL 2
REMARK VINA RESULT:     -11.8      5.991      8.823
REMARK SMILES O=C(NCCCCNC(=O)[C@H]1O[C@@H](Oc2c(-c3cc(O)c(O)c(O)c3)oc3cc(O)cc(O)c3c2=O)[C@H](O)[C@@H](O)[C@@H]1O)c1ccc(-c2c3nc(c(-c4ccc(S(=O)(=O)[O-])cc4)c4ccc([nH]4)c(-c4ccc(S(=O)(=O)[O-])cc4)c4nc(c(-c5ccc(S(=O)(=O)[O-])cc5)c5ccc2[nH]5)C=C4)C=C3)cc1
REMARK SMILES IDX 6 1 5 2 4 3 3 4 1 5 2 6 43 8 44 9 102 10 45 11 101 12 46 13
REMARK SMILES IDX 47 14 48 15 95 16 49 17 100 18 94 19 96 20 50 21 99 22 93 23
REMARK SMILES IDX 92 24 51 26 81 27 62 28 80 29 63 30 66 31 79 32 97 33 64 34
REMARK SMILES IDX 65 35 78 37 98 38 67 39 52 40 53 41 61 42 54 43 60 44 55 45
REMARK SMILES IDX 56 46 57 47 58 48 59 49 82 50 83 51 91 52 84 53 90 54 85 55
REMARK SMILES IDX 86 56 87 57 88 58 89 59 68 60 69 61 77 62 70 63 76 64 71 65
REMARK SMILES IDX 72 66 73 67 74 68 75 69 7 70 8 71 9 72 10 74 11 75 12 76
REMARK SMILES IDX 41 77 13 78 39 79 37 80 42 81 14 83 15 84 16 85 35 86 26 87
REMARK SMILES IDX 34 88 36 89 27 90 32 91 28 92 31 93 29 94 17 95 18 96 25 97
REMARK SMILES IDX 19 98 23 99 21 100 20 101 24 103 22 105 33 107 30 109 40 111
REMARK SMILES IDX 38 113
REMARK H PARENT 3 7 96 25 66 36 8 73 42 82 20 102 24 104 22 106 33 108 30 110
REMARK H PARENT 40 112 38 114
REMARK Flexibility Score: inf
ROOT
ATOM      1  C   UNL A   1      42.049  34.726  29.233  1.00  0.00     0.023 C 
ENDROOT
BRANCH   1   2
ATOM      2  C   UNL A   1      41.892  35.493  27.927  1.00  0.00     0.023 C 
BRANCH   2   3
ATOM      3  C   UNL A   1      43.180  36.105  27.404  1.00  0.00     0.116 C 
BRANCH   3   4
ATOM      4  N   UNL A   1      43.458  35.761  26.013  1.00  0.00    -0.352 N 
ATOM      5  O   UNL A   1      44.340  34.534  24.329  1.00  0.00    -0.269 OA
ATOM      6  C   UNL A   1      44.041  34.621  25.519  1.00  0.00     0.251 C 
ATOM      7  H   UNL A   1      43.192  36.433  25.343  1.00  0.00     0.163 HD
BRANCH   6   8
ATOM      8  C   UNL A   1      44.362  33.526  26.450  1.00  0.00     0.039 A 
ATOM      9  C   UNL A   1      43.792  32.260  26.283  1.00  0.00     0.014 A 
ATOM     10  C   UNL A   1      45.202  33.794  27.532  1.00  0.00     0.014 A 
ATOM     11  C   UNL A   1      43.949  31.302  27.275  1.00  0.00     0.010 A 
ATOM     12  C   UNL A   1      45.425  32.802  28.484  1.00  0.00     0.010 A 
ATOM     13  C   UNL A   1      44.775  31.562  28.376  1.00  0.00    -0.014 A 
BRANCH  13  14
ATOM     14  C   UNL A   1      45.005  30.511  29.392  1.00  0.00     0.031 A 
ATOM     15  C   UNL A   1      44.133  30.420  30.610  1.00  0.00     0.074 A 
ATOM     16  C   UNL A   1      46.033  29.663  29.215  1.00  0.00     0.049 A 
ATOM     17  N   UNL A   1      44.249  29.630  31.645  1.00  0.00    -0.248 NA
ATOM     18  C   UNL A   1      42.991  31.345  30.683  1.00  0.00     0.031 C 
ATOM     19  C   UNL A   1      46.938  29.665  28.062  1.00  0.00     0.029 A 
ATOM     20  N   UNL A   1      46.497  28.643  30.002  1.00  0.00    -0.354 N 
ATOM     21  C   UNL A   1      43.219  29.981  32.508  1.00  0.00     0.074 A 
ATOM     22  C   UNL A   1      42.494  31.066  31.881  1.00  0.00     0.031 C 
ATOM     23  C   UNL A   1      47.839  28.683  28.209  1.00  0.00     0.029 A 
ATOM     24  C   UNL A   1      47.614  28.029  29.493  1.00  0.00     0.049 A 
ATOM     25  H   UNL A   1      46.071  28.377  30.849  1.00  0.00     0.167 HD
ATOM     26  C   UNL A   1      42.913  29.449  33.716  1.00  0.00     0.031 A 
ATOM     27  C   UNL A   1      48.397  27.067  30.015  1.00  0.00     0.031 A 
ATOM     28  C   UNL A   1      43.648  28.372  34.325  1.00  0.00     0.049 A 
ATOM     29  C   UNL A   1      48.052  26.504  31.359  1.00  0.00     0.074 A 
ATOM     30  C   UNL A   1      43.410  27.739  35.533  1.00  0.00     0.029 A 
ATOM     31  N   UNL A   1      44.771  27.770  33.774  1.00  0.00    -0.354 N 
ATOM     32  N   UNL A   1      47.063  26.834  32.156  1.00  0.00    -0.248 NA
ATOM     33  C   UNL A   1      48.919  25.438  31.875  1.00  0.00     0.031 C 
ATOM     34  C   UNL A   1      44.413  26.784  35.730  1.00  0.00     0.029 A 
ATOM     35  C   UNL A   1      45.247  26.787  34.622  1.00  0.00     0.049 A 
ATOM     36  H   UNL A   1      45.170  28.007  32.906  1.00  0.00     0.167 HD
ATOM     37  C   UNL A   1      47.175  26.004  33.262  1.00  0.00     0.074 A 
ATOM     38  C   UNL A   1      48.326  25.151  33.028  1.00  0.00     0.031 C 
ATOM     39  C   UNL A   1      46.394  25.949  34.368  1.00  0.00     0.031 A 
BRANCH  26  40
ATOM     40  C   UNL A   1      41.762  30.060  34.471  1.00  0.00    -0.014 A 
ATOM     41  C   UNL A   1      41.974  30.998  35.498  1.00  0.00     0.010 A 
ATOM     42  C   UNL A   1      40.446  29.688  34.145  1.00  0.00     0.010 A 
ATOM     43  C   UNL A   1      40.893  31.508  36.222  1.00  0.00     0.020 A 
ATOM     44  C   UNL A   1      39.361  30.215  34.851  1.00  0.00     0.020 A 
ATOM     45  C   UNL A   1      39.593  31.103  35.903  1.00  0.00     0.054 A 
BRANCH  45  46
ATOM     46  S   UNL A   1      38.207  31.756  36.875  1.00  0.00     0.124 S 
ATOM     47  O   UNL A   1      38.901  32.545  37.889  1.00  0.00    -0.237 OA
ATOM     48  O   UNL A   1      37.454  32.524  35.888  1.00  0.00    -0.237 OA
ATOM     49  O   UNL A   1      37.537  30.556  37.370  1.00  0.00    -0.744 OA
ENDBRANCH  45  46
ENDBRANCH  26  40
BRANCH  27  50
ATOM     50  C   UNL A   1      49.579  26.607  29.243  1.00  0.00    -0.014 A 
ATOM     51  C   UNL A   1      49.446  25.610  28.264  1.00  0.00     0.010 A 
ATOM     52  C   UNL A   1      50.823  27.245  29.411  1.00  0.00     0.010 A 
ATOM     53  C   UNL A   1      50.533  25.265  27.457  1.00  0.00     0.020 A 
ATOM     54  C   UNL A   1      51.906  26.920  28.589  1.00  0.00     0.020 A 
ATOM     55  C   UNL A   1      51.754  25.930  27.618  1.00  0.00     0.054 A 
BRANCH  55  56
ATOM     56  S   UNL A   1      53.118  25.546  26.484  1.00  0.00     0.124 S 
ATOM     57  O   UNL A   1      53.160  26.739  25.646  1.00  0.00    -0.237 OA
ATOM     58  O   UNL A   1      54.246  25.370  27.395  1.00  0.00    -0.237 OA
ATOM     59  O   UNL A   1      52.672  24.325  25.816  1.00  0.00    -0.744 OA
ENDBRANCH  55  56
ENDBRANCH  27  50
BRANCH  39  60
ATOM     60  C   UNL A   1      46.731  24.909  35.397  1.00  0.00    -0.014 A 
ATOM     61  C   UNL A   1      47.518  25.225  36.519  1.00  0.00     0.010 A 
ATOM     62  C   UNL A   1      46.181  23.619  35.279  1.00  0.00     0.010 A 
ATOM     63  C   UNL A   1      47.759  24.261  37.500  1.00  0.00     0.020 A 
ATOM     64  C   UNL A   1      46.404  22.661  36.269  1.00  0.00     0.020 A 
ATOM     65  C   UNL A   1      47.198  22.986  37.371  1.00  0.00     0.054 A 
BRANCH  65  66
ATOM     66  S   UNL A   1      47.462  21.775  38.695  1.00  0.00     0.124 S 
ATOM     67  O   UNL A   1      46.124  21.215  38.866  1.00  0.00    -0.237 OA
ATOM     68  O   UNL A   1      48.451  20.872  38.112  1.00  0.00    -0.237 OA
ATOM     69  O   UNL A   1      47.948  22.583  39.811  1.00  0.00    -0.744 OA
ENDBRANCH  65  66
ENDBRANCH  39  60
ENDBRANCH  13  14
ENDBRANCH   6   8
ENDBRANCH   3   4
ENDBRANCH   2   3
ENDBRANCH   1   2
BRANCH   1  70
ATOM     70  C   UNL A   1      40.752  34.453  29.985  1.00  0.00     0.116 C 
BRANCH  70  71
ATOM     71  N   UNL A   1      40.997  34.261  31.393  1.00  0.00    -0.354 N 
ATOM     72  C   UNL A   1      40.154  33.720  32.321  1.00  0.00     0.252 C 
ATOM     73  H   UNL A   1      41.876  34.556  31.724  1.00  0.00     0.163 HD
ATOM     74  O   UNL A   1      40.459  33.834  33.511  1.00  0.00    -0.272 OA
BRANCH  72  75
ATOM     75  C   UNL A   1      38.894  32.940  31.887  1.00  0.00     0.242 C 
ATOM     76  O   UNL A   1      39.119  31.556  31.571  1.00  0.00    -0.324 OA
ATOM     77  C   UNL A   1      37.820  33.035  32.977  1.00  0.00     0.184 C 
ATOM     78  C   UNL A   1      37.997  30.965  30.920  1.00  0.00     0.340 C 
ATOM     79  C   UNL A   1      36.521  32.420  32.452  1.00  0.00     0.181 C 
ATOM     80  C   UNL A   1      36.742  31.046  31.818  1.00  0.00     0.214 C 
BRANCH  77  81
ATOM     81  O   UNL A   1      37.534  34.378  33.373  1.00  0.00    -0.387 OA
ATOM     82  H   UNL A   1      36.618  34.435  33.686  1.00  0.00     0.211 HD
ENDBRANCH  77  81
BRANCH  78  83
ATOM     83  O   UNL A   1      38.153  29.579  30.509  1.00  0.00    -0.454 OA
BRANCH  83  84
ATOM     84  C   UNL A   1      38.870  29.300  29.355  1.00  0.00     0.214 A 
ATOM     85  C   UNL A   1      38.469  29.677  28.122  1.00  0.00     0.181 A 
ATOM     86  C   UNL A   1      40.280  28.811  29.493  1.00  0.00     0.239 A 
ATOM     87  O   UNL A   1      39.175  29.489  26.956  1.00  0.00    -0.452 OA
ATOM     88  C   UNL A   1      41.046  28.598  28.232  1.00  0.00     0.111 A 
ATOM     89  O   UNL A   1      40.747  28.610  30.608  1.00  0.00    -0.285 OA
ATOM     90  C   UNL A   1      40.423  28.934  27.028  1.00  0.00     0.146 A 
ATOM     91  C   UNL A   1      42.327  28.021  28.184  1.00  0.00     0.134 A 
ATOM     92  C   UNL A   1      41.042  28.692  25.800  1.00  0.00     0.094 A 
ATOM     93  C   UNL A   1      42.951  27.772  26.958  1.00  0.00     0.093 A 
ATOM     94  C   UNL A   1      42.291  28.097  25.782  1.00  0.00     0.123 A 
BRANCH  85  95
ATOM     95  C   UNL A   1      37.180  30.339  27.887  1.00  0.00     0.029 A 
ATOM     96  C   UNL A   1      36.013  29.566  27.758  1.00  0.00     0.062 A 
ATOM     97  C   UNL A   1      37.096  31.740  27.893  1.00  0.00     0.062 A 
ATOM     98  C   UNL A   1      34.775  30.196  27.770  1.00  0.00     0.162 A 
ATOM     99  C   UNL A   1      35.850  32.349  27.883  1.00  0.00     0.162 A 
ATOM    100  C   UNL A   1      34.693  31.579  27.862  1.00  0.00     0.200 A 
BRANCH  98 101
ATOM    101  O   UNL A   1      33.647  29.429  27.752  1.00  0.00    -0.504 OA
ATOM    102  H   UNL A   1      33.704  28.509  27.922  1.00  0.00     0.293 HD
ENDBRANCH  98 101
BRANCH  99 103
ATOM    103  O   UNL A   1      35.777  33.707  27.981  1.00  0.00    -0.504 OA
ATOM    104  H   UNL A   1      35.937  34.241  27.228  1.00  0.00     0.293 HD
ENDBRANCH  99 103
BRANCH 100 105
ATOM    105  O   UNL A   1      33.483  32.196  28.026  1.00  0.00    -0.502 OA
ATOM    106  H   UNL A   1      33.392  33.108  27.829  1.00  0.00     0.293 HD
ENDBRANCH 100 105
ENDBRANCH  85  95
BRANCH  91 107
ATOM    107  O   UNL A   1      42.973  27.653  29.329  1.00  0.00    -0.507 OA
ATOM    108  H   UNL A   1      43.811  28.020  29.533  1.00  0.00     0.293 HD
ENDBRANCH  91 107
BRANCH  94 109
ATOM    109  O   UNL A   1      42.848  27.762  24.585  1.00  0.00    -0.508 OA
ATOM    110  H   UNL A   1      43.373  28.386  24.121  1.00  0.00     0.293 HD
ENDBRANCH  94 109
ENDBRANCH  83  84
ENDBRANCH  78  83
BRANCH  79 111
ATOM    111  O   UNL A   1      35.594  32.337  33.561  1.00  0.00    -0.387 OA
ATOM    112  H   UNL A   1      35.291  33.228  33.796  1.00  0.00     0.211 HD
ENDBRANCH  79 111
BRANCH  80 113
ATOM    113  O   UNL A   1      35.558  30.657  31.109  1.00  0.00    -0.384 OA
ATOM    114  H   UNL A   1      35.115  29.939  31.589  1.00  0.00     0.211 HD
ENDBRANCH  80 113
ENDBRANCH  72  75
ENDBRANCH  70  71
ENDBRANCH   1  70
TORSDOF 25
ENDMDL
MODEL 3
REMARK VINA RESULT:     -11.7      4.817      8.529
REMARK SMILES O=C(NCCCCNC(=O)[C@H]1O[C@@H](Oc2c(-c3cc(O)c(O)c(O)c3)oc3cc(O)cc(O)c3c2=O)[C@H](O)[C@@H](O)[C@@H]1O)c1ccc(-c2c3nc(c(-c4ccc(S(=O)(=O)[O-])cc4)c4ccc([nH]4)c(-c4ccc(S(=O)(=O)[O-])cc4)c4nc(c(-c5ccc(S(=O)(=O)[O-])cc5)c5ccc2[nH]5)C=C4)C=C3)cc1
REMARK SMILES IDX 6 1 5 2 4 3 3 4 1 5 2 6 43 8 44 9 102 10 45 11 101 12 46 13
REMARK SMILES IDX 47 14 48 15 95 16 49 17 100 18 94 19 96 20 50 21 99 22 93 23
REMARK SMILES IDX 92 24 51 26 81 27 62 28 80 29 63 30 66 31 79 32 97 33 64 34
REMARK SMILES IDX 65 35 78 37 98 38 67 39 52 40 53 41 61 42 54 43 60 44 55 45
REMARK SMILES IDX 56 46 57 47 58 48 59 49 82 50 83 51 91 52 84 53 90 54 85 55
REMARK SMILES IDX 86 56 87 57 88 58 89 59 68 60 69 61 77 62 70 63 76 64 71 65
REMARK SMILES IDX 72 66 73 67 74 68 75 69 7 70 8 71 9 72 10 74 11 75 12 76
REMARK SMILES IDX 41 77 13 78 39 79 37 80 42 81 14 83 15 84 16 85 35 86 26 87
REMARK SMILES IDX 34 88 36 89 27 90 32 91 28 92 31 93 29 94 17 95 18 96 25 97
REMARK SMILES IDX 19 98 23 99 21 100 20 101 24 103 22 105 33 107 30 109 40 111
REMARK SMILES IDX 38 113
REMARK H PARENT 3 7 96 25 66 36 8 73 42 82 20 102 24 104 22 106 33 108 30 110
REMARK H PARENT 40 112 38 114
REMARK Flexibility Score: inf
ROOT
ATOM      1  C   UNL A   1      36.371  20.982  25.701  1.00  0.00     0.023 C 
ENDROOT
BRANCH   1   2
ATOM      2  C   UNL A   1      37.681  21.327  25.005  1.00  0.00     0.023 C 
BRANCH   2   3
ATOM      3  C   UNL A   1      38.877  21.417  25.937  1.00  0.00     0.116 C 
BRANCH   3   4
ATOM      4  N   UNL A   1      39.715  20.221  25.917  1.00  0.00    -0.352 N 
ATOM      5  O   UNL A   1      41.662  19.069  25.917  1.00  0.00    -0.269 OA
ATOM      6  C   UNL A   1      41.072  20.131  26.106  1.00  0.00     0.251 C 
ATOM      7  H   UNL A   1      39.247  19.372  25.746  1.00  0.00     0.163 HD
BRANCH   6   8
ATOM      8  C   UNL A   1      41.820  21.344  26.476  1.00  0.00     0.039 A 
ATOM      9  C   UNL A   1      42.141  21.601  27.812  1.00  0.00     0.014 A 
ATOM     10  C   UNL A   1      42.153  22.255  25.473  1.00  0.00     0.014 A 
ATOM     11  C   UNL A   1      42.670  22.835  28.164  1.00  0.00     0.010 A 
ATOM     12  C   UNL A   1      42.761  23.460  25.821  1.00  0.00     0.010 A 
ATOM     13  C   UNL A   1      42.993  23.769  27.170  1.00  0.00    -0.014 A 
BRANCH  13  14
ATOM     14  C   UNL A   1      43.630  25.052  27.540  1.00  0.00     0.031 A 
ATOM     15  C   UNL A   1      42.820  26.165  28.136  1.00  0.00     0.074 A 
ATOM     16  C   UNL A   1      44.944  25.209  27.297  1.00  0.00     0.049 A 
ATOM     17  N   UNL A   1      43.191  27.384  28.429  1.00  0.00    -0.248 NA
ATOM     18  C   UNL A   1      41.408  25.877  28.432  1.00  0.00     0.031 C 
ATOM     19  C   UNL A   1      45.823  24.185  26.723  1.00  0.00     0.029 A 
ATOM     20  N   UNL A   1      45.767  26.285  27.492  1.00  0.00    -0.354 N 
ATOM     21  C   UNL A   1      42.054  28.020  28.910  1.00  0.00     0.074 A 
ATOM     22  C   UNL A   1      40.976  27.056  28.859  1.00  0.00     0.031 C 
ATOM     23  C   UNL A   1      47.065  24.678  26.627  1.00  0.00     0.029 A 
ATOM     24  C   UNL A   1      47.055  26.067  27.070  1.00  0.00     0.049 A 
ATOM     25  H   UNL A   1      45.465  27.131  27.895  1.00  0.00     0.167 HD
ATOM     26  C   UNL A   1      41.924  29.296  29.348  1.00  0.00     0.031 A 
ATOM     27  C   UNL A   1      48.109  26.902  27.011  1.00  0.00     0.031 A 
ATOM     28  C   UNL A   1      43.008  30.243  29.389  1.00  0.00     0.049 A 
ATOM     29  C   UNL A   1      47.940  28.313  27.484  1.00  0.00     0.074 A 
ATOM     30  C   UNL A   1      42.993  31.552  29.838  1.00  0.00     0.029 A 
ATOM     31  N   UNL A   1      44.302  29.981  28.959  1.00  0.00    -0.354 N 
ATOM     32  N   UNL A   1      46.862  28.896  27.953  1.00  0.00    -0.248 NA
ATOM     33  C   UNL A   1      49.123  29.179  27.426  1.00  0.00     0.031 C 
ATOM     34  C   UNL A   1      44.268  32.094  29.640  1.00  0.00     0.029 A 
ATOM     35  C   UNL A   1      45.090  31.108  29.115  1.00  0.00     0.049 A 
ATOM     36  H   UNL A   1      44.614  29.121  28.597  1.00  0.00     0.167 HD
ATOM     37  C   UNL A   1      47.240  30.194  28.266  1.00  0.00     0.074 A 
ATOM     38  C   UNL A   1      48.649  30.308  27.937  1.00  0.00     0.031 C 
ATOM     39  C   UNL A   1      46.491  31.198  28.782  1.00  0.00     0.031 A 
BRANCH  26  40
ATOM     40  C   UNL A   1      40.551  29.747  29.771  1.00  0.00    -0.014 A 
ATOM     41  C   UNL A   1      39.573  30.106  28.826  1.00  0.00     0.010 A 
ATOM     42  C   UNL A   1      40.235  29.812  31.140  1.00  0.00     0.010 A 
ATOM     43  C   UNL A   1      38.325  30.576  29.244  1.00  0.00     0.020 A 
ATOM     44  C   UNL A   1      38.980  30.259  31.562  1.00  0.00     0.020 A 
ATOM     45  C   UNL A   1      38.040  30.662  30.610  1.00  0.00     0.054 A 
BRANCH  45  46
ATOM     46  S   UNL A   1      36.424  31.301  31.131  1.00  0.00     0.124 S 
ATOM     47  O   UNL A   1      35.685  31.305  29.871  1.00  0.00    -0.237 OA
ATOM     48  O   UNL A   1      35.987  30.313  32.113  1.00  0.00    -0.237 OA
ATOM     49  O   UNL A   1      36.734  32.620  31.676  1.00  0.00    -0.744 OA
ENDBRANCH  45  46
ENDBRANCH  26  40
BRANCH  27  50
ATOM     50  C   UNL A   1      49.396  26.396  26.471  1.00  0.00    -0.014 A 
ATOM     51  C   UNL A   1      49.797  26.719  25.165  1.00  0.00     0.010 A 
ATOM     52  C   UNL A   1      50.277  25.680  27.304  1.00  0.00     0.010 A 
ATOM     53  C   UNL A   1      51.061  26.344  24.703  1.00  0.00     0.020 A 
ATOM     54  C   UNL A   1      51.551  25.326  26.854  1.00  0.00     0.020 A 
ATOM     55  C   UNL A   1      51.934  25.659  25.554  1.00  0.00     0.054 A 
BRANCH  55  56
ATOM     56  S   UNL A   1      53.612  25.282  24.971  1.00  0.00     0.124 S 
ATOM     57  O   UNL A   1      53.527  25.636  23.558  1.00  0.00    -0.237 OA
ATOM     58  O   UNL A   1      54.438  26.161  25.795  1.00  0.00    -0.237 OA
ATOM     59  O   UNL A   1      53.759  23.857  25.254  1.00  0.00    -0.744 OA
ENDBRANCH  55  56
ENDBRANCH  27  50
BRANCH  39  60
ATOM     60  C   UNL A   1      47.184  32.501  29.062  1.00  0.00    -0.014 A 
ATOM     61  C   UNL A   1      47.216  33.527  28.101  1.00  0.00     0.010 A 
ATOM     62  C   UNL A   1      47.738  32.727  30.335  1.00  0.00     0.010 A 
ATOM     63  C   UNL A   1      47.804  34.756  28.408  1.00  0.00     0.020 A 
ATOM     64  C   UNL A   1      48.306  33.962  30.650  1.00  0.00     0.020 A 
ATOM     65  C   UNL A   1      48.342  34.967  29.682  1.00  0.00     0.054 A 
BRANCH  65  66
ATOM     66  S   UNL A   1      49.031  36.597  30.082  1.00  0.00     0.124 S 
ATOM     67  O   UNL A   1      47.828  37.376  30.360  1.00  0.00    -0.237 OA
ATOM     68  O   UNL A   1      49.877  36.313  31.238  1.00  0.00    -0.237 OA
ATOM     69  O   UNL A   1      49.753  36.975  28.869  1.00  0.00    -0.744 OA
ENDBRANCH  65  66
ENDBRANCH  39  60
ENDBRANCH  13  14
ENDBRANCH   6   8
ENDBRANCH   3   4
ENDBRANCH   2   3
ENDBRANCH   1   2
BRANCH   1  70
ATOM     70  C   UNL A   1      35.175  21.831  25.287  1.00  0.00     0.116 C 
BRANCH  70  71
ATOM     71  N   UNL A   1      34.336  21.126  24.349  1.00  0.00    -0.354 N 
ATOM     72  C   UNL A   1      32.987  21.249  24.179  1.00  0.00     0.252 C 
ATOM     73  H   UNL A   1      34.791  20.480  23.763  1.00  0.00     0.163 HD
ATOM     74  O   UNL A   1      32.417  20.410  23.476  1.00  0.00    -0.272 OA
BRANCH  72  75
ATOM     75  C   UNL A   1      32.216  22.433  24.801  1.00  0.00     0.242 C 
ATOM     76  O   UNL A   1      31.173  22.976  23.974  1.00  0.00    -0.324 OA
ATOM     77  C   UNL A   1      31.617  22.015  26.150  1.00  0.00     0.184 C 
ATOM     78  C   UNL A   1      30.687  24.221  24.469  1.00  0.00     0.340 C 
ATOM     79  C   UNL A   1      31.020  23.248  26.833  1.00  0.00     0.181 C 
ATOM     80  C   UNL A   1      30.119  24.054  25.897  1.00  0.00     0.214 C 
BRANCH  77  81
ATOM     81  O   UNL A   1      32.577  21.447  27.042  1.00  0.00    -0.387 OA
ATOM     82  H   UNL A   1      32.767  20.534  26.774  1.00  0.00     0.211 HD
ENDBRANCH  77  81
BRANCH  78  83
ATOM     83  O   UNL A   1      29.669  24.876  23.666  1.00  0.00    -0.454 OA
BRANCH  83  84
ATOM     84  C   UNL A   1      29.795  26.231  23.399  1.00  0.00     0.214 A 
ATOM     85  C   UNL A   1      30.918  26.787  22.897  1.00  0.00     0.181 A 
ATOM     86  C   UNL A   1      28.557  27.075  23.398  1.00  0.00     0.239 A 
ATOM     87  O   UNL A   1      31.072  28.109  22.548  1.00  0.00    -0.452 OA
ATOM     88  C   UNL A   1      28.720  28.510  23.029  1.00  0.00     0.111 A 
ATOM     89  O   UNL A   1      27.479  26.572  23.690  1.00  0.00    -0.285 OA
ATOM     90  C   UNL A   1      29.993  28.943  22.645  1.00  0.00     0.146 A 
ATOM     91  C   UNL A   1      27.687  29.459  23.107  1.00  0.00     0.134 A 
ATOM     92  C   UNL A   1      30.245  30.286  22.360  1.00  0.00     0.094 A 
ATOM     93  C   UNL A   1      27.933  30.807  22.827  1.00  0.00     0.093 A 
ATOM     94  C   UNL A   1      29.215  31.203  22.474  1.00  0.00     0.123 A 
BRANCH  85  95
ATOM     95  C   UNL A   1      32.145  26.012  22.675  1.00  0.00     0.029 A 
ATOM     96  C   UNL A   1      33.143  25.990  23.665  1.00  0.00     0.062 A 
ATOM     97  C   UNL A   1      32.277  25.213  21.529  1.00  0.00     0.062 A 
ATOM     98  C   UNL A   1      34.187  25.080  23.558  1.00  0.00     0.162 A 
ATOM     99  C   UNL A   1      33.339  24.326  21.434  1.00  0.00     0.162 A 
ATOM    100  C   UNL A   1      34.268  24.231  22.463  1.00  0.00     0.200 A 
BRANCH  98 101
ATOM    101  O   UNL A   1      35.091  24.995  24.576  1.00  0.00    -0.504 OA
ATOM    102  H   UNL A   1      34.845  24.597  25.388  1.00  0.00     0.293 HD
ENDBRANCH  98 101
BRANCH  99 103
ATOM    103  O   UNL A   1      33.407  23.490  20.358  1.00  0.00    -0.504 OA
ATOM    104  H   UNL A   1      33.669  22.597  20.474  1.00  0.00     0.293 HD
ENDBRANCH  99 103
BRANCH 100 105
ATOM    105  O   UNL A   1      35.202  23.232  22.422  1.00  0.00    -0.502 OA
ATOM    106  H   UNL A   1      35.605  23.001  21.608  1.00  0.00     0.293 HD
ENDBRANCH 100 105
ENDBRANCH  85  95
BRANCH  91 107
ATOM    107  O   UNL A   1      26.430  29.096  23.497  1.00  0.00    -0.507 OA
ATOM    108  H   UNL A   1      25.853  28.678  22.889  1.00  0.00     0.293 HD
ENDBRANCH  91 107
BRANCH  94 109
ATOM    109  O   UNL A   1      29.485  32.527  22.301  1.00  0.00    -0.508 OA
ATOM    110  H   UNL A   1      29.908  33.012  22.982  1.00  0.00     0.293 HD
ENDBRANCH  94 109
ENDBRANCH  83  84
ENDBRANCH  78  83
BRANCH  79 111
ATOM    111  O   UNL A   1      30.289  22.795  27.997  1.00  0.00    -0.387 OA
ATOM    112  H   UNL A   1      29.528  23.378  28.148  1.00  0.00     0.211 HD
ENDBRANCH  79 111
BRANCH  80 113
ATOM    113  O   UNL A   1      29.824  25.321  26.500  1.00  0.00    -0.384 OA
ATOM    114  H   UNL A   1      30.495  25.970  26.235  1.00  0.00     0.211 HD
ENDBRANCH  80 113
ENDBRANCH  72  75
ENDBRANCH  70  71
ENDBRANCH   1  70
TORSDOF 25
ENDMDL
