MODEL 1
REMARK VINA RESULT:     -12.0      0.000      0.000
REMARK SMILES CCc1ccc(-c2cc(Cl)cc3c2O[C@H](C(F)(F)F)C(C(=O)NCCCCNC(=O)c2ccc(-c4c5nc(c(-c6ccc(S(=O)(=O)[O-])cc6)c6ccc([nH]6)c(-c6ccc(S(=O)(=O)[O-])cc6)c6nc(c(-c7ccc(S(=O)(=O)[O-])cc7)c7ccc4[nH]7)C=C6)C=C5)cc2)=C3)cc1
REMARK SMILES IDX 26 1 25 2 24 3 23 4 21 5 22 6 20 8 7 9 8 10 13 11 9 12 12 13
REMARK SMILES IDX 14 14 10 15 11 16 91 17 15 18 6 19 3 20 4 21 93 22 5 23
REMARK SMILES IDX 92 24 2 25 1 26 16 27 17 28 18 29 19 30 27 31 28 32 29 33
REMARK SMILES IDX 30 35 31 36 32 37 90 38 33 39 89 40 34 41 35 42 36 43 83 44
REMARK SMILES IDX 37 45 88 46 82 47 84 48 38 49 87 50 81 51 80 52 39 54 69 55
REMARK SMILES IDX 50 56 68 57 51 58 54 59 67 60 85 61 52 62 53 63 66 65 86 66
REMARK SMILES IDX 55 67 40 68 41 69 49 70 42 71 48 72 43 73 44 74 45 75 46 76
REMARK SMILES IDX 47 77 70 78 71 79 79 80 72 81 78 82 73 83 74 84 75 85 76 86
REMARK SMILES IDX 77 87 56 88 57 89 65 90 58 91 64 92 59 93 60 94 61 95 62 96
REMARK SMILES IDX 63 97
REMARK H PARENT 23 7 28 34 84 53 54 64
REMARK Flexibility Score: inf
ROOT
ATOM      1  C   UNL A   1      38.206  19.803  24.981  1.00  0.00     0.023 C 
ENDROOT
BRANCH   1   2
ATOM      2  C   UNL A   1      37.090  20.796  24.627  1.00  0.00     0.023 C 
BRANCH   2   3
ATOM      3  C   UNL A   1      36.634  21.706  25.776  1.00  0.00     0.116 C 
BRANCH   3   4
ATOM      4  N   UNL A   1      36.398  23.044  25.274  1.00  0.00    -0.352 N 
ATOM      5  C   UNL A   1      35.343  23.503  24.564  1.00  0.00     0.251 C 
ATOM      6  O   UNL A   1      35.537  24.364  23.711  1.00  0.00    -0.270 OA
ATOM      7  H   UNL A   1      37.099  23.704  25.475  1.00  0.00     0.163 HD
BRANCH   5   8
ATOM      8  C   UNL A   1      33.976  23.021  24.930  1.00  0.00     0.067 C 
ATOM      9  C   UNL A   1      31.913  26.410  24.042  1.00  0.00     0.026 A 
ATOM     10  C   UNL A   1      32.666  27.492  24.571  1.00  0.00     0.033 A 
ATOM     11  C   UNL A   1      32.277  25.127  24.480  1.00  0.00     0.135 A 
ATOM     12  C   UNL A   1      33.576  27.331  25.613  1.00  0.00     0.042 A 
ATOM     13  C   UNL A   1      33.116  24.995  25.614  1.00  0.00     0.019 A 
ATOM     14  O   UNL A   1      31.904  23.964  23.819  1.00  0.00    -0.475 OA
ATOM     15  Cl  UNL A   1      34.453  28.688  26.195  1.00  0.00    -0.084 Cl
ATOM     16  C   UNL A   1      33.746  26.091  26.197  1.00  0.00     0.032 A 
ATOM     17  C   UNL A   1      33.493  23.626  26.035  1.00  0.00     0.025 C 
ATOM     18  C   UNL A   1      33.001  22.948  23.759  1.00  0.00     0.314 C 
BRANCH   9  19
ATOM     19  C   UNL A   1      30.673  26.819  23.326  1.00  0.00    -0.015 A 
ATOM     20  C   UNL A   1      28.339  28.434  23.063  1.00  0.00    -0.048 A 
ATOM     21  C   UNL A   1      29.520  28.772  22.393  1.00  0.00     0.004 A 
ATOM     22  C   UNL A   1      28.293  27.205  23.734  1.00  0.00     0.004 A 
ATOM     23  C   UNL A   1      30.663  27.962  22.501  1.00  0.00     0.009 A 
ATOM     24  C   UNL A   1      29.438  26.402  23.852  1.00  0.00     0.009 A 
BRANCH  20  25
ATOM     25  C   UNL A   1      27.201  29.421  23.207  1.00  0.00     0.032 C 
ATOM     26  C   UNL A   1      27.617  30.882  23.248  1.00  0.00     0.009 C 
ENDBRANCH  20  25
ENDBRANCH   9  19
BRANCH  18  27
ATOM     27  C   UNL A   1      32.442  21.510  23.679  1.00  0.00     0.429 C 
ATOM     28  F   UNL A   1      31.411  21.300  24.529  1.00  0.00    -0.167 F 
ATOM     29  F   UNL A   1      32.006  21.221  22.429  1.00  0.00    -0.167 F 
ATOM     30  F   UNL A   1      33.379  20.570  23.975  1.00  0.00    -0.167 F 
ENDBRANCH  18  27
ENDBRANCH   5   8
ENDBRANCH   3   4
ENDBRANCH   2   3
ENDBRANCH   1   2
BRANCH   1  31
ATOM     31  C   UNL A   1      39.282  20.352  25.910  1.00  0.00     0.116 C 
BRANCH  31  32
ATOM     32  N   UNL A   1      40.391  19.425  26.062  1.00  0.00    -0.352 N 
ATOM     33  C   UNL A   1      41.720  19.698  26.278  1.00  0.00     0.251 C 
ATOM     34  H   UNL A   1      40.158  18.471  26.003  1.00  0.00     0.163 HD
ATOM     35  O   UNL A   1      42.554  18.800  26.181  1.00  0.00    -0.269 OA
BRANCH  33  36
ATOM     36  C   UNL A   1      42.144  21.078  26.602  1.00  0.00     0.039 A 
ATOM     37  C   UNL A   1      42.387  21.420  27.935  1.00  0.00     0.014 A 
ATOM     38  C   UNL A   1      42.313  22.028  25.592  1.00  0.00     0.014 A 
ATOM     39  C   UNL A   1      42.865  22.696  28.246  1.00  0.00     0.010 A 
ATOM     40  C   UNL A   1      42.858  23.273  25.896  1.00  0.00     0.010 A 
ATOM     41  C   UNL A   1      43.141  23.622  27.226  1.00  0.00    -0.014 A 
BRANCH  41  42
ATOM     42  C   UNL A   1      43.730  24.954  27.524  1.00  0.00     0.031 A 
ATOM     43  C   UNL A   1      42.850  26.080  28.000  1.00  0.00     0.074 A 
ATOM     44  C   UNL A   1      45.042  25.173  27.295  1.00  0.00     0.049 A 
ATOM     45  N   UNL A   1      43.162  27.330  28.227  1.00  0.00    -0.248 NA
ATOM     46  C   UNL A   1      41.429  25.768  28.228  1.00  0.00     0.031 C 
ATOM     47  C   UNL A   1      45.996  24.177  26.799  1.00  0.00     0.029 A 
ATOM     48  N   UNL A   1      45.800  26.311  27.436  1.00  0.00    -0.354 N 
ATOM     49  C   UNL A   1      41.977  27.958  28.594  1.00  0.00     0.074 A 
ATOM     50  C   UNL A   1      40.932  26.961  28.528  1.00  0.00     0.031 C 
ATOM     51  C   UNL A   1      47.212  24.741  26.698  1.00  0.00     0.029 A 
ATOM     52  C   UNL A   1      47.118  26.148  27.074  1.00  0.00     0.049 A 
ATOM     53  H   UNL A   1      45.434  27.163  27.765  1.00  0.00     0.167 HD
ATOM     54  C   UNL A   1      41.781  29.245  28.964  1.00  0.00     0.031 A 
ATOM     55  C   UNL A   1      48.134  27.033  27.034  1.00  0.00     0.031 A 
ATOM     56  C   UNL A   1      42.827  30.226  29.061  1.00  0.00     0.049 A 
ATOM     57  C   UNL A   1      47.880  28.460  27.446  1.00  0.00     0.074 A 
ATOM     58  C   UNL A   1      42.736  31.533  29.508  1.00  0.00     0.029 A 
ATOM     59  N   UNL A   1      44.149  30.015  28.707  1.00  0.00    -0.354 N 
ATOM     60  N   UNL A   1      46.768  29.010  27.872  1.00  0.00    -0.248 NA
ATOM     61  C   UNL A   1      49.021  29.385  27.381  1.00  0.00     0.031 C 
ATOM     62  C   UNL A   1      43.991  32.131  29.365  1.00  0.00     0.029 A 
ATOM     63  C   UNL A   1      44.878  31.177  28.894  1.00  0.00     0.049 A 
ATOM     64  H   UNL A   1      44.516  29.165  28.372  1.00  0.00     0.167 HD
ATOM     65  C   UNL A   1      47.087  30.332  28.163  1.00  0.00     0.074 A 
ATOM     66  C   UNL A   1      48.496  30.497  27.876  1.00  0.00     0.031 C 
ATOM     67  C   UNL A   1      46.286  31.321  28.626  1.00  0.00     0.031 A 
BRANCH  54  68
ATOM     68  C   UNL A   1      40.377  29.685  29.293  1.00  0.00    -0.014 A 
ATOM     69  C   UNL A   1      40.004  30.004  30.610  1.00  0.00     0.010 A 
ATOM     70  C   UNL A   1      39.451  29.879  28.251  1.00  0.00     0.010 A 
ATOM     71  C   UNL A   1      38.724  30.496  30.882  1.00  0.00     0.020 A 
ATOM     72  C   UNL A   1      38.179  30.397  28.515  1.00  0.00     0.020 A 
ATOM     73  C   UNL A   1      37.822  30.695  29.831  1.00  0.00     0.054 A 
BRANCH  73  74
ATOM     74  S   UNL A   1      36.196  31.404  30.206  1.00  0.00     0.124 S 
ATOM     75  O   UNL A   1      35.846  30.716  31.446  1.00  0.00    -0.237 OA
ATOM     76  O   UNL A   1      36.491  32.827  30.339  1.00  0.00    -0.237 OA
ATOM     77  O   UNL A   1      35.384  31.044  29.046  1.00  0.00    -0.744 OA
ENDBRANCH  73  74
ENDBRANCH  54  68
BRANCH  55  78
ATOM     78  C   UNL A   1      49.490  26.613  26.580  1.00  0.00    -0.014 A 
ATOM     79  C   UNL A   1      49.886  26.799  25.242  1.00  0.00     0.010 A 
ATOM     80  C   UNL A   1      50.377  25.981  27.469  1.00  0.00     0.010 A 
ATOM     81  C   UNL A   1      51.120  26.320  24.793  1.00  0.00     0.020 A 
ATOM     82  C   UNL A   1      51.626  25.530  27.033  1.00  0.00     0.020 A 
ATOM     83  C   UNL A   1      51.980  25.682  25.691  1.00  0.00     0.054 A 
BRANCH  83  84
ATOM     84  S   UNL A   1      53.576  25.064  25.087  1.00  0.00     0.124 S 
ATOM     85  O   UNL A   1      53.427  23.623  25.264  1.00  0.00    -0.237 OA
ATOM     86  O   UNL A   1      53.594  25.534  23.704  1.00  0.00    -0.237 OA
ATOM     87  O   UNL A   1      54.546  25.707  25.970  1.00  0.00    -0.744 OA
ENDBRANCH  83  84
ENDBRANCH  55  78
BRANCH  67  88
ATOM     88  C   UNL A   1      46.915  32.659  28.912  1.00  0.00    -0.014 A 
ATOM     89  C   UNL A   1      46.948  33.677  27.944  1.00  0.00     0.010 A 
ATOM     90  C   UNL A   1      47.421  32.920  30.199  1.00  0.00     0.010 A 
ATOM     91  C   UNL A   1      47.499  34.924  28.250  1.00  0.00     0.020 A 
ATOM     92  C   UNL A   1      47.945  34.175  30.518  1.00  0.00     0.020 A 
ATOM     93  C   UNL A   1      47.992  35.166  29.537  1.00  0.00     0.054 A 
BRANCH  93  94
ATOM     94  S   UNL A   1      48.651  36.810  29.925  1.00  0.00     0.124 S 
ATOM     95  O   UNL A   1      47.981  37.649  28.935  1.00  0.00    -0.237 OA
ATOM     96  O   UNL A   1      48.225  37.008  31.308  1.00  0.00    -0.237 OA
ATOM     97  O   UNL A   1      50.093  36.659  29.739  1.00  0.00    -0.744 OA
ENDBRANCH  93  94
ENDBRANCH  67  88
ENDBRANCH  41  42
ENDBRANCH  33  36
ENDBRANCH  31  32
ENDBRANCH   1  31
TORSDOF 17
ENDMDL
MODEL 2
REMARK VINA RESULT:     -11.3      5.887     10.637
REMARK SMILES CCc1ccc(-c2cc(Cl)cc3c2O[C@H](C(F)(F)F)C(C(=O)NCCCCNC(=O)c2ccc(-c4c5nc(c(-c6ccc(S(=O)(=O)[O-])cc6)c6ccc([nH]6)c(-c6ccc(S(=O)(=O)[O-])cc6)c6nc(c(-c7ccc(S(=O)(=O)[O-])cc7)c7ccc4[nH]7)C=C6)C=C5)cc2)=C3)cc1
REMARK SMILES IDX 26 1 25 2 24 3 23 4 21 5 22 6 20 8 7 9 8 10 13 11 9 12 12 13
REMARK SMILES IDX 14 14 10 15 11 16 91 17 15 18 6 19 3 20 4 21 93 22 5 23
REMARK SMILES IDX 92 24 2 25 1 26 16 27 17 28 18 29 19 30 27 31 28 32 29 33
REMARK SMILES IDX 30 35 31 36 32 37 90 38 33 39 89 40 34 41 35 42 36 43 83 44
REMARK SMILES IDX 37 45 88 46 82 47 84 48 38 49 87 50 81 51 80 52 39 54 69 55
REMARK SMILES IDX 50 56 68 57 51 58 54 59 67 60 85 61 52 62 53 63 66 65 86 66
REMARK SMILES IDX 55 67 40 68 41 69 49 70 42 71 48 72 43 73 44 74 45 75 46 76
REMARK SMILES IDX 47 77 70 78 71 79 79 80 72 81 78 82 73 83 74 84 75 85 76 86
REMARK SMILES IDX 77 87 56 88 57 89 65 90 58 91 64 92 59 93 60 94 61 95 62 96
REMARK SMILES IDX 63 97
REMARK H PARENT 23 7 28 34 84 53 54 64
REMARK Flexibility Score: inf
ROOT
ATOM      1  C   UNL A   1      37.823  23.464  26.023  1.00  0.00     0.023 C 
ENDROOT
BRANCH   1   2
ATOM      2  C   UNL A   1      36.332  23.836  26.024  1.00  0.00     0.023 C 
BRANCH   2   3
ATOM      3  C   UNL A   1      35.404  22.823  25.341  1.00  0.00     0.116 C 
BRANCH   3   4
ATOM      4  N   UNL A   1      34.677  23.472  24.270  1.00  0.00    -0.352 N 
ATOM      5  C   UNL A   1      33.363  23.781  24.210  1.00  0.00     0.251 C 
ATOM      6  O   UNL A   1      32.790  23.715  23.127  1.00  0.00    -0.270 OA
ATOM      7  H   UNL A   1      35.211  23.718  23.481  1.00  0.00     0.163 HD
BRANCH   5   8
ATOM      8  C   UNL A   1      32.697  24.297  25.446  1.00  0.00     0.067 C 
ATOM      9  C   UNL A   1      31.265  27.782  23.918  1.00  0.00     0.026 A 
ATOM     10  C   UNL A   1      32.316  28.348  23.150  1.00  0.00     0.033 A 
ATOM     11  C   UNL A   1      31.620  26.729  24.777  1.00  0.00     0.135 A 
ATOM     12  C   UNL A   1      33.655  28.033  23.368  1.00  0.00     0.042 A 
ATOM     13  C   UNL A   1      32.989  26.504  25.066  1.00  0.00     0.019 A 
ATOM     14  O   UNL A   1      30.696  25.845  25.318  1.00  0.00    -0.475 OA
ATOM     15  Cl  UNL A   1      34.870  28.757  22.392  1.00  0.00    -0.084 Cl
ATOM     16  C   UNL A   1      34.006  27.168  24.385  1.00  0.00     0.032 A 
ATOM     17  C   UNL A   1      33.326  25.373  25.961  1.00  0.00     0.025 C 
ATOM     18  C   UNL A   1      31.181  24.429  25.335  1.00  0.00     0.314 C 
BRANCH   9  19
ATOM     19  C   UNL A   1      30.004  28.573  23.910  1.00  0.00    -0.015 A 
ATOM     20  C   UNL A   1      28.203  30.420  22.697  1.00  0.00    -0.048 A 
ATOM     21  C   UNL A   1      28.010  29.041  22.560  1.00  0.00     0.004 A 
ATOM     22  C   UNL A   1      29.207  30.860  23.568  1.00  0.00     0.004 A 
ATOM     23  C   UNL A   1      28.882  28.130  23.180  1.00  0.00     0.009 A 
ATOM     24  C   UNL A   1      30.085  29.951  24.179  1.00  0.00     0.009 A 
BRANCH  20  25
ATOM     25  C   UNL A   1      27.474  31.411  21.815  1.00  0.00     0.032 C 
ATOM     26  C   UNL A   1      28.240  31.863  20.583  1.00  0.00     0.009 C 
ENDBRANCH  20  25
ENDBRANCH   9  19
BRANCH  18  27
ATOM     27  C   UNL A   1      30.536  23.619  26.481  1.00  0.00     0.429 C 
ATOM     28  F   UNL A   1      31.384  23.401  27.511  1.00  0.00    -0.167 F 
ATOM     29  F   UNL A   1      29.446  24.253  26.978  1.00  0.00    -0.167 F 
ATOM     30  F   UNL A   1      30.104  22.395  26.075  1.00  0.00    -0.167 F 
ENDBRANCH  18  27
ENDBRANCH   5   8
ENDBRANCH   3   4
ENDBRANCH   2   3
ENDBRANCH   1   2
BRANCH   1  31
ATOM     31  C   UNL A   1      38.727  24.441  26.762  1.00  0.00     0.116 C 
BRANCH  31  32
ATOM     32  N   UNL A   1      39.892  24.805  25.973  1.00  0.00    -0.352 N 
ATOM     33  C   UNL A   1      40.716  25.897  26.103  1.00  0.00     0.251 C 
ATOM     34  H   UNL A   1      40.123  24.184  25.245  1.00  0.00     0.163 HD
ATOM     35  O   UNL A   1      41.534  26.155  25.222  1.00  0.00    -0.269 OA
BRANCH  33  36
ATOM     36  C   UNL A   1      40.596  26.772  27.289  1.00  0.00     0.039 A 
ATOM     37  C   UNL A   1      39.885  26.315  28.402  1.00  0.00     0.014 A 
ATOM     38  C   UNL A   1      41.194  28.035  27.308  1.00  0.00     0.014 A 
ATOM     39  C   UNL A   1      39.831  27.099  29.558  1.00  0.00     0.010 A 
ATOM     40  C   UNL A   1      41.200  28.781  28.484  1.00  0.00     0.010 A 
ATOM     41  C   UNL A   1      40.521  28.322  29.623  1.00  0.00    -0.014 A 
BRANCH  41  42
ATOM     42  C   UNL A   1      40.550  29.131  30.869  1.00  0.00     0.031 A 
ATOM     43  C   UNL A   1      41.612  28.879  31.909  1.00  0.00     0.074 A 
ATOM     44  C   UNL A   1      39.580  30.041  31.103  1.00  0.00     0.049 A 
ATOM     45  N   UNL A   1      41.751  29.419  33.092  1.00  0.00    -0.248 NA
ATOM     46  C   UNL A   1      42.638  27.873  31.587  1.00  0.00     0.031 C 
ATOM     47  C   UNL A   1      38.474  30.354  30.194  1.00  0.00     0.029 A 
ATOM     48  N   UNL A   1      39.359  30.860  32.182  1.00  0.00    -0.354 N 
ATOM     49  C   UNL A   1      42.856  28.800  33.666  1.00  0.00     0.074 A 
ATOM     50  C   UNL A   1      43.332  27.820  32.716  1.00  0.00     0.031 C 
ATOM     51  C   UNL A   1      37.706  31.310  30.744  1.00  0.00     0.029 A 
ATOM     52  C   UNL A   1      38.234  31.644  32.063  1.00  0.00     0.049 A 
ATOM     53  H   UNL A   1      39.951  30.885  32.969  1.00  0.00     0.167 HD
ATOM     54  C   UNL A   1      43.428  29.037  34.869  1.00  0.00     0.031 A 
ATOM     55  C   UNL A   1      37.680  32.523  32.922  1.00  0.00     0.031 A 
ATOM     56  C   UNL A   1      42.972  30.035  35.798  1.00  0.00     0.049 A 
ATOM     57  C   UNL A   1      38.338  32.758  34.257  1.00  0.00     0.074 A 
ATOM     58  C   UNL A   1      43.539  30.403  37.006  1.00  0.00     0.029 A 
ATOM     59  N   UNL A   1      41.844  30.821  35.629  1.00  0.00    -0.354 N 
ATOM     60  N   UNL A   1      39.433  32.222  34.742  1.00  0.00    -0.248 NA
ATOM     61  C   UNL A   1      37.691  33.723  35.158  1.00  0.00     0.031 C 
ATOM     62  C   UNL A   1      42.720  31.368  37.597  1.00  0.00     0.029 A 
ATOM     63  C   UNL A   1      41.680  31.650  36.726  1.00  0.00     0.049 A 
ATOM     64  H   UNL A   1      41.248  30.795  34.847  1.00  0.00     0.167 HD
ATOM     65  C   UNL A   1      39.626  32.816  35.985  1.00  0.00     0.074 A 
ATOM     66  C   UNL A   1      38.543  33.759  36.173  1.00  0.00     0.031 C 
ATOM     67  C   UNL A   1      40.610  32.600  36.891  1.00  0.00     0.031 A 
BRANCH  54  68
ATOM     68  C   UNL A   1      44.617  28.201  35.269  1.00  0.00    -0.014 A 
ATOM     69  C   UNL A   1      44.470  26.852  35.635  1.00  0.00     0.010 A 
ATOM     70  C   UNL A   1      45.910  28.750  35.175  1.00  0.00     0.010 A 
ATOM     71  C   UNL A   1      45.593  26.070  35.916  1.00  0.00     0.020 A 
ATOM     72  C   UNL A   1      47.038  27.963  35.428  1.00  0.00     0.020 A 
ATOM     73  C   UNL A   1      46.871  26.630  35.804  1.00  0.00     0.054 A 
BRANCH  73  74
ATOM     74  S   UNL A   1      48.312  25.569  36.102  1.00  0.00     0.124 S 
ATOM     75  O   UNL A   1      49.367  26.553  36.330  1.00  0.00    -0.237 OA
ATOM     76  O   UNL A   1      47.906  24.801  37.275  1.00  0.00    -0.237 OA
ATOM     77  O   UNL A   1      48.437  24.798  34.867  1.00  0.00    -0.744 OA
ENDBRANCH  73  74
ENDBRANCH  54  68
BRANCH  55  78
ATOM     78  C   UNL A   1      36.427  33.247  32.565  1.00  0.00    -0.014 A 
ATOM     79  C   UNL A   1      36.480  34.549  32.033  1.00  0.00     0.010 A 
ATOM     80  C   UNL A   1      35.172  32.659  32.799  1.00  0.00     0.010 A 
ATOM     81  C   UNL A   1      35.304  35.264  31.787  1.00  0.00     0.020 A 
ATOM     82  C   UNL A   1      33.993  33.357  32.523  1.00  0.00     0.020 A 
ATOM     83  C   UNL A   1      34.067  34.666  32.041  1.00  0.00     0.054 A 
BRANCH  83  84
ATOM     84  S   UNL A   1      32.553  35.612  31.718  1.00  0.00     0.124 S 
ATOM     85  O   UNL A   1      32.335  35.357  30.298  1.00  0.00    -0.237 OA
ATOM     86  O   UNL A   1      31.593  34.991  32.628  1.00  0.00    -0.237 OA
ATOM     87  O   UNL A   1      32.927  36.982  32.060  1.00  0.00    -0.744 OA
ENDBRANCH  83  84
ENDBRANCH  55  78
BRANCH  67  88
ATOM     88  C   UNL A   1      40.606  33.435  38.144  1.00  0.00    -0.014 A 
ATOM     89  C   UNL A   1      41.324  34.641  38.226  1.00  0.00     0.010 A 
ATOM     90  C   UNL A   1      39.812  33.035  39.235  1.00  0.00     0.010 A 
ATOM     91  C   UNL A   1      41.267  35.418  39.385  1.00  0.00     0.020 A 
ATOM     92  C   UNL A   1      39.729  33.824  40.384  1.00  0.00     0.020 A 
ATOM     93  C   UNL A   1      40.467  35.005  40.457  1.00  0.00     0.054 A 
BRANCH  93  94
ATOM     94  S   UNL A   1      40.368  36.060  41.929  1.00  0.00     0.124 S 
ATOM     95  O   UNL A   1      41.366  37.086  41.637  1.00  0.00    -0.237 OA
ATOM     96  O   UNL A   1      38.978  36.511  41.906  1.00  0.00    -0.237 OA
ATOM     97  O   UNL A   1      40.706  35.157  43.026  1.00  0.00    -0.744 OA
ENDBRANCH  93  94
ENDBRANCH  67  88
ENDBRANCH  41  42
ENDBRANCH  33  36
ENDBRANCH  31  32
ENDBRANCH   1  31
TORSDOF 17
ENDMDL
MODEL 3
REMARK VINA RESULT:     -11.3      6.072      8.196
REMARK SMILES CCc1ccc(-c2cc(Cl)cc3c2O[C@H](C(F)(F)F)C(C(=O)NCCCCNC(=O)c2ccc(-c4c5nc(c(-c6ccc(S(=O)(=O)[O-])cc6)c6ccc([nH]6)c(-c6ccc(S(=O)(=O)[O-])cc6)c6nc(c(-c7ccc(S(=O)(=O)[O-])cc7)c7ccc4[nH]7)C=C6)C=C5)cc2)=C3)cc1
REMARK SMILES IDX 26 1 25 2 24 3 23 4 21 5 22 6 20 8 7 9 8 10 13 11 9 12 12 13
REMARK SMILES IDX 14 14 10 15 11 16 91 17 15 18 6 19 3 20 4 21 93 22 5 23
REMARK SMILES IDX 92 24 2 25 1 26 16 27 17 28 18 29 19 30 27 31 28 32 29 33
REMARK SMILES IDX 30 35 31 36 32 37 90 38 33 39 89 40 34 41 35 42 36 43 83 44
REMARK SMILES IDX 37 45 88 46 82 47 84 48 38 49 87 50 81 51 80 52 39 54 69 55
REMARK SMILES IDX 50 56 68 57 51 58 54 59 67 60 85 61 52 62 53 63 66 65 86 66
REMARK SMILES IDX 55 67 40 68 41 69 49 70 42 71 48 72 43 73 44 74 45 75 46 76
REMARK SMILES IDX 47 77 70 78 71 79 79 80 72 81 78 82 73 83 74 84 75 85 76 86
REMARK SMILES IDX 77 87 56 88 57 89 65 90 58 91 64 92 59 93 60 94 61 95 62 96
REMARK SMILES IDX 63 97
REMARK H PARENT 23 7 28 34 84 53 54 64
REMARK Flexibility Score: inf
ROOT
ATOM      1  C   UNL A   1      37.799  23.318  25.818  1.00  0.00     0.023 C 
ENDROOT
BRANCH   1   2
ATOM      2  C   UNL A   1      36.321  23.731  25.769  1.00  0.00     0.023 C 
BRANCH   2   3
ATOM      3  C   UNL A   1      35.367  22.682  25.180  1.00  0.00     0.116 C 
BRANCH   3   4
ATOM      4  N   UNL A   1      34.571  23.283  24.131  1.00  0.00    -0.352 N 
ATOM      5  C   UNL A   1      33.248  23.561  24.132  1.00  0.00     0.251 C 
ATOM      6  O   UNL A   1      32.621  23.450  23.083  1.00  0.00    -0.270 OA
ATOM      7  H   UNL A   1      35.056  23.516  23.307  1.00  0.00     0.163 HD
BRANCH   5   8
ATOM      8  C   UNL A   1      32.636  24.100  25.386  1.00  0.00     0.067 C 
ATOM      9  C   UNL A   1      31.233  27.607  23.884  1.00  0.00     0.026 A 
ATOM     10  C   UNL A   1      32.271  28.145  23.077  1.00  0.00     0.033 A 
ATOM     11  C   UNL A   1      31.593  26.552  24.737  1.00  0.00     0.135 A 
ATOM     12  C   UNL A   1      33.609  27.800  23.251  1.00  0.00     0.042 A 
ATOM     13  C   UNL A   1      32.966  26.298  24.982  1.00  0.00     0.019 A 
ATOM     14  O   UNL A   1      30.668  25.693  25.315  1.00  0.00    -0.475 OA
ATOM     15  Cl  UNL A   1      34.806  28.490  22.230  1.00  0.00    -0.084 Cl
ATOM     16  C   UNL A   1      33.973  26.933  24.262  1.00  0.00     0.032 A 
ATOM     17  C   UNL A   1      33.306  25.164  25.872  1.00  0.00     0.025 C 
ATOM     18  C   UNL A   1      31.120  24.267  25.325  1.00  0.00     0.314 C 
BRANCH   9  19
ATOM     19  C   UNL A   1      29.991  28.428  23.913  1.00  0.00    -0.015 A 
ATOM     20  C   UNL A   1      28.188  30.302  22.744  1.00  0.00    -0.048 A 
ATOM     21  C   UNL A   1      27.960  28.926  22.632  1.00  0.00     0.004 A 
ATOM     22  C   UNL A   1      29.234  30.729  23.573  1.00  0.00     0.004 A 
ATOM     23  C   UNL A   1      28.833  28.003  23.230  1.00  0.00     0.009 A 
ATOM     24  C   UNL A   1      30.113  29.806  24.162  1.00  0.00     0.009 A 
BRANCH  20  25
ATOM     25  C   UNL A   1      27.451  31.300  21.879  1.00  0.00     0.032 C 
ATOM     26  C   UNL A   1      28.324  32.090  20.918  1.00  0.00     0.009 C 
ENDBRANCH  20  25
ENDBRANCH   9  19
BRANCH  18  27
ATOM     27  C   UNL A   1      30.496  23.478  26.498  1.00  0.00     0.429 C 
ATOM     28  F   UNL A   1      31.360  23.288  27.521  1.00  0.00    -0.167 F 
ATOM     29  F   UNL A   1      29.409  24.116  26.995  1.00  0.00    -0.167 F 
ATOM     30  F   UNL A   1      30.067  22.243  26.125  1.00  0.00    -0.167 F 
ENDBRANCH  18  27
ENDBRANCH   5   8
ENDBRANCH   3   4
ENDBRANCH   2   3
ENDBRANCH   1   2
BRANCH   1  31
ATOM     31  C   UNL A   1      38.689  24.222  26.662  1.00  0.00     0.116 C 
BRANCH  31  32
ATOM     32  N   UNL A   1      39.904  24.597  25.956  1.00  0.00    -0.352 N 
ATOM     33  C   UNL A   1      40.691  25.711  26.126  1.00  0.00     0.251 C 
ATOM     34  H   UNL A   1      40.203  23.968  25.262  1.00  0.00     0.163 HD
ATOM     35  O   UNL A   1      41.569  25.971  25.306  1.00  0.00    -0.269 OA
BRANCH  33  36
ATOM     36  C   UNL A   1      40.460  26.605  27.282  1.00  0.00     0.039 A 
ATOM     37  C   UNL A   1      39.622  26.179  28.315  1.00  0.00     0.014 A 
ATOM     38  C   UNL A   1      41.079  27.856  27.351  1.00  0.00     0.014 A 
ATOM     39  C   UNL A   1      39.459  26.981  29.449  1.00  0.00     0.010 A 
ATOM     40  C   UNL A   1      40.973  28.619  28.511  1.00  0.00     0.010 A 
ATOM     41  C   UNL A   1      40.163  28.190  29.574  1.00  0.00    -0.014 A 
BRANCH  41  42
ATOM     42  C   UNL A   1      40.073  29.017  30.806  1.00  0.00     0.031 A 
ATOM     43  C   UNL A   1      39.088  30.155  30.882  1.00  0.00     0.074 A 
ATOM     44  C   UNL A   1      40.928  28.796  31.827  1.00  0.00     0.049 A 
ATOM     45  N   UNL A   1      38.923  31.039  31.831  1.00  0.00    -0.248 NA
ATOM     46  C   UNL A   1      38.187  30.338  29.731  1.00  0.00     0.031 C 
ATOM     47  C   UNL A   1      41.954  27.750  31.863  1.00  0.00     0.029 A 
ATOM     48  N   UNL A   1      41.081  29.446  33.027  1.00  0.00    -0.354 N 
ATOM     49  C   UNL A   1      37.925  31.898  31.383  1.00  0.00     0.074 A 
ATOM     50  C   UNL A   1      37.544  31.450  30.062  1.00  0.00     0.031 C 
ATOM     51  C   UNL A   1      42.614  27.818  33.032  1.00  0.00     0.029 A 
ATOM     52  C   UNL A   1      42.093  28.938  33.809  1.00  0.00     0.049 A 
ATOM     53  H   UNL A   1      40.518  30.206  33.302  1.00  0.00     0.167 HD
ATOM     54  C   UNL A   1      37.369  32.955  32.019  1.00  0.00     0.031 A 
ATOM     55  C   UNL A   1      42.561  29.336  35.009  1.00  0.00     0.031 A 
ATOM     56  C   UNL A   1      37.726  33.378  33.347  1.00  0.00     0.049 A 
ATOM     57  C   UNL A   1      41.924  30.521  35.688  1.00  0.00     0.074 A 
ATOM     58  C   UNL A   1      37.159  34.387  34.105  1.00  0.00     0.029 A 
ATOM     59  N   UNL A   1      38.739  32.823  34.111  1.00  0.00    -0.354 N 
ATOM     60  N   UNL A   1      40.922  31.265  35.281  1.00  0.00    -0.248 NA
ATOM     61  C   UNL A   1      42.474  30.916  36.993  1.00  0.00     0.031 C 
ATOM     62  C   UNL A   1      37.869  34.484  35.304  1.00  0.00     0.029 A 
ATOM     63  C   UNL A   1      38.836  33.490  35.321  1.00  0.00     0.049 A 
ATOM     64  H   UNL A   1      39.307  32.067  33.836  1.00  0.00     0.167 HD
ATOM     65  C   UNL A   1      40.699  32.187  36.298  1.00  0.00     0.074 A 
ATOM     66  C   UNL A   1      41.660  31.902  37.343  1.00  0.00     0.031 C 
ATOM     67  C   UNL A   1      39.781  33.181  36.361  1.00  0.00     0.031 A 
BRANCH  54  68
ATOM     68  C   UNL A   1      36.310  33.745  31.295  1.00  0.00    -0.014 A 
ATOM     69  C   UNL A   1      36.301  33.839  29.893  1.00  0.00     0.010 A 
ATOM     70  C   UNL A   1      35.251  34.314  32.028  1.00  0.00     0.010 A 
ATOM     71  C   UNL A   1      35.260  34.501  29.236  1.00  0.00     0.020 A 
ATOM     72  C   UNL A   1      34.194  34.953  31.373  1.00  0.00     0.020 A 
ATOM     73  C   UNL A   1      34.210  35.049  29.981  1.00  0.00     0.054 A 
BRANCH  73  74
ATOM     74  S   UNL A   1      32.837  35.836  29.095  1.00  0.00     0.124 S 
ATOM     75  O   UNL A   1      32.376  34.753  28.231  1.00  0.00    -0.237 OA
ATOM     76  O   UNL A   1      31.928  36.205  30.178  1.00  0.00    -0.237 OA
ATOM     77  O   UNL A   1      33.466  36.958  28.404  1.00  0.00    -0.744 OA
ENDBRANCH  73  74
ENDBRANCH  54  68
BRANCH  55  78
ATOM     78  C   UNL A   1      43.699  28.623  35.655  1.00  0.00    -0.014 A 
ATOM     79  C   UNL A   1      43.465  27.552  36.539  1.00  0.00     0.010 A 
ATOM     80  C   UNL A   1      45.023  29.040  35.428  1.00  0.00     0.010 A 
ATOM     81  C   UNL A   1      44.526  26.947  37.217  1.00  0.00     0.020 A 
ATOM     82  C   UNL A   1      46.090  28.414  36.079  1.00  0.00     0.020 A 
ATOM     83  C   UNL A   1      45.832  27.386  36.988  1.00  0.00     0.054 A 
BRANCH  83  84
ATOM     84  S   UNL A   1      47.195  26.588  37.881  1.00  0.00     0.124 S 
ATOM     85  O   UNL A   1      48.363  27.113  37.180  1.00  0.00    -0.237 OA
ATOM     86  O   UNL A   1      47.005  27.074  39.247  1.00  0.00    -0.237 OA
ATOM     87  O   UNL A   1      46.938  25.163  37.693  1.00  0.00    -0.744 OA
ENDBRANCH  83  84
ENDBRANCH  55  78
BRANCH  67  88
ATOM     88  C   UNL A   1      39.723  34.003  37.622  1.00  0.00    -0.014 A 
ATOM     89  C   UNL A   1      38.929  33.615  38.715  1.00  0.00     0.010 A 
ATOM     90  C   UNL A   1      40.533  35.148  37.736  1.00  0.00     0.010 A 
ATOM     91  C   UNL A   1      38.927  34.372  39.890  1.00  0.00     0.020 A 
ATOM     92  C   UNL A   1      40.557  35.890  38.919  1.00  0.00     0.020 A 
ATOM     93  C   UNL A   1      39.744  35.504  39.984  1.00  0.00     0.054 A 
BRANCH  93  94
ATOM     94  S   UNL A   1      39.765  36.437  41.539  1.00  0.00     0.124 S 
ATOM     95  O   UNL A   1      38.734  35.756  42.318  1.00  0.00    -0.237 OA
ATOM     96  O   UNL A   1      41.135  36.247  42.008  1.00  0.00    -0.237 OA
ATOM     97  O   UNL A   1      39.436  37.801  41.130  1.00  0.00    -0.744 OA
ENDBRANCH  93  94
ENDBRANCH  67  88
ENDBRANCH  41  42
ENDBRANCH  33  36
ENDBRANCH  31  32
ENDBRANCH   1  31
TORSDOF 17
ENDMDL
