MODEL 1
REMARK VINA RESULT:     -12.9      0.000      0.000
REMARK SMILES Cc1ccnc(-n2c(C)nc3c(C(=O)NCCCCNC(=O)c4ccc(-c5c6nc(c(-c7ccc(S(=O)(=O)[O-])cc7)c7ccc([nH]7)c(-c7ccc(S(=O)(=O)[O-])cc7)c7nc(c(-c8ccc(S(=O)(=O)[O-])cc8)c8ccc5[nH]8)C=C7)C=C6)cc4)cccc32)c1
REMARK SMILES IDX 18 1 17 2 16 3 15 4 13 5 14 6 12 8 7 9 8 10 86 11 9 12 10 13
REMARK SMILES IDX 11 14 85 15 84 16 83 17 6 18 1 19 2 20 3 21 87 22 4 23 5 24
REMARK SMILES IDX 19 25 20 26 21 27 22 29 23 30 24 31 82 32 25 33 81 34 26 35
REMARK SMILES IDX 27 36 28 37 75 38 29 39 80 40 74 41 76 42 30 43 79 44 73 45
REMARK SMILES IDX 72 46 31 48 61 49 42 50 60 51 43 52 46 53 59 54 77 55 44 56
REMARK SMILES IDX 45 57 58 59 78 60 47 61 32 62 33 63 41 64 34 65 40 66 35 67
REMARK SMILES IDX 36 68 37 69 38 70 39 71 62 72 63 73 71 74 64 75 70 76 65 77
REMARK SMILES IDX 66 78 67 79 68 80 69 81 48 82 49 83 57 84 50 85 56 86 51 87
REMARK SMILES IDX 52 88 53 89 54 90 55 91
REMARK H PARENT 15 7 20 28 76 47 46 58
REMARK Flexibility Score: inf
ROOT
ATOM      1  C   UNL A   1      38.298  21.770  25.516  1.00  0.00     0.023 C 
ENDROOT
BRANCH   1   2
ATOM      2  C   UNL A   1      37.440  22.969  25.075  1.00  0.00     0.023 C 
BRANCH   2   3
ATOM      3  C   UNL A   1      36.490  23.486  26.157  1.00  0.00     0.116 C 
BRANCH   3   4
ATOM      4  N   UNL A   1      35.462  22.509  26.449  1.00  0.00    -0.352 N 
ATOM      5  C   UNL A   1      34.226  22.232  25.917  1.00  0.00     0.253 C 
ATOM      6  O   UNL A   1      33.645  21.270  26.421  1.00  0.00    -0.269 OA
ATOM      7  H   UNL A   1      35.701  21.911  27.194  1.00  0.00     0.163 HD
BRANCH   5   8
ATOM      8  C   UNL A   1      33.619  22.990  24.785  1.00  0.00     0.067 A 
ATOM      9  N   UNL A   1      31.971  26.142  24.567  1.00  0.00    -0.281 N 
ATOM     10  C   UNL A   1      32.410  26.152  25.876  1.00  0.00     0.112 A 
ATOM     11  C   UNL A   1      32.382  24.938  24.004  1.00  0.00     0.075 A 
ATOM     12  C   UNL A   1      32.242  27.276  26.834  1.00  0.00     0.088 C 
ATOM     13  N   UNL A   1      32.926  24.984  26.201  1.00  0.00    -0.232 NA
ATOM     14  C   UNL A   1      33.005  24.243  25.043  1.00  0.00     0.102 A 
ATOM     15  C   UNL A   1      32.345  24.456  22.687  1.00  0.00     0.029 A 
ATOM     16  C   UNL A   1      33.028  23.276  22.419  1.00  0.00     0.003 A 
ATOM     17  C   UNL A   1      33.683  22.583  23.438  1.00  0.00     0.016 A 
BRANCH   9  18
ATOM     18  C   UNL A   1      31.317  27.189  23.872  1.00  0.00     0.138 A 
ATOM     19  C   UNL A   1      27.774  28.296  23.128  1.00  0.00     0.044 C 
ATOM     20  C   UNL A   1      29.269  28.199  23.129  1.00  0.00    -0.046 A 
ATOM     21  C   UNL A   1      30.040  29.097  22.390  1.00  0.00     0.023 A 
ATOM     22  C   UNL A   1      29.923  27.209  23.861  1.00  0.00     0.051 A 
ATOM     23  C   UNL A   1      31.422  29.010  22.466  1.00  0.00     0.114 A 
ATOM     24  N   UNL A   1      32.077  28.101  23.219  1.00  0.00    -0.239 NA
ENDBRANCH   9  18
ENDBRANCH   5   8
ENDBRANCH   3   4
ENDBRANCH   2   3
ENDBRANCH   1   2
BRANCH   1  25
ATOM     25  C   UNL A   1      39.395  22.122  26.526  1.00  0.00     0.116 C 
BRANCH  25  26
ATOM     26  N   UNL A   1      40.728  22.078  25.956  1.00  0.00    -0.352 N 
ATOM     27  C   UNL A   1      41.809  22.913  25.964  1.00  0.00     0.251 C 
ATOM     28  H   UNL A   1      40.891  21.253  25.443  1.00  0.00     0.163 HD
ATOM     29  O   UNL A   1      42.821  22.486  25.400  1.00  0.00    -0.269 OA
BRANCH  27  30
ATOM     30  C   UNL A   1      41.837  24.280  26.554  1.00  0.00     0.039 A 
ATOM     31  C   UNL A   1      42.315  24.599  27.824  1.00  0.00     0.014 A 
ATOM     32  C   UNL A   1      41.267  25.308  25.777  1.00  0.00     0.014 A 
ATOM     33  C   UNL A   1      42.159  25.880  28.338  1.00  0.00     0.010 A 
ATOM     34  C   UNL A   1      41.114  26.596  26.283  1.00  0.00     0.010 A 
ATOM     35  C   UNL A   1      41.518  26.865  27.586  1.00  0.00    -0.014 A 
BRANCH  35  36
ATOM     36  C   UNL A   1      41.267  28.135  28.257  1.00  0.00     0.031 A 
ATOM     37  C   UNL A   1      42.304  29.197  28.116  1.00  0.00     0.074 A 
ATOM     38  C   UNL A   1      40.159  28.358  28.989  1.00  0.00     0.049 A 
ATOM     39  N   UNL A   1      43.001  29.767  29.047  1.00  0.00    -0.248 NA
ATOM     40  C   UNL A   1      42.651  29.633  26.758  1.00  0.00     0.031 C 
ATOM     41  C   UNL A   1      38.925  27.570  29.050  1.00  0.00     0.029 A 
ATOM     42  N   UNL A   1      39.883  29.434  29.773  1.00  0.00    -0.354 N 
ATOM     43  C   UNL A   1      43.812  30.710  28.416  1.00  0.00     0.074 A 
ATOM     44  C   UNL A   1      43.602  30.538  26.999  1.00  0.00     0.031 C 
ATOM     45  C   UNL A   1      37.956  28.319  29.623  1.00  0.00     0.029 A 
ATOM     46  C   UNL A   1      38.544  29.559  30.100  1.00  0.00     0.049 A 
ATOM     47  H   UNL A   1      40.572  30.066  30.081  1.00  0.00     0.167 HD
ATOM     48  C   UNL A   1      44.550  31.636  29.092  1.00  0.00     0.031 A 
ATOM     49  C   UNL A   1      37.955  30.662  30.625  1.00  0.00     0.031 A 
ATOM     50  C   UNL A   1      44.670  31.327  30.489  1.00  0.00     0.049 A 
ATOM     51  C   UNL A   1      39.017  31.455  31.295  1.00  0.00     0.074 A 
ATOM     52  C   UNL A   1      45.298  30.328  31.203  1.00  0.00     0.029 A 
ATOM     53  N   UNL A   1      43.811  31.938  31.369  1.00  0.00    -0.354 N 
ATOM     54  N   UNL A   1      39.654  31.057  32.360  1.00  0.00    -0.248 NA
ATOM     55  C   UNL A   1      39.657  32.531  30.552  1.00  0.00     0.031 C 
ATOM     56  C   UNL A   1      44.447  30.080  32.316  1.00  0.00     0.029 A 
ATOM     57  C   UNL A   1      43.371  30.968  32.234  1.00  0.00     0.049 A 
ATOM     58  H   UNL A   1      43.559  32.890  31.376  1.00  0.00     0.167 HD
ATOM     59  C   UNL A   1      40.950  31.526  32.199  1.00  0.00     0.074 A 
ATOM     60  C   UNL A   1      40.862  32.516  31.129  1.00  0.00     0.031 C 
ATOM     61  C   UNL A   1      42.019  30.880  32.753  1.00  0.00     0.031 A 
BRANCH  48  62
ATOM     62  C   UNL A   1      45.036  32.941  28.521  1.00  0.00    -0.014 A 
ATOM     63  C   UNL A   1      44.156  33.961  28.109  1.00  0.00     0.010 A 
ATOM     64  C   UNL A   1      46.408  33.268  28.588  1.00  0.00     0.010 A 
ATOM     65  C   UNL A   1      44.614  35.233  27.755  1.00  0.00     0.020 A 
ATOM     66  C   UNL A   1      46.874  34.553  28.274  1.00  0.00     0.020 A 
ATOM     67  C   UNL A   1      45.971  35.528  27.855  1.00  0.00     0.054 A 
BRANCH  67  68
ATOM     68  S   UNL A   1      46.505  37.227  27.521  1.00  0.00     0.124 S 
ATOM     69  O   UNL A   1      47.790  37.282  28.213  1.00  0.00    -0.237 OA
ATOM     70  O   UNL A   1      46.572  37.253  26.063  1.00  0.00    -0.237 OA
ATOM     71  O   UNL A   1      45.445  38.043  28.107  1.00  0.00    -0.744 OA
ENDBRANCH  67  68
ENDBRANCH  48  62
BRANCH  49  72
ATOM     72  C   UNL A   1      36.703  31.277  30.114  1.00  0.00    -0.014 A 
ATOM     73  C   UNL A   1      36.635  31.748  28.785  1.00  0.00     0.010 A 
ATOM     74  C   UNL A   1      35.701  31.686  31.012  1.00  0.00     0.010 A 
ATOM     75  C   UNL A   1      35.664  32.668  28.390  1.00  0.00     0.020 A 
ATOM     76  C   UNL A   1      34.726  32.618  30.623  1.00  0.00     0.020 A 
ATOM     77  C   UNL A   1      34.744  33.134  29.325  1.00  0.00     0.054 A 
BRANCH  77  78
ATOM     78  S   UNL A   1      33.654  34.502  28.846  1.00  0.00     0.124 S 
ATOM     79  O   UNL A   1      32.747  33.844  27.902  1.00  0.00    -0.237 OA
ATOM     80  O   UNL A   1      33.048  34.884  30.125  1.00  0.00    -0.237 OA
ATOM     81  O   UNL A   1      34.555  35.482  28.269  1.00  0.00    -0.744 OA
ENDBRANCH  77  78
ENDBRANCH  49  72
BRANCH  61  82
ATOM     82  C   UNL A   1      41.767  29.764  33.747  1.00  0.00    -0.014 A 
ATOM     83  C   UNL A   1      41.954  30.037  35.116  1.00  0.00     0.010 A 
ATOM     84  C   UNL A   1      41.574  28.422  33.357  1.00  0.00     0.010 A 
ATOM     85  C   UNL A   1      41.986  29.006  36.059  1.00  0.00     0.020 A 
ATOM     86  C   UNL A   1      41.579  27.385  34.301  1.00  0.00     0.020 A 
ATOM     87  C   UNL A   1      41.814  27.684  35.645  1.00  0.00     0.054 A 
BRANCH  87  88
ATOM     88  S   UNL A   1      41.937  26.366  36.885  1.00  0.00     0.124 S 
ATOM     89  O   UNL A   1      42.283  25.204  36.068  1.00  0.00    -0.237 OA
ATOM     90  O   UNL A   1      43.002  26.848  37.764  1.00  0.00    -0.237 OA
ATOM     91  O   UNL A   1      40.609  26.324  37.492  1.00  0.00    -0.744 OA
ENDBRANCH  87  88
ENDBRANCH  61  82
ENDBRANCH  35  36
ENDBRANCH  27  30
ENDBRANCH  25  26
ENDBRANCH   1  25
TORSDOF 15
ENDMDL
MODEL 2
REMARK VINA RESULT:     -12.4      2.883      9.414
REMARK SMILES Cc1ccnc(-n2c(C)nc3c(C(=O)NCCCCNC(=O)c4ccc(-c5c6nc(c(-c7ccc(S(=O)(=O)[O-])cc7)c7ccc([nH]7)c(-c7ccc(S(=O)(=O)[O-])cc7)c7nc(c(-c8ccc(S(=O)(=O)[O-])cc8)c8ccc5[nH]8)C=C7)C=C6)cc4)cccc32)c1
REMARK SMILES IDX 18 1 17 2 16 3 15 4 13 5 14 6 12 8 7 9 8 10 86 11 9 12 10 13
REMARK SMILES IDX 11 14 85 15 84 16 83 17 6 18 1 19 2 20 3 21 87 22 4 23 5 24
REMARK SMILES IDX 19 25 20 26 21 27 22 29 23 30 24 31 82 32 25 33 81 34 26 35
REMARK SMILES IDX 27 36 28 37 75 38 29 39 80 40 74 41 76 42 30 43 79 44 73 45
REMARK SMILES IDX 72 46 31 48 61 49 42 50 60 51 43 52 46 53 59 54 77 55 44 56
REMARK SMILES IDX 45 57 58 59 78 60 47 61 32 62 33 63 41 64 34 65 40 66 35 67
REMARK SMILES IDX 36 68 37 69 38 70 39 71 62 72 63 73 71 74 64 75 70 76 65 77
REMARK SMILES IDX 66 78 67 79 68 80 69 81 48 82 49 83 57 84 50 85 56 86 51 87
REMARK SMILES IDX 52 88 53 89 54 90 55 91
REMARK H PARENT 15 7 20 28 76 47 46 58
REMARK Flexibility Score: inf
ROOT
ATOM      1  C   UNL A   1      33.020  30.750  27.247  1.00  0.00     0.023 C 
ENDROOT
BRANCH   1   2
ATOM      2  C   UNL A   1      33.067  29.227  27.034  1.00  0.00     0.023 C 
BRANCH   2   3
ATOM      3  C   UNL A   1      34.037  28.781  25.938  1.00  0.00     0.116 C 
BRANCH   3   4
ATOM      4  N   UNL A   1      33.432  28.914  24.630  1.00  0.00    -0.352 N 
ATOM      5  C   UNL A   1      32.563  28.146  23.894  1.00  0.00     0.253 C 
ATOM      6  O   UNL A   1      32.237  28.624  22.807  1.00  0.00    -0.269 OA
ATOM      7  H   UNL A   1      33.704  29.738  24.164  1.00  0.00     0.163 HD
BRANCH   5   8
ATOM      8  C   UNL A   1      32.002  26.846  24.363  1.00  0.00     0.067 A 
ATOM      9  N   UNL A   1      33.240  23.505  24.338  1.00  0.00    -0.281 N 
ATOM     10  C   UNL A   1      34.345  24.210  23.902  1.00  0.00     0.112 A 
ATOM     11  C   UNL A   1      32.224  24.428  24.562  1.00  0.00     0.075 A 
ATOM     12  C   UNL A   1      35.677  23.626  23.600  1.00  0.00     0.088 C 
ATOM     13  N   UNL A   1      34.036  25.475  23.699  1.00  0.00    -0.232 NA
ATOM     14  C   UNL A   1      32.760  25.661  24.182  1.00  0.00     0.102 A 
ATOM     15  C   UNL A   1      30.952  24.303  25.141  1.00  0.00     0.029 A 
ATOM     16  C   UNL A   1      30.251  25.474  25.402  1.00  0.00     0.003 A 
ATOM     17  C   UNL A   1      30.783  26.717  25.057  1.00  0.00     0.016 A 
BRANCH   9  18
ATOM     18  C   UNL A   1      33.161  22.118  24.614  1.00  0.00     0.138 A 
ATOM     19  C   UNL A   1      32.154  18.940  22.820  1.00  0.00     0.044 C 
ATOM     20  C   UNL A   1      32.576  19.906  23.885  1.00  0.00    -0.046 A 
ATOM     21  C   UNL A   1      32.832  19.465  25.184  1.00  0.00     0.023 A 
ATOM     22  C   UNL A   1      32.717  21.265  23.604  1.00  0.00     0.051 A 
ATOM     23  C   UNL A   1      33.278  20.383  26.123  1.00  0.00     0.114 A 
ATOM     24  N   UNL A   1      33.484  21.690  25.858  1.00  0.00    -0.239 NA
ENDBRANCH   9  18
ENDBRANCH   5   8
ENDBRANCH   3   4
ENDBRANCH   2   3
ENDBRANCH   1   2
BRANCH   1  25
ATOM     25  C   UNL A   1      34.349  31.360  27.706  1.00  0.00     0.116 C 
BRANCH  25  26
ATOM     26  N   UNL A   1      34.272  31.965  29.022  1.00  0.00    -0.352 N 
ATOM     27  C   UNL A   1      35.081  31.988  30.122  1.00  0.00     0.251 C 
ATOM     28  H   UNL A   1      33.442  32.479  29.152  1.00  0.00     0.163 HD
ATOM     29  O   UNL A   1      34.691  32.688  31.061  1.00  0.00    -0.269 OA
BRANCH  27  30
ATOM     30  C   UNL A   1      36.346  31.217  30.277  1.00  0.00     0.039 A 
ATOM     31  C   UNL A   1      37.631  31.743  30.150  1.00  0.00     0.014 A 
ATOM     32  C   UNL A   1      36.210  29.832  30.502  1.00  0.00     0.014 A 
ATOM     33  C   UNL A   1      38.742  30.909  30.165  1.00  0.00     0.010 A 
ATOM     34  C   UNL A   1      37.320  28.992  30.526  1.00  0.00     0.010 A 
ATOM     35  C   UNL A   1      38.583  29.530  30.307  1.00  0.00    -0.014 A 
BRANCH  35  36
ATOM     36  C   UNL A   1      39.787  28.720  30.163  1.00  0.00     0.031 A 
ATOM     37  C   UNL A   1      40.599  28.485  31.392  1.00  0.00     0.074 A 
ATOM     38  C   UNL A   1      40.175  28.206  28.982  1.00  0.00     0.049 A 
ATOM     39  N   UNL A   1      41.829  28.823  31.618  1.00  0.00    -0.248 NA
ATOM     40  C   UNL A   1      39.936  27.847  32.536  1.00  0.00     0.031 C 
ATOM     41  C   UNL A   1      39.415  28.098  27.734  1.00  0.00     0.029 A 
ATOM     42  N   UNL A   1      41.339  27.565  28.696  1.00  0.00    -0.354 N 
ATOM     43  C   UNL A   1      42.142  28.359  32.895  1.00  0.00     0.074 A 
ATOM     44  C   UNL A   1      40.917  27.822  33.440  1.00  0.00     0.031 C 
ATOM     45  C   UNL A   1      40.038  27.219  26.916  1.00  0.00     0.029 A 
ATOM     46  C   UNL A   1      41.303  26.835  27.521  1.00  0.00     0.049 A 
ATOM     47  H   UNL A   1      42.137  27.616  29.272  1.00  0.00     0.167 HD
ATOM     48  C   UNL A   1      43.406  28.364  33.406  1.00  0.00     0.031 A 
ATOM     49  C   UNL A   1      42.204  25.897  27.140  1.00  0.00     0.031 A 
ATOM     50  C   UNL A   1      44.300  29.190  32.646  1.00  0.00     0.049 A 
ATOM     51  C   UNL A   1      43.471  26.182  27.862  1.00  0.00     0.074 A 
ATOM     52  C   UNL A   1      44.401  30.548  32.423  1.00  0.00     0.029 A 
ATOM     53  N   UNL A   1      45.100  28.592  31.704  1.00  0.00    -0.354 N 
ATOM     54  N   UNL A   1      44.201  27.241  27.654  1.00  0.00    -0.248 NA
ATOM     55  C   UNL A   1      43.734  25.480  29.110  1.00  0.00     0.031 C 
ATOM     56  C   UNL A   1      44.860  30.668  31.082  1.00  0.00     0.029 A 
ATOM     57  C   UNL A   1      45.047  29.376  30.580  1.00  0.00     0.049 A 
ATOM     58  H   UNL A   1      45.613  27.758  31.815  1.00  0.00     0.167 HD
ATOM     59  C   UNL A   1      44.709  27.577  28.900  1.00  0.00     0.074 A 
ATOM     60  C   UNL A   1      44.480  26.398  29.731  1.00  0.00     0.031 C 
ATOM     61  C   UNL A   1      45.021  28.868  29.222  1.00  0.00     0.031 A 
BRANCH  48  62
ATOM     62  C   UNL A   1      43.895  27.474  34.517  1.00  0.00    -0.014 A 
ATOM     63  C   UNL A   1      44.059  26.084  34.356  1.00  0.00     0.010 A 
ATOM     64  C   UNL A   1      44.417  28.047  35.697  1.00  0.00     0.010 A 
ATOM     65  C   UNL A   1      44.685  25.297  35.326  1.00  0.00     0.020 A 
ATOM     66  C   UNL A   1      45.082  27.273  36.659  1.00  0.00     0.020 A 
ATOM     67  C   UNL A   1      45.208  25.898  36.467  1.00  0.00     0.054 A 
BRANCH  67  68
ATOM     68  S   UNL A   1      46.134  24.865  37.633  1.00  0.00     0.124 S 
ATOM     69  O   UNL A   1      47.439  24.773  36.986  1.00  0.00    -0.237 OA
ATOM     70  O   UNL A   1      46.091  25.660  38.857  1.00  0.00    -0.237 OA
ATOM     71  O   UNL A   1      45.368  23.622  37.674  1.00  0.00    -0.744 OA
ENDBRANCH  67  68
ENDBRANCH  48  62
BRANCH  49  72
ATOM     72  C   UNL A   1      41.858  24.541  26.643  1.00  0.00    -0.014 A 
ATOM     73  C   UNL A   1      40.913  23.752  27.335  1.00  0.00     0.010 A 
ATOM     74  C   UNL A   1      42.677  23.907  25.692  1.00  0.00     0.010 A 
ATOM     75  C   UNL A   1      40.853  22.370  27.158  1.00  0.00     0.020 A 
ATOM     76  C   UNL A   1      42.627  22.516  25.515  1.00  0.00     0.020 A 
ATOM     77  C   UNL A   1      41.744  21.754  26.283  1.00  0.00     0.054 A 
BRANCH  77  78
ATOM     78  S   UNL A   1      41.803  19.941  26.257  1.00  0.00     0.124 S 
ATOM     79  O   UNL A   1      40.445  19.605  25.819  1.00  0.00    -0.237 OA
ATOM     80  O   UNL A   1      42.855  19.676  25.273  1.00  0.00    -0.237 OA
ATOM     81  O   UNL A   1      42.126  19.582  27.625  1.00  0.00    -0.744 OA
ENDBRANCH  77  78
ENDBRANCH  49  72
BRANCH  61  82
ATOM     82  C   UNL A   1      45.027  29.916  28.126  1.00  0.00    -0.014 A 
ATOM     83  C   UNL A   1      46.249  30.540  27.808  1.00  0.00     0.010 A 
ATOM     84  C   UNL A   1      43.845  30.448  27.572  1.00  0.00     0.010 A 
ATOM     85  C   UNL A   1      46.287  31.678  26.998  1.00  0.00     0.020 A 
ATOM     86  C   UNL A   1      43.878  31.574  26.737  1.00  0.00     0.020 A 
ATOM     87  C   UNL A   1      45.100  32.199  26.479  1.00  0.00     0.054 A 
BRANCH  87  88
ATOM     88  S   UNL A   1      45.181  33.720  25.494  1.00  0.00     0.124 S 
ATOM     89  O   UNL A   1      46.621  33.948  25.396  1.00  0.00    -0.237 OA
ATOM     90  O   UNL A   1      44.525  33.333  24.246  1.00  0.00    -0.237 OA
ATOM     91  O   UNL A   1      44.451  34.700  26.295  1.00  0.00    -0.744 OA
ENDBRANCH  87  88
ENDBRANCH  61  82
ENDBRANCH  35  36
ENDBRANCH  27  30
ENDBRANCH  25  26
ENDBRANCH   1  25
TORSDOF 15
ENDMDL
MODEL 3
REMARK VINA RESULT:     -12.3      1.724      2.120
REMARK SMILES Cc1ccnc(-n2c(C)nc3c(C(=O)NCCCCNC(=O)c4ccc(-c5c6nc(c(-c7ccc(S(=O)(=O)[O-])cc7)c7ccc([nH]7)c(-c7ccc(S(=O)(=O)[O-])cc7)c7nc(c(-c8ccc(S(=O)(=O)[O-])cc8)c8ccc5[nH]8)C=C7)C=C6)cc4)cccc32)c1
REMARK SMILES IDX 18 1 17 2 16 3 15 4 13 5 14 6 12 8 7 9 8 10 86 11 9 12 10 13
REMARK SMILES IDX 11 14 85 15 84 16 83 17 6 18 1 19 2 20 3 21 87 22 4 23 5 24
REMARK SMILES IDX 19 25 20 26 21 27 22 29 23 30 24 31 82 32 25 33 81 34 26 35
REMARK SMILES IDX 27 36 28 37 75 38 29 39 80 40 74 41 76 42 30 43 79 44 73 45
REMARK SMILES IDX 72 46 31 48 61 49 42 50 60 51 43 52 46 53 59 54 77 55 44 56
REMARK SMILES IDX 45 57 58 59 78 60 47 61 32 62 33 63 41 64 34 65 40 66 35 67
REMARK SMILES IDX 36 68 37 69 38 70 39 71 62 72 63 73 71 74 64 75 70 76 65 77
REMARK SMILES IDX 66 78 67 79 68 80 69 81 48 82 49 83 57 84 50 85 56 86 51 87
REMARK SMILES IDX 52 88 53 89 54 90 55 91
REMARK H PARENT 15 7 20 28 76 47 46 58
REMARK Flexibility Score: inf
ROOT
ATOM      1  C   UNL A   1      36.717  21.080  25.091  1.00  0.00     0.023 C 
ENDROOT
BRANCH   1   2
ATOM      2  C   UNL A   1      35.247  21.245  25.514  1.00  0.00     0.023 C 
BRANCH   2   3
ATOM      3  C   UNL A   1      34.939  22.584  26.187  1.00  0.00     0.116 C 
BRANCH   3   4
ATOM      4  N   UNL A   1      33.765  22.480  27.028  1.00  0.00    -0.352 N 
ATOM      5  C   UNL A   1      32.441  22.810  26.869  1.00  0.00     0.253 C 
ATOM      6  O   UNL A   1      31.715  22.526  27.822  1.00  0.00    -0.269 OA
ATOM      7  H   UNL A   1      33.958  22.085  27.909  1.00  0.00     0.163 HD
BRANCH   5   8
ATOM      8  C   UNL A   1      31.881  23.430  25.633  1.00  0.00     0.067 A 
ATOM      9  N   UNL A   1      30.930  26.758  24.788  1.00  0.00    -0.281 N 
ATOM     10  C   UNL A   1      31.511  26.945  26.027  1.00  0.00     0.112 A 
ATOM     11  C   UNL A   1      31.005  25.399  24.499  1.00  0.00     0.075 A 
ATOM     12  C   UNL A   1      31.702  28.255  26.702  1.00  0.00     0.088 C 
ATOM     13  N   UNL A   1      31.801  25.786  26.582  1.00  0.00    -0.232 NA
ATOM     14  C   UNL A   1      31.583  24.817  25.629  1.00  0.00     0.102 A 
ATOM     15  C   UNL A   1      30.712  24.669  23.338  1.00  0.00     0.029 A 
ATOM     16  C   UNL A   1      31.091  23.332  23.311  1.00  0.00     0.003 A 
ATOM     17  C   UNL A   1      31.698  22.740  24.419  1.00  0.00     0.016 A 
BRANCH   9  18
ATOM     18  C   UNL A   1      30.437  27.755  23.911  1.00  0.00     0.138 A 
ATOM     19  C   UNL A   1      27.089  29.150  22.824  1.00  0.00     0.044 C 
ATOM     20  C   UNL A   1      28.559  28.876  22.918  1.00  0.00    -0.046 A 
ATOM     21  C   UNL A   1      29.462  29.550  22.095  1.00  0.00     0.023 A 
ATOM     22  C   UNL A   1      29.057  27.940  23.824  1.00  0.00     0.051 A 
ATOM     23  C   UNL A   1      30.819  29.311  22.257  1.00  0.00     0.114 A 
ATOM     24  N   UNL A   1      31.328  28.458  23.170  1.00  0.00    -0.239 NA
ENDBRANCH   9  18
ENDBRANCH   5   8
ENDBRANCH   3   4
ENDBRANCH   2   3
ENDBRANCH   1   2
BRANCH   1  25
ATOM     25  C   UNL A   1      37.644  22.189  25.598  1.00  0.00     0.116 C 
BRANCH  25  26
ATOM     26  N   UNL A   1      39.041  21.801  25.612  1.00  0.00    -0.352 N 
ATOM     27  C   UNL A   1      40.180  22.314  26.166  1.00  0.00     0.251 C 
ATOM     28  H   UNL A   1      39.208  20.974  25.103  1.00  0.00     0.163 HD
ATOM     29  O   UNL A   1      41.204  21.643  26.006  1.00  0.00    -0.269 OA
BRANCH  27  30
ATOM     30  C   UNL A   1      40.275  23.610  26.894  1.00  0.00     0.039 A 
ATOM     31  C   UNL A   1      39.533  24.754  26.603  1.00  0.00     0.014 A 
ATOM     32  C   UNL A   1      41.245  23.684  27.913  1.00  0.00     0.014 A 
ATOM     33  C   UNL A   1      39.803  25.955  27.246  1.00  0.00     0.010 A 
ATOM     34  C   UNL A   1      41.515  24.883  28.567  1.00  0.00     0.010 A 
ATOM     35  C   UNL A   1      40.824  26.030  28.194  1.00  0.00    -0.014 A 
BRANCH  35  36
ATOM     36  C   UNL A   1      41.136  27.358  28.709  1.00  0.00     0.031 A 
ATOM     37  C   UNL A   1      42.441  27.956  28.305  1.00  0.00     0.074 A 
ATOM     38  C   UNL A   1      40.302  28.030  29.525  1.00  0.00     0.049 A 
ATOM     39  N   UNL A   1      43.429  28.314  29.063  1.00  0.00    -0.248 NA
ATOM     40  C   UNL A   1      42.702  28.116  26.869  1.00  0.00     0.031 C 
ATOM     41  C   UNL A   1      38.897  27.751  29.834  1.00  0.00     0.029 A 
ATOM     42  N   UNL A   1      40.541  29.198  30.180  1.00  0.00    -0.354 N 
ATOM     43  C   UNL A   1      44.407  28.841  28.221  1.00  0.00     0.074 A 
ATOM     44  C   UNL A   1      43.932  28.634  26.874  1.00  0.00     0.031 C 
ATOM     45  C   UNL A   1      38.349  28.848  30.405  1.00  0.00     0.029 A 
ATOM     46  C   UNL A   1      39.397  29.827  30.637  1.00  0.00     0.049 A 
ATOM     47  H   UNL A   1      41.446  29.561  30.317  1.00  0.00     0.167 HD
ATOM     48  C   UNL A   1      45.515  29.493  28.675  1.00  0.00     0.031 A 
ATOM     49  C   UNL A   1      39.315  31.109  31.069  1.00  0.00     0.031 A 
ATOM     50  C   UNL A   1      45.737  29.284  30.077  1.00  0.00     0.049 A 
ATOM     51  C   UNL A   1      40.676  31.520  31.498  1.00  0.00     0.074 A 
ATOM     52  C   UNL A   1      46.083  28.192  30.846  1.00  0.00     0.029 A 
ATOM     53  N   UNL A   1      45.291  30.240  30.957  1.00  0.00    -0.354 N 
ATOM     54  N   UNL A   1      41.294  31.013  32.529  1.00  0.00    -0.248 NA
ATOM     55  C   UNL A   1      41.525  32.222  30.547  1.00  0.00     0.031 C 
ATOM     56  C   UNL A   1      45.383  28.368  32.072  1.00  0.00     0.029 A 
ATOM     57  C   UNL A   1      44.683  29.574  31.992  1.00  0.00     0.049 A 
ATOM     58  H   UNL A   1      45.389  31.215  30.862  1.00  0.00     0.167 HD
ATOM     59  C   UNL A   1      42.630  30.965  32.157  1.00  0.00     0.074 A 
ATOM     60  C   UNL A   1      42.725  31.823  30.979  1.00  0.00     0.031 C 
ATOM     61  C   UNL A   1      43.482  30.027  32.669  1.00  0.00     0.031 A 
BRANCH  48  62
ATOM     62  C   UNL A   1      46.328  30.478  27.878  1.00  0.00    -0.014 A 
ATOM     63  C   UNL A   1      45.778  31.666  27.358  1.00  0.00     0.010 A 
ATOM     64  C   UNL A   1      47.732  30.342  27.817  1.00  0.00     0.010 A 
ATOM     65  C   UNL A   1      46.576  32.658  26.782  1.00  0.00     0.020 A 
ATOM     66  C   UNL A   1      48.545  31.349  27.278  1.00  0.00     0.020 A 
ATOM     67  C   UNL A   1      47.959  32.502  26.759  1.00  0.00     0.054 A 
BRANCH  67  68
ATOM     68  S   UNL A   1      48.966  33.871  26.132  1.00  0.00     0.124 S 
ATOM     69  O   UNL A   1      49.307  34.584  27.360  1.00  0.00    -0.237 OA
ATOM     70  O   UNL A   1      50.071  33.174  25.480  1.00  0.00    -0.237 OA
ATOM     71  O   UNL A   1      48.062  34.579  25.229  1.00  0.00    -0.744 OA
ENDBRANCH  67  68
ENDBRANCH  48  62
BRANCH  49  72
ATOM     72  C   UNL A   1      38.291  32.089  30.625  1.00  0.00    -0.014 A 
ATOM     73  C   UNL A   1      37.230  32.445  31.486  1.00  0.00     0.010 A 
ATOM     74  C   UNL A   1      38.177  32.423  29.264  1.00  0.00     0.010 A 
ATOM     75  C   UNL A   1      36.059  33.023  30.995  1.00  0.00     0.020 A 
ATOM     76  C   UNL A   1      36.998  32.997  28.762  1.00  0.00     0.020 A 
ATOM     77  C   UNL A   1      35.931  33.251  29.627  1.00  0.00     0.054 A 
BRANCH  77  78
ATOM     78  S   UNL A   1      34.315  33.775  28.993  1.00  0.00     0.124 S 
ATOM     79  O   UNL A   1      33.820  32.539  28.381  1.00  0.00    -0.237 OA
ATOM     80  O   UNL A   1      33.617  34.185  30.215  1.00  0.00    -0.237 OA
ATOM     81  O   UNL A   1      34.632  34.847  28.069  1.00  0.00    -0.744 OA
ENDBRANCH  77  78
ENDBRANCH  49  72
BRANCH  61  82
ATOM     82  C   UNL A   1      43.017  29.170  33.830  1.00  0.00    -0.014 A 
ATOM     83  C   UNL A   1      43.647  29.340  35.077  1.00  0.00     0.010 A 
ATOM     84  C   UNL A   1      42.151  28.069  33.667  1.00  0.00     0.010 A 
ATOM     85  C   UNL A   1      43.451  28.425  36.114  1.00  0.00     0.020 A 
ATOM     86  C   UNL A   1      41.929  27.161  34.712  1.00  0.00     0.020 A 
ATOM     87  C   UNL A   1      42.605  27.331  35.922  1.00  0.00     0.054 A 
BRANCH  87  88
ATOM     88  S   UNL A   1      42.434  26.123  37.264  1.00  0.00     0.124 S 
ATOM     89  O   UNL A   1      42.722  24.862  36.583  1.00  0.00    -0.237 OA
ATOM     90  O   UNL A   1      43.448  26.558  38.223  1.00  0.00    -0.237 OA
ATOM     91  O   UNL A   1      41.053  26.283  37.712  1.00  0.00    -0.744 OA
ENDBRANCH  87  88
ENDBRANCH  61  82
ENDBRANCH  35  36
ENDBRANCH  27  30
ENDBRANCH  25  26
ENDBRANCH   1  25
TORSDOF 15
ENDMDL
