MODEL 1
REMARK VINA RESULT:     -13.9      0.000      0.000
REMARK SMILES Cc1cccc(-c2cccc(O)c2)c1C(=O)NCCCCNC(=O)c1ccc(-c2c3nc(c(-c4ccc(S(=O)(=O)[O-])cc4)c4ccc([nH]4)c(-c4ccc(S(=O)(=O)[O-])cc4)c4nc(c(-c5ccc(S(=O)(=O)[O-])cc5)c5ccc2[nH]5)C=C4)C=C3)cc1
REMARK SMILES IDX 20 1 19 2 18 3 17 4 15 5 16 6 14 8 1 9 2 10 3 11 4 12 6 13
REMARK SMILES IDX 5 14 7 15 8 16 13 17 9 18 11 19 10 20 12 21 21 23 22 24
REMARK SMILES IDX 23 25 24 27 25 28 26 29 84 30 27 31 83 32 28 33 29 34 30 35
REMARK SMILES IDX 77 36 31 37 82 38 76 39 78 40 32 41 81 42 75 43 74 44 33 46
REMARK SMILES IDX 63 47 44 48 62 49 45 50 48 51 61 52 79 53 46 54 47 55 60 57
REMARK SMILES IDX 80 58 49 59 34 60 35 61 43 62 36 63 42 64 37 65 38 66 39 67
REMARK SMILES IDX 40 68 41 69 64 70 65 71 73 72 66 73 72 74 67 75 68 76 69 77
REMARK SMILES IDX 70 78 71 79 50 80 51 81 59 82 52 83 58 84 53 85 54 86 55 87
REMARK SMILES IDX 56 88 57 89
REMARK H PARENT 17 7 12 22 22 26 78 45 48 56
REMARK Flexibility Score: inf
ROOT
ATOM      1  C   UNL A   1      33.329  29.868  26.294  1.00  0.00     0.023 C 
ENDROOT
BRANCH   1   2
ATOM      2  C   UNL A   1      31.910  29.616  26.807  1.00  0.00     0.023 C 
BRANCH   2   3
ATOM      3  C   UNL A   1      31.747  28.371  27.705  1.00  0.00     0.116 C 
BRANCH   3   4
ATOM      4  N   UNL A   1      30.930  27.355  27.062  1.00  0.00    -0.352 N 
ATOM      5  C   UNL A   1      30.795  26.696  25.872  1.00  0.00     0.252 C 
ATOM      6  O   UNL A   1      29.821  25.935  25.922  1.00  0.00    -0.269 OA
ATOM      7  H   UNL A   1      30.249  27.034  27.695  1.00  0.00     0.163 HD
BRANCH   5   8
ATOM      8  C   UNL A   1      31.644  26.758  24.604  1.00  0.00     0.050 A 
ATOM      9  C   UNL A   1      33.717  25.430  25.458  1.00  0.00     0.045 C 
ATOM     10  C   UNL A   1      32.891  26.100  24.404  1.00  0.00    -0.038 A 
ATOM     11  C   UNL A   1      33.543  26.137  23.146  1.00  0.00     0.004 A 
ATOM     12  C   UNL A   1      33.070  26.905  22.105  1.00  0.00     0.001 A 
ATOM     13  C   UNL A   1      31.191  27.608  23.525  1.00  0.00    -0.005 A 
ATOM     14  C   UNL A   1      31.928  27.655  22.309  1.00  0.00     0.009 A 
BRANCH  13  15
ATOM     15  C   UNL A   1      30.026  28.536  23.536  1.00  0.00    -0.014 A 
ATOM     16  C   UNL A   1      30.191  29.926  23.674  1.00  0.00     0.009 A 
ATOM     17  C   UNL A   1      28.732  28.063  23.251  1.00  0.00     0.055 A 
ATOM     18  C   UNL A   1      29.101  30.801  23.613  1.00  0.00     0.004 A 
ATOM     19  C   UNL A   1      27.658  28.944  23.144  1.00  0.00     0.116 A 
ATOM     20  C   UNL A   1      27.828  30.309  23.341  1.00  0.00     0.046 A 
BRANCH  19  21
ATOM     21  O   UNL A   1      26.437  28.425  22.820  1.00  0.00    -0.508 OA
ATOM     22  H   UNL A   1      25.786  28.970  22.428  1.00  0.00     0.293 HD
ENDBRANCH  19  21
ENDBRANCH  13  15
ENDBRANCH   5   8
ENDBRANCH   3   4
ENDBRANCH   2   3
ENDBRANCH   1   2
BRANCH   1  23
ATOM     23  C   UNL A   1      34.370  29.789  27.397  1.00  0.00     0.116 C 
BRANCH  23  24
ATOM     24  N   UNL A   1      35.179  30.994  27.556  1.00  0.00    -0.352 N 
ATOM     25  C   UNL A   1      36.491  31.062  27.982  1.00  0.00     0.251 C 
ATOM     26  H   UNL A   1      34.743  31.849  27.336  1.00  0.00     0.163 HD
ATOM     27  O   UNL A   1      37.017  32.115  28.332  1.00  0.00    -0.269 OA
BRANCH  25  28
ATOM     28  C   UNL A   1      37.288  29.821  27.884  1.00  0.00     0.039 A 
ATOM     29  C   UNL A   1      37.287  28.977  29.001  1.00  0.00     0.014 A 
ATOM     30  C   UNL A   1      38.265  29.710  26.899  1.00  0.00     0.014 A 
ATOM     31  C   UNL A   1      38.388  28.159  29.238  1.00  0.00     0.010 A 
ATOM     32  C   UNL A   1      39.406  28.997  27.200  1.00  0.00     0.010 A 
ATOM     33  C   UNL A   1      39.491  28.260  28.393  1.00  0.00    -0.014 A 
BRANCH  33  34
ATOM     34  C   UNL A   1      40.807  27.708  28.702  1.00  0.00     0.031 A 
ATOM     35  C   UNL A   1      41.091  26.284  28.399  1.00  0.00     0.074 A 
ATOM     36  C   UNL A   1      41.800  28.510  29.148  1.00  0.00     0.049 A 
ATOM     37  N   UNL A   1      42.061  25.600  28.907  1.00  0.00    -0.248 NA
ATOM     38  C   UNL A   1      40.230  25.488  27.528  1.00  0.00     0.031 C 
ATOM     39  C   UNL A   1      43.229  28.202  29.155  1.00  0.00     0.029 A 
ATOM     40  N   UNL A   1      41.713  29.691  29.889  1.00  0.00    -0.354 N 
ATOM     41  C   UNL A   1      42.156  24.427  28.191  1.00  0.00     0.074 A 
ATOM     42  C   UNL A   1      40.927  24.353  27.439  1.00  0.00     0.031 C 
ATOM     43  C   UNL A   1      43.826  28.957  30.090  1.00  0.00     0.029 A 
ATOM     44  C   UNL A   1      42.776  29.660  30.806  1.00  0.00     0.049 A 
ATOM     45  H   UNL A   1      41.039  30.403  29.788  1.00  0.00     0.167 HD
ATOM     46  C   UNL A   1      43.331  23.734  28.184  1.00  0.00     0.031 A 
ATOM     47  C   UNL A   1      42.625  29.671  32.163  1.00  0.00     0.031 A 
ATOM     48  C   UNL A   1      44.271  24.264  29.174  1.00  0.00     0.049 A 
ATOM     49  C   UNL A   1      43.240  28.465  32.840  1.00  0.00     0.074 A 
ATOM     50  C   UNL A   1      45.406  25.054  29.081  1.00  0.00     0.029 A 
ATOM     51  N   UNL A   1      43.929  24.226  30.522  1.00  0.00    -0.354 N 
ATOM     52  N   UNL A   1      43.640  27.401  32.202  1.00  0.00    -0.248 NA
ATOM     53  C   UNL A   1      43.407  28.333  34.287  1.00  0.00     0.031 C 
ATOM     54  C   UNL A   1      45.683  25.576  30.374  1.00  0.00     0.029 A 
ATOM     55  C   UNL A   1      44.739  25.073  31.254  1.00  0.00     0.049 A 
ATOM     56  H   UNL A   1      43.210  23.672  30.903  1.00  0.00     0.167 HD
ATOM     57  C   UNL A   1      44.085  26.461  33.092  1.00  0.00     0.074 A 
ATOM     58  C   UNL A   1      43.934  27.098  34.387  1.00  0.00     0.031 C 
ATOM     59  C   UNL A   1      44.527  25.235  32.686  1.00  0.00     0.031 A 
BRANCH  46  60
ATOM     60  C   UNL A   1      43.735  22.778  27.073  1.00  0.00    -0.014 A 
ATOM     61  C   UNL A   1      42.877  21.714  26.721  1.00  0.00     0.010 A 
ATOM     62  C   UNL A   1      44.974  22.801  26.405  1.00  0.00     0.010 A 
ATOM     63  C   UNL A   1      43.274  20.689  25.843  1.00  0.00     0.020 A 
ATOM     64  C   UNL A   1      45.396  21.776  25.545  1.00  0.00     0.020 A 
ATOM     65  C   UNL A   1      44.547  20.712  25.282  1.00  0.00     0.054 A 
BRANCH  65  66
ATOM     66  S   UNL A   1      45.088  19.344  24.225  1.00  0.00     0.124 S 
ATOM     67  O   UNL A   1      46.544  19.447  24.298  1.00  0.00    -0.237 OA
ATOM     68  O   UNL A   1      44.502  18.183  24.887  1.00  0.00    -0.237 OA
ATOM     69  O   UNL A   1      44.516  19.666  22.919  1.00  0.00    -0.744 OA
ENDBRANCH  65  66
ENDBRANCH  46  60
BRANCH  47  70
ATOM     70  C   UNL A   1      41.420  30.403  32.640  1.00  0.00    -0.014 A 
ATOM     71  C   UNL A   1      40.250  29.641  32.846  1.00  0.00     0.010 A 
ATOM     72  C   UNL A   1      41.555  31.640  33.296  1.00  0.00     0.010 A 
ATOM     73  C   UNL A   1      39.333  30.007  33.832  1.00  0.00     0.020 A 
ATOM     74  C   UNL A   1      40.631  32.010  34.284  1.00  0.00     0.020 A 
ATOM     75  C   UNL A   1      39.572  31.151  34.593  1.00  0.00     0.054 A 
BRANCH  75  76
ATOM     76  S   UNL A   1      38.616  31.364  36.125  1.00  0.00     0.124 S 
ATOM     77  O   UNL A   1      39.436  32.308  36.877  1.00  0.00    -0.237 OA
ATOM     78  O   UNL A   1      37.354  31.894  35.612  1.00  0.00    -0.237 OA
ATOM     79  O   UNL A   1      38.552  30.011  36.670  1.00  0.00    -0.744 OA
ENDBRANCH  75  76
ENDBRANCH  47  70
BRANCH  59  80
ATOM     80  C   UNL A   1      44.868  24.079  33.593  1.00  0.00    -0.014 A 
ATOM     81  C   UNL A   1      43.954  23.087  33.982  1.00  0.00     0.010 A 
ATOM     82  C   UNL A   1      46.219  23.897  33.976  1.00  0.00     0.010 A 
ATOM     83  C   UNL A   1      44.359  21.994  34.765  1.00  0.00     0.020 A 
ATOM     84  C   UNL A   1      46.639  22.792  34.720  1.00  0.00     0.020 A 
ATOM     85  C   UNL A   1      45.698  21.856  35.133  1.00  0.00     0.054 A 
BRANCH  85  86
ATOM     86  S   UNL A   1      46.229  20.409  36.085  1.00  0.00     0.124 S 
ATOM     87  O   UNL A   1      47.669  20.405  35.844  1.00  0.00    -0.237 OA
ATOM     88  O   UNL A   1      45.823  20.745  37.448  1.00  0.00    -0.237 OA
ATOM     89  O   UNL A   1      45.486  19.309  35.476  1.00  0.00    -0.744 OA
ENDBRANCH  85  86
ENDBRANCH  59  80
ENDBRANCH  33  34
ENDBRANCH  25  28
ENDBRANCH  23  24
ENDBRANCH   1  23
TORSDOF 16
ENDMDL
MODEL 2
REMARK VINA RESULT:     -13.5      5.428     11.802
REMARK SMILES Cc1cccc(-c2cccc(O)c2)c1C(=O)NCCCCNC(=O)c1ccc(-c2c3nc(c(-c4ccc(S(=O)(=O)[O-])cc4)c4ccc([nH]4)c(-c4ccc(S(=O)(=O)[O-])cc4)c4nc(c(-c5ccc(S(=O)(=O)[O-])cc5)c5ccc2[nH]5)C=C4)C=C3)cc1
REMARK SMILES IDX 20 1 19 2 18 3 17 4 15 5 16 6 14 8 1 9 2 10 3 11 4 12 6 13
REMARK SMILES IDX 5 14 7 15 8 16 13 17 9 18 11 19 10 20 12 21 21 23 22 24
REMARK SMILES IDX 23 25 24 27 25 28 26 29 84 30 27 31 83 32 28 33 29 34 30 35
REMARK SMILES IDX 77 36 31 37 82 38 76 39 78 40 32 41 81 42 75 43 74 44 33 46
REMARK SMILES IDX 63 47 44 48 62 49 45 50 48 51 61 52 79 53 46 54 47 55 60 57
REMARK SMILES IDX 80 58 49 59 34 60 35 61 43 62 36 63 42 64 37 65 38 66 39 67
REMARK SMILES IDX 40 68 41 69 64 70 65 71 73 72 66 73 72 74 67 75 68 76 69 77
REMARK SMILES IDX 70 78 71 79 50 80 51 81 59 82 52 83 58 84 53 85 54 86 55 87
REMARK SMILES IDX 56 88 57 89
REMARK H PARENT 17 7 12 22 22 26 78 45 48 56
REMARK Flexibility Score: inf
ROOT
ATOM      1  C   UNL A   1      37.862  21.862  25.489  1.00  0.00     0.023 C 
ENDROOT
BRANCH   1   2
ATOM      2  C   UNL A   1      36.501  22.078  24.821  1.00  0.00     0.023 C 
BRANCH   2   3
ATOM      3  C   UNL A   1      36.403  23.327  23.920  1.00  0.00     0.116 C 
BRANCH   3   4
ATOM      4  N   UNL A   1      35.299  23.220  22.981  1.00  0.00    -0.352 N 
ATOM      5  C   UNL A   1      33.937  23.100  22.950  1.00  0.00     0.252 C 
ATOM      6  O   UNL A   1      33.551  22.996  21.780  1.00  0.00    -0.269 OA
ATOM      7  H   UNL A   1      35.647  23.241  22.061  1.00  0.00     0.163 HD
BRANCH   5   8
ATOM      8  C   UNL A   1      32.917  23.109  24.087  1.00  0.00     0.050 A 
ATOM      9  C   UNL A   1      33.023  25.643  24.687  1.00  0.00     0.045 C 
ATOM     10  C   UNL A   1      32.446  24.265  24.775  1.00  0.00    -0.038 A 
ATOM     11  C   UNL A   1      31.414  24.169  25.741  1.00  0.00     0.004 A 
ATOM     12  C   UNL A   1      30.911  22.953  26.148  1.00  0.00     0.001 A 
ATOM     13  C   UNL A   1      32.424  21.837  24.566  1.00  0.00    -0.005 A 
ATOM     14  C   UNL A   1      31.437  21.805  25.590  1.00  0.00     0.009 A 
BRANCH  13  15
ATOM     15  C   UNL A   1      32.877  20.481  24.151  1.00  0.00    -0.014 A 
ATOM     16  C   UNL A   1      33.902  19.803  24.836  1.00  0.00     0.009 A 
ATOM     17  C   UNL A   1      32.184  19.768  23.155  1.00  0.00     0.055 A 
ATOM     18  C   UNL A   1      34.277  18.501  24.489  1.00  0.00     0.004 A 
ATOM     19  C   UNL A   1      32.530  18.454  22.846  1.00  0.00     0.116 A 
ATOM     20  C   UNL A   1      33.585  17.820  23.492  1.00  0.00     0.046 A 
BRANCH  19  21
ATOM     21  O   UNL A   1      31.788  17.805  21.901  1.00  0.00    -0.508 OA
ATOM     22  H   UNL A   1      31.200  17.123  22.156  1.00  0.00     0.293 HD
ENDBRANCH  19  21
ENDBRANCH  13  15
ENDBRANCH   5   8
ENDBRANCH   3   4
ENDBRANCH   2   3
ENDBRANCH   1   2
BRANCH   1  23
ATOM     23  C   UNL A   1      38.354  23.097  26.221  1.00  0.00     0.116 C 
BRANCH  23  24
ATOM     24  N   UNL A   1      39.519  22.875  27.073  1.00  0.00    -0.352 N 
ATOM     25  C   UNL A   1      40.313  23.839  27.662  1.00  0.00     0.251 C 
ATOM     26  H   UNL A   1      39.764  21.936  27.246  1.00  0.00     0.163 HD
ATOM     27  O   UNL A   1      41.411  23.583  28.147  1.00  0.00    -0.269 OA
BRANCH  25  28
ATOM     28  C   UNL A   1      39.729  25.191  27.797  1.00  0.00     0.039 A 
ATOM     29  C   UNL A   1      40.211  26.178  26.930  1.00  0.00     0.014 A 
ATOM     30  C   UNL A   1      39.039  25.526  28.957  1.00  0.00     0.014 A 
ATOM     31  C   UNL A   1      40.185  27.510  27.333  1.00  0.00     0.010 A 
ATOM     32  C   UNL A   1      39.129  26.826  29.409  1.00  0.00     0.010 A 
ATOM     33  C   UNL A   1      39.746  27.811  28.620  1.00  0.00    -0.014 A 
BRANCH  33  34
ATOM     34  C   UNL A   1      39.961  29.100  29.273  1.00  0.00     0.031 A 
ATOM     35  C   UNL A   1      38.948  30.172  29.122  1.00  0.00     0.074 A 
ATOM     36  C   UNL A   1      41.009  29.280  30.108  1.00  0.00     0.049 A 
ATOM     37  N   UNL A   1      39.159  31.425  29.357  1.00  0.00    -0.248 NA
ATOM     38  C   UNL A   1      37.606  29.909  28.611  1.00  0.00     0.031 C 
ATOM     39  C   UNL A   1      41.162  30.347  31.095  1.00  0.00     0.029 A 
ATOM     40  N   UNL A   1      42.261  28.659  30.096  1.00  0.00    -0.354 N 
ATOM     41  C   UNL A   1      37.932  32.053  29.365  1.00  0.00     0.074 A 
ATOM     42  C   UNL A   1      37.025  31.098  28.776  1.00  0.00     0.031 C 
ATOM     43  C   UNL A   1      42.468  30.509  31.354  1.00  0.00     0.029 A 
ATOM     44  C   UNL A   1      43.195  29.653  30.434  1.00  0.00     0.049 A 
ATOM     45  H   UNL A   1      42.450  27.715  29.890  1.00  0.00     0.167 HD
ATOM     46  C   UNL A   1      37.787  33.241  30.020  1.00  0.00     0.031 A 
ATOM     47  C   UNL A   1      44.214  30.061  29.620  1.00  0.00     0.031 A 
ATOM     48  C   UNL A   1      39.082  33.787  30.432  1.00  0.00     0.049 A 
ATOM     49  C   UNL A   1      44.164  31.540  29.301  1.00  0.00     0.074 A 
ATOM     50  C   UNL A   1      39.740  33.858  31.649  1.00  0.00     0.029 A 
ATOM     51  N   UNL A   1      40.020  34.114  29.459  1.00  0.00    -0.354 N 
ATOM     52  N   UNL A   1      43.132  32.299  29.545  1.00  0.00    -0.248 NA
ATOM     53  C   UNL A   1      45.239  32.273  28.635  1.00  0.00     0.031 C 
ATOM     54  C   UNL A   1      41.110  34.131  31.390  1.00  0.00     0.029 A 
ATOM     55  C   UNL A   1      41.274  34.260  30.022  1.00  0.00     0.049 A 
ATOM     56  H   UNL A   1      39.820  34.227  28.502  1.00  0.00     0.167 HD
ATOM     57  C   UNL A   1      43.364  33.566  29.082  1.00  0.00     0.074 A 
ATOM     58  C   UNL A   1      44.706  33.504  28.533  1.00  0.00     0.031 C 
ATOM     59  C   UNL A   1      42.426  34.553  29.179  1.00  0.00     0.031 A 
BRANCH  46  60
ATOM     60  C   UNL A   1      36.456  33.748  30.551  1.00  0.00    -0.014 A 
ATOM     61  C   UNL A   1      35.481  34.227  29.650  1.00  0.00     0.010 A 
ATOM     62  C   UNL A   1      36.133  33.880  31.915  1.00  0.00     0.010 A 
ATOM     63  C   UNL A   1      34.315  34.885  30.084  1.00  0.00     0.020 A 
ATOM     64  C   UNL A   1      34.988  34.552  32.367  1.00  0.00     0.020 A 
ATOM     65  C   UNL A   1      34.091  35.070  31.445  1.00  0.00     0.054 A 
BRANCH  65  66
ATOM     66  S   UNL A   1      32.637  35.997  31.998  1.00  0.00     0.124 S 
ATOM     67  O   UNL A   1      33.200  36.898  33.001  1.00  0.00    -0.237 OA
ATOM     68  O   UNL A   1      32.179  36.630  30.766  1.00  0.00    -0.237 OA
ATOM     69  O   UNL A   1      31.749  34.965  32.531  1.00  0.00    -0.744 OA
ENDBRANCH  65  66
ENDBRANCH  46  60
BRANCH  47  70
ATOM     70  C   UNL A   1      44.739  29.003  28.715  1.00  0.00    -0.014 A 
ATOM     71  C   UNL A   1      44.069  28.826  27.485  1.00  0.00     0.010 A 
ATOM     72  C   UNL A   1      46.065  28.555  28.841  1.00  0.00     0.010 A 
ATOM     73  C   UNL A   1      44.767  28.397  26.356  1.00  0.00     0.020 A 
ATOM     74  C   UNL A   1      46.766  28.119  27.708  1.00  0.00     0.020 A 
ATOM     75  C   UNL A   1      46.129  28.118  26.463  1.00  0.00     0.054 A 
BRANCH  75  76
ATOM     76  S   UNL A   1      47.089  27.984  24.924  1.00  0.00     0.124 S 
ATOM     77  O   UNL A   1      46.681  26.680  24.412  1.00  0.00    -0.237 OA
ATOM     78  O   UNL A   1      46.599  29.138  24.172  1.00  0.00    -0.237 OA
ATOM     79  O   UNL A   1      48.471  28.077  25.384  1.00  0.00    -0.744 OA
ENDBRANCH  75  76
ENDBRANCH  47  70
BRANCH  59  80
ATOM     80  C   UNL A   1      42.519  35.919  28.547  1.00  0.00    -0.014 A 
ATOM     81  C   UNL A   1      41.892  36.274  27.342  1.00  0.00     0.010 A 
ATOM     82  C   UNL A   1      43.163  36.954  29.267  1.00  0.00     0.010 A 
ATOM     83  C   UNL A   1      41.955  37.587  26.850  1.00  0.00     0.020 A 
ATOM     84  C   UNL A   1      43.195  38.273  28.807  1.00  0.00     0.020 A 
ATOM     85  C   UNL A   1      42.610  38.578  27.584  1.00  0.00     0.054 A 
BRANCH  85  86
ATOM     86  S   UNL A   1      42.630  40.285  26.980  1.00  0.00     0.124 S 
ATOM     87  O   UNL A   1      41.216  40.520  26.700  1.00  0.00    -0.237 OA
ATOM     88  O   UNL A   1      43.175  41.029  28.114  1.00  0.00    -0.237 OA
ATOM     89  O   UNL A   1      43.501  40.223  25.809  1.00  0.00    -0.744 OA
ENDBRANCH  85  86
ENDBRANCH  59  80
ENDBRANCH  33  34
ENDBRANCH  25  28
ENDBRANCH  23  24
ENDBRANCH   1  23
TORSDOF 16
ENDMDL
MODEL 3
REMARK VINA RESULT:     -13.0      5.076     11.396
REMARK SMILES Cc1cccc(-c2cccc(O)c2)c1C(=O)NCCCCNC(=O)c1ccc(-c2c3nc(c(-c4ccc(S(=O)(=O)[O-])cc4)c4ccc([nH]4)c(-c4ccc(S(=O)(=O)[O-])cc4)c4nc(c(-c5ccc(S(=O)(=O)[O-])cc5)c5ccc2[nH]5)C=C4)C=C3)cc1
REMARK SMILES IDX 20 1 19 2 18 3 17 4 15 5 16 6 14 8 1 9 2 10 3 11 4 12 6 13
REMARK SMILES IDX 5 14 7 15 8 16 13 17 9 18 11 19 10 20 12 21 21 23 22 24
REMARK SMILES IDX 23 25 24 27 25 28 26 29 84 30 27 31 83 32 28 33 29 34 30 35
REMARK SMILES IDX 77 36 31 37 82 38 76 39 78 40 32 41 81 42 75 43 74 44 33 46
REMARK SMILES IDX 63 47 44 48 62 49 45 50 48 51 61 52 79 53 46 54 47 55 60 57
REMARK SMILES IDX 80 58 49 59 34 60 35 61 43 62 36 63 42 64 37 65 38 66 39 67
REMARK SMILES IDX 40 68 41 69 64 70 65 71 73 72 66 73 72 74 67 75 68 76 69 77
REMARK SMILES IDX 70 78 71 79 50 80 51 81 59 82 52 83 58 84 53 85 54 86 55 87
REMARK SMILES IDX 56 88 57 89
REMARK H PARENT 17 7 12 22 22 26 78 45 48 56
REMARK Flexibility Score: inf
ROOT
ATOM      1  C   UNL A   1      37.593  21.857  25.593  1.00  0.00     0.023 C 
ENDROOT
BRANCH   1   2
ATOM      2  C   UNL A   1      37.073  22.194  24.194  1.00  0.00     0.023 C 
BRANCH   2   3
ATOM      3  C   UNL A   1      36.315  23.533  24.080  1.00  0.00     0.116 C 
BRANCH   3   4
ATOM      4  N   UNL A   1      35.276  23.471  23.065  1.00  0.00    -0.352 N 
ATOM      5  C   UNL A   1      33.930  23.269  22.932  1.00  0.00     0.252 C 
ATOM      6  O   UNL A   1      33.620  23.285  21.735  1.00  0.00    -0.269 OA
ATOM      7  H   UNL A   1      35.674  23.629  22.179  1.00  0.00     0.163 HD
BRANCH   5   8
ATOM      8  C   UNL A   1      32.850  23.071  23.993  1.00  0.00     0.050 A 
ATOM      9  C   UNL A   1      32.659  20.475  23.878  1.00  0.00     0.045 C 
ATOM     10  C   UNL A   1      32.375  21.818  24.476  1.00  0.00    -0.038 A 
ATOM     11  C   UNL A   1      31.445  21.751  25.543  1.00  0.00     0.004 A 
ATOM     12  C   UNL A   1      30.869  22.883  26.076  1.00  0.00     0.001 A 
ATOM     13  C   UNL A   1      32.193  24.247  24.520  1.00  0.00    -0.005 A 
ATOM     14  C   UNL A   1      31.216  24.109  25.544  1.00  0.00     0.009 A 
BRANCH  13  15
ATOM     15  C   UNL A   1      32.368  25.655  24.068  1.00  0.00    -0.014 A 
ATOM     16  C   UNL A   1      33.497  26.412  24.430  1.00  0.00     0.009 A 
ATOM     17  C   UNL A   1      31.483  26.223  23.132  1.00  0.00     0.055 A 
ATOM     18  C   UNL A   1      33.694  27.710  23.947  1.00  0.00     0.004 A 
ATOM     19  C   UNL A   1      31.709  27.497  22.617  1.00  0.00     0.116 A 
ATOM     20  C   UNL A   1      32.799  28.255  23.031  1.00  0.00     0.046 A 
BRANCH  19  21
ATOM     21  O   UNL A   1      30.837  27.970  21.679  1.00  0.00    -0.508 OA
ATOM     22  H   UNL A   1      30.178  28.588  21.922  1.00  0.00     0.293 HD
ENDBRANCH  19  21
ENDBRANCH  13  15
ENDBRANCH   5   8
ENDBRANCH   3   4
ENDBRANCH   2   3
ENDBRANCH   1   2
BRANCH   1  23
ATOM     23  C   UNL A   1      38.103  23.079  26.335  1.00  0.00     0.116 C 
BRANCH  23  24
ATOM     24  N   UNL A   1      39.359  22.875  27.052  1.00  0.00    -0.352 N 
ATOM     25  C   UNL A   1      40.205  23.852  27.538  1.00  0.00     0.251 C 
ATOM     26  H   UNL A   1      39.631  21.940  27.205  1.00  0.00     0.163 HD
ATOM     27  O   UNL A   1      41.354  23.610  27.899  1.00  0.00    -0.269 OA
BRANCH  25  28
ATOM     28  C   UNL A   1      39.628  25.200  27.726  1.00  0.00     0.039 A 
ATOM     29  C   UNL A   1      40.075  26.206  26.862  1.00  0.00     0.014 A 
ATOM     30  C   UNL A   1      38.984  25.510  28.920  1.00  0.00     0.014 A 
ATOM     31  C   UNL A   1      40.065  27.529  27.295  1.00  0.00     0.010 A 
ATOM     32  C   UNL A   1      39.093  26.800  29.395  1.00  0.00     0.010 A 
ATOM     33  C   UNL A   1      39.679  27.802  28.604  1.00  0.00    -0.014 A 
BRANCH  33  34
ATOM     34  C   UNL A   1      39.920  29.076  29.276  1.00  0.00     0.031 A 
ATOM     35  C   UNL A   1      38.919  30.164  29.159  1.00  0.00     0.074 A 
ATOM     36  C   UNL A   1      40.983  29.229  30.098  1.00  0.00     0.049 A 
ATOM     37  N   UNL A   1      39.149  31.410  29.411  1.00  0.00    -0.248 NA
ATOM     38  C   UNL A   1      37.566  29.926  28.664  1.00  0.00     0.031 C 
ATOM     39  C   UNL A   1      41.165  30.277  31.099  1.00  0.00     0.029 A 
ATOM     40  N   UNL A   1      42.227  28.593  30.056  1.00  0.00    -0.354 N 
ATOM     41  C   UNL A   1      37.931  32.053  29.449  1.00  0.00     0.074 A 
ATOM     42  C   UNL A   1      37.003  31.121  28.857  1.00  0.00     0.031 C 
ATOM     43  C   UNL A   1      42.477  30.418  31.341  1.00  0.00     0.029 A 
ATOM     44  C   UNL A   1      43.178  29.568  30.396  1.00  0.00     0.049 A 
ATOM     45  H   UNL A   1      42.400  27.649  29.831  1.00  0.00     0.167 HD
ATOM     46  C   UNL A   1      37.811  33.231  30.126  1.00  0.00     0.031 A 
ATOM     47  C   UNL A   1      44.190  29.978  29.574  1.00  0.00     0.031 A 
ATOM     48  C   UNL A   1      39.119  33.753  30.528  1.00  0.00     0.049 A 
ATOM     49  C   UNL A   1      44.154  31.462  29.281  1.00  0.00     0.074 A 
ATOM     50  C   UNL A   1      39.797  33.796  31.736  1.00  0.00     0.029 A 
ATOM     51  N   UNL A   1      40.047  34.085  29.546  1.00  0.00    -0.354 N 
ATOM     52  N   UNL A   1      43.136  32.230  29.553  1.00  0.00    -0.248 NA
ATOM     53  C   UNL A   1      45.229  32.192  28.610  1.00  0.00     0.031 C 
ATOM     54  C   UNL A   1      41.166  34.055  31.460  1.00  0.00     0.029 A 
ATOM     55  C   UNL A   1      41.311  34.206  30.092  1.00  0.00     0.049 A 
ATOM     56  H   UNL A   1      39.834  34.217  28.594  1.00  0.00     0.167 HD
ATOM     57  C   UNL A   1      43.377  33.502  29.109  1.00  0.00     0.074 A 
ATOM     58  C   UNL A   1      44.711  33.432  28.538  1.00  0.00     0.031 C 
ATOM     59  C   UNL A   1      42.454  34.498  29.236  1.00  0.00     0.031 A 
BRANCH  46  60
ATOM     60  C   UNL A   1      36.495  33.747  30.686  1.00  0.00    -0.014 A 
ATOM     61  C   UNL A   1      35.441  34.072  29.805  1.00  0.00     0.010 A 
ATOM     62  C   UNL A   1      36.257  34.031  32.044  1.00  0.00     0.010 A 
ATOM     63  C   UNL A   1      34.276  34.731  30.240  1.00  0.00     0.020 A 
ATOM     64  C   UNL A   1      35.113  34.708  32.492  1.00  0.00     0.020 A 
ATOM     65  C   UNL A   1      34.133  35.072  31.581  1.00  0.00     0.054 A 
BRANCH  65  66
ATOM     66  S   UNL A   1      32.676  36.001  32.122  1.00  0.00     0.124 S 
ATOM     67  O   UNL A   1      31.777  34.942  32.574  1.00  0.00    -0.237 OA
ATOM     68  O   UNL A   1      33.220  36.859  33.169  1.00  0.00    -0.237 OA
ATOM     69  O   UNL A   1      32.240  36.700  30.913  1.00  0.00    -0.744 OA
ENDBRANCH  65  66
ENDBRANCH  46  60
BRANCH  47  70
ATOM     70  C   UNL A   1      44.687  28.929  28.643  1.00  0.00    -0.014 A 
ATOM     71  C   UNL A   1      44.049  28.836  27.387  1.00  0.00     0.010 A 
ATOM     72  C   UNL A   1      45.983  28.405  28.791  1.00  0.00     0.010 A 
ATOM     73  C   UNL A   1      44.760  28.414  26.263  1.00  0.00     0.020 A 
ATOM     74  C   UNL A   1      46.697  27.976  27.662  1.00  0.00     0.020 A 
ATOM     75  C   UNL A   1      46.100  28.058  26.400  1.00  0.00     0.054 A 
BRANCH  75  76
ATOM     76  S   UNL A   1      47.102  27.932  24.887  1.00  0.00     0.124 S 
ATOM     77  O   UNL A   1      48.453  28.168  25.385  1.00  0.00    -0.237 OA
ATOM     78  O   UNL A   1      46.817  26.563  24.460  1.00  0.00    -0.237 OA
ATOM     79  O   UNL A   1      46.552  28.982  24.034  1.00  0.00    -0.744 OA
ENDBRANCH  75  76
ENDBRANCH  47  70
BRANCH  59  80
ATOM     80  C   UNL A   1      42.555  35.874  28.626  1.00  0.00    -0.014 A 
ATOM     81  C   UNL A   1      41.937  36.250  27.423  1.00  0.00     0.010 A 
ATOM     82  C   UNL A   1      43.198  36.896  29.366  1.00  0.00     0.010 A 
ATOM     83  C   UNL A   1      42.006  37.571  26.953  1.00  0.00     0.020 A 
ATOM     84  C   UNL A   1      43.238  38.222  28.927  1.00  0.00     0.020 A 
ATOM     85  C   UNL A   1      42.660  38.547  27.705  1.00  0.00     0.054 A 
BRANCH  85  86
ATOM     86  S   UNL A   1      42.690  40.264  27.128  1.00  0.00     0.124 S 
ATOM     87  O   UNL A   1      43.219  40.963  28.296  1.00  0.00    -0.237 OA
ATOM     88  O   UNL A   1      43.585  40.208  25.974  1.00  0.00    -0.237 OA
ATOM     89  O   UNL A   1      41.292  40.540  26.810  1.00  0.00    -0.744 OA
ENDBRANCH  85  86
ENDBRANCH  59  80
ENDBRANCH  33  34
ENDBRANCH  25  28
ENDBRANCH  23  24
ENDBRANCH   1  23
TORSDOF 16
ENDMDL
