MODEL 1
REMARK VINA RESULT:      -9.0      0.000      0.000
REMARK SMILES C[C@@H](C(=O)NCCCCNC(=O)c1ccc(-c2c3nc(c(-c4ccc(S(=O)(=O)[O-])cc4)c4ccc([nH]4)c(-c4ccc(S(=O)(=O)[O-])cc4)c4nc(c(-c5ccc(S(=O)(=O)[O-])cc5)c5ccc2[nH]5)C=C4)C=C3)cc1)c1ccc(Cc2ccoc2)cc1F
REMARK SMILES IDX 7 1 6 2 5 3 3 4 4 5 2 7 1 8 73 9 74 10 84 11 75 12 83 13
REMARK SMILES IDX 85 14 76 15 77 16 78 17 79 18 82 19 80 20 81 21 8 22 9 23
REMARK SMILES IDX 10 24 11 25 12 27 13 28 14 29 72 30 15 31 71 32 16 33 17 34
REMARK SMILES IDX 18 35 65 36 19 37 70 38 64 39 66 40 20 41 69 42 63 43 62 44
REMARK SMILES IDX 21 46 51 47 32 48 50 49 33 50 36 51 49 52 67 53 34 54 35 55
REMARK SMILES IDX 48 57 68 58 37 59 22 60 23 61 31 62 24 63 30 64 25 65 26 66
REMARK SMILES IDX 27 67 28 68 29 69 52 70 53 71 61 72 54 73 60 74 55 75 56 76
REMARK SMILES IDX 57 77 58 78 59 79 38 80 39 81 47 82 40 83 46 84 41 85 42 86
REMARK SMILES IDX 43 87 44 88 45 89
REMARK H PARENT 5 6 10 26 66 45 36 56
REMARK Flexibility Score: inf
ROOT
ATOM      1  C   UNL A   1      34.059  35.269  28.782  1.00  0.00     0.023 C 
ENDROOT
BRANCH   1   2
ATOM      2  C   UNL A   1      33.278  35.021  30.074  1.00  0.00     0.116 C 
BRANCH   2   3
ATOM      3  N   UNL A   1      33.907  35.686  31.196  1.00  0.00    -0.356 N 
ATOM      4  C   UNL A   1      34.829  35.225  32.092  1.00  0.00     0.227 C 
ATOM      5  O   UNL A   1      35.097  35.964  33.041  1.00  0.00    -0.274 OA
ATOM      6  H   UNL A   1      33.625  36.619  31.336  1.00  0.00     0.163 HD
BRANCH   4   7
ATOM      7  C   UNL A   1      35.504  33.857  31.883  1.00  0.00     0.108 C 
ATOM      8  C   UNL A   1      35.534  33.026  33.173  1.00  0.00     0.023 C 
BRANCH   7   9
ATOM      9  C   UNL A   1      36.900  34.025  31.288  1.00  0.00    -0.000 A 
ATOM     10  C   UNL A   1      37.202  33.659  29.970  1.00  0.00     0.008 A 
ATOM     11  C   UNL A   1      37.942  34.515  32.082  1.00  0.00     0.127 A 
ATOM     12  C   UNL A   1      38.488  33.832  29.455  1.00  0.00     0.004 A 
ATOM     13  C   UNL A   1      39.241  34.656  31.584  1.00  0.00     0.043 A 
ATOM     14  F   UNL A   1      37.697  34.885  33.348  1.00  0.00    -0.207 F 
ATOM     15  C   UNL A   1      39.532  34.317  30.256  1.00  0.00    -0.041 A 
BRANCH  15  16
ATOM     16  C   UNL A   1      40.913  34.528  29.682  1.00  0.00     0.074 C 
BRANCH  16  17
ATOM     17  C   UNL A   1      41.840  33.520  30.278  1.00  0.00    -0.005 A 
ATOM     18  C   UNL A   1      42.218  32.240  29.770  1.00  0.00     0.046 A 
ATOM     19  C   UNL A   1      42.594  33.678  31.427  1.00  0.00     0.198 A 
ATOM     20  C   UNL A   1      43.139  31.718  30.646  1.00  0.00     0.195 A 
ATOM     21  O   UNL A   1      43.381  32.595  31.651  1.00  0.00    -0.472 OA
ENDBRANCH  16  17
ENDBRANCH  15  16
ENDBRANCH   7   9
ENDBRANCH   4   7
ENDBRANCH   2   3
ENDBRANCH   1   2
BRANCH   1  22
ATOM     22  C   UNL A   1      34.274  34.024  27.914  1.00  0.00     0.023 C 
BRANCH  22  23
ATOM     23  C   UNL A   1      33.952  32.697  28.591  1.00  0.00     0.116 C 
BRANCH  23  24
ATOM     24  N   UNL A   1      33.704  31.624  27.641  1.00  0.00    -0.352 N 
ATOM     25  C   UNL A   1      34.491  30.539  27.341  1.00  0.00     0.251 C 
ATOM     26  H   UNL A   1      32.854  31.683  27.147  1.00  0.00     0.163 HD
ATOM     27  O   UNL A   1      34.183  29.797  26.413  1.00  0.00    -0.269 OA
BRANCH  25  28
ATOM     28  C   UNL A   1      35.726  30.293  28.116  1.00  0.00     0.039 A 
ATOM     29  C   UNL A   1      35.627  29.654  29.355  1.00  0.00     0.014 A 
ATOM     30  C   UNL A   1      36.975  30.672  27.616  1.00  0.00     0.014 A 
ATOM     31  C   UNL A   1      36.789  29.337  30.062  1.00  0.00     0.010 A 
ATOM     32  C   UNL A   1      38.133  30.294  28.291  1.00  0.00     0.010 A 
ATOM     33  C   UNL A   1      38.052  29.622  29.519  1.00  0.00    -0.014 A 
BRANCH  33  34
ATOM     34  C   UNL A   1      39.300  29.214  30.214  1.00  0.00     0.031 A 
ATOM     35  C   UNL A   1      39.742  29.931  31.461  1.00  0.00     0.074 A 
ATOM     36  C   UNL A   1      40.070  28.244  29.683  1.00  0.00     0.049 A 
ATOM     37  N   UNL A   1      40.829  29.757  32.169  1.00  0.00    -0.248 NA
ATOM     38  C   UNL A   1      38.862  30.997  31.964  1.00  0.00     0.031 C 
ATOM     39  C   UNL A   1      39.775  27.506  28.452  1.00  0.00     0.029 A 
ATOM     40  N   UNL A   1      41.268  27.721  30.104  1.00  0.00    -0.354 N 
ATOM     41  C   UNL A   1      40.774  30.703  33.185  1.00  0.00     0.074 A 
ATOM     42  C   UNL A   1      39.569  31.476  32.977  1.00  0.00     0.031 C 
ATOM     43  C   UNL A   1      40.752  26.611  28.232  1.00  0.00     0.029 A 
ATOM     44  C   UNL A   1      41.760  26.737  29.279  1.00  0.00     0.049 A 
ATOM     45  H   UNL A   1      41.729  28.021  30.920  1.00  0.00     0.167 HD
ATOM     46  C   UNL A   1      41.639  30.901  34.207  1.00  0.00     0.031 A 
ATOM     47  C   UNL A   1      42.899  26.020  29.351  1.00  0.00     0.031 A 
ATOM     48  C   UNL A   1      42.830  30.121  34.420  1.00  0.00     0.049 A 
ATOM     49  C   UNL A   1      43.841  26.253  30.500  1.00  0.00     0.074 A 
ATOM     50  C   UNL A   1      43.735  30.201  35.464  1.00  0.00     0.029 A 
ATOM     51  N   UNL A   1      43.282  29.120  33.574  1.00  0.00    -0.354 N 
ATOM     52  N   UNL A   1      43.735  27.104  31.491  1.00  0.00    -0.248 NA
ATOM     53  C   UNL A   1      45.049  25.417  30.548  1.00  0.00     0.031 C 
ATOM     54  C   UNL A   1      44.761  29.282  35.223  1.00  0.00     0.029 A 
ATOM     55  C   UNL A   1      44.466  28.590  34.059  1.00  0.00     0.049 A 
ATOM     56  H   UNL A   1      42.829  28.828  32.750  1.00  0.00     0.167 HD
ATOM     57  C   UNL A   1      44.850  26.892  32.294  1.00  0.00     0.074 A 
ATOM     58  C   UNL A   1      45.609  25.821  31.680  1.00  0.00     0.031 C 
ATOM     59  C   UNL A   1      45.212  27.525  33.437  1.00  0.00     0.031 A 
BRANCH  46  60
ATOM     60  C   UNL A   1      41.332  32.013  35.175  1.00  0.00    -0.014 A 
ATOM     61  C   UNL A   1      40.540  31.787  36.316  1.00  0.00     0.010 A 
ATOM     62  C   UNL A   1      41.876  33.293  34.965  1.00  0.00     0.010 A 
ATOM     63  C   UNL A   1      40.263  32.828  37.205  1.00  0.00     0.020 A 
ATOM     64  C   UNL A   1      41.625  34.332  35.867  1.00  0.00     0.020 A 
ATOM     65  C   UNL A   1      40.805  34.096  36.972  1.00  0.00     0.054 A 
BRANCH  65  66
ATOM     66  S   UNL A   1      40.448  35.425  38.155  1.00  0.00     0.124 S 
ATOM     67  O   UNL A   1      41.602  35.347  39.049  1.00  0.00    -0.237 OA
ATOM     68  O   UNL A   1      40.396  36.609  37.301  1.00  0.00    -0.237 OA
ATOM     69  O   UNL A   1      39.174  35.029  38.747  1.00  0.00    -0.744 OA
ENDBRANCH  65  66
ENDBRANCH  46  60
BRANCH  47  70
ATOM     70  C   UNL A   1      43.201  25.003  28.308  1.00  0.00    -0.014 A 
ATOM     71  C   UNL A   1      43.910  25.361  27.147  1.00  0.00     0.010 A 
ATOM     72  C   UNL A   1      42.803  23.666  28.480  1.00  0.00     0.010 A 
ATOM     73  C   UNL A   1      44.203  24.403  26.173  1.00  0.00     0.020 A 
ATOM     74  C   UNL A   1      43.117  22.699  27.521  1.00  0.00     0.020 A 
ATOM     75  C   UNL A   1      43.807  23.077  26.367  1.00  0.00     0.054 A 
BRANCH  75  76
ATOM     76  S   UNL A   1      44.252  21.838  25.117  1.00  0.00     0.124 S 
ATOM     77  O   UNL A   1      43.281  20.781  25.379  1.00  0.00    -0.237 OA
ATOM     78  O   UNL A   1      44.070  22.572  23.867  1.00  0.00    -0.237 OA
ATOM     79  O   UNL A   1      45.639  21.510  25.441  1.00  0.00    -0.744 OA
ENDBRANCH  75  76
ENDBRANCH  47  70
BRANCH  59  80
ATOM     80  C   UNL A   1      46.469  27.058  34.120  1.00  0.00    -0.014 A 
ATOM     81  C   UNL A   1      47.711  27.662  33.856  1.00  0.00     0.010 A 
ATOM     82  C   UNL A   1      46.394  26.037  35.087  1.00  0.00     0.010 A 
ATOM     83  C   UNL A   1      48.861  27.232  34.523  1.00  0.00     0.020 A 
ATOM     84  C   UNL A   1      47.536  25.624  35.775  1.00  0.00     0.020 A 
ATOM     85  C   UNL A   1      48.766  26.215  35.480  1.00  0.00     0.054 A 
BRANCH  85  86
ATOM     86  S   UNL A   1      50.265  25.708  36.366  1.00  0.00     0.124 S 
ATOM     87  O   UNL A   1      51.052  25.092  35.302  1.00  0.00    -0.237 OA
ATOM     88  O   UNL A   1      50.781  26.974  36.878  1.00  0.00    -0.237 OA
ATOM     89  O   UNL A   1      49.768  24.786  37.386  1.00  0.00    -0.744 OA
ENDBRANCH  85  86
ENDBRANCH  59  80
ENDBRANCH  33  34
ENDBRANCH  25  28
ENDBRANCH  23  24
ENDBRANCH  22  23
ENDBRANCH   1  22
TORSDOF 17
ENDMDL
MODEL 2
REMARK VINA RESULT:      -8.7      4.710     11.186
REMARK SMILES C[C@@H](C(=O)NCCCCNC(=O)c1ccc(-c2c3nc(c(-c4ccc(S(=O)(=O)[O-])cc4)c4ccc([nH]4)c(-c4ccc(S(=O)(=O)[O-])cc4)c4nc(c(-c5ccc(S(=O)(=O)[O-])cc5)c5ccc2[nH]5)C=C4)C=C3)cc1)c1ccc(Cc2ccoc2)cc1F
REMARK SMILES IDX 7 1 6 2 5 3 3 4 4 5 2 7 1 8 73 9 74 10 84 11 75 12 83 13
REMARK SMILES IDX 85 14 76 15 77 16 78 17 79 18 82 19 80 20 81 21 8 22 9 23
REMARK SMILES IDX 10 24 11 25 12 27 13 28 14 29 72 30 15 31 71 32 16 33 17 34
REMARK SMILES IDX 18 35 65 36 19 37 70 38 64 39 66 40 20 41 69 42 63 43 62 44
REMARK SMILES IDX 21 46 51 47 32 48 50 49 33 50 36 51 49 52 67 53 34 54 35 55
REMARK SMILES IDX 48 57 68 58 37 59 22 60 23 61 31 62 24 63 30 64 25 65 26 66
REMARK SMILES IDX 27 67 28 68 29 69 52 70 53 71 61 72 54 73 60 74 55 75 56 76
REMARK SMILES IDX 57 77 58 78 59 79 38 80 39 81 47 82 40 83 46 84 41 85 42 86
REMARK SMILES IDX 43 87 44 88 45 89
REMARK H PARENT 5 6 10 26 66 45 36 56
REMARK Flexibility Score: inf
ROOT
ATOM      1  C   UNL A   1      34.591  23.857  24.549  1.00  0.00     0.023 C 
ENDROOT
BRANCH   1   2
ATOM      2  C   UNL A   1      33.583  24.550  25.468  1.00  0.00     0.116 C 
BRANCH   2   3
ATOM      3  N   UNL A   1      33.791  25.983  25.478  1.00  0.00    -0.356 N 
ATOM      4  C   UNL A   1      33.540  26.918  24.515  1.00  0.00     0.227 C 
ATOM      5  O   UNL A   1      33.943  28.062  24.735  1.00  0.00    -0.274 OA
ATOM      6  H   UNL A   1      34.176  26.341  26.311  1.00  0.00     0.163 HD
BRANCH   4   7
ATOM      7  C   UNL A   1      32.764  26.538  23.241  1.00  0.00     0.108 C 
ATOM      8  C   UNL A   1      33.583  26.794  21.969  1.00  0.00     0.023 C 
BRANCH   7   9
ATOM      9  C   UNL A   1      31.413  27.250  23.194  1.00  0.00    -0.000 A 
ATOM     10  C   UNL A   1      30.219  26.616  23.561  1.00  0.00     0.008 A 
ATOM     11  C   UNL A   1      31.334  28.566  22.729  1.00  0.00     0.127 A 
ATOM     12  C   UNL A   1      29.002  27.298  23.513  1.00  0.00     0.004 A 
ATOM     13  C   UNL A   1      30.114  29.243  22.642  1.00  0.00     0.043 A 
ATOM     14  F   UNL A   1      32.454  29.214  22.374  1.00  0.00    -0.207 F 
ATOM     15  C   UNL A   1      28.926  28.615  23.039  1.00  0.00    -0.041 A 
BRANCH  15  16
ATOM     16  C   UNL A   1      27.609  29.354  23.018  1.00  0.00     0.074 C 
BRANCH  16  17
ATOM     17  C   UNL A   1      27.811  30.677  22.353  1.00  0.00    -0.005 A 
ATOM     18  C   UNL A   1      27.957  30.967  20.962  1.00  0.00     0.046 A 
ATOM     19  C   UNL A   1      27.809  31.913  22.971  1.00  0.00     0.198 A 
ATOM     20  C   UNL A   1      28.055  32.333  20.847  1.00  0.00     0.195 A 
ATOM     21  O   UNL A   1      27.953  32.916  22.067  1.00  0.00    -0.472 OA
ENDBRANCH  16  17
ENDBRANCH  15  16
ENDBRANCH   7   9
ENDBRANCH   4   7
ENDBRANCH   2   3
ENDBRANCH   1   2
BRANCH   1  22
ATOM     22  C   UNL A   1      35.671  23.049  25.277  1.00  0.00     0.023 C 
BRANCH  22  23
ATOM     23  C   UNL A   1      37.031  23.730  25.383  1.00  0.00     0.116 C 
BRANCH  23  24
ATOM     24  N   UNL A   1      38.118  22.791  25.609  1.00  0.00    -0.352 N 
ATOM     25  C   UNL A   1      39.334  23.008  26.207  1.00  0.00     0.251 C 
ATOM     26  H   UNL A   1      37.959  21.873  25.289  1.00  0.00     0.163 HD
ATOM     27  O   UNL A   1      40.189  22.127  26.197  1.00  0.00    -0.269 OA
BRANCH  25  28
ATOM     28  C   UNL A   1      39.621  24.318  26.831  1.00  0.00     0.039 A 
ATOM     29  C   UNL A   1      39.223  24.535  28.153  1.00  0.00     0.014 A 
ATOM     30  C   UNL A   1      40.293  25.318  26.124  1.00  0.00     0.014 A 
ATOM     31  C   UNL A   1      39.559  25.734  28.787  1.00  0.00     0.010 A 
ATOM     32  C   UNL A   1      40.686  26.483  26.778  1.00  0.00     0.010 A 
ATOM     33  C   UNL A   1      40.324  26.702  28.117  1.00  0.00    -0.014 A 
BRANCH  33  34
ATOM     34  C   UNL A   1      40.767  27.944  28.800  1.00  0.00     0.031 A 
ATOM     35  C   UNL A   1      42.144  28.031  29.400  1.00  0.00     0.074 A 
ATOM     36  C   UNL A   1      39.902  28.969  28.942  1.00  0.00     0.049 A 
ATOM     37  N   UNL A   1      42.684  29.006  30.085  1.00  0.00    -0.248 NA
ATOM     38  C   UNL A   1      43.019  26.861  29.229  1.00  0.00     0.031 C 
ATOM     39  C   UNL A   1      38.523  28.989  28.447  1.00  0.00     0.029 A 
ATOM     40  N   UNL A   1      40.052  30.188  29.555  1.00  0.00    -0.354 N 
ATOM     41  C   UNL A   1      43.950  28.561  30.444  1.00  0.00     0.074 A 
ATOM     42  C   UNL A   1      44.082  27.212  29.938  1.00  0.00     0.031 C 
ATOM     43  C   UNL A   1      37.963  30.170  28.756  1.00  0.00     0.029 A 
ATOM     44  C   UNL A   1      38.925  30.974  29.503  1.00  0.00     0.049 A 
ATOM     45  H   UNL A   1      40.887  30.473  29.990  1.00  0.00     0.167 HD
ATOM     46  C   UNL A   1      44.921  29.220  31.120  1.00  0.00     0.031 A 
ATOM     47  C   UNL A   1      38.687  32.201  30.006  1.00  0.00     0.031 A 
ATOM     48  C   UNL A   1      44.792  30.567  31.609  1.00  0.00     0.049 A 
ATOM     49  C   UNL A   1      39.783  32.916  30.746  1.00  0.00     0.074 A 
ATOM     50  C   UNL A   1      45.743  31.344  32.247  1.00  0.00     0.029 A 
ATOM     51  N   UNL A   1      43.642  31.336  31.517  1.00  0.00    -0.354 N 
ATOM     52  N   UNL A   1      40.999  32.505  31.013  1.00  0.00    -0.248 NA
ATOM     53  C   UNL A   1      39.479  34.267  31.241  1.00  0.00     0.031 C 
ATOM     54  C   UNL A   1      45.152  32.566  32.585  1.00  0.00     0.029 A 
ATOM     55  C   UNL A   1      43.851  32.571  32.108  1.00  0.00     0.049 A 
ATOM     56  H   UNL A   1      42.801  31.047  31.095  1.00  0.00     0.167 HD
ATOM     57  C   UNL A   1      41.614  33.554  31.687  1.00  0.00     0.074 A 
ATOM     58  C   UNL A   1      40.640  34.625  31.772  1.00  0.00     0.031 C 
ATOM     59  C   UNL A   1      42.873  33.627  32.187  1.00  0.00     0.031 A 
BRANCH  46  60
ATOM     60  C   UNL A   1      46.212  28.487  31.375  1.00  0.00    -0.014 A 
ATOM     61  C   UNL A   1      46.360  27.641  32.489  1.00  0.00     0.010 A 
ATOM     62  C   UNL A   1      47.278  28.614  30.466  1.00  0.00     0.010 A 
ATOM     63  C   UNL A   1      47.564  26.969  32.713  1.00  0.00     0.020 A 
ATOM     64  C   UNL A   1      48.475  27.920  30.671  1.00  0.00     0.020 A 
ATOM     65  C   UNL A   1      48.616  27.116  31.803  1.00  0.00     0.054 A 
BRANCH  65  66
ATOM     66  S   UNL A   1      50.160  26.213  32.105  1.00  0.00     0.124 S 
ATOM     67  O   UNL A   1      50.186  26.145  33.565  1.00  0.00    -0.237 OA
ATOM     68  O   UNL A   1      49.928  24.942  31.424  1.00  0.00    -0.237 OA
ATOM     69  O   UNL A   1      51.183  27.063  31.503  1.00  0.00    -0.744 OA
ENDBRANCH  65  66
ENDBRANCH  46  60
BRANCH  47  70
ATOM     70  C   UNL A   1      37.355  32.836  29.810  1.00  0.00    -0.014 A 
ATOM     71  C   UNL A   1      36.346  32.690  30.778  1.00  0.00     0.010 A 
ATOM     72  C   UNL A   1      37.097  33.611  28.665  1.00  0.00     0.010 A 
ATOM     73  C   UNL A   1      35.099  33.296  30.599  1.00  0.00     0.020 A 
ATOM     74  C   UNL A   1      35.861  34.240  28.494  1.00  0.00     0.020 A 
ATOM     75  C   UNL A   1      34.865  34.070  29.459  1.00  0.00     0.054 A 
BRANCH  75  76
ATOM     76  S   UNL A   1      33.260  34.898  29.277  1.00  0.00     0.124 S 
ATOM     77  O   UNL A   1      32.612  34.081  28.257  1.00  0.00    -0.237 OA
ATOM     78  O   UNL A   1      32.699  34.796  30.622  1.00  0.00    -0.237 OA
ATOM     79  O   UNL A   1      33.620  36.252  28.862  1.00  0.00    -0.744 OA
ENDBRANCH  75  76
ENDBRANCH  47  70
BRANCH  59  80
ATOM     80  C   UNL A   1      43.284  34.915  32.846  1.00  0.00    -0.014 A 
ATOM     81  C   UNL A   1      43.806  35.984  32.096  1.00  0.00     0.010 A 
ATOM     82  C   UNL A   1      43.090  35.079  34.230  1.00  0.00     0.010 A 
ATOM     83  C   UNL A   1      44.154  37.183  32.724  1.00  0.00     0.020 A 
ATOM     84  C   UNL A   1      43.411  36.285  34.856  1.00  0.00     0.020 A 
ATOM     85  C   UNL A   1      43.954  37.326  34.101  1.00  0.00     0.054 A 
BRANCH  85  86
ATOM     86  S   UNL A   1      44.371  38.908  34.884  1.00  0.00     0.124 S 
ATOM     87  O   UNL A   1      43.469  39.831  34.201  1.00  0.00    -0.237 OA
ATOM     88  O   UNL A   1      44.068  38.660  36.292  1.00  0.00    -0.237 OA
ATOM     89  O   UNL A   1      45.790  39.082  34.579  1.00  0.00    -0.744 OA
ENDBRANCH  85  86
ENDBRANCH  59  80
ENDBRANCH  33  34
ENDBRANCH  25  28
ENDBRANCH  23  24
ENDBRANCH  22  23
ENDBRANCH   1  22
TORSDOF 17
ENDMDL
MODEL 3
REMARK VINA RESULT:      -8.5      5.389      8.457
REMARK SMILES C[C@@H](C(=O)NCCCCNC(=O)c1ccc(-c2c3nc(c(-c4ccc(S(=O)(=O)[O-])cc4)c4ccc([nH]4)c(-c4ccc(S(=O)(=O)[O-])cc4)c4nc(c(-c5ccc(S(=O)(=O)[O-])cc5)c5ccc2[nH]5)C=C4)C=C3)cc1)c1ccc(Cc2ccoc2)cc1F
REMARK SMILES IDX 7 1 6 2 5 3 3 4 4 5 2 7 1 8 73 9 74 10 84 11 75 12 83 13
REMARK SMILES IDX 85 14 76 15 77 16 78 17 79 18 82 19 80 20 81 21 8 22 9 23
REMARK SMILES IDX 10 24 11 25 12 27 13 28 14 29 72 30 15 31 71 32 16 33 17 34
REMARK SMILES IDX 18 35 65 36 19 37 70 38 64 39 66 40 20 41 69 42 63 43 62 44
REMARK SMILES IDX 21 46 51 47 32 48 50 49 33 50 36 51 49 52 67 53 34 54 35 55
REMARK SMILES IDX 48 57 68 58 37 59 22 60 23 61 31 62 24 63 30 64 25 65 26 66
REMARK SMILES IDX 27 67 28 68 29 69 52 70 53 71 61 72 54 73 60 74 55 75 56 76
REMARK SMILES IDX 57 77 58 78 59 79 38 80 39 81 47 82 40 83 46 84 41 85 42 86
REMARK SMILES IDX 43 87 44 88 45 89
REMARK H PARENT 5 6 10 26 66 45 36 56
REMARK Flexibility Score: inf
ROOT
ATOM      1  C   UNL A   1      31.836  27.581  25.404  1.00  0.00     0.023 C 
ENDROOT
BRANCH   1   2
ATOM      2  C   UNL A   1      31.853  26.361  24.479  1.00  0.00     0.116 C 
BRANCH   2   3
ATOM      3  N   UNL A   1      33.067  25.593  24.658  1.00  0.00    -0.356 N 
ATOM      4  C   UNL A   1      33.252  24.342  25.174  1.00  0.00     0.227 C 
ATOM      5  O   UNL A   1      34.418  23.977  25.338  1.00  0.00    -0.274 OA
ATOM      6  H   UNL A   1      33.891  26.044  24.361  1.00  0.00     0.163 HD
BRANCH   4   7
ATOM      7  C   UNL A   1      32.044  23.445  25.498  1.00  0.00     0.108 C 
ATOM      8  C   UNL A   1      31.792  23.339  27.008  1.00  0.00     0.023 C 
BRANCH   7   9
ATOM      9  C   UNL A   1      32.201  22.068  24.856  1.00  0.00    -0.000 A 
ATOM     10  C   UNL A   1      32.599  20.941  25.586  1.00  0.00     0.008 A 
ATOM     11  C   UNL A   1      31.992  21.911  23.481  1.00  0.00     0.127 A 
ATOM     12  C   UNL A   1      32.726  19.696  24.969  1.00  0.00     0.004 A 
ATOM     13  C   UNL A   1      32.155  20.675  22.850  1.00  0.00     0.043 A 
ATOM     14  F   UNL A   1      31.604  22.962  22.744  1.00  0.00    -0.207 F 
ATOM     15  C   UNL A   1      32.523  19.544  23.590  1.00  0.00    -0.041 A 
BRANCH  15  16
ATOM     16  C   UNL A   1      32.635  18.187  22.937  1.00  0.00     0.074 C 
BRANCH  16  17
ATOM     17  C   UNL A   1      33.381  17.273  23.853  1.00  0.00    -0.005 A 
ATOM     18  C   UNL A   1      34.792  17.089  23.981  1.00  0.00     0.046 A 
ATOM     19  C   UNL A   1      32.833  16.470  24.836  1.00  0.00     0.198 A 
ATOM     20  C   UNL A   1      34.987  16.187  24.999  1.00  0.00     0.195 A 
ATOM     21  O   UNL A   1      33.797  15.816  25.532  1.00  0.00    -0.472 OA
ENDBRANCH  16  17
ENDBRANCH  15  16
ENDBRANCH   7   9
ENDBRANCH   4   7
ENDBRANCH   2   3
ENDBRANCH   1   2
BRANCH   1  22
ATOM     22  C   UNL A   1      32.952  27.605  26.454  1.00  0.00     0.023 C 
BRANCH  22  23
ATOM     23  C   UNL A   1      34.018  28.674  26.244  1.00  0.00     0.116 C 
BRANCH  23  24
ATOM     24  N   UNL A   1      33.747  29.896  26.984  1.00  0.00    -0.352 N 
ATOM     25  C   UNL A   1      34.523  30.521  27.929  1.00  0.00     0.251 C 
ATOM     26  H   UNL A   1      32.890  30.335  26.778  1.00  0.00     0.163 HD
ATOM     27  O   UNL A   1      34.076  31.482  28.550  1.00  0.00    -0.269 OA
BRANCH  25  28
ATOM     28  C   UNL A   1      35.880  30.011  28.218  1.00  0.00     0.039 A 
ATOM     29  C   UNL A   1      36.853  30.081  27.218  1.00  0.00     0.014 A 
ATOM     30  C   UNL A   1      36.196  29.483  29.473  1.00  0.00     0.014 A 
ATOM     31  C   UNL A   1      38.162  29.682  27.498  1.00  0.00     0.010 A 
ATOM     32  C   UNL A   1      37.516  29.152  29.771  1.00  0.00     0.010 A 
ATOM     33  C   UNL A   1      38.512  29.249  28.787  1.00  0.00    -0.014 A 
BRANCH  33  34
ATOM     34  C   UNL A   1      39.915  28.904  29.130  1.00  0.00     0.031 A 
ATOM     35  C   UNL A   1      40.815  29.929  29.765  1.00  0.00     0.074 A 
ATOM     36  C   UNL A   1      40.399  27.688  28.805  1.00  0.00     0.049 A 
ATOM     37  N   UNL A   1      42.081  29.832  30.079  1.00  0.00    -0.248 NA
ATOM     38  C   UNL A   1      40.222  31.243  30.062  1.00  0.00     0.031 C 
ATOM     39  C   UNL A   1      39.641  26.623  28.144  1.00  0.00     0.029 A 
ATOM     40  N   UNL A   1      41.649  27.148  28.977  1.00  0.00    -0.354 N 
ATOM     41  C   UNL A   1      42.441  31.072  30.590  1.00  0.00     0.074 A 
ATOM     42  C   UNL A   1      41.272  31.920  30.504  1.00  0.00     0.031 C 
ATOM     43  C   UNL A   1      40.435  25.551  27.988  1.00  0.00     0.029 A 
ATOM     44  C   UNL A   1      41.765  25.863  28.500  1.00  0.00     0.049 A 
ATOM     45  H   UNL A   1      42.392  27.633  29.403  1.00  0.00     0.167 HD
ATOM     46  C   UNL A   1      43.632  31.467  31.098  1.00  0.00     0.031 A 
ATOM     47  C   UNL A   1      42.825  25.031  28.469  1.00  0.00     0.031 A 
ATOM     48  C   UNL A   1      44.790  30.618  31.197  1.00  0.00     0.049 A 
ATOM     49  C   UNL A   1      44.135  25.489  29.046  1.00  0.00     0.074 A 
ATOM     50  C   UNL A   1      46.022  30.906  31.757  1.00  0.00     0.029 A 
ATOM     51  N   UNL A   1      44.860  29.317  30.721  1.00  0.00    -0.354 N 
ATOM     52  N   UNL A   1      44.435  26.644  29.591  1.00  0.00    -0.248 NA
ATOM     53  C   UNL A   1      45.246  24.527  29.019  1.00  0.00     0.031 C 
ATOM     54  C   UNL A   1      46.853  29.796  31.576  1.00  0.00     0.029 A 
ATOM     55  C   UNL A   1      46.122  28.797  30.954  1.00  0.00     0.049 A 
ATOM     56  H   UNL A   1      44.122  28.835  30.282  1.00  0.00     0.167 HD
ATOM     57  C   UNL A   1      45.762  26.540  29.992  1.00  0.00     0.074 A 
ATOM     58  C   UNL A   1      46.202  25.204  29.642  1.00  0.00     0.031 C 
ATOM     59  C   UNL A   1      46.546  27.466  30.598  1.00  0.00     0.031 A 
BRANCH  46  60
ATOM     60  C   UNL A   1      43.745  32.888  31.586  1.00  0.00    -0.014 A 
ATOM     61  C   UNL A   1      43.435  33.227  32.916  1.00  0.00     0.010 A 
ATOM     62  C   UNL A   1      44.207  33.891  30.715  1.00  0.00     0.010 A 
ATOM     63  C   UNL A   1      43.545  34.549  33.354  1.00  0.00     0.020 A 
ATOM     64  C   UNL A   1      44.346  35.211  31.157  1.00  0.00     0.020 A 
ATOM     65  C   UNL A   1      43.996  35.534  32.469  1.00  0.00     0.054 A 
BRANCH  65  66
ATOM     66  S   UNL A   1      44.151  37.238  33.070  1.00  0.00     0.124 S 
ATOM     67  O   UNL A   1      43.983  38.007  31.839  1.00  0.00    -0.237 OA
ATOM     68  O   UNL A   1      43.053  37.342  34.029  1.00  0.00    -0.237 OA
ATOM     69  O   UNL A   1      45.489  37.281  33.653  1.00  0.00    -0.744 OA
ENDBRANCH  65  66
ENDBRANCH  46  60
BRANCH  47  70
ATOM     70  C   UNL A   1      42.681  23.672  27.881  1.00  0.00    -0.014 A 
ATOM     71  C   UNL A   1      42.202  22.605  28.661  1.00  0.00     0.010 A 
ATOM     72  C   UNL A   1      43.000  23.442  26.530  1.00  0.00     0.010 A 
ATOM     73  C   UNL A   1      42.056  21.330  28.105  1.00  0.00     0.020 A 
ATOM     74  C   UNL A   1      42.830  22.176  25.964  1.00  0.00     0.020 A 
ATOM     75  C   UNL A   1      42.369  21.124  26.759  1.00  0.00     0.054 A 
BRANCH  75  76
ATOM     76  S   UNL A   1      42.113  19.476  26.042  1.00  0.00     0.124 S 
ATOM     77  O   UNL A   1      40.684  19.490  25.751  1.00  0.00    -0.237 OA
ATOM     78  O   UNL A   1      42.998  19.498  24.880  1.00  0.00    -0.237 OA
ATOM     79  O   UNL A   1      42.527  18.571  27.112  1.00  0.00    -0.744 OA
ENDBRANCH  75  76
ENDBRANCH  47  70
BRANCH  59  80
ATOM     80  C   UNL A   1      47.951  27.061  30.952  1.00  0.00    -0.014 A 
ATOM     81  C   UNL A   1      48.246  26.441  32.179  1.00  0.00     0.010 A 
ATOM     82  C   UNL A   1      48.984  27.251  30.014  1.00  0.00     0.010 A 
ATOM     83  C   UNL A   1      49.553  26.046  32.475  1.00  0.00     0.020 A 
ATOM     84  C   UNL A   1      50.286  26.833  30.295  1.00  0.00     0.020 A 
ATOM     85  C   UNL A   1      50.566  26.244  31.530  1.00  0.00     0.054 A 
BRANCH  85  86
ATOM     86  S   UNL A   1      52.245  25.681  31.919  1.00  0.00     0.124 S 
ATOM     87  O   UNL A   1      52.553  26.452  33.120  1.00  0.00    -0.237 OA
ATOM     88  O   UNL A   1      52.065  24.246  32.122  1.00  0.00    -0.237 OA
ATOM     89  O   UNL A   1      53.016  26.044  30.731  1.00  0.00    -0.744 OA
ENDBRANCH  85  86
ENDBRANCH  59  80
ENDBRANCH  33  34
ENDBRANCH  25  28
ENDBRANCH  23  24
ENDBRANCH  22  23
ENDBRANCH   1  22
TORSDOF 17
ENDMDL
