MODEL 1
REMARK VINA RESULT:     -11.4      0.000      0.000
REMARK SMILES CN1C(=O)N(CC(=O)NCCCCNC(=O)c2ccc(-c3c4nc(c(-c5ccc(S(=O)(=O)[O-])cc5)c5ccc([nH]5)c(-c5ccc(S(=O)(=O)[O-])cc5)c5nc(c(-c6ccc(S(=O)(=O)[O-])cc6)c6ccc3[nH]6)C=C5)C=C4)cc2)C(=O)C12CCCCC2
REMARK SMILES IDX 12 1 11 2 10 3 9 4 7 5 8 6 6 8 5 9 1 10 2 11 3 12 79 13 4 14
REMARK SMILES IDX 77 15 80 16 84 17 78 18 81 19 83 20 82 21 13 22 14 23 15 24
REMARK SMILES IDX 16 26 17 27 18 28 76 29 19 30 75 31 20 32 21 33 22 34 69 35
REMARK SMILES IDX 23 36 74 37 68 38 70 39 24 40 73 41 67 42 66 43 25 45 55 46
REMARK SMILES IDX 36 47 54 48 37 49 40 50 53 51 71 52 38 53 39 54 52 56 72 57
REMARK SMILES IDX 41 58 26 59 27 60 35 61 28 62 34 63 29 64 30 65 31 66 32 67
REMARK SMILES IDX 33 68 56 69 57 70 65 71 58 72 64 73 59 74 60 75 61 76 62 77
REMARK SMILES IDX 63 78 42 79 43 80 51 81 44 82 50 83 45 84 46 85 47 86 48 87
REMARK SMILES IDX 49 88
REMARK H PARENT 9 7 14 25 70 44 40 55
REMARK Flexibility Score: inf
ROOT
ATOM      1  C   UNL A   1      33.892  28.784  25.551  1.00  0.00     0.023 C 
ENDROOT
BRANCH   1   2
ATOM      2  C   UNL A   1      32.743  29.198  24.649  1.00  0.00     0.023 C 
BRANCH   2   3
ATOM      3  C   UNL A   1      31.357  28.685  25.025  1.00  0.00     0.116 C 
BRANCH   3   4
ATOM      4  N   UNL A   1      31.037  27.448  24.347  1.00  0.00    -0.355 N 
ATOM      5  C   UNL A   1      31.106  26.158  24.784  1.00  0.00     0.240 C 
ATOM      6  O   UNL A   1      30.517  25.311  24.104  1.00  0.00    -0.273 OA
ATOM      7  H   UNL A   1      30.716  27.556  23.422  1.00  0.00     0.163 HD
BRANCH   5   8
ATOM      8  C   UNL A   1      31.696  25.773  26.149  1.00  0.00     0.230 C 
BRANCH   8   9
ATOM      9  N   UNL A   1      32.644  24.679  26.134  1.00  0.00    -0.253 N 
ATOM     10  C   UNL A   1      33.661  21.400  27.207  1.00  0.00     0.150 C 
ATOM     11  N   UNL A   1      33.617  22.759  26.706  1.00  0.00    -0.313 N 
ATOM     12  C   UNL A   1      32.520  23.579  26.929  1.00  0.00     0.327 C 
ATOM     13  C   UNL A   1      34.520  23.288  25.676  1.00  0.00     0.124 C 
ATOM     14  O   UNL A   1      31.601  23.349  27.691  1.00  0.00    -0.248 OA
ATOM     15  C   UNL A   1      33.873  24.692  25.535  1.00  0.00     0.257 C 
ATOM     16  C   UNL A   1      35.992  23.321  26.096  1.00  0.00     0.039 C 
ATOM     17  C   UNL A   1      34.344  22.535  24.356  1.00  0.00     0.039 C 
ATOM     18  O   UNL A   1      34.347  25.637  24.919  1.00  0.00    -0.272 OA
ATOM     19  C   UNL A   1      36.950  23.704  24.959  1.00  0.00     0.003 C 
ATOM     20  C   UNL A   1      35.254  23.017  23.238  1.00  0.00     0.003 C 
ATOM     21  C   UNL A   1      36.703  22.919  23.671  1.00  0.00     0.000 C 
ENDBRANCH   8   9
ENDBRANCH   5   8
ENDBRANCH   3   4
ENDBRANCH   2   3
ENDBRANCH   1   2
BRANCH   1  22
ATOM     22  C   UNL A   1      33.556  28.825  27.039  1.00  0.00     0.116 C 
BRANCH  22  23
ATOM     23  N   UNL A   1      33.611  30.161  27.638  1.00  0.00    -0.352 N 
ATOM     24  C   UNL A   1      34.638  30.783  28.312  1.00  0.00     0.251 C 
ATOM     25  H   UNL A   1      32.790  30.694  27.544  1.00  0.00     0.163 HD
ATOM     26  O   UNL A   1      34.461  31.882  28.828  1.00  0.00    -0.269 OA
BRANCH  24  27
ATOM     27  C   UNL A   1      35.936  30.095  28.438  1.00  0.00     0.039 A 
ATOM     28  C   UNL A   1      36.854  30.153  27.388  1.00  0.00     0.014 A 
ATOM     29  C   UNL A   1      36.274  29.471  29.639  1.00  0.00     0.014 A 
ATOM     30  C   UNL A   1      38.154  29.688  27.589  1.00  0.00     0.010 A 
ATOM     31  C   UNL A   1      37.596  29.124  29.876  1.00  0.00     0.010 A 
ATOM     32  C   UNL A   1      38.552  29.229  28.856  1.00  0.00    -0.014 A 
BRANCH  32  33
ATOM     33  C   UNL A   1      39.958  28.859  29.155  1.00  0.00     0.031 A 
ATOM     34  C   UNL A   1      40.891  29.890  29.734  1.00  0.00     0.074 A 
ATOM     35  C   UNL A   1      40.422  27.643  28.802  1.00  0.00     0.049 A 
ATOM     36  N   UNL A   1      42.179  29.812  29.941  1.00  0.00    -0.248 NA
ATOM     37  C   UNL A   1      40.308  31.199  30.082  1.00  0.00     0.031 C 
ATOM     38  C   UNL A   1      39.637  26.581  28.163  1.00  0.00     0.029 A 
ATOM     39  N   UNL A   1      41.676  27.097  28.916  1.00  0.00    -0.354 N 
ATOM     40  C   UNL A   1      42.563  31.067  30.398  1.00  0.00     0.074 A 
ATOM     41  C   UNL A   1      41.385  31.903  30.391  1.00  0.00     0.031 C 
ATOM     42  C   UNL A   1      40.420  25.507  27.969  1.00  0.00     0.029 A 
ATOM     43  C   UNL A   1      41.770  25.815  28.427  1.00  0.00     0.049 A 
ATOM     44  H   UNL A   1      42.439  27.579  29.313  1.00  0.00     0.167 HD
ATOM     45  C   UNL A   1      43.783  31.479  30.813  1.00  0.00     0.031 A 
ATOM     46  C   UNL A   1      42.827  24.983  28.347  1.00  0.00     0.031 A 
ATOM     47  C   UNL A   1      44.939  30.627  30.870  1.00  0.00     0.049 A 
ATOM     48  C   UNL A   1      44.160  25.447  28.868  1.00  0.00     0.074 A 
ATOM     49  C   UNL A   1      46.197  30.919  31.367  1.00  0.00     0.029 A 
ATOM     50  N   UNL A   1      44.975  29.314  30.427  1.00  0.00    -0.354 N 
ATOM     51  N   UNL A   1      44.483  26.611  29.378  1.00  0.00    -0.248 NA
ATOM     52  C   UNL A   1      45.267  24.482  28.815  1.00  0.00     0.031 C 
ATOM     53  C   UNL A   1      47.008  29.795  31.184  1.00  0.00     0.029 A 
ATOM     54  C   UNL A   1      46.239  28.787  30.622  1.00  0.00     0.049 A 
ATOM     55  H   UNL A   1      44.215  28.830  30.032  1.00  0.00     0.167 HD
ATOM     56  C   UNL A   1      45.824  26.509  29.731  1.00  0.00     0.074 A 
ATOM     57  C   UNL A   1      46.246  25.166  29.392  1.00  0.00     0.031 C 
ATOM     58  C   UNL A   1      46.634  27.444  30.286  1.00  0.00     0.031 A 
BRANCH  45  59
ATOM     59  C   UNL A   1      43.928  32.913  31.250  1.00  0.00    -0.014 A 
ATOM     60  C   UNL A   1      44.235  33.926  30.325  1.00  0.00     0.010 A 
ATOM     61  C   UNL A   1      43.705  33.256  32.595  1.00  0.00     0.010 A 
ATOM     62  C   UNL A   1      44.351  35.254  30.744  1.00  0.00     0.020 A 
ATOM     63  C   UNL A   1      43.791  34.588  33.012  1.00  0.00     0.020 A 
ATOM     64  C   UNL A   1      44.127  35.577  32.086  1.00  0.00     0.054 A 
BRANCH  64  65
ATOM     65  S   UNL A   1      44.240  37.315  32.590  1.00  0.00     0.124 S 
ATOM     66  O   UNL A   1      45.585  37.377  33.156  1.00  0.00    -0.237 OA
ATOM     67  O   UNL A   1      44.056  38.027  31.329  1.00  0.00    -0.237 OA
ATOM     68  O   UNL A   1      43.151  37.467  33.553  1.00  0.00    -0.744 OA
ENDBRANCH  64  65
ENDBRANCH  45  59
BRANCH  46  69
ATOM     69  C   UNL A   1      42.667  23.621  27.767  1.00  0.00    -0.014 A 
ATOM     70  C   UNL A   1      42.114  22.579  28.534  1.00  0.00     0.010 A 
ATOM     71  C   UNL A   1      43.067  23.356  26.445  1.00  0.00     0.010 A 
ATOM     72  C   UNL A   1      41.991  21.292  28.000  1.00  0.00     0.020 A 
ATOM     73  C   UNL A   1      42.920  22.078  25.897  1.00  0.00     0.020 A 
ATOM     74  C   UNL A   1      42.397  21.050  26.684  1.00  0.00     0.054 A 
BRANCH  74  75
ATOM     75  S   UNL A   1      42.195  19.382  25.998  1.00  0.00     0.124 S 
ATOM     76  O   UNL A   1      42.697  18.545  27.083  1.00  0.00    -0.237 OA
ATOM     77  O   UNL A   1      40.756  19.311  25.756  1.00  0.00    -0.237 OA
ATOM     78  O   UNL A   1      43.020  19.408  24.792  1.00  0.00    -0.744 OA
ENDBRANCH  74  75
ENDBRANCH  46  69
BRANCH  58  79
ATOM     79  C   UNL A   1      48.049  27.038  30.597  1.00  0.00    -0.014 A 
ATOM     80  C   UNL A   1      49.116  27.428  29.771  1.00  0.00     0.010 A 
ATOM     81  C   UNL A   1      48.316  26.310  31.771  1.00  0.00     0.010 A 
ATOM     82  C   UNL A   1      50.427  27.072  30.099  1.00  0.00     0.020 A 
ATOM     83  C   UNL A   1      49.626  25.975  32.116  1.00  0.00     0.020 A 
ATOM     84  C   UNL A   1      50.673  26.347  31.270  1.00  0.00     0.054 A 
BRANCH  84  85
ATOM     85  S   UNL A   1      52.386  25.938  31.700  1.00  0.00     0.124 S 
ATOM     86  O   UNL A   1      52.242  24.609  32.289  1.00  0.00    -0.237 OA
ATOM     87  O   UNL A   1      53.061  25.981  30.405  1.00  0.00    -0.237 OA
ATOM     88  O   UNL A   1      52.771  26.995  32.632  1.00  0.00    -0.744 OA
ENDBRANCH  84  85
ENDBRANCH  58  79
ENDBRANCH  32  33
ENDBRANCH  24  27
ENDBRANCH  22  23
ENDBRANCH   1  22
TORSDOF 15
ENDMDL
MODEL 2
REMARK VINA RESULT:     -11.2      0.970      1.598
REMARK SMILES CN1C(=O)N(CC(=O)NCCCCNC(=O)c2ccc(-c3c4nc(c(-c5ccc(S(=O)(=O)[O-])cc5)c5ccc([nH]5)c(-c5ccc(S(=O)(=O)[O-])cc5)c5nc(c(-c6ccc(S(=O)(=O)[O-])cc6)c6ccc3[nH]6)C=C5)C=C4)cc2)C(=O)C12CCCCC2
REMARK SMILES IDX 12 1 11 2 10 3 9 4 7 5 8 6 6 8 5 9 1 10 2 11 3 12 79 13 4 14
REMARK SMILES IDX 77 15 80 16 84 17 78 18 81 19 83 20 82 21 13 22 14 23 15 24
REMARK SMILES IDX 16 26 17 27 18 28 76 29 19 30 75 31 20 32 21 33 22 34 69 35
REMARK SMILES IDX 23 36 74 37 68 38 70 39 24 40 73 41 67 42 66 43 25 45 55 46
REMARK SMILES IDX 36 47 54 48 37 49 40 50 53 51 71 52 38 53 39 54 52 56 72 57
REMARK SMILES IDX 41 58 26 59 27 60 35 61 28 62 34 63 29 64 30 65 31 66 32 67
REMARK SMILES IDX 33 68 56 69 57 70 65 71 58 72 64 73 59 74 60 75 61 76 62 77
REMARK SMILES IDX 63 78 42 79 43 80 51 81 44 82 50 83 45 84 46 85 47 86 48 87
REMARK SMILES IDX 49 88
REMARK H PARENT 9 7 14 25 70 44 40 55
REMARK Flexibility Score: inf
ROOT
ATOM      1  C   UNL A   1      33.741  28.355  25.868  1.00  0.00     0.023 C 
ENDROOT
BRANCH   1   2
ATOM      2  C   UNL A   1      33.187  29.390  24.905  1.00  0.00     0.023 C 
BRANCH   2   3
ATOM      3  C   UNL A   1      33.107  28.986  23.436  1.00  0.00     0.116 C 
BRANCH   3   4
ATOM      4  N   UNL A   1      31.764  29.112  22.915  1.00  0.00    -0.355 N 
ATOM      5  C   UNL A   1      30.944  28.178  22.353  1.00  0.00     0.240 C 
ATOM      6  O   UNL A   1      29.752  28.482  22.243  1.00  0.00    -0.273 OA
ATOM      7  H   UNL A   1      31.380  30.016  22.977  1.00  0.00     0.163 HD
BRANCH   5   8
ATOM      8  C   UNL A   1      31.402  26.741  22.054  1.00  0.00     0.230 C 
BRANCH   8   9
ATOM      9  N   UNL A   1      31.894  25.993  23.192  1.00  0.00    -0.253 N 
ATOM     10  C   UNL A   1      31.541  24.860  26.587  1.00  0.00     0.150 C 
ATOM     11  N   UNL A   1      32.045  25.242  25.283  1.00  0.00    -0.313 N 
ATOM     12  C   UNL A   1      31.290  26.017  24.413  1.00  0.00     0.327 C 
ATOM     13  C   UNL A   1      33.199  24.614  24.627  1.00  0.00     0.124 C 
ATOM     14  O   UNL A   1      30.261  26.603  24.690  1.00  0.00    -0.248 OA
ATOM     15  C   UNL A   1      33.113  25.380  23.280  1.00  0.00     0.257 C 
ATOM     16  C   UNL A   1      34.521  24.810  25.372  1.00  0.00     0.039 C 
ATOM     17  C   UNL A   1      32.934  23.131  24.362  1.00  0.00     0.039 C 
ATOM     18  O   UNL A   1      33.964  25.374  22.401  1.00  0.00    -0.272 OA
ATOM     19  C   UNL A   1      35.687  24.005  24.782  1.00  0.00     0.003 C 
ATOM     20  C   UNL A   1      34.088  22.403  23.692  1.00  0.00     0.003 C 
ATOM     21  C   UNL A   1      35.343  22.537  24.533  1.00  0.00     0.000 C 
ENDBRANCH   8   9
ENDBRANCH   5   8
ENDBRANCH   3   4
ENDBRANCH   2   3
ENDBRANCH   1   2
BRANCH   1  22
ATOM     22  C   UNL A   1      33.401  28.625  27.331  1.00  0.00     0.116 C 
BRANCH  22  23
ATOM     23  N   UNL A   1      33.508  30.031  27.730  1.00  0.00    -0.352 N 
ATOM     24  C   UNL A   1      34.583  30.725  28.238  1.00  0.00     0.251 C 
ATOM     25  H   UNL A   1      32.686  30.560  27.616  1.00  0.00     0.163 HD
ATOM     26  O   UNL A   1      34.450  31.889  28.604  1.00  0.00    -0.269 OA
BRANCH  24  27
ATOM     27  C   UNL A   1      35.882  30.039  28.374  1.00  0.00     0.039 A 
ATOM     28  C   UNL A   1      36.790  30.064  27.314  1.00  0.00     0.014 A 
ATOM     29  C   UNL A   1      36.230  29.452  29.591  1.00  0.00     0.014 A 
ATOM     30  C   UNL A   1      38.091  29.603  27.518  1.00  0.00     0.010 A 
ATOM     31  C   UNL A   1      37.553  29.111  29.826  1.00  0.00     0.010 A 
ATOM     32  C   UNL A   1      38.500  29.183  28.795  1.00  0.00    -0.014 A 
BRANCH  32  33
ATOM     33  C   UNL A   1      39.908  28.820  29.093  1.00  0.00     0.031 A 
ATOM     34  C   UNL A   1      40.837  29.858  29.669  1.00  0.00     0.074 A 
ATOM     35  C   UNL A   1      40.377  27.605  28.743  1.00  0.00     0.049 A 
ATOM     36  N   UNL A   1      42.126  29.786  29.873  1.00  0.00    -0.248 NA
ATOM     37  C   UNL A   1      40.248  31.164  30.014  1.00  0.00     0.031 C 
ATOM     38  C   UNL A   1      39.597  26.539  28.107  1.00  0.00     0.029 A 
ATOM     39  N   UNL A   1      41.634  27.066  28.856  1.00  0.00    -0.354 N 
ATOM     40  C   UNL A   1      42.504  31.043  30.327  1.00  0.00     0.074 A 
ATOM     41  C   UNL A   1      41.323  31.874  30.320  1.00  0.00     0.031 C 
ATOM     42  C   UNL A   1      40.385  25.468  27.914  1.00  0.00     0.029 A 
ATOM     43  C   UNL A   1      41.734  25.783  28.369  1.00  0.00     0.049 A 
ATOM     44  H   UNL A   1      42.395  27.553  29.250  1.00  0.00     0.167 HD
ATOM     45  C   UNL A   1      43.723  31.463  30.739  1.00  0.00     0.031 A 
ATOM     46  C   UNL A   1      42.794  24.956  28.290  1.00  0.00     0.031 A 
ATOM     47  C   UNL A   1      44.883  30.617  30.797  1.00  0.00     0.049 A 
ATOM     48  C   UNL A   1      44.126  25.428  28.807  1.00  0.00     0.074 A 
ATOM     49  C   UNL A   1      46.140  30.916  31.291  1.00  0.00     0.029 A 
ATOM     50  N   UNL A   1      44.925  29.303  30.357  1.00  0.00    -0.354 N 
ATOM     51  N   UNL A   1      44.444  26.595  29.315  1.00  0.00    -0.248 NA
ATOM     52  C   UNL A   1      45.238  24.468  28.755  1.00  0.00     0.031 C 
ATOM     53  C   UNL A   1      46.956  29.795  31.109  1.00  0.00     0.029 A 
ATOM     54  C   UNL A   1      46.192  28.782  30.551  1.00  0.00     0.049 A 
ATOM     55  H   UNL A   1      44.166  28.815  29.964  1.00  0.00     0.167 HD
ATOM     56  C   UNL A   1      45.787  26.501  29.666  1.00  0.00     0.074 A 
ATOM     57  C   UNL A   1      46.214  25.158  29.329  1.00  0.00     0.031 C 
ATOM     58  C   UNL A   1      46.593  27.441  30.217  1.00  0.00     0.031 A 
BRANCH  45  59
ATOM     59  C   UNL A   1      43.862  32.898  31.173  1.00  0.00    -0.014 A 
ATOM     60  C   UNL A   1      44.222  33.902  30.256  1.00  0.00     0.010 A 
ATOM     61  C   UNL A   1      43.579  33.254  32.504  1.00  0.00     0.010 A 
ATOM     62  C   UNL A   1      44.331  35.232  30.671  1.00  0.00     0.020 A 
ATOM     63  C   UNL A   1      43.659  34.587  32.915  1.00  0.00     0.020 A 
ATOM     64  C   UNL A   1      44.048  35.566  31.999  1.00  0.00     0.054 A 
BRANCH  64  65
ATOM     65  S   UNL A   1      44.155  37.307  32.496  1.00  0.00     0.124 S 
ATOM     66  O   UNL A   1      43.902  37.996  31.234  1.00  0.00    -0.237 OA
ATOM     67  O   UNL A   1      43.096  37.420  33.496  1.00  0.00    -0.237 OA
ATOM     68  O   UNL A   1      45.514  37.435  33.017  1.00  0.00    -0.744 OA
ENDBRANCH  64  65
ENDBRANCH  45  59
BRANCH  46  69
ATOM     69  C   UNL A   1      42.640  23.592  27.713  1.00  0.00    -0.014 A 
ATOM     70  C   UNL A   1      42.300  22.504  28.537  1.00  0.00     0.010 A 
ATOM     71  C   UNL A   1      42.834  23.373  26.338  1.00  0.00     0.010 A 
ATOM     72  C   UNL A   1      42.184  21.217  28.001  1.00  0.00     0.020 A 
ATOM     73  C   UNL A   1      42.692  22.093  25.793  1.00  0.00     0.020 A 
ATOM     74  C   UNL A   1      42.383  21.020  26.631  1.00  0.00     0.054 A 
BRANCH  74  75
ATOM     75  S   UNL A   1      42.192  19.349  25.950  1.00  0.00     0.124 S 
ATOM     76  O   UNL A   1      43.027  19.412  24.754  1.00  0.00    -0.237 OA
ATOM     77  O   UNL A   1      42.697  18.506  27.031  1.00  0.00    -0.237 OA
ATOM     78  O   UNL A   1      40.755  19.242  25.707  1.00  0.00    -0.744 OA
ENDBRANCH  74  75
ENDBRANCH  46  69
BRANCH  58  79
ATOM     79  C   UNL A   1      48.010  27.042  30.527  1.00  0.00    -0.014 A 
ATOM     80  C   UNL A   1      49.062  27.354  29.649  1.00  0.00     0.010 A 
ATOM     81  C   UNL A   1      48.296  26.404  31.748  1.00  0.00     0.010 A 
ATOM     82  C   UNL A   1      50.376  27.007  29.975  1.00  0.00     0.020 A 
ATOM     83  C   UNL A   1      49.611  26.080  32.089  1.00  0.00     0.020 A 
ATOM     84  C   UNL A   1      50.641  26.373  31.193  1.00  0.00     0.054 A 
BRANCH  84  85
ATOM     85  S   UNL A   1      52.359  25.976  31.615  1.00  0.00     0.124 S 
ATOM     86  O   UNL A   1      52.711  27.071  32.516  1.00  0.00    -0.237 OA
ATOM     87  O   UNL A   1      52.242  24.661  32.239  1.00  0.00    -0.237 OA
ATOM     88  O   UNL A   1      53.044  25.988  30.324  1.00  0.00    -0.744 OA
ENDBRANCH  84  85
ENDBRANCH  58  79
ENDBRANCH  32  33
ENDBRANCH  24  27
ENDBRANCH  22  23
ENDBRANCH   1  22
TORSDOF 15
ENDMDL
MODEL 3
REMARK VINA RESULT:     -10.9      2.702      9.314
REMARK SMILES CN1C(=O)N(CC(=O)NCCCCNC(=O)c2ccc(-c3c4nc(c(-c5ccc(S(=O)(=O)[O-])cc5)c5ccc([nH]5)c(-c5ccc(S(=O)(=O)[O-])cc5)c5nc(c(-c6ccc(S(=O)(=O)[O-])cc6)c6ccc3[nH]6)C=C5)C=C4)cc2)C(=O)C12CCCCC2
REMARK SMILES IDX 12 1 11 2 10 3 9 4 7 5 8 6 6 8 5 9 1 10 2 11 3 12 79 13 4 14
REMARK SMILES IDX 77 15 80 16 84 17 78 18 81 19 83 20 82 21 13 22 14 23 15 24
REMARK SMILES IDX 16 26 17 27 18 28 76 29 19 30 75 31 20 32 21 33 22 34 69 35
REMARK SMILES IDX 23 36 74 37 68 38 70 39 24 40 73 41 67 42 66 43 25 45 55 46
REMARK SMILES IDX 36 47 54 48 37 49 40 50 53 51 71 52 38 53 39 54 52 56 72 57
REMARK SMILES IDX 41 58 26 59 27 60 35 61 28 62 34 63 29 64 30 65 31 66 32 67
REMARK SMILES IDX 33 68 56 69 57 70 65 71 58 72 64 73 59 74 60 75 61 76 62 77
REMARK SMILES IDX 63 78 42 79 43 80 51 81 44 82 50 83 45 84 46 85 47 86 48 87
REMARK SMILES IDX 49 88
REMARK H PARENT 9 7 14 25 70 44 40 55
REMARK Flexibility Score: inf
ROOT
ATOM      1  C   UNL A   1      35.965  23.382  25.882  1.00  0.00     0.023 C 
ENDROOT
BRANCH   1   2
ATOM      2  C   UNL A   1      35.226  22.056  25.873  1.00  0.00     0.023 C 
BRANCH   2   3
ATOM      3  C   UNL A   1      33.879  22.027  25.158  1.00  0.00     0.116 C 
BRANCH   3   4
ATOM      4  N   UNL A   1      33.991  22.448  23.779  1.00  0.00    -0.355 N 
ATOM      5  C   UNL A   1      33.251  23.346  23.067  1.00  0.00     0.240 C 
ATOM      6  O   UNL A   1      33.725  23.724  21.990  1.00  0.00    -0.273 OA
ATOM      7  H   UNL A   1      34.719  22.019  23.274  1.00  0.00     0.163 HD
BRANCH   5   8
ATOM      8  C   UNL A   1      31.998  24.029  23.637  1.00  0.00     0.230 C 
BRANCH   8   9
ATOM      9  N   UNL A   1      32.110  25.455  23.860  1.00  0.00    -0.253 N 
ATOM     10  C   UNL A   1      31.657  28.845  22.746  1.00  0.00     0.150 C 
ATOM     11  N   UNL A   1      32.090  27.639  23.423  1.00  0.00    -0.313 N 
ATOM     12  C   UNL A   1      31.827  26.379  22.900  1.00  0.00     0.327 C 
ATOM     13  C   UNL A   1      32.531  27.591  24.823  1.00  0.00     0.124 C 
ATOM     14  O   UNL A   1      31.403  26.145  21.785  1.00  0.00    -0.248 OA
ATOM     15  C   UNL A   1      32.721  26.053  24.926  1.00  0.00     0.257 C 
ATOM     16  C   UNL A   1      33.803  28.395  25.103  1.00  0.00     0.039 C 
ATOM     17  C   UNL A   1      31.400  28.007  25.765  1.00  0.00     0.039 C 
ATOM     18  O   UNL A   1      33.260  25.462  25.853  1.00  0.00    -0.272 OA
ATOM     19  C   UNL A   1      34.157  28.489  26.594  1.00  0.00     0.003 C 
ATOM     20  C   UNL A   1      31.780  27.994  27.237  1.00  0.00     0.003 C 
ATOM     21  C   UNL A   1      32.975  28.897  27.472  1.00  0.00     0.000 C 
ENDBRANCH   8   9
ENDBRANCH   5   8
ENDBRANCH   3   4
ENDBRANCH   2   3
ENDBRANCH   1   2
BRANCH   1  22
ATOM     22  C   UNL A   1      37.160  23.432  24.935  1.00  0.00     0.116 C 
BRANCH  22  23
ATOM     23  N   UNL A   1      38.287  22.585  25.334  1.00  0.00    -0.352 N 
ATOM     24  C   UNL A   1      39.375  22.879  26.125  1.00  0.00     0.251 C 
ATOM     25  H   UNL A   1      38.262  21.665  24.984  1.00  0.00     0.163 HD
ATOM     26  O   UNL A   1      40.273  22.055  26.271  1.00  0.00    -0.269 OA
BRANCH  24  27
ATOM     27  C   UNL A   1      39.464  24.207  26.760  1.00  0.00     0.039 A 
ATOM     28  C   UNL A   1      38.913  24.405  28.028  1.00  0.00     0.014 A 
ATOM     29  C   UNL A   1      40.178  25.227  26.132  1.00  0.00     0.014 A 
ATOM     30  C   UNL A   1      39.182  25.591  28.712  1.00  0.00     0.010 A 
ATOM     31  C   UNL A   1      40.545  26.348  26.861  1.00  0.00     0.010 A 
ATOM     32  C   UNL A   1      40.054  26.543  28.159  1.00  0.00    -0.014 A 
BRANCH  32  33
ATOM     33  C   UNL A   1      40.482  27.751  28.909  1.00  0.00     0.031 A 
ATOM     34  C   UNL A   1      41.796  27.741  29.646  1.00  0.00     0.074 A 
ATOM     35  C   UNL A   1      39.645  28.803  29.023  1.00  0.00     0.049 A 
ATOM     36  N   UNL A   1      42.288  28.634  30.464  1.00  0.00    -0.248 NA
ATOM     37  C   UNL A   1      42.647  26.549  29.479  1.00  0.00     0.031 C 
ATOM     38  C   UNL A   1      38.312  28.903  28.420  1.00  0.00     0.029 A 
ATOM     39  N   UNL A   1      39.785  29.987  29.702  1.00  0.00    -0.354 N 
ATOM     40  C   UNL A   1      43.477  28.094  30.938  1.00  0.00     0.074 A 
ATOM     41  C   UNL A   1      43.609  26.777  30.360  1.00  0.00     0.031 C 
ATOM     42  C   UNL A   1      37.773  30.093  28.733  1.00  0.00     0.029 A 
ATOM     43  C   UNL A   1      38.697  30.822  29.592  1.00  0.00     0.049 A 
ATOM     44  H   UNL A   1      40.592  30.218  30.220  1.00  0.00     0.167 HD
ATOM     45  C   UNL A   1      44.392  28.655  31.763  1.00  0.00     0.031 A 
ATOM     46  C   UNL A   1      38.466  32.035  30.131  1.00  0.00     0.031 A 
ATOM     47  C   UNL A   1      44.282  29.986  32.291  1.00  0.00     0.049 A 
ATOM     48  C   UNL A   1      39.525  32.660  30.999  1.00  0.00     0.074 A 
ATOM     49  C   UNL A   1      45.201  30.685  33.054  1.00  0.00     0.029 A 
ATOM     50  N   UNL A   1      43.195  30.825  32.102  1.00  0.00    -0.354 N 
ATOM     51  N   UNL A   1      40.684  32.167  31.366  1.00  0.00    -0.248 NA
ATOM     52  C   UNL A   1      39.252  34.009  31.513  1.00  0.00     0.031 C 
ATOM     53  C   UNL A   1      44.649  31.932  33.364  1.00  0.00     0.029 A 
ATOM     54  C   UNL A   1      43.410  32.028  32.749  1.00  0.00     0.049 A 
ATOM     55  H   UNL A   1      42.389  30.596  31.585  1.00  0.00     0.167 HD
ATOM     56  C   UNL A   1      41.289  33.157  32.133  1.00  0.00     0.074 A 
ATOM     57  C   UNL A   1      40.376  34.281  32.162  1.00  0.00     0.031 C 
ATOM     58  C   UNL A   1      42.492  33.137  32.757  1.00  0.00     0.031 A 
BRANCH  45  59
ATOM     59  C   UNL A   1      45.599  27.834  32.133  1.00  0.00    -0.014 A 
ATOM     60  C   UNL A   1      46.768  27.868  31.352  1.00  0.00     0.010 A 
ATOM     61  C   UNL A   1      45.579  27.058  33.306  1.00  0.00     0.010 A 
ATOM     62  C   UNL A   1      47.884  27.112  31.719  1.00  0.00     0.020 A 
ATOM     63  C   UNL A   1      46.704  26.324  33.691  1.00  0.00     0.020 A 
ATOM     64  C   UNL A   1      47.845  26.345  32.887  1.00  0.00     0.054 A 
BRANCH  64  65
ATOM     65  S   UNL A   1      49.326  25.410  33.360  1.00  0.00     0.124 S 
ATOM     66  O   UNL A   1      48.753  24.307  34.126  1.00  0.00    -0.237 OA
ATOM     67  O   UNL A   1      49.901  25.046  32.068  1.00  0.00    -0.237 OA
ATOM     68  O   UNL A   1      50.107  26.370  34.137  1.00  0.00    -0.744 OA
ENDBRANCH  64  65
ENDBRANCH  45  59
BRANCH  46  69
ATOM     69  C   UNL A   1      37.188  32.747  29.855  1.00  0.00    -0.014 A 
ATOM     70  C   UNL A   1      36.082  32.584  30.708  1.00  0.00     0.010 A 
ATOM     71  C   UNL A   1      37.069  33.591  28.737  1.00  0.00     0.010 A 
ATOM     72  C   UNL A   1      34.872  33.228  30.433  1.00  0.00     0.020 A 
ATOM     73  C   UNL A   1      35.869  34.261  28.474  1.00  0.00     0.020 A 
ATOM     74  C   UNL A   1      34.774  34.062  29.315  1.00  0.00     0.054 A 
BRANCH  74  75
ATOM     75  S   UNL A   1      33.205  34.919  28.996  1.00  0.00     0.124 S 
ATOM     76  O   UNL A   1      32.603  34.953  30.325  1.00  0.00    -0.237 OA
ATOM     77  O   UNL A   1      33.649  36.207  28.468  1.00  0.00    -0.237 OA
ATOM     78  O   UNL A   1      32.537  34.055  28.026  1.00  0.00    -0.744 OA
ENDBRANCH  74  75
ENDBRANCH  46  69
BRANCH  58  79
ATOM     79  C   UNL A   1      42.910  34.379  33.494  1.00  0.00    -0.014 A 
ATOM     80  C   UNL A   1      42.623  34.547  34.859  1.00  0.00     0.010 A 
ATOM     81  C   UNL A   1      43.659  35.362  32.821  1.00  0.00     0.010 A 
ATOM     82  C   UNL A   1      43.055  35.692  35.534  1.00  0.00     0.020 A 
ATOM     83  C   UNL A   1      44.115  36.495  33.498  1.00  0.00     0.020 A 
ATOM     84  C   UNL A   1      43.798  36.659  34.848  1.00  0.00     0.054 A 
BRANCH  84  85
ATOM     85  S   UNL A   1      44.387  38.113  35.756  1.00  0.00     0.124 S 
ATOM     86  O   UNL A   1      43.744  37.940  37.056  1.00  0.00    -0.237 OA
ATOM     87  O   UNL A   1      45.837  37.935  35.743  1.00  0.00    -0.237 OA
ATOM     88  O   UNL A   1      43.897  39.238  34.964  1.00  0.00    -0.744 OA
ENDBRANCH  84  85
ENDBRANCH  58  79
ENDBRANCH  32  33
ENDBRANCH  24  27
ENDBRANCH  22  23
ENDBRANCH   1  22
TORSDOF 15
ENDMDL
