MODEL 1
REMARK VINA RESULT:     -11.7      0.000      0.000
REMARK SMILES Cc1cc(=O)n(Cc2cc(C(=O)NCCCCNC(=O)c3ccc(-c4c5nc(c(-c6ccc(S(=O)(=O)[O-])cc6)c6ccc([nH]6)c(-c6ccc(S(=O)(=O)[O-])cc6)c6nc(c(-c7ccc(S(=O)(=O)[O-])cc7)c7ccc4[nH]7)C=C6)C=C5)cc3)oc2C)cc1[N+](=O)[O-]
REMARK SMILES IDX 15 1 14 2 13 3 11 4 12 5 10 7 8 8 9 9 82 10 81 11 83 12 7 13
REMARK SMILES IDX 6 14 1 15 2 16 3 17 85 18 4 19 84 20 5 21 86 22 87 23 88 24
REMARK SMILES IDX 16 25 17 26 18 27 19 28 20 30 21 31 22 32 80 33 23 34 79 35
REMARK SMILES IDX 24 36 25 37 26 38 73 39 27 40 78 41 72 42 74 43 28 44 77 45
REMARK SMILES IDX 71 46 70 47 29 49 59 50 40 51 58 52 41 53 44 54 57 55 75 56
REMARK SMILES IDX 42 57 43 58 56 60 76 61 45 62 30 63 31 64 39 65 32 66 38 67
REMARK SMILES IDX 33 68 34 69 35 70 36 71 37 72 60 73 61 74 69 75 62 76 68 77
REMARK SMILES IDX 63 78 64 79 65 80 66 81 67 82 46 83 47 84 55 85 48 86 54 87
REMARK SMILES IDX 49 88 50 89 51 90 52 91 53 92
REMARK H PARENT 13 6 18 29 74 48 44 59
REMARK Flexibility Score: inf
ROOT
ATOM      1  C   UNL A   1      32.954  29.458  24.781  1.00  0.00     0.023 C 
ENDROOT
BRANCH   1   2
ATOM      2  C   UNL A   1      33.188  29.048  23.326  1.00  0.00     0.116 C 
BRANCH   2   3
ATOM      3  N   UNL A   1      32.030  29.311  22.493  1.00  0.00    -0.349 N 
ATOM      4  C   UNL A   1      30.873  28.585  22.306  1.00  0.00     0.287 C 
ATOM      5  O   UNL A   1      29.992  29.135  21.641  1.00  0.00    -0.266 OA
ATOM      6  H   UNL A   1      32.080  30.148  21.975  1.00  0.00     0.163 HD
BRANCH   4   7
ATOM      7  C   UNL A   1      30.716  27.267  22.890  1.00  0.00     0.191 A 
ATOM      8  C   UNL A   1      30.662  25.081  23.523  1.00  0.00     0.014 A 
ATOM      9  C   UNL A   1      30.903  25.975  22.438  1.00  0.00     0.062 A 
ATOM     10  C   UNL A   1      30.216  25.887  24.553  1.00  0.00     0.106 A 
ATOM     11  O   UNL A   1      30.254  27.195  24.181  1.00  0.00    -0.456 OA
ATOM     12  C   UNL A   1      29.710  25.637  25.919  1.00  0.00     0.088 C 
BRANCH   8  13
ATOM     13  C   UNL A   1      30.838  23.600  23.485  1.00  0.00     0.164 C 
BRANCH  13  14
ATOM     14  N   UNL A   1      32.148  23.249  24.047  1.00  0.00    -0.304 N 
ATOM     15  C   UNL A   1      36.026  22.371  25.731  1.00  0.00     0.052 C 
ATOM     16  C   UNL A   1      34.673  22.658  25.140  1.00  0.00     0.034 A 
ATOM     17  C   UNL A   1      34.529  22.753  23.804  1.00  0.00     0.082 A 
ATOM     18  C   UNL A   1      33.491  22.833  25.977  1.00  0.00     0.288 A 
ATOM     19  C   UNL A   1      33.211  23.033  23.171  1.00  0.00     0.251 A 
ATOM     20  C   UNL A   1      32.300  23.135  25.426  1.00  0.00     0.175 A 
ATOM     21  O   UNL A   1      33.138  23.066  21.947  1.00  0.00    -0.269 OA
BRANCH  18  22
ATOM     22  N   UNL A   1      33.490  22.659  27.433  1.00  0.00     0.064 N 
ATOM     23  O   UNL A   1      32.390  22.579  28.002  1.00  0.00    -0.258 OA
ATOM     24  O   UNL A   1      34.581  22.598  28.012  1.00  0.00    -0.258 OA
ENDBRANCH  18  22
ENDBRANCH  13  14
ENDBRANCH   8  13
ENDBRANCH   4   7
ENDBRANCH   2   3
ENDBRANCH   1   2
BRANCH   1  25
ATOM     25  C   UNL A   1      33.560  28.504  25.815  1.00  0.00     0.023 C 
BRANCH  25  26
ATOM     26  C   UNL A   1      33.270  28.851  27.271  1.00  0.00     0.116 C 
BRANCH  26  27
ATOM     27  N   UNL A   1      33.408  30.268  27.582  1.00  0.00    -0.352 N 
ATOM     28  C   UNL A   1      34.528  30.925  28.043  1.00  0.00     0.251 C 
ATOM     29  H   UNL A   1      32.605  30.821  27.447  1.00  0.00     0.163 HD
ATOM     30  O   UNL A   1      34.482  32.116  28.334  1.00  0.00    -0.269 OA
BRANCH  28  31
ATOM     31  C   UNL A   1      35.773  30.150  28.232  1.00  0.00     0.039 A 
ATOM     32  C   UNL A   1      36.000  29.471  29.430  1.00  0.00     0.014 A 
ATOM     33  C   UNL A   1      36.762  30.204  27.246  1.00  0.00     0.014 A 
ATOM     34  C   UNL A   1      37.277  29.003  29.716  1.00  0.00     0.010 A 
ATOM     35  C   UNL A   1      38.025  29.668  27.510  1.00  0.00     0.010 A 
ATOM     36  C   UNL A   1      38.309  29.122  28.771  1.00  0.00    -0.014 A 
BRANCH  36  37
ATOM     37  C   UNL A   1      39.688  28.713  29.144  1.00  0.00     0.031 A 
ATOM     38  C   UNL A   1      40.519  29.569  30.064  1.00  0.00     0.074 A 
ATOM     39  C   UNL A   1      40.161  27.523  28.724  1.00  0.00     0.049 A 
ATOM     40  N   UNL A   1      41.721  29.345  30.530  1.00  0.00    -0.248 NA
ATOM     41  C   UNL A   1      39.926  30.835  30.524  1.00  0.00     0.031 C 
ATOM     42  C   UNL A   1      39.435  26.590  27.863  1.00  0.00     0.029 A 
ATOM     43  N   UNL A   1      41.343  26.881  28.995  1.00  0.00    -0.354 N 
ATOM     44  C   UNL A   1      42.032  30.440  31.329  1.00  0.00     0.074 A 
ATOM     45  C   UNL A   1      40.905  31.345  31.260  1.00  0.00     0.031 C 
ATOM     46  C   UNL A   1      40.159  25.469  27.727  1.00  0.00     0.029 A 
ATOM     47  C   UNL A   1      41.425  25.627  28.438  1.00  0.00     0.049 A 
ATOM     48  H   UNL A   1      42.063  27.279  29.536  1.00  0.00     0.167 HD
ATOM     49  C   UNL A   1      43.145  30.664  32.064  1.00  0.00     0.031 A 
ATOM     50  C   UNL A   1      42.405  24.704  28.485  1.00  0.00     0.031 A 
ATOM     51  C   UNL A   1      44.265  29.762  32.131  1.00  0.00     0.049 A 
ATOM     52  C   UNL A   1      43.654  24.993  29.264  1.00  0.00     0.074 A 
ATOM     53  C   UNL A   1      45.449  29.917  32.832  1.00  0.00     0.029 A 
ATOM     54  N   UNL A   1      44.339  28.536  31.489  1.00  0.00    -0.354 N 
ATOM     55  N   UNL A   1      43.942  26.052  29.980  1.00  0.00    -0.248 NA
ATOM     56  C   UNL A   1      44.709  23.972  29.238  1.00  0.00     0.031 C 
ATOM     57  C   UNL A   1      46.256  28.805  32.575  1.00  0.00     0.029 A 
ATOM     58  C   UNL A   1      45.553  27.930  31.762  1.00  0.00     0.049 A 
ATOM     59  H   UNL A   1      43.631  28.153  30.921  1.00  0.00     0.167 HD
ATOM     60  C   UNL A   1      45.216  25.828  30.490  1.00  0.00     0.074 A 
ATOM     61  C   UNL A   1      45.633  24.523  30.019  1.00  0.00     0.031 C 
ATOM     62  C   UNL A   1      45.968  26.639  31.274  1.00  0.00     0.031 A 
BRANCH  49  63
ATOM     63  C   UNL A   1      43.223  31.943  32.854  1.00  0.00    -0.014 A 
ATOM     64  C   UNL A   1      43.812  33.087  32.284  1.00  0.00     0.010 A 
ATOM     65  C   UNL A   1      42.788  31.994  34.191  1.00  0.00     0.010 A 
ATOM     66  C   UNL A   1      43.974  34.253  33.036  1.00  0.00     0.020 A 
ATOM     67  C   UNL A   1      42.927  33.166  34.940  1.00  0.00     0.020 A 
ATOM     68  C   UNL A   1      43.536  34.284  34.362  1.00  0.00     0.054 A 
BRANCH  68  69
ATOM     69  S   UNL A   1      43.735  35.810  35.323  1.00  0.00     0.124 S 
ATOM     70  O   UNL A   1      45.164  36.073  35.194  1.00  0.00    -0.237 OA
ATOM     71  O   UNL A   1      42.854  36.747  34.628  1.00  0.00    -0.237 OA
ATOM     72  O   UNL A   1      43.285  35.428  36.661  1.00  0.00    -0.744 OA
ENDBRANCH  68  69
ENDBRANCH  49  63
BRANCH  50  73
ATOM     73  C   UNL A   1      42.198  23.416  27.771  1.00  0.00    -0.014 A 
ATOM     74  C   UNL A   1      41.591  22.333  28.437  1.00  0.00     0.010 A 
ATOM     75  C   UNL A   1      42.736  23.220  26.489  1.00  0.00     0.010 A 
ATOM     76  C   UNL A   1      41.596  21.059  27.863  1.00  0.00     0.020 A 
ATOM     77  C   UNL A   1      42.719  21.951  25.901  1.00  0.00     0.020 A 
ATOM     78  C   UNL A   1      42.183  20.872  26.610  1.00  0.00     0.054 A 
BRANCH  78  79
ATOM     79  S   UNL A   1      42.273  19.194  25.928  1.00  0.00     0.124 S 
ATOM     80  O   UNL A   1      40.869  18.919  25.630  1.00  0.00    -0.237 OA
ATOM     81  O   UNL A   1      43.139  19.365  24.765  1.00  0.00    -0.237 OA
ATOM     82  O   UNL A   1      42.847  18.413  27.020  1.00  0.00    -0.744 OA
ENDBRANCH  78  79
ENDBRANCH  50  73
BRANCH  62  83
ATOM     83  C   UNL A   1      47.339  26.166  31.672  1.00  0.00    -0.014 A 
ATOM     84  C   UNL A   1      48.386  26.182  30.732  1.00  0.00     0.010 A 
ATOM     85  C   UNL A   1      47.554  25.579  32.932  1.00  0.00     0.010 A 
ATOM     86  C   UNL A   1      49.615  25.591  31.032  1.00  0.00     0.020 A 
ATOM     87  C   UNL A   1      48.791  25.005  33.242  1.00  0.00     0.020 A 
ATOM     88  C   UNL A   1      49.804  24.992  32.281  1.00  0.00     0.054 A 
BRANCH  88  89
ATOM     89  S   UNL A   1      51.393  24.194  32.640  1.00  0.00     0.124 S 
ATOM     90  O   UNL A   1      51.460  24.285  34.095  1.00  0.00    -0.237 OA
ATOM     91  O   UNL A   1      51.209  22.849  32.101  1.00  0.00    -0.237 OA
ATOM     92  O   UNL A   1      52.359  25.018  31.917  1.00  0.00    -0.744 OA
ENDBRANCH  88  89
ENDBRANCH  62  83
ENDBRANCH  36  37
ENDBRANCH  28  31
ENDBRANCH  26  27
ENDBRANCH  25  26
ENDBRANCH   1  25
TORSDOF 17
ENDMDL
MODEL 2
REMARK VINA RESULT:     -11.0      3.763      9.552
REMARK SMILES Cc1cc(=O)n(Cc2cc(C(=O)NCCCCNC(=O)c3ccc(-c4c5nc(c(-c6ccc(S(=O)(=O)[O-])cc6)c6ccc([nH]6)c(-c6ccc(S(=O)(=O)[O-])cc6)c6nc(c(-c7ccc(S(=O)(=O)[O-])cc7)c7ccc4[nH]7)C=C6)C=C5)cc3)oc2C)cc1[N+](=O)[O-]
REMARK SMILES IDX 15 1 14 2 13 3 11 4 12 5 10 7 8 8 9 9 82 10 81 11 83 12 7 13
REMARK SMILES IDX 6 14 1 15 2 16 3 17 85 18 4 19 84 20 5 21 86 22 87 23 88 24
REMARK SMILES IDX 16 25 17 26 18 27 19 28 20 30 21 31 22 32 80 33 23 34 79 35
REMARK SMILES IDX 24 36 25 37 26 38 73 39 27 40 78 41 72 42 74 43 28 44 77 45
REMARK SMILES IDX 71 46 70 47 29 49 59 50 40 51 58 52 41 53 44 54 57 55 75 56
REMARK SMILES IDX 42 57 43 58 56 60 76 61 45 62 30 63 31 64 39 65 32 66 38 67
REMARK SMILES IDX 33 68 34 69 35 70 36 71 37 72 60 73 61 74 69 75 62 76 68 77
REMARK SMILES IDX 63 78 64 79 65 80 66 81 67 82 46 83 47 84 55 85 48 86 54 87
REMARK SMILES IDX 49 88 50 89 51 90 52 91 53 92
REMARK H PARENT 13 6 18 29 74 48 44 59
REMARK Flexibility Score: inf
ROOT
ATOM      1  C   UNL A   1      36.901  20.528  25.134  1.00  0.00     0.023 C 
ENDROOT
BRANCH   1   2
ATOM      2  C   UNL A   1      35.543  21.012  25.643  1.00  0.00     0.116 C 
BRANCH   2   3
ATOM      3  N   UNL A   1      34.533  19.973  25.576  1.00  0.00    -0.349 N 
ATOM      4  C   UNL A   1      33.275  19.977  25.013  1.00  0.00     0.287 C 
ATOM      5  O   UNL A   1      32.693  18.890  24.982  1.00  0.00    -0.266 OA
ATOM      6  H   UNL A   1      34.790  19.124  26.003  1.00  0.00     0.163 HD
BRANCH   4   7
ATOM      7  C   UNL A   1      32.702  21.194  24.471  1.00  0.00     0.191 A 
ATOM      8  C   UNL A   1      31.665  23.153  23.953  1.00  0.00     0.014 A 
ATOM      9  C   UNL A   1      31.721  22.074  24.885  1.00  0.00     0.062 A 
ATOM     10  C   UNL A   1      32.542  22.797  22.946  1.00  0.00     0.106 A 
ATOM     11  O   UNL A   1      33.170  21.630  23.257  1.00  0.00    -0.456 OA
ATOM     12  C   UNL A   1      32.919  23.386  21.644  1.00  0.00     0.088 C 
BRANCH   8  13
ATOM     13  C   UNL A   1      30.799  24.362  24.073  1.00  0.00     0.164 C 
BRANCH  13  14
ATOM     14  N   UNL A   1      31.605  25.494  24.546  1.00  0.00    -0.304 N 
ATOM     15  C   UNL A   1      34.106  28.735  25.919  1.00  0.00     0.052 C 
ATOM     16  C   UNL A   1      33.219  27.618  25.445  1.00  0.00     0.034 A 
ATOM     17  C   UNL A   1      32.591  26.830  26.339  1.00  0.00     0.082 A 
ATOM     18  C   UNL A   1      33.007  27.356  24.025  1.00  0.00     0.288 A 
ATOM     19  C   UNL A   1      31.701  25.713  25.920  1.00  0.00     0.251 A 
ATOM     20  C   UNL A   1      32.244  26.320  23.626  1.00  0.00     0.175 A 
ATOM     21  O   UNL A   1      31.126  25.060  26.784  1.00  0.00    -0.269 OA
BRANCH  18  22
ATOM     22  N   UNL A   1      33.550  28.193  22.952  1.00  0.00     0.064 N 
ATOM     23  O   UNL A   1      33.456  29.424  23.080  1.00  0.00    -0.258 OA
ATOM     24  O   UNL A   1      34.073  27.631  21.982  1.00  0.00    -0.258 OA
ENDBRANCH  18  22
ENDBRANCH  13  14
ENDBRANCH   8  13
ENDBRANCH   4   7
ENDBRANCH   2   3
ENDBRANCH   1   2
BRANCH   1  25
ATOM     25  C   UNL A   1      37.979  21.614  25.067  1.00  0.00     0.023 C 
BRANCH  25  26
ATOM     26  C   UNL A   1      39.128  21.456  26.057  1.00  0.00     0.116 C 
BRANCH  26  27
ATOM     27  N   UNL A   1      39.841  20.191  25.940  1.00  0.00    -0.352 N 
ATOM     28  C   UNL A   1      41.195  19.970  26.075  1.00  0.00     0.251 C 
ATOM     29  H   UNL A   1      39.291  19.400  25.740  1.00  0.00     0.163 HD
ATOM     30  O   UNL A   1      41.672  18.857  25.877  1.00  0.00    -0.269 OA
BRANCH  28  31
ATOM     31  C   UNL A   1      42.067  21.116  26.409  1.00  0.00     0.039 A 
ATOM     32  C   UNL A   1      42.387  21.389  27.739  1.00  0.00     0.014 A 
ATOM     33  C   UNL A   1      42.465  21.985  25.389  1.00  0.00     0.014 A 
ATOM     34  C   UNL A   1      42.947  22.618  28.067  1.00  0.00     0.010 A 
ATOM     35  C   UNL A   1      43.094  23.189  25.717  1.00  0.00     0.010 A 
ATOM     36  C   UNL A   1      43.280  23.542  27.063  1.00  0.00    -0.014 A 
BRANCH  36  37
ATOM     37  C   UNL A   1      43.774  24.889  27.448  1.00  0.00     0.031 A 
ATOM     38  C   UNL A   1      45.219  25.263  27.243  1.00  0.00     0.074 A 
ATOM     39  C   UNL A   1      42.900  25.809  27.900  1.00  0.00     0.049 A 
ATOM     40  N   UNL A   1      45.812  26.406  27.479  1.00  0.00    -0.248 NA
ATOM     41  C   UNL A   1      46.113  24.226  26.703  1.00  0.00     0.031 C 
ATOM     42  C   UNL A   1      41.470  25.578  28.102  1.00  0.00     0.029 A 
ATOM     43  N   UNL A   1      43.078  27.128  28.233  1.00  0.00    -0.354 N 
ATOM     44  C   UNL A   1      47.144  26.226  27.124  1.00  0.00     0.074 A 
ATOM     45  C   UNL A   1      47.282  24.853  26.687  1.00  0.00     0.031 C 
ATOM     46  C   UNL A   1      40.888  26.730  28.464  1.00  0.00     0.029 A 
ATOM     47  C   UNL A   1      41.911  27.767  28.579  1.00  0.00     0.049 A 
ATOM     48  H   UNL A   1      43.955  27.575  28.225  1.00  0.00     0.167 HD
ATOM     49  C   UNL A   1      48.156  27.123  27.146  1.00  0.00     0.031 A 
ATOM     50  C   UNL A   1      41.680  29.040  28.953  1.00  0.00     0.031 A 
ATOM     51  C   UNL A   1      48.017  28.489  27.580  1.00  0.00     0.049 A 
ATOM     52  C   UNL A   1      42.824  30.008  29.020  1.00  0.00     0.074 A 
ATOM     53  C   UNL A   1      48.993  29.466  27.660  1.00  0.00     0.029 A 
ATOM     54  N   UNL A   1      46.831  29.074  27.997  1.00  0.00    -0.354 N 
ATOM     55  N   UNL A   1      44.083  29.805  28.717  1.00  0.00    -0.248 NA
ATOM     56  C   UNL A   1      42.523  31.369  29.482  1.00  0.00     0.031 C 
ATOM     57  C   UNL A   1      48.407  30.629  28.168  1.00  0.00     0.029 A 
ATOM     58  C   UNL A   1      47.053  30.393  28.350  1.00  0.00     0.049 A 
ATOM     59  H   UNL A   1      45.959  28.617  28.037  1.00  0.00     0.167 HD
ATOM     60  C   UNL A   1      44.729  31.013  28.955  1.00  0.00     0.074 A 
ATOM     61  C   UNL A   1      43.717  31.947  29.405  1.00  0.00     0.031 C 
ATOM     62  C   UNL A   1      46.043  31.312  28.815  1.00  0.00     0.031 A 
BRANCH  49  63
ATOM     63  C   UNL A   1      49.517  26.664  26.695  1.00  0.00    -0.014 A 
ATOM     64  C   UNL A   1      49.901  26.818  25.350  1.00  0.00     0.010 A 
ATOM     65  C   UNL A   1      50.388  26.007  27.583  1.00  0.00     0.010 A 
ATOM     66  C   UNL A   1      51.123  26.314  24.897  1.00  0.00     0.020 A 
ATOM     67  C   UNL A   1      51.623  25.522  27.139  1.00  0.00     0.020 A 
ATOM     68  C   UNL A   1      51.974  25.664  25.794  1.00  0.00     0.054 A 
BRANCH  68  69
ATOM     69  S   UNL A   1      53.567  25.031  25.198  1.00  0.00     0.124 S 
ATOM     70  O   UNL A   1      54.503  25.588  26.169  1.00  0.00    -0.237 OA
ATOM     71  O   UNL A   1      53.382  23.583  25.257  1.00  0.00    -0.237 OA
ATOM     72  O   UNL A   1      53.664  25.579  23.846  1.00  0.00    -0.744 OA
ENDBRANCH  68  69
ENDBRANCH  49  63
BRANCH  50  73
ATOM     73  C   UNL A   1      40.284  29.444  29.269  1.00  0.00    -0.014 A 
ATOM     74  C   UNL A   1      39.384  29.738  28.226  1.00  0.00     0.010 A 
ATOM     75  C   UNL A   1      39.897  29.679  30.598  1.00  0.00     0.010 A 
ATOM     76  C   UNL A   1      38.151  30.332  28.504  1.00  0.00     0.020 A 
ATOM     77  C   UNL A   1      38.651  30.250  30.880  1.00  0.00     0.020 A 
ATOM     78  C   UNL A   1      37.804  30.608  29.828  1.00  0.00     0.054 A 
BRANCH  78  79
ATOM     79  S   UNL A   1      36.245  31.474  30.161  1.00  0.00     0.124 S 
ATOM     80  O   UNL A   1      36.668  32.872  30.121  1.00  0.00    -0.237 OA
ATOM     81  O   UNL A   1      35.394  31.043  29.056  1.00  0.00    -0.237 OA
ATOM     82  O   UNL A   1      35.853  30.975  31.477  1.00  0.00    -0.744 OA
ENDBRANCH  78  79
ENDBRANCH  50  73
BRANCH  62  83
ATOM     83  C   UNL A   1      46.495  32.703  29.167  1.00  0.00    -0.014 A 
ATOM     84  C   UNL A   1      46.552  33.694  28.169  1.00  0.00     0.010 A 
ATOM     85  C   UNL A   1      46.991  32.990  30.451  1.00  0.00     0.010 A 
ATOM     86  C   UNL A   1      47.128  34.937  28.439  1.00  0.00     0.020 A 
ATOM     87  C   UNL A   1      47.549  34.241  30.729  1.00  0.00     0.020 A 
ATOM     88  C   UNL A   1      47.637  35.197  29.715  1.00  0.00     0.054 A 
BRANCH  88  89
ATOM     89  S   UNL A   1      48.417  36.802  30.038  1.00  0.00     0.124 S 
ATOM     90  O   UNL A   1      49.797  36.422  30.319  1.00  0.00    -0.237 OA
ATOM     91  O   UNL A   1      48.205  37.524  28.785  1.00  0.00    -0.237 OA
ATOM     92  O   UNL A   1      47.666  37.322  31.179  1.00  0.00    -0.744 OA
ENDBRANCH  88  89
ENDBRANCH  62  83
ENDBRANCH  36  37
ENDBRANCH  28  31
ENDBRANCH  26  27
ENDBRANCH  25  26
ENDBRANCH   1  25
TORSDOF 17
ENDMDL
MODEL 3
REMARK VINA RESULT:     -10.8      3.875      9.258
REMARK SMILES Cc1cc(=O)n(Cc2cc(C(=O)NCCCCNC(=O)c3ccc(-c4c5nc(c(-c6ccc(S(=O)(=O)[O-])cc6)c6ccc([nH]6)c(-c6ccc(S(=O)(=O)[O-])cc6)c6nc(c(-c7ccc(S(=O)(=O)[O-])cc7)c7ccc4[nH]7)C=C6)C=C5)cc3)oc2C)cc1[N+](=O)[O-]
REMARK SMILES IDX 15 1 14 2 13 3 11 4 12 5 10 7 8 8 9 9 82 10 81 11 83 12 7 13
REMARK SMILES IDX 6 14 1 15 2 16 3 17 85 18 4 19 84 20 5 21 86 22 87 23 88 24
REMARK SMILES IDX 16 25 17 26 18 27 19 28 20 30 21 31 22 32 80 33 23 34 79 35
REMARK SMILES IDX 24 36 25 37 26 38 73 39 27 40 78 41 72 42 74 43 28 44 77 45
REMARK SMILES IDX 71 46 70 47 29 49 59 50 40 51 58 52 41 53 44 54 57 55 75 56
REMARK SMILES IDX 42 57 43 58 56 60 76 61 45 62 30 63 31 64 39 65 32 66 38 67
REMARK SMILES IDX 33 68 34 69 35 70 36 71 37 72 60 73 61 74 69 75 62 76 68 77
REMARK SMILES IDX 63 78 64 79 65 80 66 81 67 82 46 83 47 84 55 85 48 86 54 87
REMARK SMILES IDX 49 88 50 89 51 90 52 91 53 92
REMARK H PARENT 13 6 18 29 74 48 44 59
REMARK Flexibility Score: inf
ROOT
ATOM      1  C   UNL A   1      31.818  30.722  26.163  1.00  0.00     0.023 C 
ENDROOT
BRANCH   1   2
ATOM      2  C   UNL A   1      31.826  29.782  24.957  1.00  0.00     0.116 C 
BRANCH   2   3
ATOM      3  N   UNL A   1      30.664  29.972  24.110  1.00  0.00    -0.349 N 
ATOM      4  C   UNL A   1      29.920  29.064  23.387  1.00  0.00     0.287 C 
ATOM      5  O   UNL A   1      28.888  29.499  22.871  1.00  0.00    -0.266 OA
ATOM      6  H   UNL A   1      30.356  30.904  24.040  1.00  0.00     0.163 HD
BRANCH   4   7
ATOM      7  C   UNL A   1      30.333  27.677  23.278  1.00  0.00     0.191 A 
ATOM      8  C   UNL A   1      30.689  25.430  23.311  1.00  0.00     0.014 A 
ATOM      9  C   UNL A   1      30.001  26.511  23.938  1.00  0.00     0.062 A 
ATOM     10  C   UNL A   1      31.507  26.028  22.371  1.00  0.00     0.106 A 
ATOM     11  O   UNL A   1      31.290  27.371  22.343  1.00  0.00    -0.456 OA
ATOM     12  C   UNL A   1      32.539  25.538  21.434  1.00  0.00     0.088 C 
BRANCH   8  13
ATOM     13  C   UNL A   1      30.543  23.986  23.661  1.00  0.00     0.164 C 
BRANCH  13  14
ATOM     14  N   UNL A   1      31.526  23.632  24.691  1.00  0.00    -0.304 N 
ATOM     15  C   UNL A   1      34.375  22.440  27.709  1.00  0.00     0.052 C 
ATOM     16  C   UNL A   1      33.388  22.874  26.661  1.00  0.00     0.034 A 
ATOM     17  C   UNL A   1      32.189  23.365  27.029  1.00  0.00     0.082 A 
ATOM     18  C   UNL A   1      33.691  22.785  25.236  1.00  0.00     0.288 A 
ATOM     19  C   UNL A   1      31.179  23.810  26.030  1.00  0.00     0.251 A 
ATOM     20  C   UNL A   1      32.773  23.138  24.318  1.00  0.00     0.175 A 
ATOM     21  O   UNL A   1      30.122  24.288  26.430  1.00  0.00    -0.269 OA
BRANCH  18  22
ATOM     22  N   UNL A   1      34.990  22.362  24.704  1.00  0.00     0.064 N 
ATOM     23  O   UNL A   1      35.251  21.149  24.719  1.00  0.00    -0.258 OA
ATOM     24  O   UNL A   1      35.752  23.234  24.268  1.00  0.00    -0.258 OA
ENDBRANCH  18  22
ENDBRANCH  13  14
ENDBRANCH   8  13
ENDBRANCH   4   7
ENDBRANCH   2   3
ENDBRANCH   1   2
BRANCH   1  25
ATOM     25  C   UNL A   1      32.828  30.362  27.257  1.00  0.00     0.023 C 
BRANCH  25  26
ATOM     26  C   UNL A   1      33.835  31.454  27.600  1.00  0.00     0.116 C 
BRANCH  26  27
ATOM     27  N   UNL A   1      33.269  32.797  27.621  1.00  0.00    -0.352 N 
ATOM     28  C   UNL A   1      33.582  33.831  28.475  1.00  0.00     0.251 C 
ATOM     29  H   UNL A   1      32.580  32.987  26.943  1.00  0.00     0.163 HD
ATOM     30  O   UNL A   1      32.970  34.894  28.425  1.00  0.00    -0.269 OA
BRANCH  28  31
ATOM     31  C   UNL A   1      34.633  33.613  29.492  1.00  0.00     0.039 A 
ATOM     32  C   UNL A   1      35.943  34.025  29.244  1.00  0.00     0.014 A 
ATOM     33  C   UNL A   1      34.321  32.890  30.646  1.00  0.00     0.014 A 
ATOM     34  C   UNL A   1      36.969  33.557  30.057  1.00  0.00     0.010 A 
ATOM     35  C   UNL A   1      35.348  32.483  31.501  1.00  0.00     0.010 A 
ATOM     36  C   UNL A   1      36.685  32.759  31.177  1.00  0.00    -0.014 A 
BRANCH  36  37
ATOM     37  C   UNL A   1      37.807  32.183  31.963  1.00  0.00     0.031 A 
ATOM     38  C   UNL A   1      38.706  31.135  31.362  1.00  0.00     0.074 A 
ATOM     39  C   UNL A   1      38.071  32.670  33.191  1.00  0.00     0.049 A 
ATOM     40  N   UNL A   1      39.757  30.557  31.886  1.00  0.00    -0.248 NA
ATOM     41  C   UNL A   1      38.391  30.679  29.999  1.00  0.00     0.031 C 
ATOM     42  C   UNL A   1      37.296  33.713  33.864  1.00  0.00     0.029 A 
ATOM     43  N   UNL A   1      39.083  32.382  34.073  1.00  0.00    -0.354 N 
ATOM     44  C   UNL A   1      40.223  29.668  30.924  1.00  0.00     0.074 A 
ATOM     45  C   UNL A   1      39.322  29.757  29.796  1.00  0.00     0.031 C 
ATOM     46  C   UNL A   1      37.894  34.022  35.023  1.00  0.00     0.029 A 
ATOM     47  C   UNL A   1      39.058  33.159  35.206  1.00  0.00     0.049 A 
ATOM     48  H   UNL A   1      39.760  31.687  33.909  1.00  0.00     0.167 HD
ATOM     49  C   UNL A   1      41.309  28.862  30.971  1.00  0.00     0.031 A 
ATOM     50  C   UNL A   1      39.872  33.179  36.279  1.00  0.00     0.031 A 
ATOM     51  C   UNL A   1      42.205  28.776  32.094  1.00  0.00     0.049 A 
ATOM     52  C   UNL A   1      41.043  32.242  36.335  1.00  0.00     0.074 A 
ATOM     53  C   UNL A   1      43.320  27.968  32.242  1.00  0.00     0.029 A 
ATOM     54  N   UNL A   1      42.099  29.525  33.256  1.00  0.00    -0.354 N 
ATOM     55  N   UNL A   1      41.442  31.381  35.430  1.00  0.00    -0.248 NA
ATOM     56  C   UNL A   1      41.867  32.272  37.549  1.00  0.00     0.031 C 
ATOM     57  C   UNL A   1      43.860  28.197  33.510  1.00  0.00     0.029 A 
ATOM     58  C   UNL A   1      43.117  29.189  34.131  1.00  0.00     0.049 A 
ATOM     59  H   UNL A   1      41.401  30.197  33.432  1.00  0.00     0.167 HD
ATOM     60  C   UNL A   1      42.564  30.761  35.968  1.00  0.00     0.074 A 
ATOM     61  C   UNL A   1      42.794  31.363  37.265  1.00  0.00     0.031 C 
ATOM     62  C   UNL A   1      43.328  29.780  35.429  1.00  0.00     0.031 A 
BRANCH  49  63
ATOM     63  C   UNL A   1      41.595  27.993  29.775  1.00  0.00    -0.014 A 
ATOM     64  C   UNL A   1      42.649  28.323  28.902  1.00  0.00     0.010 A 
ATOM     65  C   UNL A   1      40.772  26.895  29.466  1.00  0.00     0.010 A 
ATOM     66  C   UNL A   1      42.869  27.580  27.740  1.00  0.00     0.020 A 
ATOM     67  C   UNL A   1      41.004  26.134  28.316  1.00  0.00     0.020 A 
ATOM     68  C   UNL A   1      42.041  26.493  27.451  1.00  0.00     0.054 A 
BRANCH  68  69
ATOM     69  S   UNL A   1      42.348  25.524  25.947  1.00  0.00     0.124 S 
ATOM     70  O   UNL A   1      41.773  24.229  26.292  1.00  0.00    -0.237 OA
ATOM     71  O   UNL A   1      41.633  26.282  24.923  1.00  0.00    -0.237 OA
ATOM     72  O   UNL A   1      43.805  25.551  25.820  1.00  0.00    -0.744 OA
ENDBRANCH  68  69
ENDBRANCH  49  63
BRANCH  50  73
ATOM     73  C   UNL A   1      39.587  34.152  37.367  1.00  0.00    -0.014 A 
ATOM     74  C   UNL A   1      40.204  35.418  37.358  1.00  0.00     0.010 A 
ATOM     75  C   UNL A   1      38.825  33.767  38.482  1.00  0.00     0.010 A 
ATOM     76  C   UNL A   1      40.127  36.249  38.478  1.00  0.00     0.020 A 
ATOM     77  C   UNL A   1      38.724  34.609  39.594  1.00  0.00     0.020 A 
ATOM     78  C   UNL A   1      39.408  35.828  39.598  1.00  0.00     0.054 A 
BRANCH  78  79
ATOM     79  S   UNL A   1      39.406  36.874  41.080  1.00  0.00     0.124 S 
ATOM     80  O   UNL A   1      38.577  36.092  41.994  1.00  0.00    -0.237 OA
ATOM     81  O   UNL A   1      40.823  36.948  41.425  1.00  0.00    -0.237 OA
ATOM     82  O   UNL A   1      38.815  38.125  40.613  1.00  0.00    -0.744 OA
ENDBRANCH  78  79
ENDBRANCH  50  73
BRANCH  62  83
ATOM     83  C   UNL A   1      44.486  29.260  36.237  1.00  0.00    -0.014 A 
ATOM     84  C   UNL A   1      44.296  28.179  37.117  1.00  0.00     0.010 A 
ATOM     85  C   UNL A   1      45.723  29.929  36.224  1.00  0.00     0.010 A 
ATOM     86  C   UNL A   1      45.312  27.796  37.995  1.00  0.00     0.020 A 
ATOM     87  C   UNL A   1      46.748  29.533  37.088  1.00  0.00     0.020 A 
ATOM     88  C   UNL A   1      46.527  28.486  37.986  1.00  0.00     0.054 A 
BRANCH  88  89
ATOM     89  S   UNL A   1      47.821  28.001  39.160  1.00  0.00     0.124 S 
ATOM     90  O   UNL A   1      47.289  28.495  40.426  1.00  0.00    -0.237 OA
ATOM     91  O   UNL A   1      47.860  26.547  39.017  1.00  0.00    -0.237 OA
ATOM     92  O   UNL A   1      49.007  28.697  38.666  1.00  0.00    -0.744 OA
ENDBRANCH  88  89
ENDBRANCH  62  83
ENDBRANCH  36  37
ENDBRANCH  28  31
ENDBRANCH  26  27
ENDBRANCH  25  26
ENDBRANCH   1  25
TORSDOF 17
ENDMDL
