MODEL 1
REMARK VINA RESULT:     -11.2      0.000      0.000
REMARK SMILES O=C(NCCCCNC(=O)[C@@H]1CCC[N@@H+]1CC(=O)N1CCSc2ccccc21)c1ccc(-c2c3nc(c(-c4ccc(S(=O)(=O)[O-])cc4)c4ccc([nH]4)c(-c4ccc(S(=O)(=O)[O-])cc4)c4nc(c(-c5ccc(S(=O)(=O)[O-])cc5)c5ccc2[nH]5)C=C4)C=C3)cc1
REMARK SMILES IDX 5 1 4 2 3 3 1 4 2 5 29 7 30 8 88 9 31 10 87 11 32 12 33 13
REMARK SMILES IDX 34 14 81 15 35 16 86 17 80 18 82 19 36 20 85 21 79 22 78 23
REMARK SMILES IDX 37 25 67 26 48 27 66 28 49 29 52 30 65 31 83 32 50 33 51 34
REMARK SMILES IDX 64 36 84 37 53 38 38 39 39 40 47 41 40 42 46 43 41 44 42 45
REMARK SMILES IDX 43 46 44 47 45 48 68 49 69 50 77 51 70 52 76 53 71 54 72 55
REMARK SMILES IDX 73 56 74 57 75 58 54 59 55 60 63 61 56 62 62 63 57 64 58 65
REMARK SMILES IDX 59 66 60 67 61 68 6 69 7 70 8 71 9 72 10 74 11 75 12 76
REMARK SMILES IDX 15 77 13 78 14 79 16 81 17 82 18 83 19 84 20 85 28 86 21 87
REMARK SMILES IDX 23 88 27 89 22 90 24 91 26 92 25 93
REMARK H PARENT 3 6 82 24 52 35 8 73 15 80
REMARK Flexibility Score: inf
ROOT
ATOM      1  C   UNL A   1      33.624  28.017  26.848  1.00  0.00     0.023 C 
ENDROOT
BRANCH   1   2
ATOM      2  C   UNL A   1      33.913  29.244  25.985  1.00  0.00     0.116 C 
BRANCH   2   3
ATOM      3  N   UNL A   1      33.793  30.479  26.735  1.00  0.00    -0.352 N 
ATOM      4  O   UNL A   1      34.171  31.961  28.371  1.00  0.00    -0.269 OA
ATOM      5  C   UNL A   1      34.571  30.976  27.746  1.00  0.00     0.251 C 
ATOM      6  H   UNL A   1      33.035  31.050  26.475  1.00  0.00     0.163 HD
BRANCH   5   7
ATOM      7  C   UNL A   1      35.867  30.356  28.103  1.00  0.00     0.039 A 
ATOM      8  C   UNL A   1      35.990  29.745  29.354  1.00  0.00     0.014 A 
ATOM      9  C   UNL A   1      36.980  30.447  27.261  1.00  0.00     0.014 A 
ATOM     10  C   UNL A   1      37.219  29.217  29.758  1.00  0.00     0.010 A 
ATOM     11  C   UNL A   1      38.190  29.860  27.637  1.00  0.00     0.010 A 
ATOM     12  C   UNL A   1      38.330  29.268  28.901  1.00  0.00    -0.014 A 
BRANCH  12  13
ATOM     13  C   UNL A   1      39.660  28.776  29.343  1.00  0.00     0.031 A 
ATOM     14  C   UNL A   1      40.508  29.629  30.251  1.00  0.00     0.074 A 
ATOM     15  C   UNL A   1      40.117  27.580  28.924  1.00  0.00     0.049 A 
ATOM     16  N   UNL A   1      41.708  29.397  30.716  1.00  0.00    -0.248 NA
ATOM     17  C   UNL A   1      39.939  30.919  30.678  1.00  0.00     0.031 C 
ATOM     18  C   UNL A   1      39.391  26.664  28.044  1.00  0.00     0.029 A 
ATOM     19  N   UNL A   1      41.296  26.926  29.187  1.00  0.00    -0.354 N 
ATOM     20  C   UNL A   1      42.042  30.512  31.476  1.00  0.00     0.074 A 
ATOM     21  C   UNL A   1      40.943  31.445  31.365  1.00  0.00     0.031 C 
ATOM     22  C   UNL A   1      40.123  25.552  27.870  1.00  0.00     0.029 A 
ATOM     23  C   UNL A   1      41.389  25.692  28.588  1.00  0.00     0.049 A 
ATOM     24  H   UNL A   1      42.007  27.305  29.753  1.00  0.00     0.167 HD
ATOM     25  C   UNL A   1      43.150  30.728  32.222  1.00  0.00     0.031 A 
ATOM     26  C   UNL A   1      42.376  24.773  28.613  1.00  0.00     0.031 A 
ATOM     27  C   UNL A   1      44.227  29.783  32.350  1.00  0.00     0.049 A 
ATOM     28  C   UNL A   1      43.612  25.042  29.426  1.00  0.00     0.074 A 
ATOM     29  C   UNL A   1      45.373  29.893  33.118  1.00  0.00     0.029 A 
ATOM     30  N   UNL A   1      44.292  28.558  31.705  1.00  0.00    -0.354 N 
ATOM     31  N   UNL A   1      43.895  26.088  30.165  1.00  0.00    -0.248 NA
ATOM     32  C   UNL A   1      44.657  24.008  29.419  1.00  0.00     0.031 C 
ATOM     33  C   UNL A   1      46.160  28.762  32.888  1.00  0.00     0.029 A 
ATOM     34  C   UNL A   1      45.472  27.913  32.035  1.00  0.00     0.049 A 
ATOM     35  H   UNL A   1      43.602  28.198  31.102  1.00  0.00     0.167 HD
ATOM     36  C   UNL A   1      45.141  25.832  30.726  1.00  0.00     0.074 A 
ATOM     37  C   UNL A   1      45.553  24.526  30.252  1.00  0.00     0.031 C 
ATOM     38  C   UNL A   1      45.875  26.612  31.557  1.00  0.00     0.031 A 
BRANCH  25  39
ATOM     39  C   UNL A   1      43.257  32.029  32.977  1.00  0.00    -0.014 A 
ATOM     40  C   UNL A   1      43.913  33.127  32.391  1.00  0.00     0.010 A 
ATOM     41  C   UNL A   1      42.792  32.138  34.300  1.00  0.00     0.010 A 
ATOM     42  C   UNL A   1      44.122  34.301  33.119  1.00  0.00     0.020 A 
ATOM     43  C   UNL A   1      42.970  33.322  35.021  1.00  0.00     0.020 A 
ATOM     44  C   UNL A   1      43.653  34.388  34.433  1.00  0.00     0.054 A 
BRANCH  44  45
ATOM     45  S   UNL A   1      43.937  35.918  35.365  1.00  0.00     0.124 S 
ATOM     46  O   UNL A   1      43.689  35.492  36.739  1.00  0.00    -0.237 OA
ATOM     47  O   UNL A   1      45.325  36.239  35.042  1.00  0.00    -0.237 OA
ATOM     48  O   UNL A   1      42.950  36.844  34.810  1.00  0.00    -0.744 OA
ENDBRANCH  44  45
ENDBRANCH  25  39
BRANCH  26  49
ATOM     49  C   UNL A   1      42.184  23.492  27.877  1.00  0.00    -0.014 A 
ATOM     50  C   UNL A   1      41.451  22.437  28.454  1.00  0.00     0.010 A 
ATOM     51  C   UNL A   1      42.830  23.280  26.646  1.00  0.00     0.010 A 
ATOM     52  C   UNL A   1      41.429  21.176  27.853  1.00  0.00     0.020 A 
ATOM     53  C   UNL A   1      42.787  22.027  26.027  1.00  0.00     0.020 A 
ATOM     54  C   UNL A   1      42.116  20.974  26.653  1.00  0.00     0.054 A 
BRANCH  54  55
ATOM     55  S   UNL A   1      42.155  19.304  25.943  1.00  0.00     0.124 S 
ATOM     56  O   UNL A   1      43.032  19.489  24.790  1.00  0.00    -0.237 OA
ATOM     57  O   UNL A   1      42.706  18.506  27.033  1.00  0.00    -0.237 OA
ATOM     58  O   UNL A   1      40.753  19.036  25.624  1.00  0.00    -0.744 OA
ENDBRANCH  54  55
ENDBRANCH  26  49
BRANCH  38  59
ATOM     59  C   UNL A   1      47.212  26.101  32.028  1.00  0.00    -0.014 A 
ATOM     60  C   UNL A   1      48.339  26.232  31.194  1.00  0.00     0.010 A 
ATOM     61  C   UNL A   1      47.320  25.355  33.214  1.00  0.00     0.010 A 
ATOM     62  C   UNL A   1      49.536  25.585  31.512  1.00  0.00     0.020 A 
ATOM     63  C   UNL A   1      48.526  24.730  33.550  1.00  0.00     0.020 A 
ATOM     64  C   UNL A   1      49.616  24.826  32.681  1.00  0.00     0.054 A 
BRANCH  64  65
ATOM     65  S   UNL A   1      51.160  23.946  33.049  1.00  0.00     0.124 S 
ATOM     66  O   UNL A   1      50.969  23.559  34.443  1.00  0.00    -0.237 OA
ATOM     67  O   UNL A   1      51.141  22.849  32.083  1.00  0.00    -0.237 OA
ATOM     68  O   UNL A   1      52.193  24.954  32.815  1.00  0.00    -0.744 OA
ENDBRANCH  64  65
ENDBRANCH  38  59
ENDBRANCH  12  13
ENDBRANCH   5   7
ENDBRANCH   2   3
ENDBRANCH   1   2
BRANCH   1  69
ATOM     69  C   UNL A   1      32.356  28.082  27.718  1.00  0.00     0.023 C 
BRANCH  69  70
ATOM     70  C   UNL A   1      31.056  27.626  27.049  1.00  0.00     0.116 C 
BRANCH  70  71
ATOM     71  N   UNL A   1      31.070  26.201  26.824  1.00  0.00    -0.351 N 
ATOM     72  C   UNL A   1      31.199  25.455  25.704  1.00  0.00     0.278 C 
ATOM     73  H   UNL A   1      30.966  25.669  27.645  1.00  0.00     0.163 HD
ATOM     74  O   UNL A   1      31.284  24.247  25.936  1.00  0.00    -0.268 OA
BRANCH  72  75
ATOM     75  C   UNL A   1      31.231  26.082  24.293  1.00  0.00     0.274 C 
ATOM     76  C   UNL A   1      30.670  25.310  23.099  1.00  0.00     0.081 C 
ATOM     77  N   UNL A   1      32.580  26.504  23.838  1.00  0.00    -0.317 N 
ATOM     78  C   UNL A   1      31.270  26.006  21.883  1.00  0.00     0.068 C 
ATOM     79  C   UNL A   1      32.425  26.843  22.419  1.00  0.00     0.263 C 
ATOM     80  H   UNL A   1      32.855  27.295  24.421  1.00  0.00     0.349 HD
BRANCH  77  81
ATOM     81  C   UNL A   1      33.764  25.650  24.132  1.00  0.00     0.364 C 
BRANCH  81  82
ATOM     82  C   UNL A   1      33.967  24.369  23.296  1.00  0.00     0.282 C 
ATOM     83  O   UNL A   1      34.153  24.421  22.077  1.00  0.00    -0.268 OA
BRANCH  82  84
ATOM     84  N   UNL A   1      33.963  23.150  23.994  1.00  0.00    -0.306 N 
ATOM     85  C   UNL A   1      32.864  22.241  23.691  1.00  0.00     0.137 C 
ATOM     86  C   UNL A   1      35.187  22.538  24.453  1.00  0.00     0.057 A 
ATOM     87  C   UNL A   1      32.561  21.214  24.759  1.00  0.00     0.097 C 
ATOM     88  C   UNL A   1      35.264  21.163  24.796  1.00  0.00     0.031 A 
ATOM     89  C   UNL A   1      36.352  23.310  24.590  1.00  0.00     0.027 A 
ATOM     90  S   UNL A   1      33.892  20.009  24.764  1.00  0.00    -0.122 SA
ATOM     91  C   UNL A   1      36.484  20.594  25.193  1.00  0.00     0.017 A 
ATOM     92  C   UNL A   1      37.556  22.735  25.014  1.00  0.00     0.002 A 
ATOM     93  C   UNL A   1      37.626  21.376  25.302  1.00  0.00     0.001 A 
ENDBRANCH  82  84
ENDBRANCH  81  82
ENDBRANCH  77  81
ENDBRANCH  72  75
ENDBRANCH  70  71
ENDBRANCH  69  70
ENDBRANCH   1  69
TORSDOF 17
ENDMDL
MODEL 2
REMARK VINA RESULT:     -10.9      4.017     10.207
REMARK SMILES O=C(NCCCCNC(=O)[C@@H]1CCC[N@@H+]1CC(=O)N1CCSc2ccccc21)c1ccc(-c2c3nc(c(-c4ccc(S(=O)(=O)[O-])cc4)c4ccc([nH]4)c(-c4ccc(S(=O)(=O)[O-])cc4)c4nc(c(-c5ccc(S(=O)(=O)[O-])cc5)c5ccc2[nH]5)C=C4)C=C3)cc1
REMARK SMILES IDX 5 1 4 2 3 3 1 4 2 5 29 7 30 8 88 9 31 10 87 11 32 12 33 13
REMARK SMILES IDX 34 14 81 15 35 16 86 17 80 18 82 19 36 20 85 21 79 22 78 23
REMARK SMILES IDX 37 25 67 26 48 27 66 28 49 29 52 30 65 31 83 32 50 33 51 34
REMARK SMILES IDX 64 36 84 37 53 38 38 39 39 40 47 41 40 42 46 43 41 44 42 45
REMARK SMILES IDX 43 46 44 47 45 48 68 49 69 50 77 51 70 52 76 53 71 54 72 55
REMARK SMILES IDX 73 56 74 57 75 58 54 59 55 60 63 61 56 62 62 63 57 64 58 65
REMARK SMILES IDX 59 66 60 67 61 68 6 69 7 70 8 71 9 72 10 74 11 75 12 76
REMARK SMILES IDX 15 77 13 78 14 79 16 81 17 82 18 83 19 84 20 85 28 86 21 87
REMARK SMILES IDX 23 88 27 89 22 90 24 91 26 92 25 93
REMARK H PARENT 3 6 82 24 52 35 8 73 15 80
REMARK Flexibility Score: inf
ROOT
ATOM      1  C   UNL A   1      39.981  22.323  27.247  1.00  0.00     0.023 C 
ENDROOT
BRANCH   1   2
ATOM      2  C   UNL A   1      41.251  23.164  27.362  1.00  0.00     0.116 C 
BRANCH   2   3
ATOM      3  N   UNL A   1      41.429  24.044  26.224  1.00  0.00    -0.352 N 
ATOM      4  O   UNL A   1      41.325  25.929  25.020  1.00  0.00    -0.269 OA
ATOM      5  C   UNL A   1      41.317  25.406  26.136  1.00  0.00     0.251 C 
ATOM      6  H   UNL A   1      41.669  23.591  25.384  1.00  0.00     0.163 HD
BRANCH   5   7
ATOM      7  C   UNL A   1      41.185  26.252  27.343  1.00  0.00     0.039 A 
ATOM      8  C   UNL A   1      40.067  26.070  28.164  1.00  0.00     0.014 A 
ATOM      9  C   UNL A   1      42.096  27.274  27.627  1.00  0.00     0.014 A 
ATOM     10  C   UNL A   1      39.867  26.900  29.269  1.00  0.00     0.010 A 
ATOM     11  C   UNL A   1      41.930  28.060  28.769  1.00  0.00     0.010 A 
ATOM     12  C   UNL A   1      40.799  27.902  29.583  1.00  0.00    -0.014 A 
BRANCH  12  13
ATOM     13  C   UNL A   1      40.563  28.839  30.712  1.00  0.00     0.031 A 
ATOM     14  C   UNL A   1      41.424  28.754  31.945  1.00  0.00     0.074 A 
ATOM     15  C   UNL A   1      39.575  29.752  30.642  1.00  0.00     0.049 A 
ATOM     16  N   UNL A   1      41.354  29.453  33.049  1.00  0.00    -0.248 NA
ATOM     17  C   UNL A   1      42.492  27.739  31.946  1.00  0.00     0.031 C 
ATOM     18  C   UNL A   1      38.674  29.932  29.503  1.00  0.00     0.029 A 
ATOM     19  N   UNL A   1      39.167  30.705  31.544  1.00  0.00    -0.354 N 
ATOM     20  C   UNL A   1      42.354  28.956  33.876  1.00  0.00     0.074 A 
ATOM     21  C   UNL A   1      42.981  27.861  33.171  1.00  0.00     0.031 C 
ATOM     22  C   UNL A   1      37.845  30.956  29.758  1.00  0.00     0.029 A 
ATOM     23  C   UNL A   1      38.123  31.478  31.095  1.00  0.00     0.049 A 
ATOM     24  H   UNL A   1      39.584  30.823  32.427  1.00  0.00     0.167 HD
ATOM     25  C   UNL A   1      42.736  29.391  35.099  1.00  0.00     0.031 A 
ATOM     26  C   UNL A   1      37.462  32.495  31.687  1.00  0.00     0.031 A 
ATOM     27  C   UNL A   1      42.125  30.500  35.782  1.00  0.00     0.049 A 
ATOM     28  C   UNL A   1      37.882  32.947  33.058  1.00  0.00     0.074 A 
ATOM     29  C   UNL A   1      42.471  31.044  37.007  1.00  0.00     0.029 A 
ATOM     30  N   UNL A   1      41.054  31.238  35.303  1.00  0.00    -0.354 N 
ATOM     31  N   UNL A   1      38.853  32.487  33.811  1.00  0.00    -0.248 NA
ATOM     32  C   UNL A   1      37.131  34.059  33.657  1.00  0.00     0.031 C 
ATOM     33  C   UNL A   1      41.569  32.070  37.296  1.00  0.00     0.029 A 
ATOM     34  C   UNL A   1      40.707  32.216  36.220  1.00  0.00     0.049 A 
ATOM     35  H   UNL A   1      40.606  31.090  34.439  1.00  0.00     0.167 HD
ATOM     36  C   UNL A   1      38.841  33.263  34.964  1.00  0.00     0.074 A 
ATOM     37  C   UNL A   1      37.776  34.232  34.805  1.00  0.00     0.031 C 
ATOM     38  C   UNL A   1      39.643  33.176  36.055  1.00  0.00     0.031 A 
BRANCH  25  39
ATOM     39  C   UNL A   1      43.878  28.683  35.782  1.00  0.00    -0.014 A 
ATOM     40  C   UNL A   1      43.616  27.624  36.670  1.00  0.00     0.010 A 
ATOM     41  C   UNL A   1      45.204  29.123  35.617  1.00  0.00     0.010 A 
ATOM     42  C   UNL A   1      44.652  27.032  37.397  1.00  0.00     0.020 A 
ATOM     43  C   UNL A   1      46.248  28.513  36.319  1.00  0.00     0.020 A 
ATOM     44  C   UNL A   1      45.962  27.486  37.221  1.00  0.00     0.054 A 
BRANCH  44  45
ATOM     45  S   UNL A   1      47.295  26.710  38.176  1.00  0.00     0.124 S 
ATOM     46  O   UNL A   1      48.434  27.568  37.868  1.00  0.00    -0.237 OA
ATOM     47  O   UNL A   1      46.795  26.789  39.546  1.00  0.00    -0.237 OA
ATOM     48  O   UNL A   1      47.364  25.356  37.627  1.00  0.00    -0.744 OA
ENDBRANCH  44  45
ENDBRANCH  25  39
BRANCH  26  49
ATOM     49  C   UNL A   1      36.370  33.176  30.936  1.00  0.00    -0.014 A 
ATOM     50  C   UNL A   1      36.653  33.902  29.763  1.00  0.00     0.010 A 
ATOM     51  C   UNL A   1      35.064  33.199  31.454  1.00  0.00     0.010 A 
ATOM     52  C   UNL A   1      35.670  34.695  29.165  1.00  0.00     0.020 A 
ATOM     53  C   UNL A   1      34.070  33.968  30.842  1.00  0.00     0.020 A 
ATOM     54  C   UNL A   1      34.389  34.739  29.722  1.00  0.00     0.054 A 
BRANCH  54  55
ATOM     55  S   UNL A   1      33.158  35.852  28.986  1.00  0.00     0.124 S 
ATOM     56  O   UNL A   1      32.353  34.925  28.195  1.00  0.00    -0.237 OA
ATOM     57  O   UNL A   1      32.498  36.418  30.157  1.00  0.00    -0.237 OA
ATOM     58  O   UNL A   1      33.968  36.792  28.212  1.00  0.00    -0.744 OA
ENDBRANCH  54  55
ENDBRANCH  26  49
BRANCH  38  59
ATOM     59  C   UNL A   1      39.421  34.145  37.187  1.00  0.00    -0.014 A 
ATOM     60  C   UNL A   1      40.061  35.400  37.165  1.00  0.00     0.010 A 
ATOM     61  C   UNL A   1      38.718  33.755  38.340  1.00  0.00     0.010 A 
ATOM     62  C   UNL A   1      40.044  36.225  38.291  1.00  0.00     0.020 A 
ATOM     63  C   UNL A   1      38.674  34.592  39.460  1.00  0.00     0.020 A 
ATOM     64  C   UNL A   1      39.361  35.809  39.437  1.00  0.00     0.054 A 
BRANCH  64  65
ATOM     65  S   UNL A   1      39.398  36.868  40.910  1.00  0.00     0.124 S 
ATOM     66  O   UNL A   1      38.816  38.110  40.409  1.00  0.00    -0.237 OA
ATOM     67  O   UNL A   1      38.573  36.124  41.860  1.00  0.00    -0.237 OA
ATOM     68  O   UNL A   1      40.818  36.935  41.248  1.00  0.00    -0.744 OA
ENDBRANCH  64  65
ENDBRANCH  38  59
ENDBRANCH  12  13
ENDBRANCH   5   7
ENDBRANCH   2   3
ENDBRANCH   1   2
BRANCH   1  69
ATOM     69  C   UNL A   1      39.142  22.532  25.974  1.00  0.00     0.023 C 
BRANCH  69  70
ATOM     70  C   UNL A   1      37.945  23.479  26.104  1.00  0.00     0.116 C 
BRANCH  70  71
ATOM     71  N   UNL A   1      37.225  23.567  24.858  1.00  0.00    -0.351 N 
ATOM     72  C   UNL A   1      36.020  23.098  24.464  1.00  0.00     0.278 C 
ATOM     73  H   UNL A   1      37.705  24.066  24.157  1.00  0.00     0.163 HD
ATOM     74  O   UNL A   1      35.694  23.487  23.340  1.00  0.00    -0.268 OA
BRANCH  72  75
ATOM     75  C   UNL A   1      35.165  22.169  25.354  1.00  0.00     0.274 C 
ATOM     76  C   UNL A   1      34.477  20.948  24.746  1.00  0.00     0.081 C 
ATOM     77  N   UNL A   1      34.075  22.857  26.092  1.00  0.00    -0.317 N 
ATOM     78  C   UNL A   1      33.408  20.569  25.766  1.00  0.00     0.068 C 
ATOM     79  C   UNL A   1      33.260  21.785  26.672  1.00  0.00     0.263 C 
ATOM     80  H   UNL A   1      34.520  23.457  26.787  1.00  0.00     0.349 HD
BRANCH  77  81
ATOM     81  C   UNL A   1      33.284  23.927  25.421  1.00  0.00     0.364 C 
BRANCH  81  82
ATOM     82  C   UNL A   1      32.356  24.802  26.290  1.00  0.00     0.282 C 
ATOM     83  O   UNL A   1      31.714  24.322  27.228  1.00  0.00    -0.268 OA
BRANCH  82  84
ATOM     84  N   UNL A   1      32.305  26.172  25.981  1.00  0.00    -0.306 N 
ATOM     85  C   UNL A   1      33.574  26.887  26.024  1.00  0.00     0.137 C 
ATOM     86  C   UNL A   1      31.302  26.709  25.093  1.00  0.00     0.057 A 
ATOM     87  C   UNL A   1      33.467  28.385  26.209  1.00  0.00     0.097 C 
ATOM     88  C   UNL A   1      31.448  27.970  24.459  1.00  0.00     0.031 A 
ATOM     89  C   UNL A   1      30.123  25.987  24.844  1.00  0.00     0.027 A 
ATOM     90  S   UNL A   1      32.832  29.088  24.685  1.00  0.00    -0.122 SA
ATOM     91  C   UNL A   1      30.472  28.438  23.566  1.00  0.00     0.017 A 
ATOM     92  C   UNL A   1      29.144  26.479  23.970  1.00  0.00     0.002 A 
ATOM     93  C   UNL A   1      29.324  27.695  23.321  1.00  0.00     0.001 A 
ENDBRANCH  82  84
ENDBRANCH  81  82
ENDBRANCH  77  81
ENDBRANCH  72  75
ENDBRANCH  70  71
ENDBRANCH  69  70
ENDBRANCH   1  69
TORSDOF 17
ENDMDL
MODEL 3
REMARK VINA RESULT:     -10.9      3.518      4.118
REMARK SMILES O=C(NCCCCNC(=O)[C@@H]1CCC[N@@H+]1CC(=O)N1CCSc2ccccc21)c1ccc(-c2c3nc(c(-c4ccc(S(=O)(=O)[O-])cc4)c4ccc([nH]4)c(-c4ccc(S(=O)(=O)[O-])cc4)c4nc(c(-c5ccc(S(=O)(=O)[O-])cc5)c5ccc2[nH]5)C=C4)C=C3)cc1
REMARK SMILES IDX 5 1 4 2 3 3 1 4 2 5 29 7 30 8 88 9 31 10 87 11 32 12 33 13
REMARK SMILES IDX 34 14 81 15 35 16 86 17 80 18 82 19 36 20 85 21 79 22 78 23
REMARK SMILES IDX 37 25 67 26 48 27 66 28 49 29 52 30 65 31 83 32 50 33 51 34
REMARK SMILES IDX 64 36 84 37 53 38 38 39 39 40 47 41 40 42 46 43 41 44 42 45
REMARK SMILES IDX 43 46 44 47 45 48 68 49 69 50 77 51 70 52 76 53 71 54 72 55
REMARK SMILES IDX 73 56 74 57 75 58 54 59 55 60 63 61 56 62 62 63 57 64 58 65
REMARK SMILES IDX 59 66 60 67 61 68 6 69 7 70 8 71 9 72 10 74 11 75 12 76
REMARK SMILES IDX 15 77 13 78 14 79 16 81 17 82 18 83 19 84 20 85 28 86 21 87
REMARK SMILES IDX 23 88 27 89 22 90 24 91 26 92 25 93
REMARK H PARENT 3 6 82 24 52 35 8 73 15 80
REMARK Flexibility Score: inf
ROOT
ATOM      1  C   UNL A   1      33.599  29.342  26.729  1.00  0.00     0.023 C 
ENDROOT
BRANCH   1   2
ATOM      2  C   UNL A   1      34.909  29.094  27.475  1.00  0.00     0.116 C 
BRANCH   2   3
ATOM      3  N   UNL A   1      35.042  29.943  28.642  1.00  0.00    -0.352 N 
ATOM      4  O   UNL A   1      35.956  30.782  30.507  1.00  0.00    -0.269 OA
ATOM      5  C   UNL A   1      36.123  30.164  29.454  1.00  0.00     0.251 C 
ATOM      6  H   UNL A   1      34.229  30.439  28.889  1.00  0.00     0.163 HD
BRANCH   5   7
ATOM      7  C   UNL A   1      37.474  29.675  29.096  1.00  0.00     0.039 A 
ATOM      8  C   UNL A   1      38.296  29.184  30.116  1.00  0.00     0.014 A 
ATOM      9  C   UNL A   1      37.968  29.774  27.792  1.00  0.00     0.014 A 
ATOM     10  C   UNL A   1      39.603  28.785  29.830  1.00  0.00     0.010 A 
ATOM     11  C   UNL A   1      39.252  29.313  27.495  1.00  0.00     0.010 A 
ATOM     12  C   UNL A   1      40.093  28.844  28.515  1.00  0.00    -0.014 A 
BRANCH  12  13
ATOM     13  C   UNL A   1      41.504  28.493  28.208  1.00  0.00     0.031 A 
ATOM     14  C   UNL A   1      42.575  29.548  28.305  1.00  0.00     0.074 A 
ATOM     15  C   UNL A   1      41.824  27.241  27.828  1.00  0.00     0.049 A 
ATOM     16  N   UNL A   1      43.853  29.451  28.042  1.00  0.00    -0.248 NA
ATOM     17  C   UNL A   1      42.152  30.891  28.736  1.00  0.00     0.031 C 
ATOM     18  C   UNL A   1      40.878  26.133  27.696  1.00  0.00     0.029 A 
ATOM     19  N   UNL A   1      43.036  26.686  27.492  1.00  0.00    -0.354 N 
ATOM     20  C   UNL A   1      44.381  30.717  28.263  1.00  0.00     0.074 A 
ATOM     21  C   UNL A   1      43.279  31.579  28.627  1.00  0.00     0.031 C 
ATOM     22  C   UNL A   1      41.548  25.024  27.343  1.00  0.00     0.029 A 
ATOM     23  C   UNL A   1      42.964  25.349  27.180  1.00  0.00     0.049 A 
ATOM     24  H   UNL A   1      43.876  27.199  27.476  1.00  0.00     0.167 HD
ATOM     25  C   UNL A   1      45.671  31.120  28.198  1.00  0.00     0.031 A 
ATOM     26  C   UNL A   1      43.925  24.479  26.808  1.00  0.00     0.031 A 
ATOM     27  C   UNL A   1      46.766  30.250  27.862  1.00  0.00     0.049 A 
ATOM     28  C   UNL A   1      45.350  24.951  26.714  1.00  0.00     0.074 A 
ATOM     29  C   UNL A   1      48.116  30.555  27.812  1.00  0.00     0.029 A 
ATOM     30  N   UNL A   1      46.645  28.910  27.528  1.00  0.00    -0.354 N 
ATOM     31  N   UNL A   1      45.836  26.144  26.960  1.00  0.00    -0.248 NA
ATOM     32  C   UNL A   1      46.358  23.963  26.305  1.00  0.00     0.031 C 
ATOM     33  C   UNL A   1      48.803  29.417  27.387  1.00  0.00     0.029 A 
ATOM     34  C   UNL A   1      47.893  28.381  27.243  1.00  0.00     0.049 A 
ATOM     35  H   UNL A   1      45.799  28.409  27.498  1.00  0.00     0.167 HD
ATOM     36  C   UNL A   1      47.207  26.047  26.753  1.00  0.00     0.074 A 
ATOM     37  C   UNL A   1      47.477  24.676  26.375  1.00  0.00     0.031 C 
ATOM     38  C   UNL A   1      48.153  27.012  26.866  1.00  0.00     0.031 A 
BRANCH  25  39
ATOM     39  C   UNL A   1      45.983  32.562  28.509  1.00  0.00    -0.014 A 
ATOM     40  C   UNL A   1      45.987  33.006  29.844  1.00  0.00     0.010 A 
ATOM     41  C   UNL A   1      46.183  33.498  27.478  1.00  0.00     0.010 A 
ATOM     42  C   UNL A   1      46.161  34.359  30.143  1.00  0.00     0.020 A 
ATOM     43  C   UNL A   1      46.390  34.849  27.774  1.00  0.00     0.020 A 
ATOM     44  C   UNL A   1      46.355  35.274  29.103  1.00  0.00     0.054 A 
BRANCH  44  45
ATOM     45  S   UNL A   1      46.575  37.028  29.508  1.00  0.00     0.124 S 
ATOM     46  O   UNL A   1      45.203  37.526  29.476  1.00  0.00    -0.237 OA
ATOM     47  O   UNL A   1      47.200  36.978  30.828  1.00  0.00    -0.237 OA
ATOM     48  O   UNL A   1      47.444  37.519  28.439  1.00  0.00    -0.744 OA
ENDBRANCH  44  45
ENDBRANCH  25  39
BRANCH  26  49
ATOM     49  C   UNL A   1      43.550  23.059  26.556  1.00  0.00    -0.014 A 
ATOM     50  C   UNL A   1      42.835  22.325  27.521  1.00  0.00     0.010 A 
ATOM     51  C   UNL A   1      44.008  22.402  25.400  1.00  0.00     0.010 A 
ATOM     52  C   UNL A   1      42.648  20.948  27.372  1.00  0.00     0.020 A 
ATOM     53  C   UNL A   1      43.798  21.029  25.233  1.00  0.00     0.020 A 
ATOM     54  C   UNL A   1      43.151  20.306  26.237  1.00  0.00     0.054 A 
BRANCH  54  55
ATOM     55  S   UNL A   1      42.982  18.503  26.113  1.00  0.00     0.124 S 
ATOM     56  O   UNL A   1      41.651  18.367  25.526  1.00  0.00    -0.237 OA
ATOM     57  O   UNL A   1      44.095  18.137  25.243  1.00  0.00    -0.237 OA
ATOM     58  O   UNL A   1      43.102  18.052  27.499  1.00  0.00    -0.744 OA
ENDBRANCH  54  55
ENDBRANCH  26  49
BRANCH  38  59
ATOM     59  C   UNL A   1      49.587  26.649  26.581  1.00  0.00    -0.014 A 
ATOM     60  C   UNL A   1      50.101  26.814  25.280  1.00  0.00     0.010 A 
ATOM     61  C   UNL A   1      50.371  25.999  27.550  1.00  0.00     0.010 A 
ATOM     62  C   UNL A   1      51.351  26.292  24.939  1.00  0.00     0.020 A 
ATOM     63  C   UNL A   1      51.636  25.502  27.220  1.00  0.00     0.020 A 
ATOM     64  C   UNL A   1      52.104  25.627  25.910  1.00  0.00     0.054 A 
BRANCH  64  65
ATOM     65  S   UNL A   1      53.701  24.905  25.435  1.00  0.00     0.124 S 
ATOM     66  O   UNL A   1      53.398  23.477  25.412  1.00  0.00    -0.237 OA
ATOM     67  O   UNL A   1      53.954  25.516  24.132  1.00  0.00    -0.237 OA
ATOM     68  O   UNL A   1      54.602  25.336  26.502  1.00  0.00    -0.744 OA
ENDBRANCH  64  65
ENDBRANCH  38  59
ENDBRANCH  12  13
ENDBRANCH   5   7
ENDBRANCH   2   3
ENDBRANCH   1   2
BRANCH   1  69
ATOM     69  C   UNL A   1      32.369  28.575  27.246  1.00  0.00     0.023 C 
BRANCH  69  70
ATOM     70  C   UNL A   1      32.232  27.125  26.772  1.00  0.00     0.116 C 
BRANCH  70  71
ATOM     71  N   UNL A   1      30.980  26.929  26.083  1.00  0.00    -0.351 N 
ATOM     72  C   UNL A   1      30.682  26.554  24.818  1.00  0.00     0.278 C 
ATOM     73  H   UNL A   1      30.188  27.103  26.641  1.00  0.00     0.163 HD
ATOM     74  O   UNL A   1      29.474  26.380  24.638  1.00  0.00    -0.268 OA
BRANCH  72  75
ATOM     75  C   UNL A   1      31.767  26.370  23.734  1.00  0.00     0.274 C 
ATOM     76  C   UNL A   1      31.411  26.544  22.258  1.00  0.00     0.081 C 
ATOM     77  N   UNL A   1      32.464  25.060  23.777  1.00  0.00    -0.317 N 
ATOM     78  C   UNL A   1      32.552  25.862  21.512  1.00  0.00     0.068 C 
ATOM     79  C   UNL A   1      33.263  25.003  22.549  1.00  0.00     0.263 C 
ATOM     80  H   UNL A   1      33.022  25.049  24.632  1.00  0.00     0.349 HD
BRANCH  77  81
ATOM     81  C   UNL A   1      31.693  23.817  24.058  1.00  0.00     0.364 C 
BRANCH  81  82
ATOM     82  C   UNL A   1      31.862  23.148  25.438  1.00  0.00     0.282 C 
ATOM     83  O   UNL A   1      31.265  23.569  26.434  1.00  0.00    -0.268 OA
BRANCH  82  84
ATOM     84  N   UNL A   1      32.700  22.022  25.499  1.00  0.00    -0.306 N 
ATOM     85  C   UNL A   1      32.182  20.804  24.890  1.00  0.00     0.137 C 
ATOM     86  C   UNL A   1      34.136  22.151  25.542  1.00  0.00     0.057 A 
ATOM     87  C   UNL A   1      32.803  19.517  25.386  1.00  0.00     0.097 C 
ATOM     88  C   UNL A   1      35.004  21.077  25.211  1.00  0.00     0.031 A 
ATOM     89  C   UNL A   1      34.723  23.364  25.938  1.00  0.00     0.027 A 
ATOM     90  S   UNL A   1      34.478  19.426  24.749  1.00  0.00    -0.122 SA
ATOM     91  C   UNL A   1      36.396  21.255  25.221  1.00  0.00     0.017 A 
ATOM     92  C   UNL A   1      36.115  23.519  25.968  1.00  0.00     0.002 A 
ATOM     93  C   UNL A   1      36.950  22.471  25.597  1.00  0.00     0.001 A 
ENDBRANCH  82  84
ENDBRANCH  81  82
ENDBRANCH  77  81
ENDBRANCH  72  75
ENDBRANCH  70  71
ENDBRANCH  69  70
ENDBRANCH   1  69
TORSDOF 17
ENDMDL
