MODEL 1
REMARK VINA RESULT:     -12.9      0.000      0.000
REMARK SMILES C[C@H](C(=O)NCCCCNC(=O)c1ccc(-c2c3nc(c(-c4ccc(S(=O)(=O)[O-])cc4)c4ccc([nH]4)c(-c4ccc(S(=O)(=O)[O-])cc4)c4nc(c(-c5ccc(S(=O)(=O)[O-])cc5)c5ccc2[nH]5)C=C4)C=C3)cc1)N1C(=O)C[C@@H](N2C(=O)/C(=C/c3ccccc3)SC2=S)C1=O
REMARK SMILES IDX 7 1 6 2 5 3 3 4 4 5 2 7 1 8 73 9 74 10 92 11 75 12 76 13
REMARK SMILES IDX 77 14 93 15 78 16 79 17 90 18 80 19 81 20 89 21 91 22 82 23
REMARK SMILES IDX 83 24 84 25 88 26 85 27 87 28 86 29 8 30 9 31 10 32 11 33
REMARK SMILES IDX 12 35 13 36 14 37 72 38 15 39 71 40 16 41 17 42 18 43 65 44
REMARK SMILES IDX 19 45 70 46 64 47 66 48 20 49 69 50 63 51 62 52 21 54 51 55
REMARK SMILES IDX 32 56 50 57 33 58 36 59 49 60 67 61 34 62 35 63 48 65 68 66
REMARK SMILES IDX 37 67 22 68 23 69 31 70 24 71 30 72 25 73 26 74 27 75 28 76
REMARK SMILES IDX 29 77 52 78 53 79 61 80 54 81 60 82 55 83 56 84 57 85 58 86
REMARK SMILES IDX 59 87 38 88 39 89 47 90 40 91 46 92 41 93 42 94 43 95 44 96
REMARK SMILES IDX 45 97
REMARK H PARENT 5 6 10 34 66 53 36 64
REMARK Flexibility Score: inf
ROOT
ATOM      1  C   UNL A   1      34.874  31.028  27.711  1.00  0.00     0.023 C 
ENDROOT
BRANCH   1   2
ATOM      2  C   UNL A   1      33.523  30.909  27.002  1.00  0.00     0.116 C 
BRANCH   2   3
ATOM      3  N   UNL A   1      32.726  29.837  27.558  1.00  0.00    -0.354 N 
ATOM      4  C   UNL A   1      31.895  28.913  27.011  1.00  0.00     0.243 C 
ATOM      5  O   UNL A   1      31.325  28.172  27.823  1.00  0.00    -0.273 OA
ATOM      6  H   UNL A   1      32.803  29.762  28.538  1.00  0.00     0.163 HD
BRANCH   4   7
ATOM      7  C   UNL A   1      31.750  28.632  25.493  1.00  0.00     0.179 C 
ATOM      8  C   UNL A   1      33.079  28.935  24.788  1.00  0.00     0.042 C 
BRANCH   7   9
ATOM      9  N   UNL A   1      31.203  27.353  25.056  1.00  0.00    -0.268 N 
ATOM     10  C   UNL A   1      30.196  27.245  24.136  1.00  0.00     0.232 C 
ATOM     11  C   UNL A   1      31.713  26.137  25.401  1.00  0.00     0.253 C 
ATOM     12  O   UNL A   1      29.570  28.163  23.627  1.00  0.00    -0.274 OA
ATOM     13  C   UNL A   1      29.961  25.799  23.803  1.00  0.00     0.136 C 
ATOM     14  C   UNL A   1      30.789  25.070  24.845  1.00  0.00     0.191 C 
ATOM     15  O   UNL A   1      32.709  25.913  26.072  1.00  0.00    -0.272 OA
BRANCH  14  16
ATOM     16  N   UNL A   1      31.586  23.934  24.401  1.00  0.00    -0.280 N 
ATOM     17  C   UNL A   1      31.447  22.733  25.074  1.00  0.00     0.266 C 
ATOM     18  C   UNL A   1      32.377  23.918  23.271  1.00  0.00     0.149 C 
ATOM     19  O   UNL A   1      30.789  22.565  26.092  1.00  0.00    -0.268 OA
ATOM     20  C   UNL A   1      32.195  21.662  24.380  1.00  0.00     0.081 C 
ATOM     21  S   UNL A   1      33.039  22.306  23.033  1.00  0.00    -0.054 SA
ATOM     22  S   UNL A   1      32.743  25.187  22.254  1.00  0.00    -0.052 S 
ATOM     23  C   UNL A   1      32.129  20.395  24.801  1.00  0.00     0.029 C 
BRANCH  23  24
ATOM     24  C   UNL A   1      32.846  19.260  24.220  1.00  0.00    -0.024 A 
ATOM     25  C   UNL A   1      32.267  18.533  23.176  1.00  0.00     0.008 A 
ATOM     26  C   UNL A   1      34.085  18.860  24.736  1.00  0.00     0.008 A 
ATOM     27  C   UNL A   1      32.927  17.423  22.647  1.00  0.00     0.001 A 
ATOM     28  C   UNL A   1      34.743  17.753  24.204  1.00  0.00     0.001 A 
ATOM     29  C   UNL A   1      34.164  17.034  23.161  1.00  0.00     0.000 A 
ENDBRANCH  23  24
ENDBRANCH  14  16
ENDBRANCH   7   9
ENDBRANCH   4   7
ENDBRANCH   2   3
ENDBRANCH   1   2
BRANCH   1  30
ATOM     30  C   UNL A   1      35.245  32.431  28.180  1.00  0.00     0.023 C 
BRANCH  30  31
ATOM     31  C   UNL A   1      36.110  32.483  29.430  1.00  0.00     0.116 C 
BRANCH  31  32
ATOM     32  N   UNL A   1      35.805  31.448  30.410  1.00  0.00    -0.352 N 
ATOM     33  C   UNL A   1      36.646  30.465  30.885  1.00  0.00     0.251 C 
ATOM     34  H   UNL A   1      34.891  31.451  30.776  1.00  0.00     0.163 HD
ATOM     35  O   UNL A   1      36.245  29.624  31.680  1.00  0.00    -0.269 OA
BRANCH  33  36
ATOM     36  C   UNL A   1      38.026  30.419  30.365  1.00  0.00     0.039 A 
ATOM     37  C   UNL A   1      39.087  30.621  31.250  1.00  0.00     0.014 A 
ATOM     38  C   UNL A   1      38.260  30.036  29.042  1.00  0.00     0.014 A 
ATOM     39  C   UNL A   1      40.388  30.341  30.833  1.00  0.00     0.010 A 
ATOM     40  C   UNL A   1      39.547  29.686  28.654  1.00  0.00     0.010 A 
ATOM     41  C   UNL A   1      40.620  29.817  29.551  1.00  0.00    -0.014 A 
BRANCH  41  42
ATOM     42  C   UNL A   1      41.967  29.357  29.127  1.00  0.00     0.031 A 
ATOM     43  C   UNL A   1      43.082  30.353  28.977  1.00  0.00     0.074 A 
ATOM     44  C   UNL A   1      42.150  28.070  28.767  1.00  0.00     0.049 A 
ATOM     45  N   UNL A   1      44.282  30.178  28.489  1.00  0.00    -0.248 NA
ATOM     46  C   UNL A   1      42.800  31.737  29.398  1.00  0.00     0.031 C 
ATOM     47  C   UNL A   1      41.129  27.019  28.813  1.00  0.00     0.029 A 
ATOM     48  N   UNL A   1      43.256  27.431  28.263  1.00  0.00    -0.354 N 
ATOM     49  C   UNL A   1      44.884  31.429  28.510  1.00  0.00     0.074 A 
ATOM     50  C   UNL A   1      43.908  32.363  29.029  1.00  0.00     0.031 C 
ATOM     51  C   UNL A   1      41.659  25.868  28.365  1.00  0.00     0.029 A 
ATOM     52  C   UNL A   1      43.040  26.106  27.961  1.00  0.00     0.049 A 
ATOM     53  H   UNL A   1      44.122  27.879  28.131  1.00  0.00     0.167 HD
ATOM     54  C   UNL A   1      46.141  31.768  28.141  1.00  0.00     0.031 A 
ATOM     55  C   UNL A   1      43.854  25.190  27.400  1.00  0.00     0.031 A 
ATOM     56  C   UNL A   1      47.119  30.830  27.664  1.00  0.00     0.049 A 
ATOM     57  C   UNL A   1      45.252  25.590  27.014  1.00  0.00     0.074 A 
ATOM     58  C   UNL A   1      48.451  31.058  27.365  1.00  0.00     0.029 A 
ATOM     59  N   UNL A   1      46.873  29.490  27.410  1.00  0.00    -0.354 N 
ATOM     60  N   UNL A   1      45.835  26.759  27.135  1.00  0.00    -0.248 NA
ATOM     61  C   UNL A   1      46.103  24.550  26.418  1.00  0.00     0.031 C 
ATOM     62  C   UNL A   1      48.998  29.865  26.882  1.00  0.00     0.029 A 
ATOM     63  C   UNL A   1      48.020  28.885  26.925  1.00  0.00     0.049 A 
ATOM     64  H   UNL A   1      46.012  29.036  27.553  1.00  0.00     0.167 HD
ATOM     65  C   UNL A   1      47.126  26.590  26.646  1.00  0.00     0.074 A 
ATOM     66  C   UNL A   1      47.245  25.203  26.245  1.00  0.00     0.031 C 
ATOM     67  C   UNL A   1      48.121  27.503  26.535  1.00  0.00     0.031 A 
BRANCH  54  68
ATOM     68  C   UNL A   1      46.534  33.216  28.237  1.00  0.00    -0.014 A 
ATOM     69  C   UNL A   1      46.403  34.080  27.136  1.00  0.00     0.010 A 
ATOM     70  C   UNL A   1      46.984  33.734  29.467  1.00  0.00     0.010 A 
ATOM     71  C   UNL A   1      46.743  35.430  27.254  1.00  0.00     0.020 A 
ATOM     72  C   UNL A   1      47.301  35.089  29.595  1.00  0.00     0.020 A 
ATOM     73  C   UNL A   1      47.190  35.926  28.483  1.00  0.00     0.054 A 
BRANCH  73  74
ATOM     74  S   UNL A   1      47.584  37.690  28.617  1.00  0.00     0.124 S 
ATOM     75  O   UNL A   1      48.841  37.775  27.878  1.00  0.00    -0.237 OA
ATOM     76  O   UNL A   1      46.436  38.325  27.974  1.00  0.00    -0.237 OA
ATOM     77  O   UNL A   1      47.691  37.914  30.057  1.00  0.00    -0.744 OA
ENDBRANCH  73  74
ENDBRANCH  54  68
BRANCH  55  78
ATOM     78  C   UNL A   1      43.366  23.806  27.152  1.00  0.00    -0.014 A 
ATOM     79  C   UNL A   1      42.942  23.417  25.869  1.00  0.00     0.010 A 
ATOM     80  C   UNL A   1      43.315  22.870  28.202  1.00  0.00     0.010 A 
ATOM     81  C   UNL A   1      42.450  22.126  25.646  1.00  0.00     0.020 A 
ATOM     82  C   UNL A   1      42.848  21.571  27.977  1.00  0.00     0.020 A 
ATOM     83  C   UNL A   1      42.405  21.213  26.703  1.00  0.00     0.054 A 
BRANCH  83  84
ATOM     84  S   UNL A   1      41.796  19.533  26.384  1.00  0.00     0.124 S 
ATOM     85  O   UNL A   1      40.366  19.760  26.199  1.00  0.00    -0.237 OA
ATOM     86  O   UNL A   1      42.536  19.148  25.186  1.00  0.00    -0.237 OA
ATOM     87  O   UNL A   1      42.164  18.802  27.595  1.00  0.00    -0.744 OA
ENDBRANCH  83  84
ENDBRANCH  55  78
BRANCH  67  88
ATOM     88  C   UNL A   1      49.436  27.035  25.978  1.00  0.00    -0.014 A 
ATOM     89  C   UNL A   1      49.728  27.169  24.610  1.00  0.00     0.010 A 
ATOM     90  C   UNL A   1      50.423  26.534  26.847  1.00  0.00     0.010 A 
ATOM     91  C   UNL A   1      50.982  26.802  24.117  1.00  0.00     0.020 A 
ATOM     92  C   UNL A   1      51.685  26.186  26.362  1.00  0.00     0.020 A 
ATOM     93  C   UNL A   1      51.955  26.316  24.998  1.00  0.00     0.054 A 
BRANCH  93  94
ATOM     94  S   UNL A   1      53.599  25.915  24.347  1.00  0.00     0.124 S 
ATOM     95  O   UNL A   1      54.458  26.813  25.114  1.00  0.00    -0.237 OA
ATOM     96  O   UNL A   1      53.733  24.495  24.664  1.00  0.00    -0.237 OA
ATOM     97  O   UNL A   1      53.492  26.221  22.922  1.00  0.00    -0.744 OA
ENDBRANCH  93  94
ENDBRANCH  67  88
ENDBRANCH  41  42
ENDBRANCH  33  36
ENDBRANCH  31  32
ENDBRANCH  30  31
ENDBRANCH   1  30
TORSDOF 17
ENDMDL
MODEL 2
REMARK VINA RESULT:     -12.4      0.675      7.910
REMARK SMILES C[C@H](C(=O)NCCCCNC(=O)c1ccc(-c2c3nc(c(-c4ccc(S(=O)(=O)[O-])cc4)c4ccc([nH]4)c(-c4ccc(S(=O)(=O)[O-])cc4)c4nc(c(-c5ccc(S(=O)(=O)[O-])cc5)c5ccc2[nH]5)C=C4)C=C3)cc1)N1C(=O)C[C@@H](N2C(=O)/C(=C/c3ccccc3)SC2=S)C1=O
REMARK SMILES IDX 7 1 6 2 5 3 3 4 4 5 2 7 1 8 73 9 74 10 92 11 75 12 76 13
REMARK SMILES IDX 77 14 93 15 78 16 79 17 90 18 80 19 81 20 89 21 91 22 82 23
REMARK SMILES IDX 83 24 84 25 88 26 85 27 87 28 86 29 8 30 9 31 10 32 11 33
REMARK SMILES IDX 12 35 13 36 14 37 72 38 15 39 71 40 16 41 17 42 18 43 65 44
REMARK SMILES IDX 19 45 70 46 64 47 66 48 20 49 69 50 63 51 62 52 21 54 51 55
REMARK SMILES IDX 32 56 50 57 33 58 36 59 49 60 67 61 34 62 35 63 48 65 68 66
REMARK SMILES IDX 37 67 22 68 23 69 31 70 24 71 30 72 25 73 26 74 27 75 28 76
REMARK SMILES IDX 29 77 52 78 53 79 61 80 54 81 60 82 55 83 56 84 57 85 58 86
REMARK SMILES IDX 59 87 38 88 39 89 47 90 40 91 46 92 41 93 42 94 43 95 44 96
REMARK SMILES IDX 45 97
REMARK H PARENT 5 6 10 34 66 53 36 64
REMARK Flexibility Score: inf
ROOT
ATOM      1  C   UNL A   1      35.149  31.129  27.656  1.00  0.00     0.023 C 
ENDROOT
BRANCH   1   2
ATOM      2  C   UNL A   1      33.995  30.199  27.276  1.00  0.00     0.116 C 
BRANCH   2   3
ATOM      3  N   UNL A   1      34.169  29.657  25.946  1.00  0.00    -0.354 N 
ATOM      4  C   UNL A   1      33.367  28.933  25.122  1.00  0.00     0.243 C 
ATOM      5  O   UNL A   1      33.887  28.586  24.053  1.00  0.00    -0.273 OA
ATOM      6  H   UNL A   1      35.053  29.852  25.557  1.00  0.00     0.163 HD
BRANCH   4   7
ATOM      7  C   UNL A   1      31.857  28.669  25.354  1.00  0.00     0.179 C 
ATOM      8  C   UNL A   1      31.041  29.845  24.800  1.00  0.00     0.042 C 
BRANCH   7   9
ATOM      9  N   UNL A   1      31.287  27.393  24.940  1.00  0.00    -0.268 N 
ATOM     10  C   UNL A   1      30.284  27.286  24.015  1.00  0.00     0.232 C 
ATOM     11  C   UNL A   1      31.770  26.173  25.312  1.00  0.00     0.253 C 
ATOM     12  O   UNL A   1      29.680  28.206  23.483  1.00  0.00    -0.274 OA
ATOM     13  C   UNL A   1      30.022  25.838  23.710  1.00  0.00     0.136 C 
ATOM     14  C   UNL A   1      30.828  25.115  24.772  1.00  0.00     0.191 C 
ATOM     15  O   UNL A   1      32.757  25.943  25.995  1.00  0.00    -0.272 OA
BRANCH  14  16
ATOM     16  N   UNL A   1      31.604  23.953  24.356  1.00  0.00    -0.280 N 
ATOM     17  C   UNL A   1      31.457  22.777  25.069  1.00  0.00     0.266 C 
ATOM     18  C   UNL A   1      32.383  23.890  23.219  1.00  0.00     0.149 C 
ATOM     19  O   UNL A   1      30.807  22.650  26.098  1.00  0.00    -0.268 OA
ATOM     20  C   UNL A   1      32.182  21.674  24.402  1.00  0.00     0.081 C 
ATOM     21  S   UNL A   1      33.021  22.263  23.026  1.00  0.00    -0.054 SA
ATOM     22  S   UNL A   1      32.756  25.120  22.158  1.00  0.00    -0.052 S 
ATOM     23  C   UNL A   1      32.103  20.422  24.865  1.00  0.00     0.029 C 
BRANCH  23  24
ATOM     24  C   UNL A   1      32.798  19.259  24.313  1.00  0.00    -0.024 A 
ATOM     25  C   UNL A   1      34.030  18.868  24.844  1.00  0.00     0.008 A 
ATOM     26  C   UNL A   1      32.266  18.564  23.219  1.00  0.00     0.008 A 
ATOM     27  C   UNL A   1      34.718  17.785  24.293  1.00  0.00     0.001 A 
ATOM     28  C   UNL A   1      32.953  17.482  22.672  1.00  0.00     0.001 A 
ATOM     29  C   UNL A   1      34.179  17.094  23.208  1.00  0.00     0.000 A 
ENDBRANCH  23  24
ENDBRANCH  14  16
ENDBRANCH   7   9
ENDBRANCH   4   7
ENDBRANCH   2   3
ENDBRANCH   1   2
BRANCH   1  30
ATOM     30  C   UNL A   1      34.880  32.057  28.835  1.00  0.00     0.023 C 
BRANCH  30  31
ATOM     31  C   UNL A   1      35.966  32.074  29.901  1.00  0.00     0.116 C 
BRANCH  31  32
ATOM     32  N   UNL A   1      35.867  30.989  30.870  1.00  0.00    -0.352 N 
ATOM     33  C   UNL A   1      36.837  30.069  31.203  1.00  0.00     0.251 C 
ATOM     34  H   UNL A   1      35.007  30.903  31.341  1.00  0.00     0.163 HD
ATOM     35  O   UNL A   1      36.607  29.174  32.007  1.00  0.00    -0.269 OA
BRANCH  33  36
ATOM     36  C   UNL A   1      38.144  30.157  30.521  1.00  0.00     0.039 A 
ATOM     37  C   UNL A   1      39.289  30.379  31.288  1.00  0.00     0.014 A 
ATOM     38  C   UNL A   1      38.238  29.877  29.156  1.00  0.00     0.014 A 
ATOM     39  C   UNL A   1      40.545  30.222  30.701  1.00  0.00     0.010 A 
ATOM     40  C   UNL A   1      39.487  29.647  28.595  1.00  0.00     0.010 A 
ATOM     41  C   UNL A   1      40.652  29.798  29.366  1.00  0.00    -0.014 A 
BRANCH  41  42
ATOM     42  C   UNL A   1      41.963  29.465  28.754  1.00  0.00     0.031 A 
ATOM     43  C   UNL A   1      42.220  28.073  28.251  1.00  0.00     0.074 A 
ATOM     44  C   UNL A   1      42.954  30.380  28.762  1.00  0.00     0.049 A 
ATOM     45  N   UNL A   1      43.335  27.548  27.816  1.00  0.00    -0.248 NA
ATOM     46  C   UNL A   1      41.083  27.136  28.273  1.00  0.00     0.031 C 
ATOM     47  C   UNL A   1      42.845  31.750  29.275  1.00  0.00     0.029 A 
ATOM     48  N   UNL A   1      44.259  30.289  28.347  1.00  0.00    -0.354 N 
ATOM     49  C   UNL A   1      43.045  26.217  27.547  1.00  0.00     0.074 A 
ATOM     50  C   UNL A   1      41.658  26.003  27.898  1.00  0.00     0.031 C 
ATOM     51  C   UNL A   1      44.030  32.369  29.137  1.00  0.00     0.029 A 
ATOM     52  C   UNL A   1      44.992  31.433  28.566  1.00  0.00     0.049 A 
ATOM     53  H   UNL A   1      44.636  29.481  27.931  1.00  0.00     0.167 HD
ATOM     54  C   UNL A   1      43.859  25.260  27.042  1.00  0.00     0.031 A 
ATOM     55  C   UNL A   1      46.297  31.693  28.354  1.00  0.00     0.031 A 
ATOM     56  C   UNL A   1      45.225  25.488  26.658  1.00  0.00     0.049 A 
ATOM     57  C   UNL A   1      47.175  30.617  27.777  1.00  0.00     0.074 A 
ATOM     58  C   UNL A   1      46.098  24.611  26.039  1.00  0.00     0.029 A 
ATOM     59  N   UNL A   1      45.917  26.672  26.859  1.00  0.00    -0.354 N 
ATOM     60  N   UNL A   1      46.856  29.391  27.437  1.00  0.00    -0.248 NA
ATOM     61  C   UNL A   1      48.588  30.957  27.553  1.00  0.00     0.031 C 
ATOM     62  C   UNL A   1      47.336  25.248  25.912  1.00  0.00     0.029 A 
ATOM     63  C   UNL A   1      47.219  26.537  26.408  1.00  0.00     0.049 A 
ATOM     64  H   UNL A   1      45.540  27.485  27.263  1.00  0.00     0.167 HD
ATOM     65  C   UNL A   1      48.023  28.820  26.944  1.00  0.00     0.074 A 
ATOM     66  C   UNL A   1      49.051  29.838  27.012  1.00  0.00     0.031 C 
ATOM     67  C   UNL A   1      48.227  27.563  26.479  1.00  0.00     0.031 A 
BRANCH  54  68
ATOM     68  C   UNL A   1      43.296  23.876  26.875  1.00  0.00    -0.014 A 
ATOM     69  C   UNL A   1      42.959  23.376  25.605  1.00  0.00     0.010 A 
ATOM     70  C   UNL A   1      43.160  23.041  28.000  1.00  0.00     0.010 A 
ATOM     71  C   UNL A   1      42.468  22.076  25.466  1.00  0.00     0.020 A 
ATOM     72  C   UNL A   1      42.692  21.732  27.862  1.00  0.00     0.020 A 
ATOM     73  C   UNL A   1      42.336  21.262  26.596  1.00  0.00     0.054 A 
BRANCH  73  74
ATOM     74  S   UNL A   1      41.736  19.565  26.380  1.00  0.00     0.124 S 
ATOM     75  O   UNL A   1      42.420  19.158  25.155  1.00  0.00    -0.237 OA
ATOM     76  O   UNL A   1      42.192  18.905  27.601  1.00  0.00    -0.237 OA
ATOM     77  O   UNL A   1      40.288  19.721  26.262  1.00  0.00    -0.744 OA
ENDBRANCH  73  74
ENDBRANCH  54  68
BRANCH  55  78
ATOM     78  C   UNL A   1      46.862  33.026  28.704  1.00  0.00    -0.014 A 
ATOM     79  C   UNL A   1      47.368  33.271  29.993  1.00  0.00     0.010 A 
ATOM     80  C   UNL A   1      46.888  34.061  27.751  1.00  0.00     0.010 A 
ATOM     81  C   UNL A   1      47.866  34.534  30.330  1.00  0.00     0.020 A 
ATOM     82  C   UNL A   1      47.409  35.316  28.077  1.00  0.00     0.020 A 
ATOM     83  C   UNL A   1      47.880  35.550  29.370  1.00  0.00     0.054 A 
BRANCH  83  84
ATOM     84  S   UNL A   1      48.561  37.171  29.818  1.00  0.00     0.124 S 
ATOM     85  O   UNL A   1      48.087  38.012  28.722  1.00  0.00    -0.237 OA
ATOM     86  O   UNL A   1      47.951  37.424  31.120  1.00  0.00    -0.237 OA
ATOM     87  O   UNL A   1      50.004  36.937  29.850  1.00  0.00    -0.744 OA
ENDBRANCH  83  84
ENDBRANCH  55  78
BRANCH  67  88
ATOM     88  C   UNL A   1      49.604  27.216  25.988  1.00  0.00    -0.014 A 
ATOM     89  C   UNL A   1      50.570  26.688  26.862  1.00  0.00     0.010 A 
ATOM     90  C   UNL A   1      49.907  27.340  24.620  1.00  0.00     0.010 A 
ATOM     91  C   UNL A   1      51.821  26.298  26.378  1.00  0.00     0.020 A 
ATOM     92  C   UNL A   1      51.149  26.931  24.129  1.00  0.00     0.020 A 
ATOM     93  C   UNL A   1      52.101  26.418  25.013  1.00  0.00     0.054 A 
BRANCH  93  94
ATOM     94  S   UNL A   1      53.705  25.837  24.397  1.00  0.00     0.124 S 
ATOM     95  O   UNL A   1      54.641  26.597  25.221  1.00  0.00    -0.237 OA
ATOM     96  O   UNL A   1      53.652  24.402  24.667  1.00  0.00    -0.237 OA
ATOM     97  O   UNL A   1      53.684  26.200  22.982  1.00  0.00    -0.744 OA
ENDBRANCH  93  94
ENDBRANCH  67  88
ENDBRANCH  41  42
ENDBRANCH  33  36
ENDBRANCH  31  32
ENDBRANCH  30  31
ENDBRANCH   1  30
TORSDOF 17
ENDMDL
MODEL 3
REMARK VINA RESULT:     -12.2      2.508      9.193
REMARK SMILES C[C@H](C(=O)NCCCCNC(=O)c1ccc(-c2c3nc(c(-c4ccc(S(=O)(=O)[O-])cc4)c4ccc([nH]4)c(-c4ccc(S(=O)(=O)[O-])cc4)c4nc(c(-c5ccc(S(=O)(=O)[O-])cc5)c5ccc2[nH]5)C=C4)C=C3)cc1)N1C(=O)C[C@@H](N2C(=O)/C(=C/c3ccccc3)SC2=S)C1=O
REMARK SMILES IDX 7 1 6 2 5 3 3 4 4 5 2 7 1 8 73 9 74 10 92 11 75 12 76 13
REMARK SMILES IDX 77 14 93 15 78 16 79 17 90 18 80 19 81 20 89 21 91 22 82 23
REMARK SMILES IDX 83 24 84 25 88 26 85 27 87 28 86 29 8 30 9 31 10 32 11 33
REMARK SMILES IDX 12 35 13 36 14 37 72 38 15 39 71 40 16 41 17 42 18 43 65 44
REMARK SMILES IDX 19 45 70 46 64 47 66 48 20 49 69 50 63 51 62 52 21 54 51 55
REMARK SMILES IDX 32 56 50 57 33 58 36 59 49 60 67 61 34 62 35 63 48 65 68 66
REMARK SMILES IDX 37 67 22 68 23 69 31 70 24 71 30 72 25 73 26 74 27 75 28 76
REMARK SMILES IDX 29 77 52 78 53 79 61 80 54 81 60 82 55 83 56 84 57 85 58 86
REMARK SMILES IDX 59 87 38 88 39 89 47 90 40 91 46 92 41 93 42 94 43 95 44 96
REMARK SMILES IDX 45 97
REMARK H PARENT 5 6 10 34 66 53 36 64
REMARK Flexibility Score: inf
ROOT
ATOM      1  C   UNL A   1      38.680  22.994  26.131  1.00  0.00     0.023 C 
ENDROOT
BRANCH   1   2
ATOM      2  C   UNL A   1      37.254  23.354  25.711  1.00  0.00     0.116 C 
BRANCH   2   3
ATOM      3  N   UNL A   1      36.274  22.646  26.505  1.00  0.00    -0.354 N 
ATOM      4  C   UNL A   1      35.187  21.893  26.191  1.00  0.00     0.243 C 
ATOM      5  O   UNL A   1      34.533  21.483  27.160  1.00  0.00    -0.273 OA
ATOM      6  H   UNL A   1      36.426  22.726  27.475  1.00  0.00     0.163 HD
BRANCH   4   7
ATOM      7  C   UNL A   1      34.827  21.399  24.766  1.00  0.00     0.179 C 
ATOM      8  C   UNL A   1      34.707  19.869  24.770  1.00  0.00     0.042 C 
BRANCH   7   9
ATOM      9  N   UNL A   1      33.705  22.012  24.065  1.00  0.00    -0.268 N 
ATOM     10  C   UNL A   1      32.621  21.302  23.622  1.00  0.00     0.232 C 
ATOM     11  C   UNL A   1      33.541  23.354  23.893  1.00  0.00     0.253 C 
ATOM     12  O   UNL A   1      32.474  20.090  23.669  1.00  0.00    -0.274 OA
ATOM     13  C   UNL A   1      31.587  22.241  23.069  1.00  0.00     0.136 C 
ATOM     14  C   UNL A   1      32.324  23.566  23.013  1.00  0.00     0.191 C 
ATOM     15  O   UNL A   1      34.254  24.249  24.321  1.00  0.00    -0.272 OA
BRANCH  14  16
ATOM     16  N   UNL A   1      31.611  24.755  23.462  1.00  0.00    -0.280 N 
ATOM     17  C   UNL A   1      31.475  25.810  22.578  1.00  0.00     0.266 C 
ATOM     18  C   UNL A   1      30.941  24.867  24.663  1.00  0.00     0.149 C 
ATOM     19  O   UNL A   1      31.999  25.881  21.475  1.00  0.00    -0.268 OA
ATOM     20  C   UNL A   1      30.583  26.846  23.144  1.00  0.00     0.081 C 
ATOM     21  S   UNL A   1      30.102  26.411  24.732  1.00  0.00    -0.054 SA
ATOM     22  S   UNL A   1      30.908  23.781  25.928  1.00  0.00    -0.052 S 
ATOM     23  C   UNL A   1      30.232  27.917  22.425  1.00  0.00     0.029 C 
BRANCH  23  24
ATOM     24  C   UNL A   1      29.387  29.020  22.885  1.00  0.00    -0.024 A 
ATOM     25  C   UNL A   1      28.003  28.958  22.702  1.00  0.00     0.008 A 
ATOM     26  C   UNL A   1      29.958  30.162  23.460  1.00  0.00     0.008 A 
ATOM     27  C   UNL A   1      27.197  30.026  23.100  1.00  0.00     0.001 A 
ATOM     28  C   UNL A   1      29.151  31.225  23.859  1.00  0.00     0.001 A 
ATOM     29  C   UNL A   1      27.771  31.158  23.678  1.00  0.00     0.000 A 
ENDBRANCH  23  24
ENDBRANCH  14  16
ENDBRANCH   7   9
ENDBRANCH   4   7
ENDBRANCH   2   3
ENDBRANCH   1   2
BRANCH   1  30
ATOM     30  C   UNL A   1      39.132  21.583  25.770  1.00  0.00     0.023 C 
BRANCH  30  31
ATOM     31  C   UNL A   1      39.948  20.876  26.842  1.00  0.00     0.116 C 
BRANCH  31  32
ATOM     32  N   UNL A   1      40.717  19.739  26.353  1.00  0.00    -0.352 N 
ATOM     33  C   UNL A   1      42.053  19.710  26.014  1.00  0.00     0.251 C 
ATOM     34  H   UNL A   1      40.226  18.892  26.252  1.00  0.00     0.163 HD
ATOM     35  O   UNL A   1      42.568  18.692  25.570  1.00  0.00    -0.269 OA
BRANCH  33  36
ATOM     36  C   UNL A   1      42.831  20.957  26.148  1.00  0.00     0.039 A 
ATOM     37  C   UNL A   1      43.037  21.747  25.015  1.00  0.00     0.014 A 
ATOM     38  C   UNL A   1      43.223  21.402  27.413  1.00  0.00     0.014 A 
ATOM     39  C   UNL A   1      43.551  23.035  25.165  1.00  0.00     0.010 A 
ATOM     40  C   UNL A   1      43.662  22.711  27.566  1.00  0.00     0.010 A 
ATOM     41  C   UNL A   1      43.812  23.546  26.447  1.00  0.00    -0.014 A 
BRANCH  41  42
ATOM     42  C   UNL A   1      44.206  24.962  26.659  1.00  0.00     0.031 A 
ATOM     43  C   UNL A   1      45.643  25.369  26.487  1.00  0.00     0.074 A 
ATOM     44  C   UNL A   1      43.298  25.847  27.117  1.00  0.00     0.049 A 
ATOM     45  N   UNL A   1      46.210  26.515  26.758  1.00  0.00    -0.248 NA
ATOM     46  C   UNL A   1      46.570  24.344  25.978  1.00  0.00     0.031 C 
ATOM     47  C   UNL A   1      41.884  25.557  27.378  1.00  0.00     0.029 A 
ATOM     48  N   UNL A   1      43.432  27.166  27.471  1.00  0.00    -0.354 N 
ATOM     49  C   UNL A   1      47.561  26.340  26.488  1.00  0.00     0.074 A 
ATOM     50  C   UNL A   1      47.736  24.968  26.061  1.00  0.00     0.031 C 
ATOM     51  C   UNL A   1      41.284  26.667  27.842  1.00  0.00     0.029 A 
ATOM     52  C   UNL A   1      42.274  27.732  27.951  1.00  0.00     0.049 A 
ATOM     53  H   UNL A   1      44.279  27.661  27.388  1.00  0.00     0.167 HD
ATOM     54  C   UNL A   1      48.565  27.244  26.574  1.00  0.00     0.031 A 
ATOM     55  C   UNL A   1      42.039  28.964  28.447  1.00  0.00     0.031 A 
ATOM     56  C   UNL A   1      48.380  28.616  26.960  1.00  0.00     0.049 A 
ATOM     57  C   UNL A   1      43.169  29.953  28.518  1.00  0.00     0.074 A 
ATOM     58  C   UNL A   1      49.315  29.634  26.977  1.00  0.00     0.029 A 
ATOM     59  N   UNL A   1      47.184  29.159  27.400  1.00  0.00    -0.354 N 
ATOM     60  N   UNL A   1      44.422  29.796  28.162  1.00  0.00    -0.248 NA
ATOM     61  C   UNL A   1      42.857  31.286  29.053  1.00  0.00     0.031 C 
ATOM     62  C   UNL A   1      48.697  30.784  27.477  1.00  0.00     0.029 A 
ATOM     63  C   UNL A   1      47.365  30.493  27.725  1.00  0.00     0.049 A 
ATOM     64  H   UNL A   1      46.333  28.671  27.472  1.00  0.00     0.167 HD
ATOM     65  C   UNL A   1      45.042  31.015  28.416  1.00  0.00     0.074 A 
ATOM     66  C   UNL A   1      44.025  31.904  28.937  1.00  0.00     0.031 C 
ATOM     67  C   UNL A   1      46.340  31.364  28.237  1.00  0.00     0.031 A 
BRANCH  54  68
ATOM     68  C   UNL A   1      49.958  26.779  26.248  1.00  0.00    -0.014 A 
ATOM     69  C   UNL A   1      50.773  26.183  27.226  1.00  0.00     0.010 A 
ATOM     70  C   UNL A   1      50.434  26.886  24.928  1.00  0.00     0.010 A 
ATOM     71  C   UNL A   1      52.052  25.728  26.896  1.00  0.00     0.020 A 
ATOM     72  C   UNL A   1      51.703  26.410  24.589  1.00  0.00     0.020 A 
ATOM     73  C   UNL A   1      52.509  25.846  25.580  1.00  0.00     0.054 A 
BRANCH  73  74
ATOM     74  S   UNL A   1      54.157  25.208  25.172  1.00  0.00     0.124 S 
ATOM     75  O   UNL A   1      54.475  25.954  23.956  1.00  0.00    -0.237 OA
ATOM     76  O   UNL A   1      54.941  25.568  26.351  1.00  0.00    -0.237 OA
ATOM     77  O   UNL A   1      53.940  23.776  24.985  1.00  0.00    -0.744 OA
ENDBRANCH  73  74
ENDBRANCH  54  68
BRANCH  55  78
ATOM     78  C   UNL A   1      40.680  29.329  28.932  1.00  0.00    -0.014 A 
ATOM     79  C   UNL A   1      39.660  29.657  28.021  1.00  0.00     0.010 A 
ATOM     80  C   UNL A   1      40.400  29.359  30.311  1.00  0.00     0.010 A 
ATOM     81  C   UNL A   1      38.394  30.034  28.480  1.00  0.00     0.020 A 
ATOM     82  C   UNL A   1      39.128  29.710  30.772  1.00  0.00     0.020 A 
ATOM     83  C   UNL A   1      38.137  30.060  29.853  1.00  0.00     0.054 A 
BRANCH  83  84
ATOM     84  S   UNL A   1      36.478  30.519  30.427  1.00  0.00     0.124 S 
ATOM     85  O   UNL A   1      35.675  30.320  29.224  1.00  0.00    -0.237 OA
ATOM     86  O   UNL A   1      36.241  29.569  31.510  1.00  0.00    -0.237 OA
ATOM     87  O   UNL A   1      36.636  31.908  30.852  1.00  0.00    -0.744 OA
ENDBRANCH  83  84
ENDBRANCH  55  78
BRANCH  67  88
ATOM     88  C   UNL A   1      46.736  32.771  28.586  1.00  0.00    -0.014 A 
ATOM     89  C   UNL A   1      46.508  33.828  27.688  1.00  0.00     0.010 A 
ATOM     90  C   UNL A   1      47.263  33.051  29.860  1.00  0.00     0.010 A 
ATOM     91  C   UNL A   1      46.811  35.141  28.054  1.00  0.00     0.020 A 
ATOM     92  C   UNL A   1      47.546  34.366  30.237  1.00  0.00     0.020 A 
ATOM     93  C   UNL A   1      47.324  35.402  29.329  1.00  0.00     0.054 A 
BRANCH  93  94
ATOM     94  S   UNL A   1      47.640  37.123  29.807  1.00  0.00     0.124 S 
ATOM     95  O   UNL A   1      46.310  37.717  29.702  1.00  0.00    -0.237 OA
ATOM     96  O   UNL A   1      48.162  36.989  31.165  1.00  0.00    -0.237 OA
ATOM     97  O   UNL A   1      48.609  37.586  28.816  1.00  0.00    -0.744 OA
ENDBRANCH  93  94
ENDBRANCH  67  88
ENDBRANCH  41  42
ENDBRANCH  33  36
ENDBRANCH  31  32
ENDBRANCH  30  31
ENDBRANCH   1  30
TORSDOF 17
ENDMDL
