MODEL 1
REMARK VINA RESULT:     -11.0      0.000      0.000
REMARK SMILES CCn1ncc(CNc2ccccc2C(=O)NCCCCNC(=O)c2ccc(-c3c4nc(c(-c5ccc(S(=O)(=O)[O-])cc5)c5ccc([nH]5)c(-c5ccc(S(=O)(=O)[O-])cc5)c5nc(c(-c6ccc(S(=O)(=O)[O-])cc6)c6ccc3[nH]6)C=C5)C=C4)cc2)c1C
REMARK SMILES IDX 19 1 18 2 17 3 15 4 16 5 14 7 9 8 10 9 11 10 13 11 12 12
REMARK SMILES IDX 8 13 7 15 6 16 3 17 4 18 85 19 5 20 86 21 2 22 1 23 20 24
REMARK SMILES IDX 21 25 22 26 23 27 24 29 25 30 26 31 84 32 27 33 83 34 28 35
REMARK SMILES IDX 29 36 30 37 77 38 31 39 82 40 76 41 78 42 32 43 81 44 75 45
REMARK SMILES IDX 74 46 33 48 63 49 44 50 62 51 45 52 48 53 61 54 79 55 46 56
REMARK SMILES IDX 47 57 60 59 80 60 49 61 34 62 35 63 43 64 36 65 42 66 37 67
REMARK SMILES IDX 38 68 39 69 40 70 41 71 64 72 65 73 73 74 66 75 72 76 67 77
REMARK SMILES IDX 68 78 69 79 70 80 71 81 50 82 51 83 59 84 52 85 58 86 53 87
REMARK SMILES IDX 54 88 55 89 56 90 57 91
REMARK H PARENT 17 6 8 14 22 28 78 47 48 58
REMARK Flexibility Score: inf
ROOT
ATOM      1  C   UNL A   1      37.903  23.555  25.596  1.00  0.00     0.023 C 
ENDROOT
BRANCH   1   2
ATOM      2  C   UNL A   1      36.388  23.728  25.749  1.00  0.00     0.116 C 
BRANCH   2   3
ATOM      3  N   UNL A   1      35.736  22.842  26.698  1.00  0.00    -0.352 N 
ATOM      4  C   UNL A   1      34.508  22.212  26.617  1.00  0.00     0.253 C 
ATOM      5  O   UNL A   1      34.186  21.472  27.549  1.00  0.00    -0.269 OA
ATOM      6  H   UNL A   1      36.246  22.662  27.521  1.00  0.00     0.163 HD
BRANCH   4   7
ATOM      7  C   UNL A   1      33.524  22.438  25.511  1.00  0.00     0.062 A 
ATOM      8  C   UNL A   1      32.467  23.365  25.526  1.00  0.00     0.047 A 
ATOM      9  C   UNL A   1      31.558  23.376  24.447  1.00  0.00     0.026 A 
ATOM     10  C   UNL A   1      31.720  22.547  23.342  1.00  0.00     0.002 A 
ATOM     11  C   UNL A   1      33.704  21.639  24.362  1.00  0.00     0.016 A 
ATOM     12  C   UNL A   1      32.814  21.696  23.285  1.00  0.00     0.001 A 
BRANCH   8  13
ATOM     13  N   UNL A   1      32.303  24.379  26.457  1.00  0.00    -0.380 N 
ATOM     14  H   UNL A   1      32.844  24.387  27.280  1.00  0.00     0.160 HD
BRANCH  13  15
ATOM     15  C   UNL A   1      31.327  25.432  26.215  1.00  0.00     0.152 C 
BRANCH  15  16
ATOM     16  C   UNL A   1      31.928  26.754  26.521  1.00  0.00     0.012 A 
ATOM     17  N   UNL A   1      33.190  28.542  26.537  1.00  0.00    -0.270 N 
ATOM     18  N   UNL A   1      32.214  28.829  27.415  1.00  0.00    -0.181 NA
ATOM     19  C   UNL A   1      32.975  27.370  25.859  1.00  0.00     0.040 A 
ATOM     20  C   UNL A   1      31.441  27.748  27.389  1.00  0.00     0.141 A 
ATOM     21  C   UNL A   1      33.719  26.916  24.660  1.00  0.00     0.067 C 
BRANCH  17  22
ATOM     22  C   UNL A   1      34.336  29.425  26.454  1.00  0.00     0.141 C 
ATOM     23  C   UNL A   1      35.218  29.270  27.678  1.00  0.00     0.029 C 
ENDBRANCH  17  22
ENDBRANCH  15  16
ENDBRANCH  13  15
ENDBRANCH   8  13
ENDBRANCH   4   7
ENDBRANCH   2   3
ENDBRANCH   1   2
BRANCH   1  24
ATOM     24  C   UNL A   1      38.486  22.147  25.792  1.00  0.00     0.023 C 
BRANCH  24  25
ATOM     25  C   UNL A   1      39.731  22.053  26.664  1.00  0.00     0.116 C 
BRANCH  25  26
ATOM     26  N   UNL A   1      40.983  21.858  25.946  1.00  0.00    -0.352 N 
ATOM     27  C   UNL A   1      41.977  22.792  25.682  1.00  0.00     0.251 C 
ATOM     28  H   UNL A   1      41.146  20.948  25.606  1.00  0.00     0.163 HD
ATOM     29  O   UNL A   1      42.826  22.543  24.840  1.00  0.00    -0.269 OA
BRANCH  27  30
ATOM     30  C   UNL A   1      42.013  24.086  26.420  1.00  0.00     0.039 A 
ATOM     31  C   UNL A   1      41.389  25.228  25.900  1.00  0.00     0.014 A 
ATOM     32  C   UNL A   1      42.713  24.185  27.620  1.00  0.00     0.014 A 
ATOM     33  C   UNL A   1      41.429  26.427  26.620  1.00  0.00     0.010 A 
ATOM     34  C   UNL A   1      42.719  25.340  28.356  1.00  0.00     0.010 A 
ATOM     35  C   UNL A   1      42.098  26.470  27.850  1.00  0.00    -0.014 A 
BRANCH  35  36
ATOM     36  C   UNL A   1      42.016  27.615  28.747  1.00  0.00     0.031 A 
ATOM     37  C   UNL A   1      43.130  28.593  28.592  1.00  0.00     0.074 A 
ATOM     38  C   UNL A   1      40.866  27.969  29.360  1.00  0.00     0.049 A 
ATOM     39  N   UNL A   1      44.009  28.951  29.466  1.00  0.00    -0.248 NA
ATOM     40  C   UNL A   1      43.364  29.160  27.250  1.00  0.00     0.031 C 
ATOM     41  C   UNL A   1      39.548  27.329  29.249  1.00  0.00     0.029 A 
ATOM     42  N   UNL A   1      40.597  29.087  30.086  1.00  0.00    -0.354 N 
ATOM     43  C   UNL A   1      44.787  29.931  28.853  1.00  0.00     0.074 A 
ATOM     44  C   UNL A   1      44.467  29.880  27.450  1.00  0.00     0.031 C 
ATOM     45  C   UNL A   1      38.595  28.186  29.678  1.00  0.00     0.029 A 
ATOM     46  C   UNL A   1      39.242  29.361  30.238  1.00  0.00     0.049 A 
ATOM     47  H   UNL A   1      41.302  29.654  30.472  1.00  0.00     0.167 HD
ATOM     48  C   UNL A   1      45.468  30.869  29.571  1.00  0.00     0.031 A 
ATOM     49  C   UNL A   1      38.698  30.499  30.740  1.00  0.00     0.031 A 
ATOM     50  C   UNL A   1      45.503  30.540  30.973  1.00  0.00     0.049 A 
ATOM     51  C   UNL A   1      39.768  31.196  31.496  1.00  0.00     0.074 A 
ATOM     52  C   UNL A   1      45.986  29.479  31.709  1.00  0.00     0.029 A 
ATOM     53  N   UNL A   1      44.598  31.188  31.783  1.00  0.00    -0.354 N 
ATOM     54  N   UNL A   1      40.323  30.715  32.573  1.00  0.00    -0.248 NA
ATOM     55  C   UNL A   1      40.532  32.227  30.813  1.00  0.00     0.031 C 
ATOM     56  C   UNL A   1      45.004  29.259  32.720  1.00  0.00     0.029 A 
ATOM     57  C   UNL A   1      44.018  30.240  32.588  1.00  0.00     0.049 A 
ATOM     58  H   UNL A   1      44.404  32.152  31.786  1.00  0.00     0.167 HD
ATOM     59  C   UNL A   1      41.665  31.054  32.466  1.00  0.00     0.074 A 
ATOM     60  C   UNL A   1      41.710  32.076  31.422  1.00  0.00     0.031 C 
ATOM     61  C   UNL A   1      42.638  30.279  33.032  1.00  0.00     0.031 A 
BRANCH  48  62
ATOM     62  C   UNL A   1      45.776  32.262  29.076  1.00  0.00    -0.014 A 
ATOM     63  C   UNL A   1      44.738  33.216  29.036  1.00  0.00     0.010 A 
ATOM     64  C   UNL A   1      46.971  32.595  28.406  1.00  0.00     0.010 A 
ATOM     65  C   UNL A   1      44.867  34.408  28.309  1.00  0.00     0.020 A 
ATOM     66  C   UNL A   1      47.129  33.801  27.717  1.00  0.00     0.020 A 
ATOM     67  C   UNL A   1      46.061  34.684  27.642  1.00  0.00     0.054 A 
BRANCH  67  68
ATOM     68  S   UNL A   1      46.183  36.170  26.617  1.00  0.00     0.124 S 
ATOM     69  O   UNL A   1      46.639  35.620  25.344  1.00  0.00    -0.237 OA
ATOM     70  O   UNL A   1      44.812  36.673  26.635  1.00  0.00    -0.237 OA
ATOM     71  O   UNL A   1      47.154  36.997  27.328  1.00  0.00    -0.744 OA
ENDBRANCH  67  68
ENDBRANCH  48  62
BRANCH  49  72
ATOM     72  C   UNL A   1      37.418  31.158  30.376  1.00  0.00    -0.014 A 
ATOM     73  C   UNL A   1      36.420  31.384  31.342  1.00  0.00     0.010 A 
ATOM     74  C   UNL A   1      37.292  31.821  29.137  1.00  0.00     0.010 A 
ATOM     75  C   UNL A   1      35.370  32.288  31.102  1.00  0.00     0.020 A 
ATOM     76  C   UNL A   1      36.245  32.718  28.889  1.00  0.00     0.020 A 
ATOM     77  C   UNL A   1      35.302  32.967  29.883  1.00  0.00     0.054 A 
BRANCH  77  78
ATOM     78  S   UNL A   1      34.053  34.270  29.654  1.00  0.00     0.124 S 
ATOM     79  O   UNL A   1      33.047  33.596  28.839  1.00  0.00    -0.237 OA
ATOM     80  O   UNL A   1      33.656  34.574  31.025  1.00  0.00    -0.237 OA
ATOM     81  O   UNL A   1      34.789  35.336  28.975  1.00  0.00    -0.744 OA
ENDBRANCH  77  78
ENDBRANCH  49  72
BRANCH  61  82
ATOM     82  C   UNL A   1      42.227  29.209  34.020  1.00  0.00    -0.014 A 
ATOM     83  C   UNL A   1      41.722  27.946  33.649  1.00  0.00     0.010 A 
ATOM     84  C   UNL A   1      42.518  29.438  35.377  1.00  0.00     0.010 A 
ATOM     85  C   UNL A   1      41.495  26.951  34.613  1.00  0.00     0.020 A 
ATOM     86  C   UNL A   1      42.312  28.447  36.338  1.00  0.00     0.020 A 
ATOM     87  C   UNL A   1      41.793  27.210  35.954  1.00  0.00     0.054 A 
BRANCH  87  88
ATOM     88  S   UNL A   1      41.549  25.905  37.193  1.00  0.00     0.124 S 
ATOM     89  O   UNL A   1      40.187  26.157  37.654  1.00  0.00    -0.237 OA
ATOM     90  O   UNL A   1      41.735  24.680  36.420  1.00  0.00    -0.237 OA
ATOM     91  O   UNL A   1      42.593  26.165  38.184  1.00  0.00    -0.744 OA
ENDBRANCH  87  88
ENDBRANCH  61  82
ENDBRANCH  35  36
ENDBRANCH  27  30
ENDBRANCH  25  26
ENDBRANCH  24  25
ENDBRANCH   1  24
TORSDOF 18
ENDMDL
MODEL 2
REMARK VINA RESULT:     -10.9      2.297      9.207
REMARK SMILES CCn1ncc(CNc2ccccc2C(=O)NCCCCNC(=O)c2ccc(-c3c4nc(c(-c5ccc(S(=O)(=O)[O-])cc5)c5ccc([nH]5)c(-c5ccc(S(=O)(=O)[O-])cc5)c5nc(c(-c6ccc(S(=O)(=O)[O-])cc6)c6ccc3[nH]6)C=C5)C=C4)cc2)c1C
REMARK SMILES IDX 19 1 18 2 17 3 15 4 16 5 14 7 9 8 10 9 11 10 13 11 12 12
REMARK SMILES IDX 8 13 7 15 6 16 3 17 4 18 85 19 5 20 86 21 2 22 1 23 20 24
REMARK SMILES IDX 21 25 22 26 23 27 24 29 25 30 26 31 84 32 27 33 83 34 28 35
REMARK SMILES IDX 29 36 30 37 77 38 31 39 82 40 76 41 78 42 32 43 81 44 75 45
REMARK SMILES IDX 74 46 33 48 63 49 44 50 62 51 45 52 48 53 61 54 79 55 46 56
REMARK SMILES IDX 47 57 60 59 80 60 49 61 34 62 35 63 43 64 36 65 42 66 37 67
REMARK SMILES IDX 38 68 39 69 40 70 41 71 64 72 65 73 73 74 66 75 72 76 67 77
REMARK SMILES IDX 68 78 69 79 70 80 71 81 50 82 51 83 59 84 52 85 58 86 53 87
REMARK SMILES IDX 54 88 55 89 56 90 57 91
REMARK H PARENT 17 6 8 14 22 28 78 47 48 58
REMARK Flexibility Score: inf
ROOT
ATOM      1  C   UNL A   1      33.264  26.602  26.171  1.00  0.00     0.023 C 
ENDROOT
BRANCH   1   2
ATOM      2  C   UNL A   1      32.480  25.788  25.135  1.00  0.00     0.116 C 
BRANCH   2   3
ATOM      3  N   UNL A   1      33.212  25.402  23.941  1.00  0.00    -0.352 N 
ATOM      4  C   UNL A   1      33.658  24.154  23.544  1.00  0.00     0.253 C 
ATOM      5  O   UNL A   1      34.235  24.075  22.457  1.00  0.00    -0.269 OA
ATOM      6  H   UNL A   1      33.420  26.138  23.321  1.00  0.00     0.163 HD
BRANCH   4   7
ATOM      7  C   UNL A   1      33.552  22.921  24.387  1.00  0.00     0.062 A 
ATOM      8  C   UNL A   1      34.340  22.622  25.512  1.00  0.00     0.047 A 
ATOM      9  C   UNL A   1      34.189  21.363  26.131  1.00  0.00     0.026 A 
ATOM     10  C   UNL A   1      33.238  20.444  25.704  1.00  0.00     0.002 A 
ATOM     11  C   UNL A   1      32.556  22.000  23.997  1.00  0.00     0.016 A 
ATOM     12  C   UNL A   1      32.397  20.774  24.652  1.00  0.00     0.001 A 
BRANCH   8  13
ATOM     13  N   UNL A   1      35.178  23.514  26.164  1.00  0.00    -0.380 N 
ATOM     14  H   UNL A   1      35.033  23.723  27.114  1.00  0.00     0.160 HD
BRANCH  13  15
ATOM     15  C   UNL A   1      36.273  24.140  25.436  1.00  0.00     0.152 C 
BRANCH  15  16
ATOM     16  C   UNL A   1      37.572  23.647  25.961  1.00  0.00     0.012 A 
ATOM     17  N   UNL A   1      39.319  22.422  26.448  1.00  0.00    -0.270 N 
ATOM     18  N   UNL A   1      39.623  23.631  26.950  1.00  0.00    -0.181 NA
ATOM     19  C   UNL A   1      38.165  22.423  25.709  1.00  0.00     0.040 A 
ATOM     20  C   UNL A   1      38.566  24.375  26.637  1.00  0.00     0.141 A 
ATOM     21  C   UNL A   1      37.705  21.327  24.822  1.00  0.00     0.067 C 
BRANCH  17  22
ATOM     22  C   UNL A   1      40.166  21.295  26.781  1.00  0.00     0.141 C 
ATOM     23  C   UNL A   1      41.120  21.658  27.904  1.00  0.00     0.029 C 
ENDBRANCH  17  22
ENDBRANCH  15  16
ENDBRANCH  13  15
ENDBRANCH   8  13
ENDBRANCH   4   7
ENDBRANCH   2   3
ENDBRANCH   1   2
BRANCH   1  24
ATOM     24  C   UNL A   1      32.892  28.082  26.348  1.00  0.00     0.023 C 
BRANCH  24  25
ATOM     25  C   UNL A   1      34.009  29.087  26.101  1.00  0.00     0.116 C 
BRANCH  25  26
ATOM     26  N   UNL A   1      33.747  30.441  26.570  1.00  0.00    -0.352 N 
ATOM     27  C   UNL A   1      34.412  31.151  27.562  1.00  0.00     0.251 C 
ATOM     28  H   UNL A   1      33.005  30.912  26.127  1.00  0.00     0.163 HD
ATOM     29  O   UNL A   1      33.900  32.159  28.023  1.00  0.00    -0.269 OA
BRANCH  27  30
ATOM     30  C   UNL A   1      35.739  30.692  28.060  1.00  0.00     0.039 A 
ATOM     31  C   UNL A   1      36.018  29.326  28.209  1.00  0.00     0.014 A 
ATOM     32  C   UNL A   1      36.706  31.624  28.429  1.00  0.00     0.014 A 
ATOM     33  C   UNL A   1      37.277  28.923  28.668  1.00  0.00     0.010 A 
ATOM     34  C   UNL A   1      37.956  31.240  28.834  1.00  0.00     0.010 A 
ATOM     35  C   UNL A   1      38.240  29.892  28.977  1.00  0.00    -0.014 A 
BRANCH  35  36
ATOM     36  C   UNL A   1      39.627  29.553  29.266  1.00  0.00     0.031 A 
ATOM     37  C   UNL A   1      39.962  29.545  30.718  1.00  0.00     0.074 A 
ATOM     38  C   UNL A   1      40.416  28.922  28.371  1.00  0.00     0.049 A 
ATOM     39  N   UNL A   1      40.819  30.278  31.346  1.00  0.00    -0.248 NA
ATOM     40  C   UNL A   1      39.154  28.687  31.606  1.00  0.00     0.031 C 
ATOM     41  C   UNL A   1      40.065  28.465  27.020  1.00  0.00     0.029 A 
ATOM     42  N   UNL A   1      41.661  28.404  28.549  1.00  0.00    -0.354 N 
ATOM     43  C   UNL A   1      40.803  29.843  32.670  1.00  0.00     0.074 A 
ATOM     44  C   UNL A   1      39.640  29.005  32.805  1.00  0.00     0.031 C 
ATOM     45  C   UNL A   1      40.970  27.550  26.606  1.00  0.00     0.029 A 
ATOM     46  C   UNL A   1      42.041  27.476  27.585  1.00  0.00     0.049 A 
ATOM     47  H   UNL A   1      42.245  28.664  29.298  1.00  0.00     0.167 HD
ATOM     48  C   UNL A   1      41.869  30.015  33.502  1.00  0.00     0.031 A 
ATOM     49  C   UNL A   1      43.132  26.669  27.624  1.00  0.00     0.031 A 
ATOM     50  C   UNL A   1      42.840  30.916  32.938  1.00  0.00     0.049 A 
ATOM     51  C   UNL A   1      44.067  27.249  28.621  1.00  0.00     0.074 A 
ATOM     52  C   UNL A   1      42.819  32.233  32.527  1.00  0.00     0.029 A 
ATOM     53  N   UNL A   1      43.939  30.346  32.336  1.00  0.00    -0.354 N 
ATOM     54  N   UNL A   1      44.645  28.408  28.480  1.00  0.00    -0.248 NA
ATOM     55  C   UNL A   1      44.022  26.739  29.982  1.00  0.00     0.031 C 
ATOM     56  C   UNL A   1      43.604  32.257  31.337  1.00  0.00     0.029 A 
ATOM     57  C   UNL A   1      44.117  30.974  31.129  1.00  0.00     0.049 A 
ATOM     58  H   UNL A   1      44.496  29.623  32.704  1.00  0.00     0.167 HD
ATOM     59  C   UNL A   1      44.647  28.965  29.752  1.00  0.00     0.074 A 
ATOM     60  C   UNL A   1      44.353  27.848  30.648  1.00  0.00     0.031 C 
ATOM     61  C   UNL A   1      44.608  30.318  29.932  1.00  0.00     0.031 A 
BRANCH  48  62
ATOM     62  C   UNL A   1      42.217  29.089  34.644  1.00  0.00    -0.014 A 
ATOM     63  C   UNL A   1      42.938  29.602  35.742  1.00  0.00     0.010 A 
ATOM     64  C   UNL A   1      42.094  27.687  34.563  1.00  0.00     0.010 A 
ATOM     65  C   UNL A   1      43.559  28.753  36.670  1.00  0.00     0.020 A 
ATOM     66  C   UNL A   1      42.668  26.832  35.508  1.00  0.00     0.020 A 
ATOM     67  C   UNL A   1      43.429  27.371  36.535  1.00  0.00     0.054 A 
BRANCH  67  68
ATOM     68  S   UNL A   1      44.321  26.281  37.672  1.00  0.00     0.124 S 
ATOM     69  O   UNL A   1      45.562  27.020  37.885  1.00  0.00    -0.237 OA
ATOM     70  O   UNL A   1      43.416  26.217  38.816  1.00  0.00    -0.237 OA
ATOM     71  O   UNL A   1      44.454  25.037  36.918  1.00  0.00    -0.744 OA
ENDBRANCH  67  68
ENDBRANCH  48  62
BRANCH  49  72
ATOM     72  C   UNL A   1      43.295  25.298  27.079  1.00  0.00    -0.014 A 
ATOM     73  C   UNL A   1      42.717  24.933  25.849  1.00  0.00     0.010 A 
ATOM     74  C   UNL A   1      44.258  24.428  27.633  1.00  0.00     0.010 A 
ATOM     75  C   UNL A   1      43.132  23.776  25.168  1.00  0.00     0.020 A 
ATOM     76  C   UNL A   1      44.672  23.270  26.963  1.00  0.00     0.020 A 
ATOM     77  C   UNL A   1      44.125  22.962  25.719  1.00  0.00     0.054 A 
BRANCH  77  78
ATOM     78  S   UNL A   1      44.787  21.575  24.746  1.00  0.00     0.124 S 
ATOM     79  O   UNL A   1      43.858  20.496  25.071  1.00  0.00    -0.237 OA
ATOM     80  O   UNL A   1      44.714  22.083  23.379  1.00  0.00    -0.237 OA
ATOM     81  O   UNL A   1      46.142  21.405  25.268  1.00  0.00    -0.744 OA
ENDBRANCH  77  78
ENDBRANCH  49  72
BRANCH  61  82
ATOM     82  C   UNL A   1      44.857  31.215  28.739  1.00  0.00    -0.014 A 
ATOM     83  C   UNL A   1      43.903  31.468  27.732  1.00  0.00     0.010 A 
ATOM     84  C   UNL A   1      46.052  31.956  28.726  1.00  0.00     0.010 A 
ATOM     85  C   UNL A   1      44.151  32.420  26.730  1.00  0.00     0.020 A 
ATOM     86  C   UNL A   1      46.297  32.917  27.744  1.00  0.00     0.020 A 
ATOM     87  C   UNL A   1      45.349  33.140  26.744  1.00  0.00     0.054 A 
BRANCH  87  88
ATOM     88  S   UNL A   1      45.646  34.408  25.479  1.00  0.00     0.124 S 
ATOM     89  O   UNL A   1      45.179  35.625  26.134  1.00  0.00    -0.237 OA
ATOM     90  O   UNL A   1      47.089  34.323  25.262  1.00  0.00    -0.237 OA
ATOM     91  O   UNL A   1      44.833  33.966  24.345  1.00  0.00    -0.744 OA
ENDBRANCH  87  88
ENDBRANCH  61  82
ENDBRANCH  35  36
ENDBRANCH  27  30
ENDBRANCH  25  26
ENDBRANCH  24  25
ENDBRANCH   1  24
TORSDOF 18
ENDMDL
MODEL 3
REMARK VINA RESULT:     -10.9      2.586      9.237
REMARK SMILES CCn1ncc(CNc2ccccc2C(=O)NCCCCNC(=O)c2ccc(-c3c4nc(c(-c5ccc(S(=O)(=O)[O-])cc5)c5ccc([nH]5)c(-c5ccc(S(=O)(=O)[O-])cc5)c5nc(c(-c6ccc(S(=O)(=O)[O-])cc6)c6ccc3[nH]6)C=C5)C=C4)cc2)c1C
REMARK SMILES IDX 19 1 18 2 17 3 15 4 16 5 14 7 9 8 10 9 11 10 13 11 12 12
REMARK SMILES IDX 8 13 7 15 6 16 3 17 4 18 85 19 5 20 86 21 2 22 1 23 20 24
REMARK SMILES IDX 21 25 22 26 23 27 24 29 25 30 26 31 84 32 27 33 83 34 28 35
REMARK SMILES IDX 29 36 30 37 77 38 31 39 82 40 76 41 78 42 32 43 81 44 75 45
REMARK SMILES IDX 74 46 33 48 63 49 44 50 62 51 45 52 48 53 61 54 79 55 46 56
REMARK SMILES IDX 47 57 60 59 80 60 49 61 34 62 35 63 43 64 36 65 42 66 37 67
REMARK SMILES IDX 38 68 39 69 40 70 41 71 64 72 65 73 73 74 66 75 72 76 67 77
REMARK SMILES IDX 68 78 69 79 70 80 71 81 50 82 51 83 59 84 52 85 58 86 53 87
REMARK SMILES IDX 54 88 55 89 56 90 57 91
REMARK H PARENT 17 6 8 14 22 28 78 47 48 58
REMARK Flexibility Score: inf
ROOT
ATOM      1  C   UNL A   1      35.479  30.832  27.637  1.00  0.00     0.023 C 
ENDROOT
BRANCH   1   2
ATOM      2  C   UNL A   1      35.134  29.338  27.642  1.00  0.00     0.116 C 
BRANCH   2   3
ATOM      3  N   UNL A   1      33.753  29.002  27.942  1.00  0.00    -0.352 N 
ATOM      4  C   UNL A   1      32.817  28.343  27.167  1.00  0.00     0.253 C 
ATOM      5  O   UNL A   1      31.705  28.146  27.662  1.00  0.00    -0.269 OA
ATOM      6  H   UNL A   1      33.437  29.285  28.830  1.00  0.00     0.163 HD
BRANCH   4   7
ATOM      7  C   UNL A   1      33.049  27.931  25.746  1.00  0.00     0.062 A 
ATOM      8  C   UNL A   1      33.432  26.650  25.313  1.00  0.00     0.047 A 
ATOM      9  C   UNL A   1      33.721  26.453  23.946  1.00  0.00     0.026 A 
ATOM     10  C   UNL A   1      33.567  27.469  23.009  1.00  0.00     0.002 A 
ATOM     11  C   UNL A   1      32.849  28.938  24.778  1.00  0.00     0.016 A 
ATOM     12  C   UNL A   1      33.101  28.709  23.421  1.00  0.00     0.001 A 
BRANCH   8  13
ATOM     13  N   UNL A   1      33.431  25.505  26.095  1.00  0.00    -0.380 N 
ATOM     14  H   UNL A   1      34.145  25.357  26.756  1.00  0.00     0.160 HD
BRANCH  13  15
ATOM     15  C   UNL A   1      32.368  24.522  25.935  1.00  0.00     0.152 C 
BRANCH  15  16
ATOM     16  C   UNL A   1      32.934  23.152  26.023  1.00  0.00     0.012 A 
ATOM     17  N   UNL A   1      33.709  21.159  25.557  1.00  0.00    -0.270 N 
ATOM     18  N   UNL A   1      33.891  21.273  26.883  1.00  0.00    -0.181 NA
ATOM     19  C   UNL A   1      33.280  22.322  24.972  1.00  0.00     0.040 A 
ATOM     20  C   UNL A   1      33.435  22.491  27.158  1.00  0.00     0.141 A 
ATOM     21  C   UNL A   1      33.238  22.592  23.514  1.00  0.00     0.067 C 
BRANCH  17  22
ATOM     22  C   UNL A   1      33.913  19.867  24.933  1.00  0.00     0.141 C 
ATOM     23  C   UNL A   1      32.835  18.890  25.364  1.00  0.00     0.029 C 
ENDBRANCH  17  22
ENDBRANCH  15  16
ENDBRANCH  13  15
ENDBRANCH   8  13
ENDBRANCH   4   7
ENDBRANCH   2   3
ENDBRANCH   1   2
BRANCH   1  24
ATOM     24  C   UNL A   1      34.360  31.825  27.986  1.00  0.00     0.023 C 
BRANCH  24  25
ATOM     25  C   UNL A   1      34.796  33.104  28.688  1.00  0.00     0.116 C 
BRANCH  25  26
ATOM     26  N   UNL A   1      34.339  33.250  30.062  1.00  0.00    -0.352 N 
ATOM     27  C   UNL A   1      34.787  32.581  31.194  1.00  0.00     0.251 C 
ATOM     28  H   UNL A   1      33.619  33.907  30.208  1.00  0.00     0.163 HD
ATOM     29  O   UNL A   1      34.119  32.614  32.216  1.00  0.00    -0.269 OA
BRANCH  27  30
ATOM     30  C   UNL A   1      36.074  31.830  31.167  1.00  0.00     0.039 A 
ATOM     31  C   UNL A   1      36.091  30.429  31.218  1.00  0.00     0.014 A 
ATOM     32  C   UNL A   1      37.283  32.520  31.138  1.00  0.00     0.014 A 
ATOM     33  C   UNL A   1      37.313  29.750  31.179  1.00  0.00     0.010 A 
ATOM     34  C   UNL A   1      38.483  31.865  31.052  1.00  0.00     0.010 A 
ATOM     35  C   UNL A   1      38.505  30.481  31.095  1.00  0.00    -0.014 A 
BRANCH  35  36
ATOM     36  C   UNL A   1      39.796  29.850  30.851  1.00  0.00     0.031 A 
ATOM     37  C   UNL A   1      40.599  29.607  32.082  1.00  0.00     0.074 A 
ATOM     38  C   UNL A   1      40.068  29.188  29.706  1.00  0.00     0.049 A 
ATOM     39  N   UNL A   1      41.759  30.083  32.388  1.00  0.00    -0.248 NA
ATOM     40  C   UNL A   1      39.976  28.823  33.166  1.00  0.00     0.031 C 
ATOM     41  C   UNL A   1      39.182  28.968  28.555  1.00  0.00     0.029 A 
ATOM     42  N   UNL A   1      41.151  28.422  29.402  1.00  0.00    -0.354 N 
ATOM     43  C   UNL A   1      42.103  29.508  33.610  1.00  0.00     0.074 A 
ATOM     44  C   UNL A   1      40.902  28.899  34.121  1.00  0.00     0.031 C 
ATOM     45  C   UNL A   1      39.663  27.951  27.806  1.00  0.00     0.029 A 
ATOM     46  C   UNL A   1      40.961  27.558  28.329  1.00  0.00     0.049 A 
ATOM     47  H   UNL A   1      41.998  28.476  29.899  1.00  0.00     0.167 HD
ATOM     48  C   UNL A   1      43.400  29.373  34.007  1.00  0.00     0.031 A 
ATOM     49  C   UNL A   1      41.791  26.558  27.939  1.00  0.00     0.031 A 
ATOM     50  C   UNL A   1      44.292  30.130  33.168  1.00  0.00     0.049 A 
ATOM     51  C   UNL A   1      43.115  26.826  28.554  1.00  0.00     0.074 A 
ATOM     52  C   UNL A   1      44.423  31.465  32.846  1.00  0.00     0.029 A 
ATOM     53  N   UNL A   1      44.962  29.434  32.188  1.00  0.00    -0.354 N 
ATOM     54  N   UNL A   1      43.851  27.861  28.261  1.00  0.00    -0.248 NA
ATOM     55  C   UNL A   1      43.429  26.179  29.818  1.00  0.00     0.031 C 
ATOM     56  C   UNL A   1      44.735  31.476  31.455  1.00  0.00     0.029 A 
ATOM     57  C   UNL A   1      44.848  30.152  31.024  1.00  0.00     0.049 A 
ATOM     58  H   UNL A   1      45.435  28.579  32.300  1.00  0.00     0.167 HD
ATOM     59  C   UNL A   1      44.413  28.253  29.468  1.00  0.00     0.074 A 
ATOM     60  C   UNL A   1      44.205  27.118  30.364  1.00  0.00     0.031 C 
ATOM     61  C   UNL A   1      44.740  29.559  29.705  1.00  0.00     0.031 A 
BRANCH  48  62
ATOM     62  C   UNL A   1      43.904  28.271  34.908  1.00  0.00    -0.014 A 
ATOM     63  C   UNL A   1      44.499  28.615  36.140  1.00  0.00     0.010 A 
ATOM     64  C   UNL A   1      44.056  26.935  34.481  1.00  0.00     0.010 A 
ATOM     65  C   UNL A   1      45.259  27.690  36.869  1.00  0.00     0.020 A 
ATOM     66  C   UNL A   1      44.771  25.991  35.222  1.00  0.00     0.020 A 
ATOM     67  C   UNL A   1      45.401  26.386  36.394  1.00  0.00     0.054 A 
BRANCH  67  68
ATOM     68  S   UNL A   1      46.471  25.228  37.283  1.00  0.00     0.124 S 
ATOM     69  O   UNL A   1      45.919  23.939  36.880  1.00  0.00    -0.237 OA
ATOM     70  O   UNL A   1      47.790  25.549  36.744  1.00  0.00    -0.237 OA
ATOM     71  O   UNL A   1      46.272  25.586  38.685  1.00  0.00    -0.744 OA
ENDBRANCH  67  68
ENDBRANCH  48  62
BRANCH  49  72
ATOM     72  C   UNL A   1      41.449  25.253  27.317  1.00  0.00    -0.014 A 
ATOM     73  C   UNL A   1      42.406  24.528  26.583  1.00  0.00     0.010 A 
ATOM     74  C   UNL A   1      40.261  24.586  27.683  1.00  0.00     0.010 A 
ATOM     75  C   UNL A   1      42.211  23.168  26.283  1.00  0.00     0.020 A 
ATOM     76  C   UNL A   1      40.058  23.233  27.382  1.00  0.00     0.020 A 
ATOM     77  C   UNL A   1      41.046  22.523  26.705  1.00  0.00     0.054 A 
BRANCH  77  78
ATOM     78  S   UNL A   1      40.888  20.725  26.477  1.00  0.00     0.124 S 
ATOM     79  O   UNL A   1      42.068  20.408  25.677  1.00  0.00    -0.237 OA
ATOM     80  O   UNL A   1      40.903  20.228  27.850  1.00  0.00    -0.237 OA
ATOM     81  O   UNL A   1      39.610  20.577  25.782  1.00  0.00    -0.744 OA
ENDBRANCH  77  78
ENDBRANCH  49  72
BRANCH  61  82
ATOM     82  C   UNL A   1      44.755  30.524  28.539  1.00  0.00    -0.014 A 
ATOM     83  C   UNL A   1      43.595  31.081  27.963  1.00  0.00     0.010 A 
ATOM     84  C   UNL A   1      46.006  31.008  28.119  1.00  0.00     0.010 A 
ATOM     85  C   UNL A   1      43.689  32.077  26.978  1.00  0.00     0.020 A 
ATOM     86  C   UNL A   1      46.107  32.012  27.154  1.00  0.00     0.020 A 
ATOM     87  C   UNL A   1      44.948  32.537  26.580  1.00  0.00     0.054 A 
BRANCH  87  88
ATOM     88  S   UNL A   1      45.067  33.862  25.345  1.00  0.00     0.124 S 
ATOM     89  O   UNL A   1      46.508  34.079  25.251  1.00  0.00    -0.237 OA
ATOM     90  O   UNL A   1      44.442  33.268  24.166  1.00  0.00    -0.237 OA
ATOM     91  O   UNL A   1      44.315  34.965  25.944  1.00  0.00    -0.744 OA
ENDBRANCH  87  88
ENDBRANCH  61  82
ENDBRANCH  35  36
ENDBRANCH  27  30
ENDBRANCH  25  26
ENDBRANCH  24  25
ENDBRANCH   1  24
TORSDOF 18
ENDMDL
