MODEL 1
REMARK VINA RESULT:     -12.2      0.000      0.000
REMARK SMILES CCc1sc(NC(=O)[C@H]2CC(C)=C(C)C[C@H]2C(=O)NCCCCNC(=O)c2ccc(-c3c4nc(c(-c5ccc(S(=O)(=O)[O-])cc5)c5ccc([nH]5)c(-c5ccc(S(=O)(=O)[O-])cc5)c5nc(c(-c6ccc(S(=O)(=O)[O-])cc6)c6ccc3[nH]6)C=C5)C=C4)cc2)nc1-c1ccccc1
REMARK SMILES IDX 21 1 20 2 19 3 17 4 18 5 16 7 9 8 10 9 11 10 15 11 12 12
REMARK SMILES IDX 13 13 14 14 7 15 6 16 8 18 5 19 3 20 4 21 88 22 87 23 2 24
REMARK SMILES IDX 1 25 89 26 90 27 94 28 91 29 93 30 92 31 22 32 23 33 24 34
REMARK SMILES IDX 25 35 26 37 27 38 28 39 86 40 29 41 85 42 30 43 31 44 32 45
REMARK SMILES IDX 79 46 33 47 84 48 78 49 80 50 34 51 83 52 77 53 76 54 35 56
REMARK SMILES IDX 65 57 46 58 64 59 47 60 50 61 63 62 81 63 48 64 49 65 62 67
REMARK SMILES IDX 82 68 51 69 36 70 37 71 45 72 38 73 44 74 39 75 40 76 41 77
REMARK SMILES IDX 42 78 43 79 66 80 67 81 75 82 68 83 74 84 69 85 70 86 71 87
REMARK SMILES IDX 72 88 73 89 52 90 53 91 61 92 54 93 60 94 55 95 56 96 57 97
REMARK SMILES IDX 58 98 59 99
REMARK H PARENT 19 6 6 17 24 36 80 55 50 66
REMARK Flexibility Score: inf
ROOT
ATOM      1  C   UNL A   1      33.664  28.456  24.327  1.00  0.00     0.023 C 
ENDROOT
BRANCH   1   2
ATOM      2  C   UNL A   1      33.496  28.075  22.867  1.00  0.00     0.116 C 
BRANCH   2   3
ATOM      3  N   UNL A   1      32.285  28.658  22.327  1.00  0.00    -0.356 N 
ATOM      4  C   UNL A   1      30.977  28.317  22.445  1.00  0.00     0.224 C 
ATOM      5  O   UNL A   1      30.172  28.994  21.794  1.00  0.00    -0.275 OA
ATOM      6  H   UNL A   1      32.441  29.454  21.769  1.00  0.00     0.163 HD
BRANCH   4   7
ATOM      7  C   UNL A   1      30.460  27.199  23.353  1.00  0.00     0.095 C 
ATOM      8  C   UNL A   1      30.743  25.742  22.915  1.00  0.00     0.095 C 
ATOM      9  C   UNL A   1      30.576  24.668  23.993  1.00  0.00     0.045 C 
ATOM     10  C   UNL A   1      30.763  25.101  25.432  1.00  0.00    -0.074 C 
ATOM     11  C   UNL A   1      30.558  27.535  24.847  1.00  0.00     0.045 C 
ATOM     12  C   UNL A   1      30.936  23.950  26.396  1.00  0.00     0.039 C 
ATOM     13  C   UNL A   1      30.771  26.396  25.808  1.00  0.00    -0.074 C 
ATOM     14  C   UNL A   1      30.950  26.831  27.244  1.00  0.00     0.039 C 
BRANCH   8  15
ATOM     15  C   UNL A   1      31.727  25.494  21.759  1.00  0.00     0.230 C 
ATOM     16  N   UNL A   1      32.681  24.557  21.599  1.00  0.00    -0.302 N 
ATOM     17  H   UNL A   1      33.073  24.605  20.696  1.00  0.00     0.172 HD
ATOM     18  O   UNL A   1      31.657  26.284  20.797  1.00  0.00    -0.274 OA
BRANCH  16  19
ATOM     19  C   UNL A   1      33.257  23.561  22.327  1.00  0.00     0.190 A 
ATOM     20  C   UNL A   1      33.695  21.826  23.966  1.00  0.00     0.034 A 
ATOM     21  S   UNL A   1      32.468  22.169  22.816  1.00  0.00    -0.101 S 
ATOM     22  C   UNL A   1      34.742  22.719  23.758  1.00  0.00     0.087 A 
ATOM     23  N   UNL A   1      34.480  23.688  22.784  1.00  0.00    -0.220 NA
BRANCH  20  24
ATOM     24  C   UNL A   1      33.466  20.732  24.968  1.00  0.00     0.046 C 
ATOM     25  C   UNL A   1      33.497  21.218  26.418  1.00  0.00     0.010 C 
ENDBRANCH  20  24
BRANCH  22  26
ATOM     26  C   UNL A   1      35.971  22.802  24.547  1.00  0.00     0.001 A 
ATOM     27  C   UNL A   1      36.275  23.913  25.344  1.00  0.00     0.010 A 
ATOM     28  C   UNL A   1      36.883  21.735  24.513  1.00  0.00     0.010 A 
ATOM     29  C   UNL A   1      37.476  23.969  26.060  1.00  0.00     0.001 A 
ATOM     30  C   UNL A   1      38.079  21.787  25.234  1.00  0.00     0.001 A 
ATOM     31  C   UNL A   1      38.375  22.906  26.008  1.00  0.00     0.000 A 
ENDBRANCH  22  26
ENDBRANCH  16  19
ENDBRANCH   8  15
ENDBRANCH   4   7
ENDBRANCH   2   3
ENDBRANCH   1   2
BRANCH   1  32
ATOM     32  C   UNL A   1      34.042  27.353  25.295  1.00  0.00     0.023 C 
BRANCH  32  33
ATOM     33  C   UNL A   1      34.408  27.808  26.704  1.00  0.00     0.116 C 
BRANCH  33  34
ATOM     34  N   UNL A   1      33.826  29.076  27.137  1.00  0.00    -0.352 N 
ATOM     35  C   UNL A   1      34.415  30.190  27.690  1.00  0.00     0.251 C 
ATOM     36  H   UNL A   1      32.851  29.144  27.013  1.00  0.00     0.163 HD
ATOM     37  O   UNL A   1      33.772  31.223  27.858  1.00  0.00    -0.269 OA
BRANCH  35  38
ATOM     38  C   UNL A   1      35.806  30.106  28.159  1.00  0.00     0.039 A 
ATOM     39  C   UNL A   1      36.046  29.616  29.446  1.00  0.00     0.014 A 
ATOM     40  C   UNL A   1      36.857  30.374  27.288  1.00  0.00     0.014 A 
ATOM     41  C   UNL A   1      37.334  29.235  29.807  1.00  0.00     0.010 A 
ATOM     42  C   UNL A   1      38.119  29.911  27.609  1.00  0.00     0.010 A 
ATOM     43  C   UNL A   1      38.361  29.327  28.863  1.00  0.00    -0.014 A 
BRANCH  43  44
ATOM     44  C   UNL A   1      39.746  28.920  29.162  1.00  0.00     0.031 A 
ATOM     45  C   UNL A   1      40.666  29.969  29.706  1.00  0.00     0.074 A 
ATOM     46  C   UNL A   1      40.185  27.694  28.820  1.00  0.00     0.049 A 
ATOM     47  N   UNL A   1      41.967  29.968  29.786  1.00  0.00    -0.248 NA
ATOM     48  C   UNL A   1      40.027  31.217  30.164  1.00  0.00     0.031 C 
ATOM     49  C   UNL A   1      39.363  26.613  28.270  1.00  0.00     0.029 A 
ATOM     50  N   UNL A   1      41.446  27.162  28.863  1.00  0.00    -0.354 N 
ATOM     51  C   UNL A   1      42.305  31.233  30.251  1.00  0.00     0.074 A 
ATOM     52  C   UNL A   1      41.078  31.984  30.395  1.00  0.00     0.031 C 
ATOM     53  C   UNL A   1      40.143  25.543  28.036  1.00  0.00     0.029 A 
ATOM     54  C   UNL A   1      41.521  25.879  28.374  1.00  0.00     0.049 A 
ATOM     55  H   UNL A   1      42.226  27.653  29.210  1.00  0.00     0.167 HD
ATOM     56  C   UNL A   1      43.533  31.718  30.541  1.00  0.00     0.031 A 
ATOM     57  C   UNL A   1      42.594  25.083  28.208  1.00  0.00     0.031 A 
ATOM     58  C   UNL A   1      44.731  30.939  30.415  1.00  0.00     0.049 A 
ATOM     59  C   UNL A   1      43.949  25.628  28.578  1.00  0.00     0.074 A 
ATOM     60  C   UNL A   1      46.034  31.301  30.690  1.00  0.00     0.029 A 
ATOM     61  N   UNL A   1      44.756  29.617  29.989  1.00  0.00    -0.354 N 
ATOM     62  N   UNL A   1      44.260  26.826  29.018  1.00  0.00    -0.248 NA
ATOM     63  C   UNL A   1      45.094  24.721  28.435  1.00  0.00     0.031 C 
ATOM     64  C   UNL A   1      46.852  30.197  30.420  1.00  0.00     0.029 A 
ATOM     65  C   UNL A   1      46.052  29.141  30.007  1.00  0.00     0.049 A 
ATOM     66  H   UNL A   1      43.967  29.097  29.715  1.00  0.00     0.167 HD
ATOM     67  C   UNL A   1      45.634  26.809  29.226  1.00  0.00     0.074 A 
ATOM     68  C   UNL A   1      46.090  25.478  28.875  1.00  0.00     0.031 C 
ATOM     69  C   UNL A   1      46.451  27.799  29.664  1.00  0.00     0.031 A 
BRANCH  56  70
ATOM     70  C   UNL A   1      43.603  33.146  31.002  1.00  0.00    -0.014 A 
ATOM     71  C   UNL A   1      43.675  34.202  30.072  1.00  0.00     0.010 A 
ATOM     72  C   UNL A   1      43.671  33.438  32.375  1.00  0.00     0.010 A 
ATOM     73  C   UNL A   1      43.885  35.513  30.504  1.00  0.00     0.020 A 
ATOM     74  C   UNL A   1      43.851  34.754  32.813  1.00  0.00     0.020 A 
ATOM     75  C   UNL A   1      43.987  35.778  31.873  1.00  0.00     0.054 A 
BRANCH  75  76
ATOM     76  S   UNL A   1      44.296  37.483  32.410  1.00  0.00     0.124 S 
ATOM     77  O   UNL A   1      44.143  38.223  31.160  1.00  0.00    -0.237 OA
ATOM     78  O   UNL A   1      43.246  37.705  33.402  1.00  0.00    -0.237 OA
ATOM     79  O   UNL A   1      45.654  37.434  32.945  1.00  0.00    -0.744 OA
ENDBRANCH  75  76
ENDBRANCH  56  70
BRANCH  57  80
ATOM     80  C   UNL A   1      42.435  23.695  27.694  1.00  0.00    -0.014 A 
ATOM     81  C   UNL A   1      42.417  23.454  26.309  1.00  0.00     0.010 A 
ATOM     82  C   UNL A   1      42.313  22.605  28.575  1.00  0.00     0.010 A 
ATOM     83  C   UNL A   1      42.260  22.156  25.812  1.00  0.00     0.020 A 
ATOM     84  C   UNL A   1      42.177  21.301  28.083  1.00  0.00     0.020 A 
ATOM     85  C   UNL A   1      42.140  21.086  26.703  1.00  0.00     0.054 A 
BRANCH  85  86
ATOM     86  S   UNL A   1      41.985  19.405  26.037  1.00  0.00     0.124 S 
ATOM     87  O   UNL A   1      40.551  19.308  25.787  1.00  0.00    -0.237 OA
ATOM     88  O   UNL A   1      42.833  19.455  24.848  1.00  0.00    -0.237 OA
ATOM     89  O   UNL A   1      42.492  18.562  27.118  1.00  0.00    -0.744 OA
ENDBRANCH  85  86
ENDBRANCH  57  80
BRANCH  69  90
ATOM     90  C   UNL A   1      47.903  27.463  29.828  1.00  0.00    -0.014 A 
ATOM     91  C   UNL A   1      48.828  27.746  28.809  1.00  0.00     0.010 A 
ATOM     92  C   UNL A   1      48.354  26.937  31.052  1.00  0.00     0.010 A 
ATOM     93  C   UNL A   1      50.187  27.493  29.007  1.00  0.00     0.020 A 
ATOM     94  C   UNL A   1      49.714  26.702  31.259  1.00  0.00     0.020 A 
ATOM     95  C   UNL A   1      50.621  26.975  30.232  1.00  0.00     0.054 A 
BRANCH  95  96
ATOM     96  S   UNL A   1      52.397  26.721  30.496  1.00  0.00     0.124 S 
ATOM     97  O   UNL A   1      52.855  26.372  29.155  1.00  0.00    -0.237 OA
ATOM     98  O   UNL A   1      52.838  28.023  30.993  1.00  0.00    -0.237 OA
ATOM     99  O   UNL A   1      52.448  25.639  31.476  1.00  0.00    -0.744 OA
ENDBRANCH  95  96
ENDBRANCH  69  90
ENDBRANCH  43  44
ENDBRANCH  35  38
ENDBRANCH  33  34
ENDBRANCH  32  33
ENDBRANCH   1  32
TORSDOF 18
ENDMDL
MODEL 2
REMARK VINA RESULT:     -11.7      2.722      8.634
REMARK SMILES CCc1sc(NC(=O)[C@H]2CC(C)=C(C)C[C@H]2C(=O)NCCCCNC(=O)c2ccc(-c3c4nc(c(-c5ccc(S(=O)(=O)[O-])cc5)c5ccc([nH]5)c(-c5ccc(S(=O)(=O)[O-])cc5)c5nc(c(-c6ccc(S(=O)(=O)[O-])cc6)c6ccc3[nH]6)C=C5)C=C4)cc2)nc1-c1ccccc1
REMARK SMILES IDX 21 1 20 2 19 3 17 4 18 5 16 7 9 8 10 9 11 10 15 11 12 12
REMARK SMILES IDX 13 13 14 14 7 15 6 16 8 18 5 19 3 20 4 21 88 22 87 23 2 24
REMARK SMILES IDX 1 25 89 26 90 27 94 28 91 29 93 30 92 31 22 32 23 33 24 34
REMARK SMILES IDX 25 35 26 37 27 38 28 39 86 40 29 41 85 42 30 43 31 44 32 45
REMARK SMILES IDX 79 46 33 47 84 48 78 49 80 50 34 51 83 52 77 53 76 54 35 56
REMARK SMILES IDX 65 57 46 58 64 59 47 60 50 61 63 62 81 63 48 64 49 65 62 67
REMARK SMILES IDX 82 68 51 69 36 70 37 71 45 72 38 73 44 74 39 75 40 76 41 77
REMARK SMILES IDX 42 78 43 79 66 80 67 81 75 82 68 83 74 84 69 85 70 86 71 87
REMARK SMILES IDX 72 88 73 89 52 90 53 91 61 92 54 93 60 94 55 95 56 96 57 97
REMARK SMILES IDX 58 98 59 99
REMARK H PARENT 19 6 6 17 24 36 80 55 50 66
REMARK Flexibility Score: inf
ROOT
ATOM      1  C   UNL A   1      32.994  30.364  27.163  1.00  0.00     0.023 C 
ENDROOT
BRANCH   1   2
ATOM      2  C   UNL A   1      32.482  30.054  25.767  1.00  0.00     0.116 C 
BRANCH   2   3
ATOM      3  N   UNL A   1      33.436  29.234  25.048  1.00  0.00    -0.356 N 
ATOM      4  C   UNL A   1      33.280  28.223  24.157  1.00  0.00     0.224 C 
ATOM      5  O   UNL A   1      34.315  27.672  23.765  1.00  0.00    -0.275 OA
ATOM      6  H   UNL A   1      34.376  29.453  25.243  1.00  0.00     0.163 HD
BRANCH   4   7
ATOM      7  C   UNL A   1      31.929  27.775  23.594  1.00  0.00     0.095 C 
ATOM      8  C   UNL A   1      31.129  26.736  24.416  1.00  0.00     0.095 C 
ATOM      9  C   UNL A   1      29.646  26.593  24.062  1.00  0.00     0.045 C 
ATOM     10  C   UNL A   1      28.964  27.798  23.450  1.00  0.00    -0.074 C 
ATOM     11  C   UNL A   1      31.152  28.905  22.907  1.00  0.00     0.045 C 
ATOM     12  C   UNL A   1      27.455  27.711  23.457  1.00  0.00     0.039 C 
ATOM     13  C   UNL A   1      29.648  28.846  22.946  1.00  0.00    -0.074 C 
ATOM     14  C   UNL A   1      28.970  30.046  22.329  1.00  0.00     0.039 C 
BRANCH   8  15
ATOM     15  C   UNL A   1      31.591  26.408  25.846  1.00  0.00     0.230 C 
ATOM     16  N   UNL A   1      32.520  25.544  26.295  1.00  0.00    -0.302 N 
ATOM     17  H   UNL A   1      32.653  25.644  27.266  1.00  0.00     0.172 HD
ATOM     18  O   UNL A   1      31.021  27.028  26.765  1.00  0.00    -0.274 OA
BRANCH  16  19
ATOM     19  C   UNL A   1      33.330  24.572  25.791  1.00  0.00     0.190 A 
ATOM     20  C   UNL A   1      34.907  23.325  24.432  1.00  0.00     0.034 A 
ATOM     21  S   UNL A   1      34.897  24.826  25.262  1.00  0.00    -0.101 S 
ATOM     22  C   UNL A   1      33.753  22.630  24.783  1.00  0.00     0.087 A 
ATOM     23  N   UNL A   1      32.876  23.357  25.596  1.00  0.00    -0.220 NA
BRANCH  20  24
ATOM     24  C   UNL A   1      36.042  23.018  23.498  1.00  0.00     0.046 C 
ATOM     25  C   UNL A   1      37.066  22.045  24.084  1.00  0.00     0.010 C 
ENDBRANCH  20  24
BRANCH  22  26
ATOM     26  C   UNL A   1      33.346  21.323  24.269  1.00  0.00     0.001 A 
ATOM     27  C   UNL A   1      32.404  21.182  23.243  1.00  0.00     0.010 A 
ATOM     28  C   UNL A   1      33.915  20.162  24.817  1.00  0.00     0.010 A 
ATOM     29  C   UNL A   1      32.016  19.913  22.800  1.00  0.00     0.001 A 
ATOM     30  C   UNL A   1      33.535  18.894  24.369  1.00  0.00     0.001 A 
ATOM     31  C   UNL A   1      32.583  18.770  23.360  1.00  0.00     0.000 A 
ENDBRANCH  22  26
ENDBRANCH  16  19
ENDBRANCH   8  15
ENDBRANCH   4   7
ENDBRANCH   2   3
ENDBRANCH   1   2
BRANCH   1  32
ATOM     32  C   UNL A   1      34.385  30.956  27.279  1.00  0.00     0.023 C 
BRANCH  32  33
ATOM     33  C   UNL A   1      35.485  29.981  27.687  1.00  0.00     0.116 C 
BRANCH  33  34
ATOM     34  N   UNL A   1      35.496  29.583  29.093  1.00  0.00    -0.352 N 
ATOM     35  C   UNL A   1      36.531  29.521  29.998  1.00  0.00     0.251 C 
ATOM     36  H   UNL A   1      34.618  29.316  29.451  1.00  0.00     0.163 HD
ATOM     37  O   UNL A   1      36.313  29.294  31.187  1.00  0.00    -0.269 OA
BRANCH  35  38
ATOM     38  C   UNL A   1      37.914  29.643  29.515  1.00  0.00     0.039 A 
ATOM     39  C   UNL A   1      38.951  29.602  30.451  1.00  0.00     0.014 A 
ATOM     40  C   UNL A   1      38.182  29.653  28.150  1.00  0.00     0.014 A 
ATOM     41  C   UNL A   1      40.259  29.405  30.020  1.00  0.00     0.010 A 
ATOM     42  C   UNL A   1      39.464  29.364  27.723  1.00  0.00     0.010 A 
ATOM     43  C   UNL A   1      40.506  29.224  28.655  1.00  0.00    -0.014 A 
BRANCH  43  44
ATOM     44  C   UNL A   1      41.860  28.985  28.123  1.00  0.00     0.031 A 
ATOM     45  C   UNL A   1      42.195  27.586  27.707  1.00  0.00     0.074 A 
ATOM     46  C   UNL A   1      42.785  29.962  28.152  1.00  0.00     0.049 A 
ATOM     47  N   UNL A   1      43.360  27.047  27.482  1.00  0.00    -0.248 NA
ATOM     48  C   UNL A   1      41.058  26.654  27.593  1.00  0.00     0.031 C 
ATOM     49  C   UNL A   1      42.551  31.351  28.556  1.00  0.00     0.029 A 
ATOM     50  N   UNL A   1      44.122  29.923  27.858  1.00  0.00    -0.354 N 
ATOM     51  C   UNL A   1      43.101  25.702  27.254  1.00  0.00     0.074 A 
ATOM     52  C   UNL A   1      41.678  25.501  27.408  1.00  0.00     0.031 C 
ATOM     53  C   UNL A   1      43.707  32.034  28.474  1.00  0.00     0.029 A 
ATOM     54  C   UNL A   1      44.767  31.121  28.059  1.00  0.00     0.049 A 
ATOM     55  H   UNL A   1      44.579  29.114  27.534  1.00  0.00     0.167 HD
ATOM     56  C   UNL A   1      43.976  24.722  26.933  1.00  0.00     0.031 A 
ATOM     57  C   UNL A   1      46.072  31.428  27.934  1.00  0.00     0.031 A 
ATOM     58  C   UNL A   1      45.381  24.957  26.759  1.00  0.00     0.049 A 
ATOM     59  C   UNL A   1      47.025  30.331  27.534  1.00  0.00     0.074 A 
ATOM     60  C   UNL A   1      46.374  24.061  26.419  1.00  0.00     0.029 A 
ATOM     61  N   UNL A   1      45.984  26.201  26.897  1.00  0.00    -0.354 N 
ATOM     62  N   UNL A   1      46.771  29.060  27.319  1.00  0.00    -0.248 NA
ATOM     63  C   UNL A   1      48.433  30.705  27.356  1.00  0.00     0.031 C 
ATOM     64  C   UNL A   1      47.584  24.763  26.361  1.00  0.00     0.029 A 
ATOM     65  C   UNL A   1      47.336  26.101  26.634  1.00  0.00     0.049 A 
ATOM     66  H   UNL A   1      45.516  27.031  27.144  1.00  0.00     0.167 HD
ATOM     67  C   UNL A   1      47.985  28.488  26.958  1.00  0.00     0.074 A 
ATOM     68  C   UNL A   1      48.968  29.554  26.972  1.00  0.00     0.031 C 
ATOM     69  C   UNL A   1      48.269  27.199  26.644  1.00  0.00     0.031 A 
BRANCH  56  70
ATOM     70  C   UNL A   1      43.413  23.339  26.773  1.00  0.00    -0.014 A 
ATOM     71  C   UNL A   1      43.000  22.593  27.894  1.00  0.00     0.010 A 
ATOM     72  C   UNL A   1      43.362  22.746  25.500  1.00  0.00     0.010 A 
ATOM     73  C   UNL A   1      42.614  21.259  27.754  1.00  0.00     0.020 A 
ATOM     74  C   UNL A   1      42.946  21.418  25.352  1.00  0.00     0.020 A 
ATOM     75  C   UNL A   1      42.605  20.675  26.484  1.00  0.00     0.054 A 
BRANCH  75  76
ATOM     76  S   UNL A   1      42.135  18.930  26.330  1.00  0.00     0.124 S 
ATOM     77  O   UNL A   1      42.304  18.452  27.700  1.00  0.00    -0.237 OA
ATOM     78  O   UNL A   1      40.753  19.007  25.860  1.00  0.00    -0.237 OA
ATOM     79  O   UNL A   1      43.090  18.401  25.361  1.00  0.00    -0.744 OA
ENDBRANCH  75  76
ENDBRANCH  56  70
BRANCH  57  80
ATOM     80  C   UNL A   1      46.549  32.819  28.164  1.00  0.00    -0.014 A 
ATOM     81  C   UNL A   1      46.998  33.208  29.439  1.00  0.00     0.010 A 
ATOM     82  C   UNL A   1      46.572  33.760  27.119  1.00  0.00     0.010 A 
ATOM     83  C   UNL A   1      47.441  34.515  29.671  1.00  0.00     0.020 A 
ATOM     84  C   UNL A   1      47.035  35.062  27.341  1.00  0.00     0.020 A 
ATOM     85  C   UNL A   1      47.456  35.435  28.620  1.00  0.00     0.054 A 
BRANCH  85  86
ATOM     86  S   UNL A   1      48.080  37.111  28.933  1.00  0.00     0.124 S 
ATOM     87  O   UNL A   1      49.521  36.892  28.992  1.00  0.00    -0.237 OA
ATOM     88  O   UNL A   1      47.600  37.850  27.768  1.00  0.00    -0.237 OA
ATOM     89  O   UNL A   1      47.448  37.479  30.197  1.00  0.00    -0.744 OA
ENDBRANCH  85  86
ENDBRANCH  57  80
BRANCH  69  90
ATOM     90  C   UNL A   1      49.683  26.888  26.251  1.00  0.00    -0.014 A 
ATOM     91  C   UNL A   1      50.610  26.424  27.200  1.00  0.00     0.010 A 
ATOM     92  C   UNL A   1      50.057  26.981  24.899  1.00  0.00     0.010 A 
ATOM     93  C   UNL A   1      51.900  26.071  26.802  1.00  0.00     0.020 A 
ATOM     94  C   UNL A   1      51.340  26.609  24.496  1.00  0.00     0.020 A 
ATOM     95  C   UNL A   1      52.256  26.164  25.452  1.00  0.00     0.054 A 
BRANCH  95  96
ATOM     96  S   UNL A   1      53.914  25.632  24.945  1.00  0.00     0.124 S 
ATOM     97  O   UNL A   1      53.765  24.181  24.900  1.00  0.00    -0.237 OA
ATOM     98  O   UNL A   1      54.082  26.288  23.650  1.00  0.00    -0.237 OA
ATOM     99  O   UNL A   1      54.778  26.140  26.008  1.00  0.00    -0.744 OA
ENDBRANCH  95  96
ENDBRANCH  69  90
ENDBRANCH  43  44
ENDBRANCH  35  38
ENDBRANCH  33  34
ENDBRANCH  32  33
ENDBRANCH   1  32
TORSDOF 18
ENDMDL
MODEL 3
REMARK VINA RESULT:     -11.7      1.767      2.587
REMARK SMILES CCc1sc(NC(=O)[C@H]2CC(C)=C(C)C[C@H]2C(=O)NCCCCNC(=O)c2ccc(-c3c4nc(c(-c5ccc(S(=O)(=O)[O-])cc5)c5ccc([nH]5)c(-c5ccc(S(=O)(=O)[O-])cc5)c5nc(c(-c6ccc(S(=O)(=O)[O-])cc6)c6ccc3[nH]6)C=C5)C=C4)cc2)nc1-c1ccccc1
REMARK SMILES IDX 21 1 20 2 19 3 17 4 18 5 16 7 9 8 10 9 11 10 15 11 12 12
REMARK SMILES IDX 13 13 14 14 7 15 6 16 8 18 5 19 3 20 4 21 88 22 87 23 2 24
REMARK SMILES IDX 1 25 89 26 90 27 94 28 91 29 93 30 92 31 22 32 23 33 24 34
REMARK SMILES IDX 25 35 26 37 27 38 28 39 86 40 29 41 85 42 30 43 31 44 32 45
REMARK SMILES IDX 79 46 33 47 84 48 78 49 80 50 34 51 83 52 77 53 76 54 35 56
REMARK SMILES IDX 65 57 46 58 64 59 47 60 50 61 63 62 81 63 48 64 49 65 62 67
REMARK SMILES IDX 82 68 51 69 36 70 37 71 45 72 38 73 44 74 39 75 40 76 41 77
REMARK SMILES IDX 42 78 43 79 66 80 67 81 75 82 68 83 74 84 69 85 70 86 71 87
REMARK SMILES IDX 72 88 73 89 52 90 53 91 61 92 54 93 60 94 55 95 56 96 57 97
REMARK SMILES IDX 58 98 59 99
REMARK H PARENT 19 6 6 17 24 36 80 55 50 66
REMARK Flexibility Score: inf
ROOT
ATOM      1  C   UNL A   1      31.948  29.619  27.194  1.00  0.00     0.023 C 
ENDROOT
BRANCH   1   2
ATOM      2  C   UNL A   1      31.846  28.105  27.260  1.00  0.00     0.116 C 
BRANCH   2   3
ATOM      3  N   UNL A   1      32.876  27.493  26.445  1.00  0.00    -0.356 N 
ATOM      4  C   UNL A   1      32.860  26.973  25.192  1.00  0.00     0.224 C 
ATOM      5  O   UNL A   1      33.912  26.456  24.798  1.00  0.00    -0.275 OA
ATOM      6  H   UNL A   1      33.756  27.446  26.885  1.00  0.00     0.163 HD
BRANCH   4   7
ATOM      7  C   UNL A   1      31.653  27.036  24.253  1.00  0.00     0.095 C 
ATOM      8  C   UNL A   1      30.508  26.026  24.503  1.00  0.00     0.095 C 
ATOM      9  C   UNL A   1      29.169  26.343  23.830  1.00  0.00     0.045 C 
ATOM     10  C   UNL A   1      28.876  27.798  23.531  1.00  0.00    -0.074 C 
ATOM     11  C   UNL A   1      31.278  28.465  23.839  1.00  0.00     0.045 C 
ATOM     12  C   UNL A   1      27.426  28.071  23.205  1.00  0.00     0.039 C 
ATOM     13  C   UNL A   1      29.828  28.753  23.553  1.00  0.00    -0.074 C 
ATOM     14  C   UNL A   1      29.540  30.204  23.248  1.00  0.00     0.039 C 
BRANCH   8  15
ATOM     15  C   UNL A   1      30.515  25.205  25.804  1.00  0.00     0.230 C 
ATOM     16  N   UNL A   1      31.245  24.133  26.166  1.00  0.00    -0.302 N 
ATOM     17  H   UNL A   1      31.086  23.902  27.110  1.00  0.00     0.172 HD
ATOM     18  O   UNL A   1      29.715  25.568  26.688  1.00  0.00    -0.274 OA
BRANCH  16  19
ATOM     19  C   UNL A   1      32.141  23.277  25.600  1.00  0.00     0.190 A 
ATOM     20  C   UNL A   1      33.405  21.301  24.981  1.00  0.00     0.034 A 
ATOM     21  S   UNL A   1      31.754  21.766  24.997  1.00  0.00    -0.101 S 
ATOM     22  C   UNL A   1      34.173  22.427  25.265  1.00  0.00     0.087 A 
ATOM     23  N   UNL A   1      33.421  23.562  25.585  1.00  0.00    -0.220 NA
BRANCH  20  24
ATOM     24  C   UNL A   1      33.754  19.864  24.723  1.00  0.00     0.046 C 
ATOM     25  C   UNL A   1      32.621  19.069  24.071  1.00  0.00     0.010 C 
ENDBRANCH  20  24
BRANCH  22  26
ATOM     26  C   UNL A   1      35.629  22.466  25.392  1.00  0.00     0.001 A 
ATOM     27  C   UNL A   1      36.450  21.439  24.910  1.00  0.00     0.010 A 
ATOM     28  C   UNL A   1      36.236  23.569  26.015  1.00  0.00     0.010 A 
ATOM     29  C   UNL A   1      37.838  21.496  25.078  1.00  0.00     0.001 A 
ATOM     30  C   UNL A   1      37.623  23.631  26.176  1.00  0.00     0.001 A 
ATOM     31  C   UNL A   1      38.424  22.593  25.708  1.00  0.00     0.000 A 
ENDBRANCH  22  26
ENDBRANCH  16  19
ENDBRANCH   8  15
ENDBRANCH   4   7
ENDBRANCH   2   3
ENDBRANCH   1   2
BRANCH   1  32
ATOM     32  C   UNL A   1      33.172  30.207  26.521  1.00  0.00     0.023 C 
BRANCH  32  33
ATOM     33  C   UNL A   1      34.464  30.140  27.328  1.00  0.00     0.116 C 
BRANCH  33  34
ATOM     34  N   UNL A   1      34.467  30.875  28.591  1.00  0.00    -0.352 N 
ATOM     35  C   UNL A   1      35.481  31.100  29.494  1.00  0.00     0.251 C 
ATOM     36  H   UNL A   1      33.601  31.274  28.836  1.00  0.00     0.163 HD
ATOM     37  O   UNL A   1      35.322  31.870  30.439  1.00  0.00    -0.269 OA
BRANCH  35  38
ATOM     38  C   UNL A   1      36.734  30.342  29.368  1.00  0.00     0.039 A 
ATOM     39  C   UNL A   1      37.354  30.286  28.115  1.00  0.00     0.014 A 
ATOM     40  C   UNL A   1      37.356  29.820  30.497  1.00  0.00     0.014 A 
ATOM     41  C   UNL A   1      38.672  29.852  28.021  1.00  0.00     0.010 A 
ATOM     42  C   UNL A   1      38.693  29.479  30.422  1.00  0.00     0.010 A 
ATOM     43  C   UNL A   1      39.362  29.506  29.187  1.00  0.00    -0.014 A 
BRANCH  43  44
ATOM     44  C   UNL A   1      40.767  29.062  29.171  1.00  0.00     0.031 A 
ATOM     45  C   UNL A   1      41.816  30.100  29.428  1.00  0.00     0.074 A 
ATOM     46  C   UNL A   1      41.081  27.808  28.798  1.00  0.00     0.049 A 
ATOM     47  N   UNL A   1      43.098  30.055  29.198  1.00  0.00    -0.248 NA
ATOM     48  C   UNL A   1      41.336  31.389  29.960  1.00  0.00     0.031 C 
ATOM     49  C   UNL A   1      40.125  26.735  28.514  1.00  0.00     0.029 A 
ATOM     50  N   UNL A   1      42.303  27.233  28.568  1.00  0.00    -0.354 N 
ATOM     51  C   UNL A   1      43.568  31.325  29.505  1.00  0.00     0.074 A 
ATOM     52  C   UNL A   1      42.431  32.126  29.896  1.00  0.00     0.031 C 
ATOM     53  C   UNL A   1      40.799  25.628  28.156  1.00  0.00     0.029 A 
ATOM     54  C   UNL A   1      42.227  25.927  28.141  1.00  0.00     0.049 A 
ATOM     55  H   UNL A   1      43.155  27.709  28.695  1.00  0.00     0.167 HD
ATOM     56  C   UNL A   1      44.842  31.778  29.472  1.00  0.00     0.031 A 
ATOM     57  C   UNL A   1      43.209  25.086  27.767  1.00  0.00     0.031 A 
ATOM     58  C   UNL A   1      45.955  30.951  29.106  1.00  0.00     0.049 A 
ATOM     59  C   UNL A   1      44.626  25.598  27.778  1.00  0.00     0.074 A 
ATOM     60  C   UNL A   1      47.296  31.276  29.046  1.00  0.00     0.029 A 
ATOM     61  N   UNL A   1      45.846  29.612  28.754  1.00  0.00    -0.354 N 
ATOM     62  N   UNL A   1      45.063  26.801  28.071  1.00  0.00    -0.248 NA
ATOM     63  C   UNL A   1      45.681  24.644  27.414  1.00  0.00     0.031 C 
ATOM     64  C   UNL A   1      47.998  30.133  28.647  1.00  0.00     0.029 A 
ATOM     65  C   UNL A   1      47.097  29.089  28.489  1.00  0.00     0.049 A 
ATOM     66  H   UNL A   1      45.001  29.109  28.701  1.00  0.00     0.167 HD
ATOM     67  C   UNL A   1      46.446  26.743  27.949  1.00  0.00     0.074 A 
ATOM     68  C   UNL A   1      46.772  25.382  27.568  1.00  0.00     0.031 C 
ATOM     69  C   UNL A   1      47.368  27.720  28.130  1.00  0.00     0.031 A 
BRANCH  56  70
ATOM     70  C   UNL A   1      45.056  33.221  29.829  1.00  0.00    -0.014 A 
ATOM     71  C   UNL A   1      45.260  33.611  31.167  1.00  0.00     0.010 A 
ATOM     72  C   UNL A   1      44.980  34.209  28.832  1.00  0.00     0.010 A 
ATOM     73  C   UNL A   1      45.313  34.963  31.510  1.00  0.00     0.020 A 
ATOM     74  C   UNL A   1      45.063  35.564  29.169  1.00  0.00     0.020 A 
ATOM     75  C   UNL A   1      45.199  35.932  30.509  1.00  0.00     0.054 A 
BRANCH  75  76
ATOM     76  S   UNL A   1      45.235  37.683  30.982  1.00  0.00     0.124 S 
ATOM     77  O   UNL A   1      46.181  38.235  30.017  1.00  0.00    -0.237 OA
ATOM     78  O   UNL A   1      43.844  38.096  30.803  1.00  0.00    -0.237 OA
ATOM     79  O   UNL A   1      45.699  37.655  32.367  1.00  0.00    -0.744 OA
ENDBRANCH  75  76
ENDBRANCH  56  70
BRANCH  57  80
ATOM     80  C   UNL A   1      42.898  23.684  27.377  1.00  0.00    -0.014 A 
ATOM     81  C   UNL A   1      42.718  23.353  26.022  1.00  0.00     0.010 A 
ATOM     82  C   UNL A   1      42.789  22.668  28.344  1.00  0.00     0.010 A 
ATOM     83  C   UNL A   1      42.417  22.041  25.641  1.00  0.00     0.020 A 
ATOM     84  C   UNL A   1      42.509  21.350  27.967  1.00  0.00     0.020 A 
ATOM     85  C   UNL A   1      42.313  21.046  26.617  1.00  0.00     0.054 A 
BRANCH  85  86
ATOM     86  S   UNL A   1      41.969  19.342  26.097  1.00  0.00     0.124 S 
ATOM     87  O   UNL A   1      42.815  19.208  24.916  1.00  0.00    -0.237 OA
ATOM     88  O   UNL A   1      42.383  18.565  27.263  1.00  0.00    -0.237 OA
ATOM     89  O   UNL A   1      40.531  19.347  25.842  1.00  0.00    -0.744 OA
ENDBRANCH  85  86
ENDBRANCH  57  80
BRANCH  69  90
ATOM     90  C   UNL A   1      48.809  27.339  27.963  1.00  0.00    -0.014 A 
ATOM     91  C   UNL A   1      49.442  27.441  26.712  1.00  0.00     0.010 A 
ATOM     92  C   UNL A   1      49.556  26.957  29.092  1.00  0.00     0.010 A 
ATOM     93  C   UNL A   1      50.802  27.152  26.591  1.00  0.00     0.020 A 
ATOM     94  C   UNL A   1      50.920  26.686  28.976  1.00  0.00     0.020 A 
ATOM     95  C   UNL A   1      51.532  26.778  27.724  1.00  0.00     0.054 A 
BRANCH  95  96
ATOM     96  S   UNL A   1      53.313  26.475  27.558  1.00  0.00     0.124 S 
ATOM     97  O   UNL A   1      53.766  27.697  26.901  1.00  0.00    -0.237 OA
ATOM     98  O   UNL A   1      53.742  26.310  28.945  1.00  0.00    -0.237 OA
ATOM     99  O   UNL A   1      53.381  25.264  26.745  1.00  0.00    -0.744 OA
ENDBRANCH  95  96
ENDBRANCH  69  90
ENDBRANCH  43  44
ENDBRANCH  35  38
ENDBRANCH  33  34
ENDBRANCH  32  33
ENDBRANCH   1  32
TORSDOF 18
ENDMDL
