MODEL 1
REMARK VINA RESULT:     -14.3      0.000      0.000
REMARK SMILES Cc1cccc(N2CCN(c3ncc(NC(=O)c4ccccc4F)cc3C(=O)NCCCCNC(=O)c3ccc(-c4c5nc(c(-c6ccc(S(=O)(=O)[O-])cc6)c6ccc([nH]6)c(-c6ccc(S(=O)(=O)[O-])cc6)c6nc(c(-c7ccc(S(=O)(=O)[O-])cc7)c7ccc4[nH]7)C=C6)C=C5)cc3)C[C@@H]2C)c1
REMARK SMILES IDX 32 1 31 2 30 3 29 4 27 5 28 6 26 8 11 9 12 10 13 11 25 12
REMARK SMILES IDX 14 13 10 14 7 15 8 16 98 17 9 18 97 19 99 20 6 21 1 22 2 23
REMARK SMILES IDX 3 24 100 25 4 26 5 27 15 28 16 29 17 31 18 32 19 33 23 34
REMARK SMILES IDX 20 35 22 36 24 37 21 38 33 39 34 40 35 41 36 43 37 44 38 45
REMARK SMILES IDX 96 46 39 47 95 48 40 49 41 50 42 51 89 52 43 53 94 54 88 55
REMARK SMILES IDX 90 56 44 57 93 58 87 59 86 60 45 62 75 63 56 64 74 65 57 66
REMARK SMILES IDX 60 67 73 68 91 69 58 70 59 71 72 73 92 74 61 75 46 76 47 77
REMARK SMILES IDX 55 78 48 79 54 80 49 81 50 82 51 83 52 84 53 85 76 86 77 87
REMARK SMILES IDX 85 88 78 89 84 90 79 91 80 92 81 93 82 94 83 95 62 96 63 97
REMARK SMILES IDX 71 98 64 99 70 100 65 101 66 102 67 103 68 104 69 105
REMARK H PARENT 29 7 15 30 34 42 90 61 60 72
REMARK Flexibility Score: inf
ROOT
ATOM      1  C   UNL A   1      33.678  29.238  27.037  1.00  0.00     0.023 C 
ENDROOT
BRANCH   1   2
ATOM      2  C   UNL A   1      34.257  28.591  25.771  1.00  0.00     0.023 C 
BRANCH   2   3
ATOM      3  C   UNL A   1      33.851  27.120  25.539  1.00  0.00     0.116 C 
BRANCH   3   4
ATOM      4  N   UNL A   1      32.844  26.686  26.495  1.00  0.00    -0.352 N 
ATOM      5  C   UNL A   1      31.580  26.211  26.224  1.00  0.00     0.255 C 
ATOM      6  O   UNL A   1      30.637  26.781  26.765  1.00  0.00    -0.269 OA
ATOM      7  H   UNL A   1      33.096  26.737  27.446  1.00  0.00     0.163 HD
BRANCH   5   8
ATOM      8  C   UNL A   1      31.363  25.052  25.322  1.00  0.00     0.084 A 
ATOM      9  C   UNL A   1      30.858  25.197  24.011  1.00  0.00     0.141 A 
ATOM     10  N   UNL A   1      30.677  24.097  23.223  1.00  0.00    -0.236 NA
ATOM     11  C   UNL A   1      30.977  22.870  23.717  1.00  0.00     0.139 A 
ATOM     12  C   UNL A   1      31.655  23.768  25.795  1.00  0.00     0.045 A 
ATOM     13  C   UNL A   1      31.455  22.654  24.997  1.00  0.00     0.060 A 
BRANCH   9  14
ATOM     14  N   UNL A   1      30.388  26.390  23.498  1.00  0.00    -0.352 N 
ATOM     15  N   UNL A   1      29.358  28.885  22.550  1.00  0.00    -0.365 N 
ATOM     16  C   UNL A   1      28.637  28.127  23.593  1.00  0.00     0.138 C 
ATOM     17  C   UNL A   1      30.813  28.596  22.415  1.00  0.00     0.098 C 
ATOM     18  C   UNL A   1      28.933  26.613  23.502  1.00  0.00     0.139 C 
ATOM     19  C   UNL A   1      31.045  27.053  22.355  1.00  0.00     0.142 C 
ATOM     20  C   UNL A   1      31.596  29.246  23.564  1.00  0.00     0.033 C 
BRANCH  15  21
ATOM     21  C   UNL A   1      28.890  30.139  22.182  1.00  0.00     0.037 A 
ATOM     22  C   UNL A   1      29.180  33.746  23.420  1.00  0.00     0.044 C 
ATOM     23  C   UNL A   1      28.789  32.554  22.599  1.00  0.00    -0.049 A 
ATOM     24  C   UNL A   1      28.054  32.728  21.422  1.00  0.00     0.003 A 
ATOM     25  C   UNL A   1      29.186  31.261  22.972  1.00  0.00     0.029 A 
ATOM     26  C   UNL A   1      27.725  31.627  20.638  1.00  0.00     0.002 A 
ATOM     27  C   UNL A   1      28.145  30.349  21.013  1.00  0.00     0.026 A 
ENDBRANCH  15  21
ENDBRANCH   9  14
BRANCH  13  28
ATOM     28  N   UNL A   1      31.711  21.395  25.565  1.00  0.00    -0.320 N 
ATOM     29  C   UNL A   1      32.874  20.671  25.625  1.00  0.00     0.258 C 
ATOM     30  H   UNL A   1      30.932  20.965  25.987  1.00  0.00     0.170 HD
ATOM     31  O   UNL A   1      32.836  19.457  25.821  1.00  0.00    -0.269 OA
BRANCH  29  32
ATOM     32  C   UNL A   1      34.194  21.335  25.569  1.00  0.00     0.075 A 
ATOM     33  C   UNL A   1      34.950  21.216  24.395  1.00  0.00     0.017 A 
ATOM     34  C   UNL A   1      34.757  21.966  26.680  1.00  0.00     0.135 A 
ATOM     35  C   UNL A   1      36.226  21.779  24.325  1.00  0.00     0.001 A 
ATOM     36  C   UNL A   1      36.016  22.551  26.604  1.00  0.00     0.040 A 
ATOM     37  F   UNL A   1      34.126  21.997  27.862  1.00  0.00    -0.206 F 
ATOM     38  C   UNL A   1      36.752  22.461  25.424  1.00  0.00     0.003 A 
ENDBRANCH  29  32
ENDBRANCH  13  28
ENDBRANCH   5   8
ENDBRANCH   3   4
ENDBRANCH   2   3
ENDBRANCH   1   2
BRANCH   1  39
ATOM     39  C   UNL A   1      34.743  29.715  28.009  1.00  0.00     0.116 C 
BRANCH  39  40
ATOM     40  N   UNL A   1      35.644  30.729  27.489  1.00  0.00    -0.352 N 
ATOM     41  C   UNL A   1      36.907  30.957  28.049  1.00  0.00     0.251 C 
ATOM     42  H   UNL A   1      35.358  31.274  26.720  1.00  0.00     0.163 HD
ATOM     43  O   UNL A   1      37.339  32.035  28.362  1.00  0.00    -0.269 OA
BRANCH  41  44
ATOM     44  C   UNL A   1      37.738  29.732  28.159  1.00  0.00     0.039 A 
ATOM     45  C   UNL A   1      37.674  28.990  29.342  1.00  0.00     0.014 A 
ATOM     46  C   UNL A   1      38.774  29.558  27.245  1.00  0.00     0.014 A 
ATOM     47  C   UNL A   1      38.761  28.201  29.705  1.00  0.00     0.010 A 
ATOM     48  C   UNL A   1      39.890  28.868  27.656  1.00  0.00     0.010 A 
ATOM     49  C   UNL A   1      39.898  28.232  28.905  1.00  0.00    -0.014 A 
BRANCH  49  50
ATOM     50  C   UNL A   1      41.180  27.652  29.264  1.00  0.00     0.031 A 
ATOM     51  C   UNL A   1      41.433  26.241  28.916  1.00  0.00     0.074 A 
ATOM     52  C   UNL A   1      42.163  28.458  29.716  1.00  0.00     0.049 A 
ATOM     53  N   UNL A   1      42.463  25.565  29.289  1.00  0.00    -0.248 NA
ATOM     54  C   UNL A   1      40.479  25.448  28.142  1.00  0.00     0.031 C 
ATOM     55  C   UNL A   1      43.600  28.204  29.737  1.00  0.00     0.029 A 
ATOM     56  N   UNL A   1      42.023  29.616  30.462  1.00  0.00    -0.354 N 
ATOM     57  C   UNL A   1      42.473  24.399  28.559  1.00  0.00     0.074 A 
ATOM     58  C   UNL A   1      41.167  24.321  27.956  1.00  0.00     0.031 C 
ATOM     59  C   UNL A   1      44.175  29.022  30.635  1.00  0.00     0.029 A 
ATOM     60  C   UNL A   1      43.102  29.700  31.348  1.00  0.00     0.049 A 
ATOM     61  H   UNL A   1      41.290  30.268  30.383  1.00  0.00     0.167 HD
ATOM     62  C   UNL A   1      43.649  23.723  28.431  1.00  0.00     0.031 A 
ATOM     63  C   UNL A   1      42.888  29.569  32.694  1.00  0.00     0.031 A 
ATOM     64  C   UNL A   1      44.634  24.221  29.392  1.00  0.00     0.049 A 
ATOM     65  C   UNL A   1      43.503  28.308  33.278  1.00  0.00     0.074 A 
ATOM     66  C   UNL A   1      45.737  25.053  29.289  1.00  0.00     0.029 A 
ATOM     67  N   UNL A   1      44.334  24.139  30.751  1.00  0.00    -0.354 N 
ATOM     68  N   UNL A   1      43.865  27.267  32.576  1.00  0.00    -0.248 NA
ATOM     69  C   UNL A   1      43.787  28.139  34.700  1.00  0.00     0.031 C 
ATOM     70  C   UNL A   1      46.006  25.579  30.586  1.00  0.00     0.029 A 
ATOM     71  C   UNL A   1      45.103  25.026  31.480  1.00  0.00     0.049 A 
ATOM     72  H   UNL A   1      43.663  23.531  31.138  1.00  0.00     0.167 HD
ATOM     73  C   UNL A   1      44.433  26.325  33.394  1.00  0.00     0.074 A 
ATOM     74  C   UNL A   1      44.368  26.926  34.716  1.00  0.00     0.031 C 
ATOM     75  C   UNL A   1      44.921  25.134  32.927  1.00  0.00     0.031 A 
BRANCH  62  76
ATOM     76  C   UNL A   1      43.971  22.811  27.261  1.00  0.00    -0.014 A 
ATOM     77  C   UNL A   1      43.045  21.819  26.875  1.00  0.00     0.010 A 
ATOM     78  C   UNL A   1      45.200  22.796  26.572  1.00  0.00     0.010 A 
ATOM     79  C   UNL A   1      43.353  20.844  25.906  1.00  0.00     0.020 A 
ATOM     80  C   UNL A   1      45.525  21.832  25.606  1.00  0.00     0.020 A 
ATOM     81  C   UNL A   1      44.601  20.849  25.287  1.00  0.00     0.054 A 
BRANCH  81  82
ATOM     82  S   UNL A   1      45.014  19.564  24.079  1.00  0.00     0.124 S 
ATOM     83  O   UNL A   1      44.539  20.146  22.827  1.00  0.00    -0.237 OA
ATOM     84  O   UNL A   1      46.463  19.455  24.217  1.00  0.00    -0.237 OA
ATOM     85  O   UNL A   1      44.260  18.398  24.540  1.00  0.00    -0.744 OA
ENDBRANCH  81  82
ENDBRANCH  62  76
BRANCH  63  86
ATOM     86  C   UNL A   1      41.624  30.235  33.148  1.00  0.00    -0.014 A 
ATOM     87  C   UNL A   1      41.680  31.638  33.324  1.00  0.00     0.010 A 
ATOM     88  C   UNL A   1      40.371  29.635  32.934  1.00  0.00     0.010 A 
ATOM     89  C   UNL A   1      40.561  32.435  33.066  1.00  0.00     0.020 A 
ATOM     90  C   UNL A   1      39.239  30.436  32.699  1.00  0.00     0.020 A 
ATOM     91  C   UNL A   1      39.369  31.828  32.675  1.00  0.00     0.054 A 
BRANCH  91  92
ATOM     92  S   UNL A   1      38.083  32.883  31.933  1.00  0.00     0.124 S 
ATOM     93  O   UNL A   1      38.780  33.475  30.796  1.00  0.00    -0.237 OA
ATOM     94  O   UNL A   1      37.042  31.905  31.596  1.00  0.00    -0.237 OA
ATOM     95  O   UNL A   1      37.739  33.806  33.008  1.00  0.00    -0.744 OA
ENDBRANCH  91  92
ENDBRANCH  63  86
BRANCH  75  96
ATOM     96  C   UNL A   1      45.347  23.955  33.779  1.00  0.00    -0.014 A 
ATOM     97  C   UNL A   1      46.671  23.689  34.160  1.00  0.00     0.010 A 
ATOM     98  C   UNL A   1      44.346  23.127  34.347  1.00  0.00     0.010 A 
ATOM     99  C   UNL A   1      46.987  22.613  35.005  1.00  0.00     0.020 A 
ATOM    100  C   UNL A   1      44.643  22.088  35.234  1.00  0.00     0.020 A 
ATOM    101  C   UNL A   1      45.972  21.820  35.536  1.00  0.00     0.054 A 
BRANCH 101 102
ATOM    102  S   UNL A   1      46.389  20.481  36.680  1.00  0.00     0.124 S 
ATOM    103  O   UNL A   1      47.849  20.505  36.647  1.00  0.00    -0.237 OA
ATOM    104  O   UNL A   1      45.784  20.924  37.934  1.00  0.00    -0.237 OA
ATOM    105  O   UNL A   1      45.766  19.307  36.076  1.00  0.00    -0.744 OA
ENDBRANCH 101 102
ENDBRANCH  75  96
ENDBRANCH  49  50
ENDBRANCH  41  44
ENDBRANCH  39  40
ENDBRANCH   1  39
TORSDOF 18
ENDMDL
MODEL 2
REMARK VINA RESULT:     -14.0      1.415      1.876
REMARK SMILES Cc1cccc(N2CCN(c3ncc(NC(=O)c4ccccc4F)cc3C(=O)NCCCCNC(=O)c3ccc(-c4c5nc(c(-c6ccc(S(=O)(=O)[O-])cc6)c6ccc([nH]6)c(-c6ccc(S(=O)(=O)[O-])cc6)c6nc(c(-c7ccc(S(=O)(=O)[O-])cc7)c7ccc4[nH]7)C=C6)C=C5)cc3)C[C@@H]2C)c1
REMARK SMILES IDX 32 1 31 2 30 3 29 4 27 5 28 6 26 8 11 9 12 10 13 11 25 12
REMARK SMILES IDX 14 13 10 14 7 15 8 16 98 17 9 18 97 19 99 20 6 21 1 22 2 23
REMARK SMILES IDX 3 24 100 25 4 26 5 27 15 28 16 29 17 31 18 32 19 33 23 34
REMARK SMILES IDX 20 35 22 36 24 37 21 38 33 39 34 40 35 41 36 43 37 44 38 45
REMARK SMILES IDX 96 46 39 47 95 48 40 49 41 50 42 51 89 52 43 53 94 54 88 55
REMARK SMILES IDX 90 56 44 57 93 58 87 59 86 60 45 62 75 63 56 64 74 65 57 66
REMARK SMILES IDX 60 67 73 68 91 69 58 70 59 71 72 73 92 74 61 75 46 76 47 77
REMARK SMILES IDX 55 78 48 79 54 80 49 81 50 82 51 83 52 84 53 85 76 86 77 87
REMARK SMILES IDX 85 88 78 89 84 90 79 91 80 92 81 93 82 94 83 95 62 96 63 97
REMARK SMILES IDX 71 98 64 99 70 100 65 101 66 102 67 103 68 104 69 105
REMARK H PARENT 29 7 15 30 34 42 90 61 60 72
REMARK Flexibility Score: inf
ROOT
ATOM      1  C   UNL A   1      33.211  29.528  26.782  1.00  0.00     0.023 C 
ENDROOT
BRANCH   1   2
ATOM      2  C   UNL A   1      34.268  28.549  26.252  1.00  0.00     0.023 C 
BRANCH   2   3
ATOM      3  C   UNL A   1      33.721  27.187  25.774  1.00  0.00     0.116 C 
BRANCH   3   4
ATOM      4  N   UNL A   1      32.669  26.695  26.650  1.00  0.00    -0.352 N 
ATOM      5  C   UNL A   1      31.442  26.188  26.284  1.00  0.00     0.255 C 
ATOM      6  O   UNL A   1      30.447  26.712  26.775  1.00  0.00    -0.269 OA
ATOM      7  H   UNL A   1      32.856  26.728  27.616  1.00  0.00     0.163 HD
BRANCH   5   8
ATOM      8  C   UNL A   1      31.323  25.047  25.341  1.00  0.00     0.084 A 
ATOM      9  C   UNL A   1      30.900  25.211  24.004  1.00  0.00     0.141 A 
ATOM     10  N   UNL A   1      30.808  24.128  23.178  1.00  0.00    -0.236 NA
ATOM     11  C   UNL A   1      31.117  22.898  23.659  1.00  0.00     0.139 A 
ATOM     12  C   UNL A   1      31.628  23.761  25.799  1.00  0.00     0.045 A 
ATOM     13  C   UNL A   1      31.518  22.663  24.962  1.00  0.00     0.060 A 
BRANCH   9  14
ATOM     14  N   UNL A   1      30.423  26.402  23.490  1.00  0.00    -0.352 N 
ATOM     15  N   UNL A   1      29.385  28.895  22.546  1.00  0.00    -0.365 N 
ATOM     16  C   UNL A   1      28.699  28.162  23.629  1.00  0.00     0.138 C 
ATOM     17  C   UNL A   1      30.831  28.585  22.357  1.00  0.00     0.098 C 
ATOM     18  C   UNL A   1      28.973  26.643  23.549  1.00  0.00     0.139 C 
ATOM     19  C   UNL A   1      31.042  27.039  22.311  1.00  0.00     0.142 C 
ATOM     20  C   UNL A   1      31.667  29.243  23.463  1.00  0.00     0.033 C 
BRANCH  15  21
ATOM     21  C   UNL A   1      28.918  30.149  22.176  1.00  0.00     0.037 A 
ATOM     22  C   UNL A   1      29.206  33.755  23.414  1.00  0.00     0.044 C 
ATOM     23  C   UNL A   1      28.816  32.564  22.592  1.00  0.00    -0.049 A 
ATOM     24  C   UNL A   1      28.083  32.737  21.415  1.00  0.00     0.003 A 
ATOM     25  C   UNL A   1      29.213  31.271  22.966  1.00  0.00     0.029 A 
ATOM     26  C   UNL A   1      27.754  31.636  20.631  1.00  0.00     0.002 A 
ATOM     27  C   UNL A   1      28.174  30.358  21.007  1.00  0.00     0.026 A 
ENDBRANCH  15  21
ENDBRANCH   9  14
BRANCH  13  28
ATOM     28  N   UNL A   1      31.779  21.398  25.514  1.00  0.00    -0.320 N 
ATOM     29  C   UNL A   1      32.941  20.669  25.546  1.00  0.00     0.258 C 
ATOM     30  H   UNL A   1      31.007  20.967  25.946  1.00  0.00     0.170 HD
ATOM     31  O   UNL A   1      32.902  19.453  25.732  1.00  0.00    -0.269 OA
BRANCH  29  32
ATOM     32  C   UNL A   1      34.262  21.329  25.472  1.00  0.00     0.075 A 
ATOM     33  C   UNL A   1      34.880  21.444  24.220  1.00  0.00     0.017 A 
ATOM     34  C   UNL A   1      34.960  21.726  26.614  1.00  0.00     0.135 A 
ATOM     35  C   UNL A   1      36.154  22.008  24.117  1.00  0.00     0.001 A 
ATOM     36  C   UNL A   1      36.217  22.313  26.512  1.00  0.00     0.040 A 
ATOM     37  F   UNL A   1      34.466  21.523  27.843  1.00  0.00    -0.206 F 
ATOM     38  C   UNL A   1      36.814  22.458  25.262  1.00  0.00     0.003 A 
ENDBRANCH  29  32
ENDBRANCH  13  28
ENDBRANCH   5   8
ENDBRANCH   3   4
ENDBRANCH   2   3
ENDBRANCH   1   2
BRANCH   1  39
ATOM     39  C   UNL A   1      33.750  30.484  27.832  1.00  0.00     0.116 C 
BRANCH  39  40
ATOM     40  N   UNL A   1      34.696  31.472  27.343  1.00  0.00    -0.352 N 
ATOM     41  C   UNL A   1      35.880  31.769  28.028  1.00  0.00     0.251 C 
ATOM     42  H   UNL A   1      34.499  31.947  26.503  1.00  0.00     0.163 HD
ATOM     43  O   UNL A   1      36.260  32.877  28.301  1.00  0.00    -0.269 OA
BRANCH  41  44
ATOM     44  C   UNL A   1      36.706  30.574  28.336  1.00  0.00     0.039 A 
ATOM     45  C   UNL A   1      36.759  30.126  29.659  1.00  0.00     0.014 A 
ATOM     46  C   UNL A   1      37.638  30.159  27.389  1.00  0.00     0.014 A 
ATOM     47  C   UNL A   1      37.869  29.405  30.085  1.00  0.00     0.010 A 
ATOM     48  C   UNL A   1      38.783  29.544  27.835  1.00  0.00     0.010 A 
ATOM     49  C   UNL A   1      38.916  29.212  29.191  1.00  0.00    -0.014 A 
BRANCH  49  50
ATOM     50  C   UNL A   1      40.223  28.686  29.545  1.00  0.00     0.031 A 
ATOM     51  C   UNL A   1      40.550  27.302  29.154  1.00  0.00     0.074 A 
ATOM     52  C   UNL A   1      41.159  29.525  30.033  1.00  0.00     0.049 A 
ATOM     53  N   UNL A   1      41.610  26.667  29.515  1.00  0.00    -0.248 NA
ATOM     54  C   UNL A   1      39.645  26.487  28.343  1.00  0.00     0.031 C 
ATOM     55  C   UNL A   1      42.607  29.343  30.062  1.00  0.00     0.029 A 
ATOM     56  N   UNL A   1      40.953  30.650  30.815  1.00  0.00    -0.354 N 
ATOM     57  C   UNL A   1      41.686  25.527  28.749  1.00  0.00     0.074 A 
ATOM     58  C   UNL A   1      40.391  25.403  28.129  1.00  0.00     0.031 C 
ATOM     59  C   UNL A   1      43.130  30.160  30.992  1.00  0.00     0.029 A 
ATOM     60  C   UNL A   1      42.018  30.758  31.715  1.00  0.00     0.049 A 
ATOM     61  H   UNL A   1      40.188  31.266  30.749  1.00  0.00     0.167 HD
ATOM     62  C   UNL A   1      42.896  24.916  28.612  1.00  0.00     0.031 A 
ATOM     63  C   UNL A   1      41.798  30.573  33.054  1.00  0.00     0.031 A 
ATOM     64  C   UNL A   1      43.845  25.432  29.600  1.00  0.00     0.049 A 
ATOM     65  C   UNL A   1      42.471  29.326  33.603  1.00  0.00     0.074 A 
ATOM     66  C   UNL A   1      44.905  26.321  29.535  1.00  0.00     0.029 A 
ATOM     67  N   UNL A   1      43.537  25.290  30.951  1.00  0.00    -0.354 N 
ATOM     68  N   UNL A   1      42.892  28.328  32.872  1.00  0.00    -0.248 NA
ATOM     69  C   UNL A   1      42.751  29.125  35.022  1.00  0.00     0.031 C 
ATOM     70  C   UNL A   1      45.135  26.817  30.852  1.00  0.00     0.029 A 
ATOM     71  C   UNL A   1      44.253  26.190  31.718  1.00  0.00     0.049 A 
ATOM     72  H   UNL A   1      42.894  24.636  31.311  1.00  0.00     0.167 HD
ATOM     73  C   UNL A   1      43.500  27.390  33.665  1.00  0.00     0.074 A 
ATOM     74  C   UNL A   1      43.392  27.943  35.005  1.00  0.00     0.031 C 
ATOM     75  C   UNL A   1      44.053  26.241  33.165  1.00  0.00     0.031 A 
BRANCH  62  76
ATOM     76  C   UNL A   1      43.274  24.061  27.416  1.00  0.00    -0.014 A 
ATOM     77  C   UNL A   1      42.829  22.724  27.346  1.00  0.00     0.010 A 
ATOM     78  C   UNL A   1      44.151  24.463  26.389  1.00  0.00     0.010 A 
ATOM     79  C   UNL A   1      43.277  21.837  26.348  1.00  0.00     0.020 A 
ATOM     80  C   UNL A   1      44.609  23.593  25.388  1.00  0.00     0.020 A 
ATOM     81  C   UNL A   1      44.179  22.276  25.381  1.00  0.00     0.054 A 
BRANCH  81  82
ATOM     82  S   UNL A   1      44.793  21.120  24.129  1.00  0.00     0.124 S 
ATOM     83  O   UNL A   1      44.046  19.903  24.433  1.00  0.00    -0.237 OA
ATOM     84  O   UNL A   1      44.436  21.788  22.882  1.00  0.00    -0.237 OA
ATOM     85  O   UNL A   1      46.229  21.045  24.400  1.00  0.00    -0.744 OA
ENDBRANCH  81  82
ENDBRANCH  62  76
BRANCH  63  86
ATOM     86  C   UNL A   1      40.499  31.159  33.514  1.00  0.00    -0.014 A 
ATOM     87  C   UNL A   1      39.529  30.246  33.992  1.00  0.00     0.010 A 
ATOM     88  C   UNL A   1      40.412  32.502  33.921  1.00  0.00     0.010 A 
ATOM     89  C   UNL A   1      38.650  30.607  35.016  1.00  0.00     0.020 A 
ATOM     90  C   UNL A   1      39.510  32.873  34.935  1.00  0.00     0.020 A 
ATOM     91  C   UNL A   1      38.706  31.900  35.535  1.00  0.00     0.054 A 
BRANCH  91  92
ATOM     92  S   UNL A   1      37.879  32.212  37.128  1.00  0.00     0.124 S 
ATOM     93  O   UNL A   1      38.943  32.820  37.920  1.00  0.00    -0.237 OA
ATOM     94  O   UNL A   1      36.789  33.113  36.736  1.00  0.00    -0.237 OA
ATOM     95  O   UNL A   1      37.458  30.883  37.557  1.00  0.00    -0.744 OA
ENDBRANCH  91  92
ENDBRANCH  63  86
BRANCH  75  96
ATOM     96  C   UNL A   1      44.529  25.058  33.983  1.00  0.00    -0.014 A 
ATOM     97  C   UNL A   1      43.704  24.280  34.809  1.00  0.00     0.010 A 
ATOM     98  C   UNL A   1      45.865  24.609  33.820  1.00  0.00     0.010 A 
ATOM     99  C   UNL A   1      44.198  23.157  35.490  1.00  0.00     0.020 A 
ATOM    100  C   UNL A   1      46.354  23.460  34.449  1.00  0.00     0.020 A 
ATOM    101  C   UNL A   1      45.520  22.755  35.307  1.00  0.00     0.054 A 
BRANCH 101 102
ATOM    102  S   UNL A   1      46.124  21.264  36.136  1.00  0.00     0.124 S 
ATOM    103  O   UNL A   1      45.484  20.208  35.356  1.00  0.00    -0.237 OA
ATOM    104  O   UNL A   1      47.573  21.368  35.979  1.00  0.00    -0.237 OA
ATOM    105  O   UNL A   1      45.641  21.414  37.506  1.00  0.00    -0.744 OA
ENDBRANCH 101 102
ENDBRANCH  75  96
ENDBRANCH  49  50
ENDBRANCH  41  44
ENDBRANCH  39  40
ENDBRANCH   1  39
TORSDOF 18
ENDMDL
MODEL 3
REMARK VINA RESULT:     -13.7      4.403     11.109
REMARK SMILES Cc1cccc(N2CCN(c3ncc(NC(=O)c4ccccc4F)cc3C(=O)NCCCCNC(=O)c3ccc(-c4c5nc(c(-c6ccc(S(=O)(=O)[O-])cc6)c6ccc([nH]6)c(-c6ccc(S(=O)(=O)[O-])cc6)c6nc(c(-c7ccc(S(=O)(=O)[O-])cc7)c7ccc4[nH]7)C=C6)C=C5)cc3)C[C@@H]2C)c1
REMARK SMILES IDX 32 1 31 2 30 3 29 4 27 5 28 6 26 8 11 9 12 10 13 11 25 12
REMARK SMILES IDX 14 13 10 14 7 15 8 16 98 17 9 18 97 19 99 20 6 21 1 22 2 23
REMARK SMILES IDX 3 24 100 25 4 26 5 27 15 28 16 29 17 31 18 32 19 33 23 34
REMARK SMILES IDX 20 35 22 36 24 37 21 38 33 39 34 40 35 41 36 43 37 44 38 45
REMARK SMILES IDX 96 46 39 47 95 48 40 49 41 50 42 51 89 52 43 53 94 54 88 55
REMARK SMILES IDX 90 56 44 57 93 58 87 59 86 60 45 62 75 63 56 64 74 65 57 66
REMARK SMILES IDX 60 67 73 68 91 69 58 70 59 71 72 73 92 74 61 75 46 76 47 77
REMARK SMILES IDX 55 78 48 79 54 80 49 81 50 82 51 83 52 84 53 85 76 86 77 87
REMARK SMILES IDX 85 88 78 89 84 90 79 91 80 92 81 93 82 94 83 95 62 96 63 97
REMARK SMILES IDX 71 98 64 99 70 100 65 101 66 102 67 103 68 104 69 105
REMARK H PARENT 29 7 15 30 34 42 90 61 60 72
REMARK Flexibility Score: inf
ROOT
ATOM      1  C   UNL A   1      37.133  22.834  26.246  1.00  0.00     0.023 C 
ENDROOT
BRANCH   1   2
ATOM      2  C   UNL A   1      36.681  24.226  25.780  1.00  0.00     0.023 C 
BRANCH   2   3
ATOM      3  C   UNL A   1      35.193  24.335  25.384  1.00  0.00     0.116 C 
BRANCH   3   4
ATOM      4  N   UNL A   1      35.037  24.688  23.981  1.00  0.00    -0.352 N 
ATOM      5  C   UNL A   1      33.978  24.388  23.154  1.00  0.00     0.255 C 
ATOM      6  O   UNL A   1      34.230  23.797  22.108  1.00  0.00    -0.269 OA
ATOM      7  H   UNL A   1      35.775  25.199  23.576  1.00  0.00     0.163 HD
BRANCH   5   8
ATOM      8  C   UNL A   1      32.587  24.772  23.504  1.00  0.00     0.084 A 
ATOM      9  C   UNL A   1      31.658  23.850  24.033  1.00  0.00     0.141 A 
ATOM     10  N   UNL A   1      30.390  24.255  24.338  1.00  0.00    -0.236 NA
ATOM     11  C   UNL A   1      30.035  25.546  24.118  1.00  0.00     0.139 A 
ATOM     12  C   UNL A   1      32.179  26.092  23.288  1.00  0.00     0.045 A 
ATOM     13  C   UNL A   1      30.887  26.496  23.584  1.00  0.00     0.060 A 
BRANCH   9  14
ATOM     14  N   UNL A   1      31.898  22.493  24.139  1.00  0.00    -0.352 N 
ATOM     15  N   UNL A   1      32.476  19.694  24.254  1.00  0.00    -0.365 N 
ATOM     16  C   UNL A   1      32.509  20.411  22.963  1.00  0.00     0.138 C 
ATOM     17  C   UNL A   1      32.657  20.530  25.474  1.00  0.00     0.098 C 
ATOM     18  C   UNL A   1      31.582  21.648  22.976  1.00  0.00     0.139 C 
ATOM     19  C   UNL A   1      31.714  21.772  25.413  1.00  0.00     0.142 C 
ATOM     20  C   UNL A   1      34.129  20.937  25.629  1.00  0.00     0.033 C 
BRANCH  15  21
ATOM     21  C   UNL A   1      32.858  18.360  24.296  1.00  0.00     0.037 A 
ATOM     22  C   UNL A   1      31.991  15.229  26.313  1.00  0.00     0.044 C 
ATOM     23  C   UNL A   1      32.633  16.137  25.307  1.00  0.00    -0.049 A 
ATOM     24  C   UNL A   1      33.521  15.616  24.362  1.00  0.00     0.003 A 
ATOM     25  C   UNL A   1      32.322  17.505  25.272  1.00  0.00     0.029 A 
ATOM     26  C   UNL A   1      34.086  16.450  23.403  1.00  0.00     0.002 A 
ATOM     27  C   UNL A   1      33.751  17.805  23.369  1.00  0.00     0.026 A 
ENDBRANCH  15  21
ENDBRANCH   9  14
BRANCH  13  28
ATOM     28  N   UNL A   1      30.535  27.820  23.279  1.00  0.00    -0.320 N 
ATOM     29  C   UNL A   1      30.715  28.973  24.001  1.00  0.00     0.258 C 
ATOM     30  H   UNL A   1      30.088  27.940  22.410  1.00  0.00     0.170 HD
ATOM     31  O   UNL A   1      30.029  29.966  23.760  1.00  0.00    -0.269 OA
BRANCH  29  32
ATOM     32  C   UNL A   1      31.802  29.092  24.997  1.00  0.00     0.075 A 
ATOM     33  C   UNL A   1      31.455  29.194  26.350  1.00  0.00     0.017 A 
ATOM     34  C   UNL A   1      33.141  29.225  24.625  1.00  0.00     0.135 A 
ATOM     35  C   UNL A   1      32.450  29.367  27.316  1.00  0.00     0.001 A 
ATOM     36  C   UNL A   1      34.136  29.370  25.587  1.00  0.00     0.040 A 
ATOM     37  F   UNL A   1      33.510  29.259  23.337  1.00  0.00    -0.206 F 
ATOM     38  C   UNL A   1      33.791  29.437  26.935  1.00  0.00     0.003 A 
ENDBRANCH  29  32
ENDBRANCH  13  28
ENDBRANCH   5   8
ENDBRANCH   3   4
ENDBRANCH   2   3
ENDBRANCH   1   2
BRANCH   1  39
ATOM     39  C   UNL A   1      38.459  22.401  25.646  1.00  0.00     0.116 C 
BRANCH  39  40
ATOM     40  N   UNL A   1      39.502  22.093  26.610  1.00  0.00    -0.352 N 
ATOM     41  C   UNL A   1      40.620  22.918  26.783  1.00  0.00     0.251 C 
ATOM     42  H   UNL A   1      39.421  21.279  27.158  1.00  0.00     0.163 HD
ATOM     43  O   UNL A   1      41.761  22.541  26.795  1.00  0.00    -0.269 OA
BRANCH  41  44
ATOM     44  C   UNL A   1      40.276  24.340  27.038  1.00  0.00     0.039 A 
ATOM     45  C   UNL A   1      40.815  25.316  26.195  1.00  0.00     0.014 A 
ATOM     46  C   UNL A   1      39.721  24.669  28.271  1.00  0.00     0.014 A 
ATOM     47  C   UNL A   1      40.975  26.611  26.675  1.00  0.00     0.010 A 
ATOM     48  C   UNL A   1      39.979  25.918  28.784  1.00  0.00     0.010 A 
ATOM     49  C   UNL A   1      40.647  26.871  28.002  1.00  0.00    -0.014 A 
BRANCH  49  50
ATOM     50  C   UNL A   1      40.966  28.098  28.710  1.00  0.00     0.031 A 
ATOM     51  C   UNL A   1      39.960  29.177  28.730  1.00  0.00     0.074 A 
ATOM     52  C   UNL A   1      42.068  28.142  29.486  1.00  0.00     0.049 A 
ATOM     53  N   UNL A   1      40.158  30.358  29.201  1.00  0.00    -0.248 NA
ATOM     54  C   UNL A   1      38.628  29.009  28.147  1.00  0.00     0.031 C 
ATOM     55  C   UNL A   1      42.365  29.062  30.580  1.00  0.00     0.029 A 
ATOM     56  N   UNL A   1      43.264  27.472  29.286  1.00  0.00    -0.354 N 
ATOM     57  C   UNL A   1      38.932  30.976  29.284  1.00  0.00     0.074 A 
ATOM     58  C   UNL A   1      38.040  30.149  28.512  1.00  0.00     0.031 C 
ATOM     59  C   UNL A   1      43.692  29.069  30.795  1.00  0.00     0.029 A 
ATOM     60  C   UNL A   1      44.306  28.294  29.728  1.00  0.00     0.049 A 
ATOM     61  H   UNL A   1      43.363  26.573  28.899  1.00  0.00     0.167 HD
ATOM     62  C   UNL A   1      38.793  32.033  30.132  1.00  0.00     0.031 A 
ATOM     63  C   UNL A   1      45.188  28.820  28.822  1.00  0.00     0.031 A 
ATOM     64  C   UNL A   1      40.105  32.517  30.566  1.00  0.00     0.049 A 
ATOM     65  C   UNL A   1      45.083  30.330  28.693  1.00  0.00     0.074 A 
ATOM     66  C   UNL A   1      40.837  32.382  31.734  1.00  0.00     0.029 A 
ATOM     67  N   UNL A   1      40.998  32.967  29.596  1.00  0.00    -0.354 N 
ATOM     68  N   UNL A   1      44.056  31.038  29.080  1.00  0.00    -0.248 NA
ATOM     69  C   UNL A   1      46.149  31.163  28.143  1.00  0.00     0.031 C 
ATOM     70  C   UNL A   1      42.206  32.622  31.418  1.00  0.00     0.029 A 
ATOM     71  C   UNL A   1      42.295  32.953  30.075  1.00  0.00     0.049 A 
ATOM     72  H   UNL A   1      40.741  33.256  28.691  1.00  0.00     0.167 HD
ATOM     73  C   UNL A   1      44.300  32.371  28.875  1.00  0.00     0.074 A 
ATOM     74  C   UNL A   1      45.632  32.396  28.293  1.00  0.00     0.031 C 
ATOM     75  C   UNL A   1      43.401  33.349  29.206  1.00  0.00     0.031 A 
BRANCH  62  76
ATOM     76  C   UNL A   1      37.473  32.435  30.764  1.00  0.00    -0.014 A 
ATOM     77  C   UNL A   1      36.610  33.314  30.076  1.00  0.00     0.010 A 
ATOM     78  C   UNL A   1      37.069  32.085  32.068  1.00  0.00     0.010 A 
ATOM     79  C   UNL A   1      35.453  33.848  30.675  1.00  0.00     0.020 A 
ATOM     80  C   UNL A   1      35.921  32.608  32.681  1.00  0.00     0.020 A 
ATOM     81  C   UNL A   1      35.123  33.502  31.984  1.00  0.00     0.054 A 
BRANCH  81  82
ATOM     82  S   UNL A   1      33.662  34.229  32.769  1.00  0.00     0.124 S 
ATOM     83  O   UNL A   1      32.980  34.858  31.642  1.00  0.00    -0.237 OA
ATOM     84  O   UNL A   1      32.998  33.062  33.341  1.00  0.00    -0.237 OA
ATOM     85  O   UNL A   1      34.222  35.162  33.747  1.00  0.00    -0.744 OA
ENDBRANCH  81  82
ENDBRANCH  62  76
BRANCH  63  86
ATOM     86  C   UNL A   1      45.541  27.856  27.730  1.00  0.00    -0.014 A 
ATOM     87  C   UNL A   1      44.957  28.095  26.464  1.00  0.00     0.010 A 
ATOM     88  C   UNL A   1      46.720  27.091  27.792  1.00  0.00     0.010 A 
ATOM     89  C   UNL A   1      45.646  27.783  25.289  1.00  0.00     0.020 A 
ATOM     90  C   UNL A   1      47.402  26.754  26.608  1.00  0.00     0.020 A 
ATOM     91  C   UNL A   1      46.903  27.186  25.376  1.00  0.00     0.054 A 
BRANCH  91  92
ATOM     92  S   UNL A   1      47.950  27.192  23.885  1.00  0.00     0.124 S 
ATOM     93  O   UNL A   1      47.183  28.027  22.967  1.00  0.00    -0.237 OA
ATOM     94  O   UNL A   1      49.195  27.784  24.387  1.00  0.00    -0.237 OA
ATOM     95  O   UNL A   1      48.037  25.781  23.526  1.00  0.00    -0.744 OA
ENDBRANCH  91  92
ENDBRANCH  63  86
BRANCH  75  96
ATOM     96  C   UNL A   1      43.491  34.808  28.804  1.00  0.00    -0.014 A 
ATOM     97  C   UNL A   1      42.709  35.406  27.804  1.00  0.00     0.010 A 
ATOM     98  C   UNL A   1      44.321  35.674  29.561  1.00  0.00     0.010 A 
ATOM     99  C   UNL A   1      42.799  36.778  27.526  1.00  0.00     0.020 A 
ATOM    100  C   UNL A   1      44.377  37.052  29.331  1.00  0.00     0.020 A 
ATOM    101  C   UNL A   1      43.633  37.593  28.291  1.00  0.00     0.054 A 
BRANCH 101 102
ATOM    102  S   UNL A   1      43.685  39.372  27.968  1.00  0.00     0.124 S 
ATOM    103  O   UNL A   1      42.321  39.776  28.299  1.00  0.00    -0.237 OA
ATOM    104  O   UNL A   1      44.718  39.840  28.890  1.00  0.00    -0.237 OA
ATOM    105  O   UNL A   1      44.039  39.454  26.554  1.00  0.00    -0.744 OA
ENDBRANCH 101 102
ENDBRANCH  75  96
ENDBRANCH  49  50
ENDBRANCH  41  44
ENDBRANCH  39  40
ENDBRANCH   1  39
TORSDOF 18
ENDMDL
