MODEL 1
REMARK VINA RESULT:     -11.6      0.000      0.000
REMARK SMILES Cc1cccc(Nc2ccccc2C(=O)NCCCCNC(=O)c2ccc(-c3c4nc(c(-c5ccc(S(=O)(=O)[O-])cc5)c5ccc([nH]5)c(-c5ccc(S(=O)(=O)[O-])cc5)c5nc(c(-c6ccc(S(=O)(=O)[O-])cc6)c6ccc3[nH]6)C=C5)C=C4)cc2)c1C
REMARK SMILES IDX 19 1 18 2 17 3 16 4 14 5 15 6 13 8 8 9 9 10 10 11 12 12
REMARK SMILES IDX 11 13 7 14 6 16 1 17 2 18 3 19 84 20 4 21 85 22 5 23 20 24
REMARK SMILES IDX 21 25 22 26 23 28 24 29 25 30 83 31 26 32 82 33 27 34 28 35
REMARK SMILES IDX 29 36 76 37 30 38 81 39 75 40 77 41 31 42 80 43 74 44 73 45
REMARK SMILES IDX 32 47 62 48 43 49 61 50 44 51 47 52 60 53 78 54 45 55 46 56
REMARK SMILES IDX 59 58 79 59 48 60 33 61 34 62 42 63 35 64 41 65 36 66 37 67
REMARK SMILES IDX 38 68 39 69 40 70 63 71 64 72 72 73 65 74 71 75 66 76 67 77
REMARK SMILES IDX 68 78 69 79 70 80 49 81 50 82 58 83 51 84 57 85 52 86 53 87
REMARK SMILES IDX 54 88 55 89 56 90
REMARK H PARENT 16 7 7 15 21 27 77 46 47 57
REMARK Flexibility Score: inf
ROOT
ATOM      1  C   UNL A   1      32.334  28.471  26.199  1.00  0.00     0.023 C 
ENDROOT
BRANCH   1   2
ATOM      2  C   UNL A   1      31.309  27.411  26.615  1.00  0.00     0.023 C 
BRANCH   2   3
ATOM      3  C   UNL A   1      31.726  25.954  26.463  1.00  0.00     0.116 C 
BRANCH   3   4
ATOM      4  N   UNL A   1      30.755  24.979  26.894  1.00  0.00    -0.352 N 
ATOM      5  C   UNL A   1      30.627  23.654  26.547  1.00  0.00     0.253 C 
ATOM      6  O   UNL A   1      29.816  22.982  27.193  1.00  0.00    -0.269 OA
ATOM      7  H   UNL A   1      30.084  25.311  27.532  1.00  0.00     0.163 HD
BRANCH   5   8
ATOM      8  C   UNL A   1      31.285  23.013  25.361  1.00  0.00     0.063 A 
ATOM      9  C   UNL A   1      31.098  23.279  23.989  1.00  0.00     0.051 A 
ATOM     10  C   UNL A   1      31.788  22.467  23.053  1.00  0.00     0.027 A 
ATOM     11  C   UNL A   1      32.691  21.477  23.441  1.00  0.00     0.002 A 
ATOM     12  C   UNL A   1      32.227  22.019  25.731  1.00  0.00     0.016 A 
ATOM     13  C   UNL A   1      32.930  21.268  24.787  1.00  0.00     0.001 A 
BRANCH   9  14
ATOM     14  N   UNL A   1      30.393  24.354  23.406  1.00  0.00    -0.355 N 
ATOM     15  H   UNL A   1      29.538  24.076  23.004  1.00  0.00     0.167 HD
BRANCH  14  16
ATOM     16  C   UNL A   1      30.640  25.734  23.273  1.00  0.00     0.042 A 
ATOM     17  C   UNL A   1      28.987  29.183  23.046  1.00  0.00     0.044 C 
ATOM     18  C   UNL A   1      30.006  28.074  23.007  1.00  0.00    -0.046 A 
ATOM     19  C   UNL A   1      31.306  28.378  22.577  1.00  0.00     0.004 A 
ATOM     20  C   UNL A   1      29.678  26.754  23.415  1.00  0.00    -0.025 A 
ATOM     21  C   UNL A   1      32.283  27.394  22.536  1.00  0.00     0.002 A 
ATOM     22  C   UNL A   1      28.330  26.497  24.038  1.00  0.00     0.047 C 
ATOM     23  C   UNL A   1      31.950  26.088  22.879  1.00  0.00     0.026 A 
ENDBRANCH  14  16
ENDBRANCH   9  14
ENDBRANCH   5   8
ENDBRANCH   3   4
ENDBRANCH   2   3
ENDBRANCH   1   2
BRANCH   1  24
ATOM     24  C   UNL A   1      33.492  28.763  27.157  1.00  0.00     0.116 C 
BRANCH  24  25
ATOM     25  N   UNL A   1      33.500  30.105  27.720  1.00  0.00    -0.352 N 
ATOM     26  C   UNL A   1      34.539  30.801  28.304  1.00  0.00     0.251 C 
ATOM     27  H   UNL A   1      32.641  30.585  27.680  1.00  0.00     0.163 HD
ATOM     28  O   UNL A   1      34.359  31.946  28.696  1.00  0.00    -0.269 OA
BRANCH  26  29
ATOM     29  C   UNL A   1      35.856  30.147  28.500  1.00  0.00     0.039 A 
ATOM     30  C   UNL A   1      36.771  30.161  27.442  1.00  0.00     0.014 A 
ATOM     31  C   UNL A   1      36.207  29.557  29.717  1.00  0.00     0.014 A 
ATOM     32  C   UNL A   1      38.068  29.677  27.639  1.00  0.00     0.010 A 
ATOM     33  C   UNL A   1      37.520  29.131  29.930  1.00  0.00     0.010 A 
ATOM     34  C   UNL A   1      38.471  29.205  28.901  1.00  0.00    -0.014 A 
BRANCH  34  35
ATOM     35  C   UNL A   1      39.896  28.861  29.158  1.00  0.00     0.031 A 
ATOM     36  C   UNL A   1      40.844  29.865  29.758  1.00  0.00     0.074 A 
ATOM     37  C   UNL A   1      40.355  27.644  28.796  1.00  0.00     0.049 A 
ATOM     38  N   UNL A   1      42.106  29.718  30.072  1.00  0.00    -0.248 NA
ATOM     39  C   UNL A   1      40.318  31.216  30.015  1.00  0.00     0.031 C 
ATOM     40  C   UNL A   1      39.564  26.605  28.128  1.00  0.00     0.029 A 
ATOM     41  N   UNL A   1      41.595  27.073  28.932  1.00  0.00    -0.354 N 
ATOM     42  C   UNL A   1      42.529  30.954  30.549  1.00  0.00     0.074 A 
ATOM     43  C   UNL A   1      41.398  31.852  30.448  1.00  0.00     0.031 C 
ATOM     44  C   UNL A   1      40.330  25.519  27.938  1.00  0.00     0.029 A 
ATOM     45  C   UNL A   1      41.670  25.787  28.447  1.00  0.00     0.049 A 
ATOM     46  H   UNL A   1      42.360  27.540  29.339  1.00  0.00     0.167 HD
ATOM     47  C   UNL A   1      43.740  31.305  31.041  1.00  0.00     0.031 A 
ATOM     48  C   UNL A   1      42.698  24.916  28.419  1.00  0.00     0.031 A 
ATOM     49  C   UNL A   1      44.859  30.406  31.165  1.00  0.00     0.049 A 
ATOM     50  C   UNL A   1      44.016  25.316  29.026  1.00  0.00     0.074 A 
ATOM     51  C   UNL A   1      46.098  30.648  31.735  1.00  0.00     0.029 A 
ATOM     52  N   UNL A   1      44.880  29.097  30.708  1.00  0.00    -0.354 N 
ATOM     53  N   UNL A   1      44.357  26.456  29.577  1.00  0.00    -0.248 NA
ATOM     54  C   UNL A   1      45.079  24.300  29.031  1.00  0.00     0.031 C 
ATOM     55  C   UNL A   1      46.884  29.502  31.581  1.00  0.00     0.029 A 
ATOM     56  C   UNL A   1      46.116  28.528  30.964  1.00  0.00     0.049 A 
ATOM     57  H   UNL A   1      44.128  28.641  30.268  1.00  0.00     0.167 HD
ATOM     58  C   UNL A   1      45.666  26.285  30.016  1.00  0.00     0.074 A 
ATOM     59  C   UNL A   1      46.043  24.925  29.691  1.00  0.00     0.031 C 
ATOM     60  C   UNL A   1      46.483  27.176  30.632  1.00  0.00     0.031 A 
BRANCH  47  61
ATOM     61  C   UNL A   1      43.932  32.727  31.499  1.00  0.00    -0.014 A 
ATOM     62  C   UNL A   1      44.280  33.741  30.587  1.00  0.00     0.010 A 
ATOM     63  C   UNL A   1      43.673  33.070  32.838  1.00  0.00     0.010 A 
ATOM     64  C   UNL A   1      44.387  35.068  31.012  1.00  0.00     0.020 A 
ATOM     65  C   UNL A   1      43.755  34.401  33.262  1.00  0.00     0.020 A 
ATOM     66  C   UNL A   1      44.119  35.390  32.347  1.00  0.00     0.054 A 
BRANCH  66  67
ATOM     67  S   UNL A   1      44.203  37.129  32.855  1.00  0.00     0.124 S 
ATOM     68  O   UNL A   1      42.963  37.283  33.611  1.00  0.00    -0.237 OA
ATOM     69  O   UNL A   1      45.430  37.172  33.647  1.00  0.00    -0.237 OA
ATOM     70  O   UNL A   1      44.257  37.858  31.590  1.00  0.00    -0.744 OA
ENDBRANCH  66  67
ENDBRANCH  47  61
BRANCH  48  71
ATOM     71  C   UNL A   1      42.527  23.568  27.808  1.00  0.00    -0.014 A 
ATOM     72  C   UNL A   1      42.116  22.471  28.588  1.00  0.00     0.010 A 
ATOM     73  C   UNL A   1      42.801  23.369  26.443  1.00  0.00     0.010 A 
ATOM     74  C   UNL A   1      42.023  21.195  28.025  1.00  0.00     0.020 A 
ATOM     75  C   UNL A   1      42.680  22.101  25.869  1.00  0.00     0.020 A 
ATOM     76  C   UNL A   1      42.311  21.018  26.669  1.00  0.00     0.054 A 
BRANCH  76  77
ATOM     77  S   UNL A   1      42.168  19.358  25.949  1.00  0.00     0.124 S 
ATOM     78  O   UNL A   1      42.685  18.517  27.024  1.00  0.00    -0.237 OA
ATOM     79  O   UNL A   1      40.735  19.246  25.691  1.00  0.00    -0.237 OA
ATOM     80  O   UNL A   1      43.005  19.433  24.753  1.00  0.00    -0.744 OA
ENDBRANCH  76  77
ENDBRANCH  48  71
BRANCH  60  81
ATOM     81  C   UNL A   1      47.854  26.691  31.022  1.00  0.00    -0.014 A 
ATOM     82  C   UNL A   1      48.099  26.139  32.292  1.00  0.00     0.010 A 
ATOM     83  C   UNL A   1      48.911  26.783  30.100  1.00  0.00     0.010 A 
ATOM     84  C   UNL A   1      49.390  25.742  32.653  1.00  0.00     0.020 A 
ATOM     85  C   UNL A   1      50.197  26.361  30.445  1.00  0.00     0.020 A 
ATOM     86  C   UNL A   1      50.433  25.866  31.731  1.00  0.00     0.054 A 
BRANCH  86  87
ATOM     87  S   UNL A   1      52.102  25.351  32.219  1.00  0.00     0.124 S 
ATOM     88  O   UNL A   1      52.913  25.878  31.124  1.00  0.00    -0.237 OA
ATOM     89  O   UNL A   1      52.281  26.012  33.509  1.00  0.00    -0.237 OA
ATOM     90  O   UNL A   1      52.010  23.895  32.281  1.00  0.00    -0.744 OA
ENDBRANCH  86  87
ENDBRANCH  60  81
ENDBRANCH  34  35
ENDBRANCH  26  29
ENDBRANCH  24  25
ENDBRANCH   1  24
TORSDOF 16
ENDMDL
MODEL 2
REMARK VINA RESULT:     -11.4      0.696      8.254
REMARK SMILES Cc1cccc(Nc2ccccc2C(=O)NCCCCNC(=O)c2ccc(-c3c4nc(c(-c5ccc(S(=O)(=O)[O-])cc5)c5ccc([nH]5)c(-c5ccc(S(=O)(=O)[O-])cc5)c5nc(c(-c6ccc(S(=O)(=O)[O-])cc6)c6ccc3[nH]6)C=C5)C=C4)cc2)c1C
REMARK SMILES IDX 19 1 18 2 17 3 16 4 14 5 15 6 13 8 8 9 9 10 10 11 12 12
REMARK SMILES IDX 11 13 7 14 6 16 1 17 2 18 3 19 84 20 4 21 85 22 5 23 20 24
REMARK SMILES IDX 21 25 22 26 23 28 24 29 25 30 83 31 26 32 82 33 27 34 28 35
REMARK SMILES IDX 29 36 76 37 30 38 81 39 75 40 77 41 31 42 80 43 74 44 73 45
REMARK SMILES IDX 32 47 62 48 43 49 61 50 44 51 47 52 60 53 78 54 45 55 46 56
REMARK SMILES IDX 59 58 79 59 48 60 33 61 34 62 42 63 35 64 41 65 36 66 37 67
REMARK SMILES IDX 38 68 39 69 40 70 63 71 64 72 72 73 65 74 71 75 66 76 67 77
REMARK SMILES IDX 68 78 69 79 70 80 49 81 50 82 58 83 51 84 57 85 52 86 53 87
REMARK SMILES IDX 54 88 55 89 56 90
REMARK H PARENT 16 7 7 15 21 27 77 46 47 57
REMARK Flexibility Score: inf
ROOT
ATOM      1  C   UNL A   1      32.424  28.453  26.144  1.00  0.00     0.023 C 
ENDROOT
BRANCH   1   2
ATOM      2  C   UNL A   1      31.451  27.402  26.686  1.00  0.00     0.023 C 
BRANCH   2   3
ATOM      3  C   UNL A   1      31.843  25.942  26.497  1.00  0.00     0.116 C 
BRANCH   3   4
ATOM      4  N   UNL A   1      30.882  24.973  26.963  1.00  0.00    -0.352 N 
ATOM      5  C   UNL A   1      30.733  23.648  26.622  1.00  0.00     0.253 C 
ATOM      6  O   UNL A   1      29.942  22.982  27.297  1.00  0.00    -0.269 OA
ATOM      7  H   UNL A   1      30.236  25.309  27.625  1.00  0.00     0.163 HD
BRANCH   5   8
ATOM      8  C   UNL A   1      31.344  23.003  25.413  1.00  0.00     0.063 A 
ATOM      9  C   UNL A   1      31.099  23.261  24.048  1.00  0.00     0.051 A 
ATOM     10  C   UNL A   1      31.753  22.446  23.089  1.00  0.00     0.027 A 
ATOM     11  C   UNL A   1      32.674  21.461  23.444  1.00  0.00     0.002 A 
ATOM     12  C   UNL A   1      32.302  22.014  25.749  1.00  0.00     0.016 A 
ATOM     13  C   UNL A   1      32.968  21.260  24.781  1.00  0.00     0.001 A 
BRANCH   9  14
ATOM     14  N   UNL A   1      30.367  24.331  23.490  1.00  0.00    -0.355 N 
ATOM     15  H   UNL A   1      29.490  24.052  23.140  1.00  0.00     0.167 HD
BRANCH  14  16
ATOM     16  C   UNL A   1      30.612  25.708  23.322  1.00  0.00     0.042 A 
ATOM     17  C   UNL A   1      28.953  29.146  23.000  1.00  0.00     0.044 C 
ATOM     18  C   UNL A   1      29.975  28.039  22.995  1.00  0.00    -0.046 A 
ATOM     19  C   UNL A   1      31.277  28.335  22.563  1.00  0.00     0.004 A 
ATOM     20  C   UNL A   1      29.648  26.729  23.434  1.00  0.00    -0.025 A 
ATOM     21  C   UNL A   1      32.256  27.352  22.552  1.00  0.00     0.002 A 
ATOM     22  C   UNL A   1      28.297  26.485  24.057  1.00  0.00     0.047 C 
ATOM     23  C   UNL A   1      31.924  26.055  22.927  1.00  0.00     0.026 A 
ENDBRANCH  14  16
ENDBRANCH   9  14
ENDBRANCH   5   8
ENDBRANCH   3   4
ENDBRANCH   2   3
ENDBRANCH   1   2
BRANCH   1  24
ATOM     24  C   UNL A   1      33.660  28.788  26.983  1.00  0.00     0.116 C 
BRANCH  24  25
ATOM     25  N   UNL A   1      33.617  30.079  27.653  1.00  0.00    -0.352 N 
ATOM     26  C   UNL A   1      34.623  30.757  28.310  1.00  0.00     0.251 C 
ATOM     27  H   UNL A   1      32.744  30.535  27.635  1.00  0.00     0.163 HD
ATOM     28  O   UNL A   1      34.402  31.860  28.790  1.00  0.00    -0.269 OA
BRANCH  26  29
ATOM     29  C   UNL A   1      35.957  30.128  28.478  1.00  0.00     0.039 A 
ATOM     30  C   UNL A   1      36.874  30.219  27.426  1.00  0.00     0.014 A 
ATOM     31  C   UNL A   1      36.320  29.486  29.665  1.00  0.00     0.014 A 
ATOM     32  C   UNL A   1      38.183  29.760  27.603  1.00  0.00     0.010 A 
ATOM     33  C   UNL A   1      37.643  29.085  29.862  1.00  0.00     0.010 A 
ATOM     34  C   UNL A   1      38.595  29.236  28.841  1.00  0.00    -0.014 A 
BRANCH  34  35
ATOM     35  C   UNL A   1      40.028  28.916  29.086  1.00  0.00     0.031 A 
ATOM     36  C   UNL A   1      40.607  27.585  28.687  1.00  0.00     0.074 A 
ATOM     37  C   UNL A   1      40.802  29.816  29.727  1.00  0.00     0.049 A 
ATOM     38  N   UNL A   1      41.840  27.158  28.803  1.00  0.00    -0.248 NA
ATOM     39  C   UNL A   1      39.684  26.596  28.107  1.00  0.00     0.031 C 
ATOM     40  C   UNL A   1      40.346  31.111  30.244  1.00  0.00     0.029 A 
ATOM     41  N   UNL A   1      42.134  29.784  30.058  1.00  0.00    -0.354 N 
ATOM     42  C   UNL A   1      41.839  25.852  28.326  1.00  0.00     0.074 A 
ATOM     43  C   UNL A   1      40.475  25.542  27.954  1.00  0.00     0.031 C 
ATOM     44  C   UNL A   1      41.384  31.755  30.801  1.00  0.00     0.029 A 
ATOM     45  C   UNL A   1      42.573  30.917  30.704  1.00  0.00     0.049 A 
ATOM     46  H   UNL A   1      42.721  29.020  29.853  1.00  0.00     0.167 HD
ATOM     47  C   UNL A   1      42.880  24.996  28.194  1.00  0.00     0.031 A 
ATOM     48  C   UNL A   1      43.796  31.251  31.163  1.00  0.00     0.031 A 
ATOM     49  C   UNL A   1      44.241  25.311  28.542  1.00  0.00     0.049 A 
ATOM     50  C   UNL A   1      44.944  30.301  30.949  1.00  0.00     0.074 A 
ATOM     51  C   UNL A   1      45.377  24.539  28.359  1.00  0.00     0.029 A 
ATOM     52  N   UNL A   1      44.653  26.488  29.147  1.00  0.00    -0.354 N 
ATOM     53  N   UNL A   1      44.939  29.116  30.389  1.00  0.00    -0.248 NA
ATOM     54  C   UNL A   1      46.267  30.749  31.406  1.00  0.00     0.031 C 
ATOM     55  C   UNL A   1      46.468  25.228  28.896  1.00  0.00     0.029 A 
ATOM     56  C   UNL A   1      46.021  26.453  29.364  1.00  0.00     0.049 A 
ATOM     57  H   UNL A   1      44.063  27.237  29.386  1.00  0.00     0.167 HD
ATOM     58  C   UNL A   1      46.262  28.687  30.405  1.00  0.00     0.074 A 
ATOM     59  C   UNL A   1      47.041  29.751  31.004  1.00  0.00     0.031 C 
ATOM     60  C   UNL A   1      46.785  27.515  29.965  1.00  0.00     0.031 A 
BRANCH  47  61
ATOM     61  C   UNL A   1      42.599  23.623  27.640  1.00  0.00    -0.014 A 
ATOM     62  C   UNL A   1      42.848  23.323  26.288  1.00  0.00     0.010 A 
ATOM     63  C   UNL A   1      42.167  22.598  28.501  1.00  0.00     0.010 A 
ATOM     64  C   UNL A   1      42.649  22.026  25.803  1.00  0.00     0.020 A 
ATOM     65  C   UNL A   1      41.990  21.295  28.025  1.00  0.00     0.020 A 
ATOM     66  C   UNL A   1      42.224  21.020  26.677  1.00  0.00     0.054 A 
BRANCH  66  67
ATOM     67  S   UNL A   1      42.036  19.334  26.033  1.00  0.00     0.124 S 
ATOM     68  O   UNL A   1      42.889  19.367  24.847  1.00  0.00    -0.237 OA
ATOM     69  O   UNL A   1      42.528  18.513  27.137  1.00  0.00    -0.237 OA
ATOM     70  O   UNL A   1      40.604  19.222  25.768  1.00  0.00    -0.744 OA
ENDBRANCH  66  67
ENDBRANCH  47  61
BRANCH  48  71
ATOM     71  C   UNL A   1      44.010  32.550  31.858  1.00  0.00    -0.014 A 
ATOM     72  C   UNL A   1      44.357  33.706  31.134  1.00  0.00     0.010 A 
ATOM     73  C   UNL A   1      43.894  32.632  33.257  1.00  0.00     0.010 A 
ATOM     74  C   UNL A   1      44.624  34.906  31.798  1.00  0.00     0.020 A 
ATOM     75  C   UNL A   1      44.131  33.838  33.923  1.00  0.00     0.020 A 
ATOM     76  C   UNL A   1      44.514  34.963  33.190  1.00  0.00     0.054 A 
BRANCH  76  77
ATOM     77  S   UNL A   1      44.848  36.533  34.036  1.00  0.00     0.124 S 
ATOM     78  O   UNL A   1      43.897  36.489  35.142  1.00  0.00    -0.237 OA
ATOM     79  O   UNL A   1      46.256  36.403  34.405  1.00  0.00    -0.237 OA
ATOM     80  O   UNL A   1      44.571  37.537  33.010  1.00  0.00    -0.744 OA
ENDBRANCH  76  77
ENDBRANCH  48  71
BRANCH  60  81
ATOM     81  C   UNL A   1      48.276  27.342  30.087  1.00  0.00    -0.014 A 
ATOM     82  C   UNL A   1      49.142  27.717  29.043  1.00  0.00     0.010 A 
ATOM     83  C   UNL A   1      48.818  26.802  31.266  1.00  0.00     0.010 A 
ATOM     84  C   UNL A   1      50.518  27.501  29.156  1.00  0.00     0.020 A 
ATOM     85  C   UNL A   1      50.196  26.612  31.395  1.00  0.00     0.020 A 
ATOM     86  C   UNL A   1      51.035  26.939  30.327  1.00  0.00     0.054 A 
BRANCH  86  87
ATOM     87  S   UNL A   1      52.822  26.661  30.452  1.00  0.00     0.124 S 
ATOM     88  O   UNL A   1      53.173  26.322  29.075  1.00  0.00    -0.237 OA
ATOM     89  O   UNL A   1      53.318  27.949  30.928  1.00  0.00    -0.237 OA
ATOM     90  O   UNL A   1      52.936  25.565  31.412  1.00  0.00    -0.744 OA
ENDBRANCH  86  87
ENDBRANCH  60  81
ENDBRANCH  34  35
ENDBRANCH  26  29
ENDBRANCH  24  25
ENDBRANCH   1  24
TORSDOF 16
ENDMDL
MODEL 3
REMARK VINA RESULT:     -11.2      4.674     10.275
REMARK SMILES Cc1cccc(Nc2ccccc2C(=O)NCCCCNC(=O)c2ccc(-c3c4nc(c(-c5ccc(S(=O)(=O)[O-])cc5)c5ccc([nH]5)c(-c5ccc(S(=O)(=O)[O-])cc5)c5nc(c(-c6ccc(S(=O)(=O)[O-])cc6)c6ccc3[nH]6)C=C5)C=C4)cc2)c1C
REMARK SMILES IDX 19 1 18 2 17 3 16 4 14 5 15 6 13 8 8 9 9 10 10 11 12 12
REMARK SMILES IDX 11 13 7 14 6 16 1 17 2 18 3 19 84 20 4 21 85 22 5 23 20 24
REMARK SMILES IDX 21 25 22 26 23 28 24 29 25 30 83 31 26 32 82 33 27 34 28 35
REMARK SMILES IDX 29 36 76 37 30 38 81 39 75 40 77 41 31 42 80 43 74 44 73 45
REMARK SMILES IDX 32 47 62 48 43 49 61 50 44 51 47 52 60 53 78 54 45 55 46 56
REMARK SMILES IDX 59 58 79 59 48 60 33 61 34 62 42 63 35 64 41 65 36 66 37 67
REMARK SMILES IDX 38 68 39 69 40 70 63 71 64 72 72 73 65 74 71 75 66 76 67 77
REMARK SMILES IDX 68 78 69 79 70 80 49 81 50 82 58 83 51 84 57 85 52 86 53 87
REMARK SMILES IDX 54 88 55 89 56 90
REMARK H PARENT 16 7 7 15 21 27 77 46 47 57
REMARK Flexibility Score: inf
ROOT
ATOM      1  C   UNL A   1      39.977  22.510  26.855  1.00  0.00     0.023 C 
ENDROOT
BRANCH   1   2
ATOM      2  C   UNL A   1      38.755  23.313  26.400  1.00  0.00     0.023 C 
BRANCH   2   3
ATOM      3  C   UNL A   1      37.601  22.525  25.795  1.00  0.00     0.116 C 
BRANCH   3   4
ATOM      4  N   UNL A   1      37.346  22.768  24.397  1.00  0.00    -0.352 N 
ATOM      5  C   UNL A   1      36.158  22.737  23.702  1.00  0.00     0.253 C 
ATOM      6  O   UNL A   1      36.178  23.158  22.541  1.00  0.00    -0.269 OA
ATOM      7  H   UNL A   1      38.139  22.989  23.859  1.00  0.00     0.163 HD
BRANCH   5   8
ATOM      8  C   UNL A   1      34.894  22.099  24.198  1.00  0.00     0.063 A 
ATOM      9  C   UNL A   1      33.597  22.646  24.283  1.00  0.00     0.051 A 
ATOM     10  C   UNL A   1      32.578  21.854  24.874  1.00  0.00     0.027 A 
ATOM     11  C   UNL A   1      32.797  20.544  25.297  1.00  0.00     0.002 A 
ATOM     12  C   UNL A   1      35.086  20.757  24.612  1.00  0.00     0.016 A 
ATOM     13  C   UNL A   1      34.053  19.984  25.143  1.00  0.00     0.001 A 
BRANCH   9  14
ATOM     14  N   UNL A   1      33.134  23.861  23.734  1.00  0.00    -0.355 N 
ATOM     15  H   UNL A   1      32.592  23.731  22.923  1.00  0.00     0.167 HD
BRANCH  14  16
ATOM     16  C   UNL A   1      33.275  25.217  24.090  1.00  0.00     0.042 A 
ATOM     17  C   UNL A   1      34.034  28.723  22.745  1.00  0.00     0.044 C 
ATOM     18  C   UNL A   1      33.788  27.565  23.677  1.00  0.00    -0.046 A 
ATOM     19  C   UNL A   1      33.928  27.778  25.057  1.00  0.00     0.004 A 
ATOM     20  C   UNL A   1      33.402  26.290  23.186  1.00  0.00    -0.025 A 
ATOM     21  C   UNL A   1      33.700  26.745  25.956  1.00  0.00     0.002 A 
ATOM     22  C   UNL A   1      33.088  26.139  21.719  1.00  0.00     0.047 C 
ATOM     23  C   UNL A   1      33.379  25.481  25.474  1.00  0.00     0.026 A 
ENDBRANCH  14  16
ENDBRANCH   9  14
ENDBRANCH   5   8
ENDBRANCH   3   4
ENDBRANCH   2   3
ENDBRANCH   1   2
BRANCH   1  24
ATOM     24  C   UNL A   1      41.327  23.229  26.916  1.00  0.00     0.116 C 
BRANCH  24  25
ATOM     25  N   UNL A   1      41.546  24.215  25.868  1.00  0.00    -0.352 N 
ATOM     26  C   UNL A   1      41.709  25.581  25.973  1.00  0.00     0.251 C 
ATOM     27  H   UNL A   1      41.583  23.856  24.952  1.00  0.00     0.163 HD
ATOM     28  O   UNL A   1      41.916  26.248  24.969  1.00  0.00    -0.269 OA
BRANCH  26  29
ATOM     29  C   UNL A   1      41.584  26.245  27.294  1.00  0.00     0.039 A 
ATOM     30  C   UNL A   1      42.600  27.116  27.701  1.00  0.00     0.014 A 
ATOM     31  C   UNL A   1      40.468  26.047  28.111  1.00  0.00     0.014 A 
ATOM     32  C   UNL A   1      42.447  27.862  28.874  1.00  0.00     0.010 A 
ATOM     33  C   UNL A   1      40.289  26.838  29.248  1.00  0.00     0.010 A 
ATOM     34  C   UNL A   1      41.266  27.769  29.631  1.00  0.00    -0.014 A 
BRANCH  34  35
ATOM     35  C   UNL A   1      41.028  28.693  30.775  1.00  0.00     0.031 A 
ATOM     36  C   UNL A   1      41.830  28.583  32.044  1.00  0.00     0.074 A 
ATOM     37  C   UNL A   1      40.037  29.606  30.687  1.00  0.00     0.049 A 
ATOM     38  N   UNL A   1      41.769  29.325  33.121  1.00  0.00    -0.248 NA
ATOM     39  C   UNL A   1      42.810  27.488  32.128  1.00  0.00     0.031 C 
ATOM     40  C   UNL A   1      39.128  29.763  29.547  1.00  0.00     0.029 A 
ATOM     41  N   UNL A   1      39.624  30.572  31.570  1.00  0.00    -0.354 N 
ATOM     42  C   UNL A   1      42.685  28.781  34.013  1.00  0.00     0.074 A 
ATOM     43  C   UNL A   1      43.264  27.623  33.367  1.00  0.00     0.031 C 
ATOM     44  C   UNL A   1      38.285  30.779  29.791  1.00  0.00     0.029 A 
ATOM     45  C   UNL A   1      38.573  31.333  31.108  1.00  0.00     0.049 A 
ATOM     46  H   UNL A   1      40.040  30.708  32.452  1.00  0.00     0.167 HD
ATOM     47  C   UNL A   1      43.027  29.216  35.250  1.00  0.00     0.031 A 
ATOM     48  C   UNL A   1      37.919  32.365  31.676  1.00  0.00     0.031 A 
ATOM     49  C   UNL A   1      42.468  30.382  35.885  1.00  0.00     0.049 A 
ATOM     50  C   UNL A   1      38.360  32.860  33.027  1.00  0.00     0.074 A 
ATOM     51  C   UNL A   1      42.818  30.950  37.099  1.00  0.00     0.029 A 
ATOM     52  N   UNL A   1      41.443  31.155  35.364  1.00  0.00    -0.354 N 
ATOM     53  N   UNL A   1      39.310  32.399  33.803  1.00  0.00    -0.248 NA
ATOM     54  C   UNL A   1      37.656  34.033  33.564  1.00  0.00     0.031 C 
ATOM     55  C   UNL A   1      41.972  32.039  37.334  1.00  0.00     0.029 A 
ATOM     56  C   UNL A   1      41.132  32.181  36.241  1.00  0.00     0.049 A 
ATOM     57  H   UNL A   1      41.001  30.999  34.499  1.00  0.00     0.167 HD
ATOM     58  C   UNL A   1      39.334  33.242  34.910  1.00  0.00     0.074 A 
ATOM     59  C   UNL A   1      38.323  34.254  34.688  1.00  0.00     0.031 C 
ATOM     60  C   UNL A   1      40.122  33.180  36.012  1.00  0.00     0.031 A 
BRANCH  47  61
ATOM     61  C   UNL A   1      44.064  28.434  36.011  1.00  0.00    -0.014 A 
ATOM     62  C   UNL A   1      43.716  27.273  36.727  1.00  0.00     0.010 A 
ATOM     63  C   UNL A   1      45.417  28.812  35.937  1.00  0.00     0.010 A 
ATOM     64  C   UNL A   1      44.700  26.518  37.372  1.00  0.00     0.020 A 
ATOM     65  C   UNL A   1      46.407  28.045  36.561  1.00  0.00     0.020 A 
ATOM     66  C   UNL A   1      46.041  26.907  37.281  1.00  0.00     0.054 A 
BRANCH  66  67
ATOM     67  S   UNL A   1      47.302  25.873  38.075  1.00  0.00     0.124 S 
ATOM     68  O   UNL A   1      47.007  26.072  39.492  1.00  0.00    -0.237 OA
ATOM     69  O   UNL A   1      46.999  24.542  37.553  1.00  0.00    -0.237 OA
ATOM     70  O   UNL A   1      48.563  26.447  37.613  1.00  0.00    -0.744 OA
ENDBRANCH  66  67
ENDBRANCH  47  61
BRANCH  48  71
ATOM     71  C   UNL A   1      36.782  33.016  30.967  1.00  0.00    -0.014 A 
ATOM     72  C   UNL A   1      37.014  33.906  29.901  1.00  0.00     0.010 A 
ATOM     73  C   UNL A   1      35.459  32.769  31.373  1.00  0.00     0.010 A 
ATOM     74  C   UNL A   1      35.948  34.568  29.285  1.00  0.00     0.020 A 
ATOM     75  C   UNL A   1      34.388  33.405  30.739  1.00  0.00     0.020 A 
ATOM     76  C   UNL A   1      34.641  34.316  29.712  1.00  0.00     0.054 A 
BRANCH  76  77
ATOM     77  S   UNL A   1      33.267  35.169  28.890  1.00  0.00     0.124 S 
ATOM     78  O   UNL A   1      32.456  35.601  30.024  1.00  0.00    -0.237 OA
ATOM     79  O   UNL A   1      33.947  36.235  28.156  1.00  0.00    -0.237 OA
ATOM     80  O   UNL A   1      32.673  34.129  28.052  1.00  0.00    -0.744 OA
ENDBRANCH  76  77
ENDBRANCH  48  71
BRANCH  60  81
ATOM     81  C   UNL A   1      39.939  34.261  37.045  1.00  0.00    -0.014 A 
ATOM     82  C   UNL A   1      39.089  34.078  38.151  1.00  0.00     0.010 A 
ATOM     83  C   UNL A   1      40.635  35.475  36.909  1.00  0.00     0.010 A 
ATOM     84  C   UNL A   1      38.894  35.113  39.070  1.00  0.00     0.020 A 
ATOM     85  C   UNL A   1      40.466  36.501  37.842  1.00  0.00     0.020 A 
ATOM     86  C   UNL A   1      39.576  36.322  38.903  1.00  0.00     0.054 A 
BRANCH  86  87
ATOM     87  S   UNL A   1      39.306  37.654  40.103  1.00  0.00     0.124 S 
ATOM     88  O   UNL A   1      38.987  36.907  41.318  1.00  0.00    -0.237 OA
ATOM     89  O   UNL A   1      40.590  38.349  40.111  1.00  0.00    -0.237 OA
ATOM     90  O   UNL A   1      38.198  38.416  39.532  1.00  0.00    -0.744 OA
ENDBRANCH  86  87
ENDBRANCH  60  81
ENDBRANCH  34  35
ENDBRANCH  26  29
ENDBRANCH  24  25
ENDBRANCH   1  24
TORSDOF 16
ENDMDL
