MODEL 1
REMARK VINA RESULT:     -10.8      0.000      0.000
REMARK SMILES CC(C)(CC(=O)NCCCCNC(=O)c1ccc(-c2c3nc(c(-c4ccc(S(=O)(=O)[O-])cc4)c4ccc([nH]4)c(-c4ccc(S(=O)(=O)[O-])cc4)c4nc(c(-c5ccc(S(=O)(=O)[O-])cc5)c5ccc2[nH]5)C=C4)C=C3)cc1)c1c(F)cc(F)cc1F
REMARK SMILES IDX 10 1 9 2 8 3 7 4 5 5 6 6 4 8 2 9 1 10 3 11 75 12 76 13 82 14
REMARK SMILES IDX 77 15 78 16 81 17 83 18 79 19 80 20 11 21 12 22 13 23 14 25
REMARK SMILES IDX 15 26 16 27 74 28 17 29 73 30 18 31 19 32 20 33 67 34 21 35
REMARK SMILES IDX 72 36 66 37 68 38 22 39 71 40 65 41 64 42 23 44 53 45 34 46
REMARK SMILES IDX 52 47 35 48 38 49 51 50 69 51 36 52 37 53 50 55 70 56 39 57
REMARK SMILES IDX 24 58 25 59 33 60 26 61 32 62 27 63 28 64 29 65 30 66 31 67
REMARK SMILES IDX 54 68 55 69 63 70 56 71 62 72 57 73 58 74 59 75 60 76 61 77
REMARK SMILES IDX 40 78 41 79 49 80 42 81 48 82 43 83 44 84 45 85 46 86 47 87
REMARK H PARENT 7 7 12 24 68 43 38 54
REMARK Flexibility Score: inf
ROOT
ATOM      1  C   UNL A   1      32.655  27.945  25.906  1.00  0.00     0.023 C 
ENDROOT
BRANCH   1   2
ATOM      2  C   UNL A   1      31.228  27.559  26.278  1.00  0.00     0.023 C 
BRANCH   2   3
ATOM      3  C   UNL A   1      30.732  26.244  25.680  1.00  0.00     0.116 C 
BRANCH   3   4
ATOM      4  N   UNL A   1      30.978  25.147  26.588  1.00  0.00    -0.356 N 
ATOM      5  C   UNL A   1      32.001  24.253  26.619  1.00  0.00     0.220 C 
ATOM      6  O   UNL A   1      31.946  23.352  27.458  1.00  0.00    -0.275 OA
ATOM      7  H   UNL A   1      30.301  25.028  27.292  1.00  0.00     0.163 HD
BRANCH   5   8
ATOM      8  C   UNL A   1      33.197  24.380  25.682  1.00  0.00     0.111 C 
BRANCH   8   9
ATOM      9  C   UNL A   1      33.226  23.474  24.409  1.00  0.00     0.004 C 
ATOM     10  C   UNL A   1      31.789  23.028  24.054  1.00  0.00     0.017 C 
ATOM     11  C   UNL A   1      33.627  24.365  23.197  1.00  0.00     0.017 C 
BRANCH   9  12
ATOM     12  C   UNL A   1      34.245  22.330  24.548  1.00  0.00     0.030 A 
ATOM     13  C   UNL A   1      33.893  20.977  24.680  1.00  0.00     0.132 A 
ATOM     14  C   UNL A   1      35.624  22.614  24.602  1.00  0.00     0.132 A 
ATOM     15  F   UNL A   1      32.614  20.584  24.635  1.00  0.00    -0.206 F 
ATOM     16  C   UNL A   1      34.846  19.974  24.865  1.00  0.00     0.079 A 
ATOM     17  C   UNL A   1      36.589  21.627  24.784  1.00  0.00     0.079 A 
ATOM     18  F   UNL A   1      36.056  23.880  24.490  1.00  0.00    -0.206 F 
ATOM     19  C   UNL A   1      36.187  20.311  24.919  1.00  0.00     0.129 A 
ATOM     20  F   UNL A   1      37.104  19.352  25.097  1.00  0.00    -0.207 F 
ENDBRANCH   9  12
ENDBRANCH   8   9
ENDBRANCH   5   8
ENDBRANCH   3   4
ENDBRANCH   2   3
ENDBRANCH   1   2
BRANCH   1  21
ATOM     21  C   UNL A   1      33.548  28.313  27.079  1.00  0.00     0.116 C 
BRANCH  21  22
ATOM     22  N   UNL A   1      33.433  29.706  27.487  1.00  0.00    -0.352 N 
ATOM     23  C   UNL A   1      34.380  30.508  28.078  1.00  0.00     0.251 C 
ATOM     24  H   UNL A   1      32.560  30.129  27.319  1.00  0.00     0.163 HD
ATOM     25  O   UNL A   1      34.086  31.640  28.448  1.00  0.00    -0.269 OA
BRANCH  23  26
ATOM     26  C   UNL A   1      35.739  29.974  28.296  1.00  0.00     0.039 A 
ATOM     27  C   UNL A   1      36.672  30.056  27.260  1.00  0.00     0.014 A 
ATOM     28  C   UNL A   1      36.105  29.449  29.538  1.00  0.00     0.014 A 
ATOM     29  C   UNL A   1      37.993  29.674  27.495  1.00  0.00     0.010 A 
ATOM     30  C   UNL A   1      37.440  29.161  29.797  1.00  0.00     0.010 A 
ATOM     31  C   UNL A   1      38.395  29.259  28.776  1.00  0.00    -0.014 A 
BRANCH  31  32
ATOM     32  C   UNL A   1      39.808  28.908  29.062  1.00  0.00     0.031 A 
ATOM     33  C   UNL A   1      40.716  29.921  29.707  1.00  0.00     0.074 A 
ATOM     34  C   UNL A   1      40.287  27.705  28.690  1.00  0.00     0.049 A 
ATOM     35  N   UNL A   1      41.984  29.816  30.009  1.00  0.00    -0.248 NA
ATOM     36  C   UNL A   1      40.132  31.235  30.024  1.00  0.00     0.031 C 
ATOM     37  C   UNL A   1      39.522  26.662  27.999  1.00  0.00     0.029 A 
ATOM     38  N   UNL A   1      41.534  27.154  28.842  1.00  0.00    -0.354 N 
ATOM     39  C   UNL A   1      42.351  31.052  30.530  1.00  0.00     0.074 A 
ATOM     40  C   UNL A   1      41.191  31.909  30.446  1.00  0.00     0.031 C 
ATOM     41  C   UNL A   1      40.305  25.585  27.824  1.00  0.00     0.029 A 
ATOM     42  C   UNL A   1      41.633  25.870  28.359  1.00  0.00     0.049 A 
ATOM     43  H   UNL A   1      42.287  27.633  29.257  1.00  0.00     0.167 HD
ATOM     44  C   UNL A   1      43.539  31.432  31.057  1.00  0.00     0.031 A 
ATOM     45  C   UNL A   1      42.673  25.015  28.358  1.00  0.00     0.031 A 
ATOM     46  C   UNL A   1      44.683  30.568  31.163  1.00  0.00     0.049 A 
ATOM     47  C   UNL A   1      43.972  25.446  28.981  1.00  0.00     0.074 A 
ATOM     48  C   UNL A   1      45.913  30.833  31.736  1.00  0.00     0.029 A 
ATOM     49  N   UNL A   1      44.732  29.265  30.691  1.00  0.00    -0.354 N 
ATOM     50  N   UNL A   1      44.279  26.597  29.531  1.00  0.00    -0.248 NA
ATOM     51  C   UNL A   1      45.058  24.458  28.998  1.00  0.00     0.031 C 
ATOM     52  C   UNL A   1      46.721  29.702  31.577  1.00  0.00     0.029 A 
ATOM     53  C   UNL A   1      45.976  28.716  30.949  1.00  0.00     0.049 A 
ATOM     54  H   UNL A   1      43.992  28.799  30.239  1.00  0.00     0.167 HD
ATOM     55  C   UNL A   1      45.586  26.463  29.983  1.00  0.00     0.074 A 
ATOM     56  C   UNL A   1      46.004  25.114  29.657  1.00  0.00     0.031 C 
ATOM     57  C   UNL A   1      46.372  27.372  30.613  1.00  0.00     0.031 A 
BRANCH  44  58
ATOM     58  C   UNL A   1      43.649  32.846  31.563  1.00  0.00    -0.014 A 
ATOM     59  C   UNL A   1      44.113  33.880  30.730  1.00  0.00     0.010 A 
ATOM     60  C   UNL A   1      43.267  33.150  32.882  1.00  0.00     0.010 A 
ATOM     61  C   UNL A   1      44.242  35.181  31.219  1.00  0.00     0.020 A 
ATOM     62  C   UNL A   1      43.368  34.458  33.368  1.00  0.00     0.020 A 
ATOM     63  C   UNL A   1      43.873  35.461  32.538  1.00  0.00     0.054 A 
BRANCH  63  64
ATOM     64  S   UNL A   1      44.037  37.163  33.144  1.00  0.00     0.124 S 
ATOM     65  O   UNL A   1      42.877  37.282  34.023  1.00  0.00    -0.237 OA
ATOM     66  O   UNL A   1      45.334  37.141  33.818  1.00  0.00    -0.237 OA
ATOM     67  O   UNL A   1      43.985  37.971  31.928  1.00  0.00    -0.744 OA
ENDBRANCH  63  64
ENDBRANCH  44  58
BRANCH  45  68
ATOM     68  C   UNL A   1      42.515  23.651  27.785  1.00  0.00    -0.014 A 
ATOM     69  C   UNL A   1      42.972  23.368  26.485  1.00  0.00     0.010 A 
ATOM     70  C   UNL A   1      41.923  22.623  28.541  1.00  0.00     0.010 A 
ATOM     71  C   UNL A   1      42.823  22.087  25.944  1.00  0.00     0.020 A 
ATOM     72  C   UNL A   1      41.795  21.334  28.012  1.00  0.00     0.020 A 
ATOM     73  C   UNL A   1      42.235  21.077  26.711  1.00  0.00     0.054 A 
BRANCH  73  74
ATOM     74  S   UNL A   1      42.101  19.410  26.011  1.00  0.00     0.124 S 
ATOM     75  O   UNL A   1      42.638  18.584  27.088  1.00  0.00    -0.237 OA
ATOM     76  O   UNL A   1      40.666  19.281  25.771  1.00  0.00    -0.237 OA
ATOM     77  O   UNL A   1      42.922  19.480  24.804  1.00  0.00    -0.744 OA
ENDBRANCH  73  74
ENDBRANCH  45  68
BRANCH  57  78
ATOM     78  C   UNL A   1      47.750  26.926  31.016  1.00  0.00    -0.014 A 
ATOM     79  C   UNL A   1      47.970  26.242  32.225  1.00  0.00     0.010 A 
ATOM     80  C   UNL A   1      48.835  27.161  30.152  1.00  0.00     0.010 A 
ATOM     81  C   UNL A   1      49.258  25.837  32.581  1.00  0.00     0.020 A 
ATOM     82  C   UNL A   1      50.120  26.734  30.492  1.00  0.00     0.020 A 
ATOM     83  C   UNL A   1      50.326  26.090  31.714  1.00  0.00     0.054 A 
BRANCH  83  84
ATOM     84  S   UNL A   1      51.986  25.531  32.185  1.00  0.00     0.124 S 
ATOM     85  O   UNL A   1      51.753  24.126  32.505  1.00  0.00    -0.237 OA
ATOM     86  O   UNL A   1      52.765  25.780  30.975  1.00  0.00    -0.237 OA
ATOM     87  O   UNL A   1      52.326  26.382  33.324  1.00  0.00    -0.744 OA
ENDBRANCH  83  84
ENDBRANCH  57  78
ENDBRANCH  31  32
ENDBRANCH  23  26
ENDBRANCH  21  22
ENDBRANCH   1  21
TORSDOF 16
ENDMDL
MODEL 2
REMARK VINA RESULT:     -10.8      0.976      1.735
REMARK SMILES CC(C)(CC(=O)NCCCCNC(=O)c1ccc(-c2c3nc(c(-c4ccc(S(=O)(=O)[O-])cc4)c4ccc([nH]4)c(-c4ccc(S(=O)(=O)[O-])cc4)c4nc(c(-c5ccc(S(=O)(=O)[O-])cc5)c5ccc2[nH]5)C=C4)C=C3)cc1)c1c(F)cc(F)cc1F
REMARK SMILES IDX 10 1 9 2 8 3 7 4 5 5 6 6 4 8 2 9 1 10 3 11 75 12 76 13 82 14
REMARK SMILES IDX 77 15 78 16 81 17 83 18 79 19 80 20 11 21 12 22 13 23 14 25
REMARK SMILES IDX 15 26 16 27 74 28 17 29 73 30 18 31 19 32 20 33 67 34 21 35
REMARK SMILES IDX 72 36 66 37 68 38 22 39 71 40 65 41 64 42 23 44 53 45 34 46
REMARK SMILES IDX 52 47 35 48 38 49 51 50 69 51 36 52 37 53 50 55 70 56 39 57
REMARK SMILES IDX 24 58 25 59 33 60 26 61 32 62 27 63 28 64 29 65 30 66 31 67
REMARK SMILES IDX 54 68 55 69 63 70 56 71 62 72 57 73 58 74 59 75 60 76 61 77
REMARK SMILES IDX 40 78 41 79 49 80 42 81 48 82 43 83 44 84 45 85 46 86 47 87
REMARK H PARENT 7 7 12 24 68 43 38 54
REMARK Flexibility Score: inf
ROOT
ATOM      1  C   UNL A   1      32.796  28.002  25.980  1.00  0.00     0.023 C 
ENDROOT
BRANCH   1   2
ATOM      2  C   UNL A   1      32.829  26.528  25.592  1.00  0.00     0.023 C 
BRANCH   2   3
ATOM      3  C   UNL A   1      32.826  26.250  24.090  1.00  0.00     0.116 C 
BRANCH   3   4
ATOM      4  N   UNL A   1      31.945  25.148  23.778  1.00  0.00    -0.356 N 
ATOM      5  C   UNL A   1      32.236  23.852  23.495  1.00  0.00     0.220 C 
ATOM      6  O   UNL A   1      31.300  23.112  23.185  1.00  0.00    -0.275 OA
ATOM      7  H   UNL A   1      30.986  25.370  23.769  1.00  0.00     0.163 HD
BRANCH   5   8
ATOM      8  C   UNL A   1      33.659  23.315  23.599  1.00  0.00     0.111 C 
BRANCH   8   9
ATOM      9  C   UNL A   1      34.019  22.435  24.839  1.00  0.00     0.004 C 
ATOM     10  C   UNL A   1      33.096  22.802  26.024  1.00  0.00     0.017 C 
ATOM     11  C   UNL A   1      33.611  20.967  24.519  1.00  0.00     0.017 C 
BRANCH   9  12
ATOM     12  C   UNL A   1      35.524  22.479  25.151  1.00  0.00     0.030 A 
ATOM     13  C   UNL A   1      36.372  21.360  25.093  1.00  0.00     0.132 A 
ATOM     14  C   UNL A   1      36.124  23.683  25.574  1.00  0.00     0.132 A 
ATOM     15  F   UNL A   1      35.918  20.165  24.696  1.00  0.00    -0.206 F 
ATOM     16  C   UNL A   1      37.721  21.429  25.442  1.00  0.00     0.079 A 
ATOM     17  C   UNL A   1      37.469  23.770  25.925  1.00  0.00     0.079 A 
ATOM     18  F   UNL A   1      35.392  24.803  25.666  1.00  0.00    -0.206 F 
ATOM     19  C   UNL A   1      38.256  22.636  25.859  1.00  0.00     0.129 A 
ATOM     20  F   UNL A   1      39.550  22.705  26.196  1.00  0.00    -0.207 F 
ENDBRANCH   9  12
ENDBRANCH   8   9
ENDBRANCH   5   8
ENDBRANCH   3   4
ENDBRANCH   2   3
ENDBRANCH   1   2
BRANCH   1  21
ATOM     21  C   UNL A   1      33.650  28.368  27.183  1.00  0.00     0.116 C 
BRANCH  21  22
ATOM     22  N   UNL A   1      33.545  29.768  27.570  1.00  0.00    -0.352 N 
ATOM     23  C   UNL A   1      34.504  30.576  28.133  1.00  0.00     0.251 C 
ATOM     24  H   UNL A   1      32.672  30.191  27.407  1.00  0.00     0.163 HD
ATOM     25  O   UNL A   1      34.220  31.715  28.489  1.00  0.00    -0.269 OA
BRANCH  23  26
ATOM     26  C   UNL A   1      35.864  30.040  28.340  1.00  0.00     0.039 A 
ATOM     27  C   UNL A   1      36.785  30.109  27.291  1.00  0.00     0.014 A 
ATOM     28  C   UNL A   1      36.245  29.527  29.583  1.00  0.00     0.014 A 
ATOM     29  C   UNL A   1      38.108  29.726  27.514  1.00  0.00     0.010 A 
ATOM     30  C   UNL A   1      37.581  29.238  29.828  1.00  0.00     0.010 A 
ATOM     31  C   UNL A   1      38.524  29.323  28.795  1.00  0.00    -0.014 A 
BRANCH  31  32
ATOM     32  C   UNL A   1      39.939  28.971  29.067  1.00  0.00     0.031 A 
ATOM     33  C   UNL A   1      40.857  29.986  29.697  1.00  0.00     0.074 A 
ATOM     34  C   UNL A   1      40.412  27.765  28.695  1.00  0.00     0.049 A 
ATOM     35  N   UNL A   1      42.127  29.880  29.986  1.00  0.00    -0.248 NA
ATOM     36  C   UNL A   1      40.278  31.303  30.014  1.00  0.00     0.031 C 
ATOM     37  C   UNL A   1      39.639  26.720  28.018  1.00  0.00     0.029 A 
ATOM     38  N   UNL A   1      41.660  27.213  28.836  1.00  0.00    -0.354 N 
ATOM     39  C   UNL A   1      42.502  31.118  30.496  1.00  0.00     0.074 A 
ATOM     40  C   UNL A   1      41.342  31.977  30.421  1.00  0.00     0.031 C 
ATOM     41  C   UNL A   1      40.418  25.641  27.840  1.00  0.00     0.029 A 
ATOM     42  C   UNL A   1      41.752  25.926  28.359  1.00  0.00     0.049 A 
ATOM     43  H   UNL A   1      42.418  27.693  29.241  1.00  0.00     0.167 HD
ATOM     44  C   UNL A   1      43.696  31.499  31.008  1.00  0.00     0.031 A 
ATOM     45  C   UNL A   1      42.791  25.070  28.351  1.00  0.00     0.031 A 
ATOM     46  C   UNL A   1      44.840  30.634  31.106  1.00  0.00     0.049 A 
ATOM     47  C   UNL A   1      44.097  25.502  28.957  1.00  0.00     0.074 A 
ATOM     48  C   UNL A   1      46.077  30.900  31.663  1.00  0.00     0.029 A 
ATOM     49  N   UNL A   1      44.882  29.328  30.640  1.00  0.00    -0.354 N 
ATOM     50  N   UNL A   1      44.412  26.656  29.499  1.00  0.00    -0.248 NA
ATOM     51  C   UNL A   1      45.182  24.512  28.968  1.00  0.00     0.031 C 
ATOM     52  C   UNL A   1      46.881  29.766  31.502  1.00  0.00     0.029 A 
ATOM     53  C   UNL A   1      46.128  28.778  30.887  1.00  0.00     0.049 A 
ATOM     54  H   UNL A   1      44.136  28.861  30.199  1.00  0.00     0.167 HD
ATOM     55  C   UNL A   1      45.724  26.521  29.936  1.00  0.00     0.074 A 
ATOM     56  C   UNL A   1      46.136  25.170  29.613  1.00  0.00     0.031 C 
ATOM     57  C   UNL A   1      46.518  27.432  30.554  1.00  0.00     0.031 A 
BRANCH  44  58
ATOM     58  C   UNL A   1      43.814  32.915  31.506  1.00  0.00    -0.014 A 
ATOM     59  C   UNL A   1      43.419  33.258  32.812  1.00  0.00     0.010 A 
ATOM     60  C   UNL A   1      44.342  33.913  30.667  1.00  0.00     0.010 A 
ATOM     61  C   UNL A   1      43.502  34.580  33.254  1.00  0.00     0.020 A 
ATOM     62  C   UNL A   1      44.454  35.233  31.115  1.00  0.00     0.020 A 
ATOM     63  C   UNL A   1      44.014  35.561  32.400  1.00  0.00     0.054 A 
BRANCH  63  64
ATOM     64  S   UNL A   1      44.124  37.268  33.002  1.00  0.00     0.124 S 
ATOM     65  O   UNL A   1      45.487  37.316  33.525  1.00  0.00    -0.237 OA
ATOM     66  O   UNL A   1      43.888  38.053  31.792  1.00  0.00    -0.237 OA
ATOM     67  O   UNL A   1      43.067  37.350  34.008  1.00  0.00    -0.744 OA
ENDBRANCH  63  64
ENDBRANCH  44  58
BRANCH  45  68
ATOM     68  C   UNL A   1      42.624  23.703  27.787  1.00  0.00    -0.014 A 
ATOM     69  C   UNL A   1      42.129  22.659  28.589  1.00  0.00     0.010 A 
ATOM     70  C   UNL A   1      42.942  23.441  26.442  1.00  0.00     0.010 A 
ATOM     71  C   UNL A   1      41.973  21.373  28.061  1.00  0.00     0.020 A 
ATOM     72  C   UNL A   1      42.764  22.161  25.905  1.00  0.00     0.020 A 
ATOM     73  C   UNL A   1      42.291  21.132  26.722  1.00  0.00     0.054 A 
BRANCH  73  74
ATOM     74  S   UNL A   1      42.030  19.470  26.045  1.00  0.00     0.124 S 
ATOM     75  O   UNL A   1      42.850  19.502  24.838  1.00  0.00    -0.237 OA
ATOM     76  O   UNL A   1      42.518  18.609  27.118  1.00  0.00    -0.237 OA
ATOM     77  O   UNL A   1      40.587  19.416  25.821  1.00  0.00    -0.744 OA
ENDBRANCH  73  74
ENDBRANCH  45  68
BRANCH  57  78
ATOM     78  C   UNL A   1      47.900  26.986  30.944  1.00  0.00    -0.014 A 
ATOM     79  C   UNL A   1      48.145  26.381  32.189  1.00  0.00     0.010 A 
ATOM     80  C   UNL A   1      48.960  27.139  30.032  1.00  0.00     0.010 A 
ATOM     81  C   UNL A   1      49.436  25.975  32.533  1.00  0.00     0.020 A 
ATOM     82  C   UNL A   1      50.248  26.709  30.361  1.00  0.00     0.020 A 
ATOM     83  C   UNL A   1      50.480  26.145  31.618  1.00  0.00     0.054 A 
BRANCH  83  84
ATOM     84  S   UNL A   1      52.144  25.585  32.075  1.00  0.00     0.124 S 
ATOM     85  O   UNL A   1      52.410  26.374  33.274  1.00  0.00    -0.237 OA
ATOM     86  O   UNL A   1      51.953  24.154  32.293  1.00  0.00    -0.237 OA
ATOM     87  O   UNL A   1      52.956  25.929  30.909  1.00  0.00    -0.744 OA
ENDBRANCH  83  84
ENDBRANCH  57  78
ENDBRANCH  31  32
ENDBRANCH  23  26
ENDBRANCH  21  22
ENDBRANCH   1  21
TORSDOF 16
ENDMDL
MODEL 3
REMARK VINA RESULT:     -10.8      0.218      1.285
REMARK SMILES CC(C)(CC(=O)NCCCCNC(=O)c1ccc(-c2c3nc(c(-c4ccc(S(=O)(=O)[O-])cc4)c4ccc([nH]4)c(-c4ccc(S(=O)(=O)[O-])cc4)c4nc(c(-c5ccc(S(=O)(=O)[O-])cc5)c5ccc2[nH]5)C=C4)C=C3)cc1)c1c(F)cc(F)cc1F
REMARK SMILES IDX 10 1 9 2 8 3 7 4 5 5 6 6 4 8 2 9 1 10 3 11 75 12 76 13 82 14
REMARK SMILES IDX 77 15 78 16 81 17 83 18 79 19 80 20 11 21 12 22 13 23 14 25
REMARK SMILES IDX 15 26 16 27 74 28 17 29 73 30 18 31 19 32 20 33 67 34 21 35
REMARK SMILES IDX 72 36 66 37 68 38 22 39 71 40 65 41 64 42 23 44 53 45 34 46
REMARK SMILES IDX 52 47 35 48 38 49 51 50 69 51 36 52 37 53 50 55 70 56 39 57
REMARK SMILES IDX 24 58 25 59 33 60 26 61 32 62 27 63 28 64 29 65 30 66 31 67
REMARK SMILES IDX 54 68 55 69 63 70 56 71 62 72 57 73 58 74 59 75 60 76 61 77
REMARK SMILES IDX 40 78 41 79 49 80 42 81 48 82 43 83 44 84 45 85 46 86 47 87
REMARK H PARENT 7 7 12 24 68 43 38 54
REMARK Flexibility Score: inf
ROOT
ATOM      1  C   UNL A   1      32.593  28.132  26.089  1.00  0.00     0.023 C 
ENDROOT
BRANCH   1   2
ATOM      2  C   UNL A   1      31.306  27.624  26.729  1.00  0.00     0.023 C 
BRANCH   2   3
ATOM      3  C   UNL A   1      30.685  26.400  26.059  1.00  0.00     0.116 C 
BRANCH   3   4
ATOM      4  N   UNL A   1      30.961  25.205  26.825  1.00  0.00    -0.356 N 
ATOM      5  C   UNL A   1      31.972  24.306  26.704  1.00  0.00     0.220 C 
ATOM      6  O   UNL A   1      31.947  23.317  27.438  1.00  0.00    -0.275 OA
ATOM      7  H   UNL A   1      30.318  25.013  27.545  1.00  0.00     0.163 HD
BRANCH   5   8
ATOM      8  C   UNL A   1      33.122  24.529  25.727  1.00  0.00     0.111 C 
BRANCH   8   9
ATOM      9  C   UNL A   1      33.213  23.591  24.481  1.00  0.00     0.004 C 
ATOM     10  C   UNL A   1      31.796  23.120  24.078  1.00  0.00     0.017 C 
ATOM     11  C   UNL A   1      33.655  24.453  23.263  1.00  0.00     0.017 C 
BRANCH   9  12
ATOM     12  C   UNL A   1      34.236  22.462  24.693  1.00  0.00     0.030 A 
ATOM     13  C   UNL A   1      35.616  22.671  24.853  1.00  0.00     0.132 A 
ATOM     14  C   UNL A   1      33.817  21.116  24.681  1.00  0.00     0.132 A 
ATOM     15  F   UNL A   1      36.131  23.907  24.889  1.00  0.00    -0.206 F 
ATOM     16  C   UNL A   1      36.520  21.617  24.982  1.00  0.00     0.079 A 
ATOM     17  C   UNL A   1      34.705  20.051  24.811  1.00  0.00     0.079 A 
ATOM     18  F   UNL A   1      32.518  20.817  24.528  1.00  0.00    -0.206 F 
ATOM     19  C   UNL A   1      36.054  20.314  24.956  1.00  0.00     0.129 A 
ATOM     20  F   UNL A   1      36.918  19.298  25.079  1.00  0.00    -0.207 F 
ENDBRANCH   9  12
ENDBRANCH   8   9
ENDBRANCH   5   8
ENDBRANCH   3   4
ENDBRANCH   2   3
ENDBRANCH   1   2
BRANCH   1  21
ATOM     21  C   UNL A   1      33.686  28.523  27.070  1.00  0.00     0.116 C 
BRANCH  21  22
ATOM     22  N   UNL A   1      33.589  29.898  27.537  1.00  0.00    -0.352 N 
ATOM     23  C   UNL A   1      34.543  30.659  28.169  1.00  0.00     0.251 C 
ATOM     24  H   UNL A   1      32.724  30.341  27.381  1.00  0.00     0.163 HD
ATOM     25  O   UNL A   1      34.263  31.778  28.587  1.00  0.00    -0.269 OA
BRANCH  23  26
ATOM     26  C   UNL A   1      35.893  30.095  28.374  1.00  0.00     0.039 A 
ATOM     27  C   UNL A   1      36.824  30.178  27.336  1.00  0.00     0.014 A 
ATOM     28  C   UNL A   1      36.252  29.541  29.605  1.00  0.00     0.014 A 
ATOM     29  C   UNL A   1      38.139  29.767  27.560  1.00  0.00     0.010 A 
ATOM     30  C   UNL A   1      37.581  29.223  29.854  1.00  0.00     0.010 A 
ATOM     31  C   UNL A   1      38.535  29.321  28.832  1.00  0.00    -0.014 A 
BRANCH  31  32
ATOM     32  C   UNL A   1      39.942  28.938  29.107  1.00  0.00     0.031 A 
ATOM     33  C   UNL A   1      40.878  29.930  29.747  1.00  0.00     0.074 A 
ATOM     34  C   UNL A   1      40.391  27.725  28.731  1.00  0.00     0.049 A 
ATOM     35  N   UNL A   1      42.145  29.796  30.040  1.00  0.00    -0.248 NA
ATOM     36  C   UNL A   1      40.326  31.257  30.070  1.00  0.00     0.031 C 
ATOM     37  C   UNL A   1      39.599  26.701  28.045  1.00  0.00     0.029 A 
ATOM     38  N   UNL A   1      41.627  27.146  28.873  1.00  0.00    -0.354 N 
ATOM     39  C   UNL A   1      42.543  31.023  30.559  1.00  0.00     0.074 A 
ATOM     40  C   UNL A   1      41.402  31.906  30.484  1.00  0.00     0.031 C 
ATOM     41  C   UNL A   1      40.356  25.607  27.863  1.00  0.00     0.029 A 
ATOM     42  C   UNL A   1      41.694  25.860  28.389  1.00  0.00     0.049 A 
ATOM     43  H   UNL A   1      42.394  27.608  29.283  1.00  0.00     0.167 HD
ATOM     44  C   UNL A   1      43.744  31.376  31.077  1.00  0.00     0.031 A 
ATOM     45  C   UNL A   1      42.714  24.983  28.379  1.00  0.00     0.031 A 
ATOM     46  C   UNL A   1      44.869  30.486  31.174  1.00  0.00     0.049 A 
ATOM     47  C   UNL A   1      44.027  25.384  28.993  1.00  0.00     0.074 A 
ATOM     48  C   UNL A   1      46.109  30.724  31.738  1.00  0.00     0.029 A 
ATOM     49  N   UNL A   1      44.885  29.183  30.701  1.00  0.00    -0.354 N 
ATOM     50  N   UNL A   1      44.364  26.528  29.542  1.00  0.00    -0.248 NA
ATOM     51  C   UNL A   1      45.091  24.372  29.002  1.00  0.00     0.031 C 
ATOM     52  C   UNL A   1      46.890  29.574  31.572  1.00  0.00     0.029 A 
ATOM     53  C   UNL A   1      46.118  28.606  30.949  1.00  0.00     0.049 A 
ATOM     54  H   UNL A   1      44.131  28.734  30.254  1.00  0.00     0.167 HD
ATOM     55  C   UNL A   1      45.671  26.363  29.984  1.00  0.00     0.074 A 
ATOM     56  C   UNL A   1      46.056  25.005  29.654  1.00  0.00     0.031 C 
ATOM     57  C   UNL A   1      46.482  27.254  30.609  1.00  0.00     0.031 A 
BRANCH  44  58
ATOM     58  C   UNL A   1      43.889  32.786  31.584  1.00  0.00    -0.014 A 
ATOM     59  C   UNL A   1      43.503  33.129  32.893  1.00  0.00     0.010 A 
ATOM     60  C   UNL A   1      44.434  33.779  30.750  1.00  0.00     0.010 A 
ATOM     61  C   UNL A   1      43.612  34.446  33.343  1.00  0.00     0.020 A 
ATOM     62  C   UNL A   1      44.571  35.094  31.207  1.00  0.00     0.020 A 
ATOM     63  C   UNL A   1      44.141  35.422  32.494  1.00  0.00     0.054 A 
BRANCH  63  64
ATOM     64  S   UNL A   1      44.283  37.123  33.107  1.00  0.00     0.124 S 
ATOM     65  O   UNL A   1      43.278  37.147  34.166  1.00  0.00    -0.237 OA
ATOM     66  O   UNL A   1      45.671  37.188  33.559  1.00  0.00    -0.237 OA
ATOM     67  O   UNL A   1      43.975  37.941  31.936  1.00  0.00    -0.744 OA
ENDBRANCH  63  64
ENDBRANCH  44  58
BRANCH  45  68
ATOM     68  C   UNL A   1      42.521  23.623  27.807  1.00  0.00    -0.014 A 
ATOM     69  C   UNL A   1      42.706  23.398  26.431  1.00  0.00     0.010 A 
ATOM     70  C   UNL A   1      42.168  22.542  28.635  1.00  0.00     0.010 A 
ATOM     71  C   UNL A   1      42.524  22.121  25.890  1.00  0.00     0.020 A 
ATOM     72  C   UNL A   1      42.009  21.259  28.101  1.00  0.00     0.020 A 
ATOM     73  C   UNL A   1      42.177  21.059  26.729  1.00  0.00     0.054 A 
BRANCH  73  74
ATOM     74  S   UNL A   1      41.998  19.401  26.016  1.00  0.00     0.124 S 
ATOM     75  O   UNL A   1      40.554  19.308  25.823  1.00  0.00    -0.237 OA
ATOM     76  O   UNL A   1      42.795  19.493  24.795  1.00  0.00    -0.237 OA
ATOM     77  O   UNL A   1      42.551  18.525  27.047  1.00  0.00    -0.744 OA
ENDBRANCH  73  74
ENDBRANCH  45  68
BRANCH  57  78
ATOM     78  C   UNL A   1      47.852  26.776  31.002  1.00  0.00    -0.014 A 
ATOM     79  C   UNL A   1      48.961  26.971  30.159  1.00  0.00     0.010 A 
ATOM     80  C   UNL A   1      48.039  26.158  32.252  1.00  0.00     0.010 A 
ATOM     81  C   UNL A   1      50.225  26.519  30.543  1.00  0.00     0.020 A 
ATOM     82  C   UNL A   1      49.306  25.729  32.651  1.00  0.00     0.020 A 
ATOM     83  C   UNL A   1      50.389  25.896  31.785  1.00  0.00     0.054 A 
BRANCH  83  84
ATOM     84  S   UNL A   1      52.045  25.341  32.273  1.00  0.00     0.124 S 
ATOM     85  O   UNL A   1      51.849  23.902  32.424  1.00  0.00    -0.237 OA
ATOM     86  O   UNL A   1      52.869  25.749  31.138  1.00  0.00    -0.237 OA
ATOM     87  O   UNL A   1      52.300  26.069  33.515  1.00  0.00    -0.744 OA
ENDBRANCH  83  84
ENDBRANCH  57  78
ENDBRANCH  31  32
ENDBRANCH  23  26
ENDBRANCH  21  22
ENDBRANCH   1  21
TORSDOF 16
ENDMDL
