MODEL 1
REMARK VINA RESULT:     -11.2      0.000      0.000
REMARK SMILES COc1ccc(OC)c(NC(=O)[C@@H]2[C@@H](C(=O)NCCCCNC(=O)c3ccc(-c4c5nc(c(-c6ccc(S(=O)(=O)[O-])cc6)c6ccc([nH]6)c(-c6ccc(S(=O)(=O)[O-])cc6)c6nc(c(-c7ccc(S(=O)(=O)[O-])cc7)c7ccc4[nH]7)C=C6)C=C5)cc3)[C@H]3C=C[C@@H]2C3)c1
REMARK SMILES IDX 19 1 18 2 17 3 15 4 16 5 14 7 13 8 88 9 85 10 87 11 89 12
REMARK SMILES IDX 86 13 11 14 10 15 12 17 9 18 3 19 4 20 90 21 5 22 6 23 2 24
REMARK SMILES IDX 1 25 7 26 8 27 20 28 21 29 22 30 23 31 24 33 25 34 26 35
REMARK SMILES IDX 84 36 27 37 83 38 28 39 29 40 30 41 77 42 31 43 82 44 76 45
REMARK SMILES IDX 78 46 32 47 81 48 75 49 74 50 33 52 63 53 44 54 62 55 45 56
REMARK SMILES IDX 48 57 61 58 79 59 46 60 47 61 60 63 80 64 49 65 34 66 35 67
REMARK SMILES IDX 43 68 36 69 42 70 37 71 38 72 39 73 40 74 41 75 64 76 65 77
REMARK SMILES IDX 73 78 66 79 72 80 67 81 68 82 69 83 70 84 71 85 50 86 51 87
REMARK SMILES IDX 59 88 52 89 58 90 53 91 54 92 55 93 56 94 57 95
REMARK H PARENT 17 6 10 16 22 32 78 51 48 62
REMARK Flexibility Score: inf
ROOT
ATOM      1  C   UNL A   1      34.685  23.805  25.419  1.00  0.00     0.023 C 
ENDROOT
BRANCH   1   2
ATOM      2  C   UNL A   1      34.029  25.131  25.812  1.00  0.00     0.116 C 
BRANCH   2   3
ATOM      3  N   UNL A   1      32.660  24.923  26.228  1.00  0.00    -0.356 N 
ATOM      4  C   UNL A   1      31.615  25.759  26.408  1.00  0.00     0.224 C 
ATOM      5  O   UNL A   1      30.580  25.224  26.831  1.00  0.00    -0.275 OA
ATOM      6  H   UNL A   1      32.446  23.981  26.420  1.00  0.00     0.163 HD
BRANCH   4   7
ATOM      7  C   UNL A   1      31.568  27.245  26.066  1.00  0.00     0.098 C 
ATOM      8  C   UNL A   1      32.355  27.632  24.785  1.00  0.00     0.099 C 
ATOM      9  C   UNL A   1      32.840  29.070  25.137  1.00  0.00     0.025 C 
ATOM     10  C   UNL A   1      31.951  28.362  27.076  1.00  0.00     0.025 C 
ATOM     11  C   UNL A   1      33.975  28.957  26.118  1.00  0.00    -0.027 C 
ATOM     12  C   UNL A   1      31.772  29.569  26.137  1.00  0.00     0.017 C 
ATOM     13  C   UNL A   1      33.436  28.562  27.281  1.00  0.00    -0.027 C 
BRANCH   8  14
ATOM     14  C   UNL A   1      31.485  27.722  23.549  1.00  0.00     0.229 C 
ATOM     15  N   UNL A   1      31.317  26.729  22.640  1.00  0.00    -0.323 N 
ATOM     16  H   UNL A   1      30.682  26.992  21.934  1.00  0.00     0.170 HD
ATOM     17  O   UNL A   1      30.840  28.756  23.318  1.00  0.00    -0.274 OA
BRANCH  15  18
ATOM     18  C   UNL A   1      31.805  25.424  22.432  1.00  0.00     0.087 A 
ATOM     19  C   UNL A   1      31.688  23.135  23.276  1.00  0.00     0.121 A 
ATOM     20  C   UNL A   1      32.768  22.768  22.487  1.00  0.00     0.050 A 
ATOM     21  C   UNL A   1      31.233  24.454  23.277  1.00  0.00     0.076 A 
ATOM     22  C   UNL A   1      33.288  23.690  21.585  1.00  0.00     0.052 A 
ATOM     23  C   UNL A   1      32.755  24.986  21.503  1.00  0.00     0.142 A 
BRANCH  19  24
ATOM     24  O   UNL A   1      31.136  22.187  24.093  1.00  0.00    -0.497 OA
ATOM     25  C   UNL A   1      32.135  21.284  24.571  1.00  0.00     0.278 C 
ENDBRANCH  19  24
BRANCH  23  26
ATOM     26  O   UNL A   1      33.195  25.709  20.427  1.00  0.00    -0.495 OA
ATOM     27  C   UNL A   1      32.409  25.433  19.268  1.00  0.00     0.278 C 
ENDBRANCH  23  26
ENDBRANCH  15  18
ENDBRANCH   8  14
ENDBRANCH   4   7
ENDBRANCH   2   3
ENDBRANCH   1   2
BRANCH   1  28
ATOM     28  C   UNL A   1      36.045  23.563  26.073  1.00  0.00     0.023 C 
BRANCH  28  29
ATOM     29  C   UNL A   1      37.225  23.635  25.108  1.00  0.00     0.116 C 
BRANCH  29  30
ATOM     30  N   UNL A   1      38.309  22.718  25.438  1.00  0.00    -0.352 N 
ATOM     31  C   UNL A   1      39.430  22.967  26.196  1.00  0.00     0.251 C 
ATOM     32  H   UNL A   1      38.230  21.807  25.074  1.00  0.00     0.163 HD
ATOM     33  O   UNL A   1      40.303  22.113  26.323  1.00  0.00    -0.269 OA
BRANCH  31  34
ATOM     34  C   UNL A   1      39.586  24.299  26.814  1.00  0.00     0.039 A 
ATOM     35  C   UNL A   1      39.082  24.511  28.098  1.00  0.00     0.014 A 
ATOM     36  C   UNL A   1      40.311  25.297  26.159  1.00  0.00     0.014 A 
ATOM     37  C   UNL A   1      39.377  25.704  28.761  1.00  0.00     0.010 A 
ATOM     38  C   UNL A   1      40.670  26.448  26.851  1.00  0.00     0.010 A 
ATOM     39  C   UNL A   1      40.211  26.661  28.161  1.00  0.00    -0.014 A 
BRANCH  39  40
ATOM     40  C   UNL A   1      40.633  27.884  28.889  1.00  0.00     0.031 A 
ATOM     41  C   UNL A   1      41.968  27.929  29.577  1.00  0.00     0.074 A 
ATOM     42  C   UNL A   1      39.776  28.919  29.008  1.00  0.00     0.049 A 
ATOM     43  N   UNL A   1      42.482  28.878  30.317  1.00  0.00    -0.248 NA
ATOM     44  C   UNL A   1      42.822  26.737  29.450  1.00  0.00     0.031 C 
ATOM     45  C   UNL A   1      38.423  28.970  28.446  1.00  0.00     0.029 A 
ATOM     46  N   UNL A   1      39.910  30.122  29.654  1.00  0.00    -0.354 N 
ATOM     47  C   UNL A   1      43.703  28.387  30.765  1.00  0.00     0.074 A 
ATOM     48  C   UNL A   1      43.829  27.039  30.255  1.00  0.00     0.031 C 
ATOM     49  C   UNL A   1      37.861  30.148  28.758  1.00  0.00     0.029 A 
ATOM     50  C   UNL A   1      38.797  30.923  29.568  1.00  0.00     0.049 A 
ATOM     51  H   UNL A   1      40.728  30.386  30.135  1.00  0.00     0.167 HD
ATOM     52  C   UNL A   1      44.643  29.007  31.517  1.00  0.00     0.031 A 
ATOM     53  C   UNL A   1      38.550  32.143  30.086  1.00  0.00     0.031 A 
ATOM     54  C   UNL A   1      44.522  30.355  32.005  1.00  0.00     0.049 A 
ATOM     55  C   UNL A   1      39.621  32.829  30.885  1.00  0.00     0.074 A 
ATOM     56  C   UNL A   1      45.454  31.104  32.700  1.00  0.00     0.029 A 
ATOM     57  N   UNL A   1      43.398  31.152  31.853  1.00  0.00    -0.354 N 
ATOM     58  N   UNL A   1      40.812  32.387  31.216  1.00  0.00    -0.248 NA
ATOM     59  C   UNL A   1      39.326  34.186  31.365  1.00  0.00     0.031 C 
ATOM     60  C   UNL A   1      44.875  32.338  33.012  1.00  0.00     0.029 A 
ATOM     61  C   UNL A   1      43.602  32.378  32.464  1.00  0.00     0.049 A 
ATOM     62  H   UNL A   1      42.577  30.887  31.380  1.00  0.00     0.167 HD
ATOM     63  C   UNL A   1      41.414  33.418  31.928  1.00  0.00     0.074 A 
ATOM     64  C   UNL A   1      40.464  34.512  31.965  1.00  0.00     0.031 C 
ATOM     65  C   UNL A   1      42.644  33.455  32.499  1.00  0.00     0.031 A 
BRANCH  52  66
ATOM     66  C   UNL A   1      45.878  28.219  31.867  1.00  0.00    -0.014 A 
ATOM     67  C   UNL A   1      47.051  28.321  31.096  1.00  0.00     0.010 A 
ATOM     68  C   UNL A   1      45.868  27.366  32.985  1.00  0.00     0.010 A 
ATOM     69  C   UNL A   1      48.169  27.540  31.401  1.00  0.00     0.020 A 
ATOM     70  C   UNL A   1      46.994  26.606  33.313  1.00  0.00     0.020 A 
ATOM     71  C   UNL A   1      48.130  26.680  32.503  1.00  0.00     0.054 A 
BRANCH  71  72
ATOM     72  S   UNL A   1      49.591  25.671  32.872  1.00  0.00     0.124 S 
ATOM     73  O   UNL A   1      50.587  26.693  33.188  1.00  0.00    -0.237 OA
ATOM     74  O   UNL A   1      49.146  24.861  34.002  1.00  0.00    -0.237 OA
ATOM     75  O   UNL A   1      49.826  24.934  31.634  1.00  0.00    -0.744 OA
ENDBRANCH  71  72
ENDBRANCH  52  66
BRANCH  53  76
ATOM     76  C   UNL A   1      37.233  32.791  29.842  1.00  0.00    -0.014 A 
ATOM     77  C   UNL A   1      36.193  32.671  30.780  1.00  0.00     0.010 A 
ATOM     78  C   UNL A   1      37.029  33.571  28.689  1.00  0.00     0.010 A 
ATOM     79  C   UNL A   1      34.970  33.316  30.568  1.00  0.00     0.020 A 
ATOM     80  C   UNL A   1      35.817  34.238  28.487  1.00  0.00     0.020 A 
ATOM     81  C   UNL A   1      34.792  34.100  29.425  1.00  0.00     0.054 A 
BRANCH  81  82
ATOM     82  S   UNL A   1      33.227  34.995  29.211  1.00  0.00     0.124 S 
ATOM     83  O   UNL A   1      32.689  34.995  30.567  1.00  0.00    -0.237 OA
ATOM     84  O   UNL A   1      33.672  36.292  28.705  1.00  0.00    -0.237 OA
ATOM     85  O   UNL A   1      32.496  34.178  28.244  1.00  0.00    -0.744 OA
ENDBRANCH  81  82
ENDBRANCH  53  76
BRANCH  65  86
ATOM     86  C   UNL A   1      43.047  34.727  33.195  1.00  0.00    -0.014 A 
ATOM     87  C   UNL A   1      42.861  34.889  34.580  1.00  0.00     0.010 A 
ATOM     88  C   UNL A   1      43.679  35.748  32.462  1.00  0.00     0.010 A 
ATOM     89  C   UNL A   1      43.276  36.063  35.213  1.00  0.00     0.020 A 
ATOM     90  C   UNL A   1      44.118  36.912  33.098  1.00  0.00     0.020 A 
ATOM     91  C   UNL A   1      43.901  37.068  34.468  1.00  0.00     0.054 A 
BRANCH  91  92
ATOM     92  S   UNL A   1      44.475  38.562  35.322  1.00  0.00     0.124 S 
ATOM     93  O   UNL A   1      43.974  38.348  36.677  1.00  0.00    -0.237 OA
ATOM     94  O   UNL A   1      45.926  38.484  35.168  1.00  0.00    -0.237 OA
ATOM     95  O   UNL A   1      43.835  39.650  34.586  1.00  0.00    -0.744 OA
ENDBRANCH  91  92
ENDBRANCH  65  86
ENDBRANCH  39  40
ENDBRANCH  31  34
ENDBRANCH  29  30
ENDBRANCH  28  29
ENDBRANCH   1  28
TORSDOF 18
ENDMDL
MODEL 2
REMARK VINA RESULT:     -11.1      2.588      9.096
REMARK SMILES COc1ccc(OC)c(NC(=O)[C@@H]2[C@@H](C(=O)NCCCCNC(=O)c3ccc(-c4c5nc(c(-c6ccc(S(=O)(=O)[O-])cc6)c6ccc([nH]6)c(-c6ccc(S(=O)(=O)[O-])cc6)c6nc(c(-c7ccc(S(=O)(=O)[O-])cc7)c7ccc4[nH]7)C=C6)C=C5)cc3)[C@H]3C=C[C@@H]2C3)c1
REMARK SMILES IDX 19 1 18 2 17 3 15 4 16 5 14 7 13 8 88 9 85 10 87 11 89 12
REMARK SMILES IDX 86 13 11 14 10 15 12 17 9 18 3 19 4 20 90 21 5 22 6 23 2 24
REMARK SMILES IDX 1 25 7 26 8 27 20 28 21 29 22 30 23 31 24 33 25 34 26 35
REMARK SMILES IDX 84 36 27 37 83 38 28 39 29 40 30 41 77 42 31 43 82 44 76 45
REMARK SMILES IDX 78 46 32 47 81 48 75 49 74 50 33 52 63 53 44 54 62 55 45 56
REMARK SMILES IDX 48 57 61 58 79 59 46 60 47 61 60 63 80 64 49 65 34 66 35 67
REMARK SMILES IDX 43 68 36 69 42 70 37 71 38 72 39 73 40 74 41 75 64 76 65 77
REMARK SMILES IDX 73 78 66 79 72 80 67 81 68 82 69 83 70 84 71 85 50 86 51 87
REMARK SMILES IDX 59 88 52 89 58 90 53 91 54 92 55 93 56 94 57 95
REMARK H PARENT 17 6 10 16 22 32 78 51 48 62
REMARK Flexibility Score: inf
ROOT
ATOM      1  C   UNL A   1      33.515  28.810  25.084  1.00  0.00     0.023 C 
ENDROOT
BRANCH   1   2
ATOM      2  C   UNL A   1      32.577  28.278  23.998  1.00  0.00     0.116 C 
BRANCH   2   3
ATOM      3  N   UNL A   1      31.317  27.857  24.568  1.00  0.00    -0.356 N 
ATOM      4  C   UNL A   1      30.715  26.654  24.684  1.00  0.00     0.224 C 
ATOM      5  O   UNL A   1      29.587  26.678  25.196  1.00  0.00    -0.275 OA
ATOM      6  H   UNL A   1      30.790  28.597  24.948  1.00  0.00     0.163 HD
BRANCH   4   7
ATOM      7  C   UNL A   1      31.316  25.297  24.331  1.00  0.00     0.098 C 
ATOM      8  C   UNL A   1      32.603  24.942  25.123  1.00  0.00     0.099 C 
ATOM      9  C   UNL A   1      33.389  24.091  24.080  1.00  0.00     0.025 C 
ATOM     10  C   UNL A   1      31.659  24.871  22.876  1.00  0.00     0.025 C 
ATOM     11  C   UNL A   1      33.964  25.025  23.051  1.00  0.00    -0.027 C 
ATOM     12  C   UNL A   1      32.271  23.496  23.195  1.00  0.00     0.017 C 
ATOM     13  C   UNL A   1      32.932  25.466  22.316  1.00  0.00    -0.027 C 
BRANCH   8  14
ATOM     14  C   UNL A   1      32.342  24.071  26.334  1.00  0.00     0.229 C 
ATOM     15  N   UNL A   1      33.105  23.015  26.714  1.00  0.00    -0.323 N 
ATOM     16  H   UNL A   1      32.772  22.613  27.549  1.00  0.00     0.170 HD
ATOM     17  O   UNL A   1      31.381  24.314  27.078  1.00  0.00    -0.274 OA
BRANCH  15  18
ATOM     18  C   UNL A   1      34.246  22.339  26.238  1.00  0.00     0.087 A 
ATOM     19  C   UNL A   1      36.636  22.599  25.805  1.00  0.00     0.121 A 
ATOM     20  C   UNL A   1      36.660  21.403  25.105  1.00  0.00     0.050 A 
ATOM     21  C   UNL A   1      35.439  23.081  26.336  1.00  0.00     0.076 A 
ATOM     22  C   UNL A   1      35.512  20.617  25.072  1.00  0.00     0.052 A 
ATOM     23  C   UNL A   1      34.335  21.048  25.704  1.00  0.00     0.142 A 
BRANCH  19  24
ATOM     24  O   UNL A   1      37.798  23.314  25.900  1.00  0.00    -0.497 OA
ATOM     25  C   UNL A   1      38.909  22.446  26.136  1.00  0.00     0.278 C 
ENDBRANCH  19  24
BRANCH  23  26
ATOM     26  O   UNL A   1      33.363  20.090  25.797  1.00  0.00    -0.495 OA
ATOM     27  C   UNL A   1      32.432  20.199  24.720  1.00  0.00     0.278 C 
ENDBRANCH  23  26
ENDBRANCH  15  18
ENDBRANCH   8  14
ENDBRANCH   4   7
ENDBRANCH   2   3
ENDBRANCH   1   2
BRANCH   1  28
ATOM     28  C   UNL A   1      33.704  27.859  26.266  1.00  0.00     0.023 C 
BRANCH  28  29
ATOM     29  C   UNL A   1      33.392  28.480  27.625  1.00  0.00     0.116 C 
BRANCH  29  30
ATOM     30  N   UNL A   1      33.482  29.935  27.640  1.00  0.00    -0.352 N 
ATOM     31  C   UNL A   1      34.585  30.714  27.904  1.00  0.00     0.251 C 
ATOM     32  H   UNL A   1      32.651  30.420  27.435  1.00  0.00     0.163 HD
ATOM     33  O   UNL A   1      34.490  31.937  27.957  1.00  0.00    -0.269 OA
BRANCH  31  34
ATOM     34  C   UNL A   1      35.876  30.049  28.168  1.00  0.00     0.039 A 
ATOM     35  C   UNL A   1      36.818  29.967  27.141  1.00  0.00     0.014 A 
ATOM     36  C   UNL A   1      36.182  29.595  29.453  1.00  0.00     0.014 A 
ATOM     37  C   UNL A   1      38.103  29.502  27.426  1.00  0.00     0.010 A 
ATOM     38  C   UNL A   1      37.484  29.210  29.750  1.00  0.00     0.010 A 
ATOM     39  C   UNL A   1      38.459  29.164  28.741  1.00  0.00    -0.014 A 
BRANCH  39  40
ATOM     40  C   UNL A   1      39.849  28.776  29.090  1.00  0.00     0.031 A 
ATOM     41  C   UNL A   1      40.775  29.779  29.721  1.00  0.00     0.074 A 
ATOM     42  C   UNL A   1      40.305  27.552  28.755  1.00  0.00     0.049 A 
ATOM     43  N   UNL A   1      42.039  29.650  30.034  1.00  0.00    -0.248 NA
ATOM     44  C   UNL A   1      40.219  31.112  30.002  1.00  0.00     0.031 C 
ATOM     45  C   UNL A   1      39.527  26.513  28.075  1.00  0.00     0.029 A 
ATOM     46  N   UNL A   1      41.541  26.980  28.927  1.00  0.00    -0.354 N 
ATOM     47  C   UNL A   1      42.434  30.890  30.521  1.00  0.00     0.074 A 
ATOM     48  C   UNL A   1      41.292  31.771  30.415  1.00  0.00     0.031 C 
ATOM     49  C   UNL A   1      40.298  25.428  27.904  1.00  0.00     0.029 A 
ATOM     50  C   UNL A   1      41.632  25.702  28.431  1.00  0.00     0.049 A 
ATOM     51  H   UNL A   1      42.291  27.443  29.366  1.00  0.00     0.167 HD
ATOM     52  C   UNL A   1      43.635  31.260  31.027  1.00  0.00     0.031 A 
ATOM     53  C   UNL A   1      42.672  24.845  28.396  1.00  0.00     0.031 A 
ATOM     54  C   UNL A   1      44.763  30.376  31.149  1.00  0.00     0.049 A 
ATOM     55  C   UNL A   1      43.984  25.261  28.998  1.00  0.00     0.074 A 
ATOM     56  C   UNL A   1      45.994  30.627  31.728  1.00  0.00     0.029 A 
ATOM     57  N   UNL A   1      44.799  29.071  30.680  1.00  0.00    -0.354 N 
ATOM     58  N   UNL A   1      44.311  26.408  29.544  1.00  0.00    -0.248 NA
ATOM     59  C   UNL A   1      45.062  24.262  28.997  1.00  0.00     0.031 C 
ATOM     60  C   UNL A   1      46.792  29.490  31.564  1.00  0.00     0.029 A 
ATOM     61  C   UNL A   1      46.041  28.513  30.932  1.00  0.00     0.049 A 
ATOM     62  H   UNL A   1      44.053  28.611  30.234  1.00  0.00     0.167 HD
ATOM     63  C   UNL A   1      45.627  26.263  29.969  1.00  0.00     0.074 A 
ATOM     64  C   UNL A   1      46.030  24.912  29.631  1.00  0.00     0.031 C 
ATOM     65  C   UNL A   1      46.429  27.169  30.584  1.00  0.00     0.031 A 
BRANCH  52  66
ATOM     66  C   UNL A   1      43.786  32.691  31.472  1.00  0.00    -0.014 A 
ATOM     67  C   UNL A   1      43.454  33.087  32.781  1.00  0.00     0.010 A 
ATOM     68  C   UNL A   1      44.272  33.654  30.570  1.00  0.00     0.010 A 
ATOM     69  C   UNL A   1      43.546  34.428  33.161  1.00  0.00     0.020 A 
ATOM     70  C   UNL A   1      44.395  34.993  30.954  1.00  0.00     0.020 A 
ATOM     71  C   UNL A   1      44.007  35.375  32.240  1.00  0.00     0.054 A 
BRANCH  71  72
ATOM     72  S   UNL A   1      44.110  37.111  32.755  1.00  0.00     0.124 S 
ATOM     73  O   UNL A   1      45.468  37.183  33.292  1.00  0.00    -0.237 OA
ATOM     74  O   UNL A   1      43.893  37.831  31.504  1.00  0.00    -0.237 OA
ATOM     75  O   UNL A   1      43.042  37.244  33.742  1.00  0.00    -0.744 OA
ENDBRANCH  71  72
ENDBRANCH  52  66
BRANCH  53  76
ATOM     76  C   UNL A   1      42.495  23.502  27.780  1.00  0.00    -0.014 A 
ATOM     77  C   UNL A   1      42.840  23.281  26.435  1.00  0.00     0.010 A 
ATOM     78  C   UNL A   1      42.023  22.423  28.551  1.00  0.00     0.010 A 
ATOM     79  C   UNL A   1      42.713  22.008  25.870  1.00  0.00     0.020 A 
ATOM     80  C   UNL A   1      41.919  21.144  27.997  1.00  0.00     0.020 A 
ATOM     81  C   UNL A   1      42.259  20.946  26.658  1.00  0.00     0.054 A 
BRANCH  81  82
ATOM     82  S   UNL A   1      42.180  19.286  25.928  1.00  0.00     0.124 S 
ATOM     83  O   UNL A   1      42.726  18.457  26.997  1.00  0.00    -0.237 OA
ATOM     84  O   UNL A   1      40.751  19.124  25.668  1.00  0.00    -0.237 OA
ATOM     85  O   UNL A   1      43.012  19.398  24.732  1.00  0.00    -0.744 OA
ENDBRANCH  81  82
ENDBRANCH  53  76
BRANCH  65  86
ATOM     86  C   UNL A   1      47.819  26.724  30.954  1.00  0.00    -0.014 A 
ATOM     87  C   UNL A   1      48.906  26.939  30.088  1.00  0.00     0.010 A 
ATOM     88  C   UNL A   1      48.047  26.140  32.213  1.00  0.00     0.010 A 
ATOM     89  C   UNL A   1      50.194  26.553  30.467  1.00  0.00     0.020 A 
ATOM     90  C   UNL A   1      49.338  25.776  32.604  1.00  0.00     0.020 A 
ATOM     91  C   UNL A   1      50.402  25.973  31.722  1.00  0.00     0.054 A 
BRANCH  91  92
ATOM     92  S   UNL A   1      52.091  25.524  32.210  1.00  0.00     0.124 S 
ATOM     93  O   UNL A   1      51.963  24.091  32.462  1.00  0.00    -0.237 OA
ATOM     94  O   UNL A   1      52.874  25.888  31.032  1.00  0.00    -0.237 OA
ATOM     95  O   UNL A   1      52.339  26.344  33.394  1.00  0.00    -0.744 OA
ENDBRANCH  91  92
ENDBRANCH  65  86
ENDBRANCH  39  40
ENDBRANCH  31  34
ENDBRANCH  29  30
ENDBRANCH  28  29
ENDBRANCH   1  28
TORSDOF 18
ENDMDL
MODEL 3
REMARK VINA RESULT:     -11.0      3.002      4.570
REMARK SMILES COc1ccc(OC)c(NC(=O)[C@@H]2[C@@H](C(=O)NCCCCNC(=O)c3ccc(-c4c5nc(c(-c6ccc(S(=O)(=O)[O-])cc6)c6ccc([nH]6)c(-c6ccc(S(=O)(=O)[O-])cc6)c6nc(c(-c7ccc(S(=O)(=O)[O-])cc7)c7ccc4[nH]7)C=C6)C=C5)cc3)[C@H]3C=C[C@@H]2C3)c1
REMARK SMILES IDX 19 1 18 2 17 3 15 4 16 5 14 7 13 8 88 9 85 10 87 11 89 12
REMARK SMILES IDX 86 13 11 14 10 15 12 17 9 18 3 19 4 20 90 21 5 22 6 23 2 24
REMARK SMILES IDX 1 25 7 26 8 27 20 28 21 29 22 30 23 31 24 33 25 34 26 35
REMARK SMILES IDX 84 36 27 37 83 38 28 39 29 40 30 41 77 42 31 43 82 44 76 45
REMARK SMILES IDX 78 46 32 47 81 48 75 49 74 50 33 52 63 53 44 54 62 55 45 56
REMARK SMILES IDX 48 57 61 58 79 59 46 60 47 61 60 63 80 64 49 65 34 66 35 67
REMARK SMILES IDX 43 68 36 69 42 70 37 71 38 72 39 73 40 74 41 75 64 76 65 77
REMARK SMILES IDX 73 78 66 79 72 80 67 81 68 82 69 83 70 84 71 85 50 86 51 87
REMARK SMILES IDX 59 88 52 89 58 90 53 91 54 92 55 93 56 94 57 95
REMARK H PARENT 17 6 10 16 22 32 78 51 48 62
REMARK Flexibility Score: inf
ROOT
ATOM      1  C   UNL A   1      36.802  23.538  26.021  1.00  0.00     0.023 C 
ENDROOT
BRANCH   1   2
ATOM      2  C   UNL A   1      35.913  22.292  25.979  1.00  0.00     0.116 C 
BRANCH   2   3
ATOM      3  N   UNL A   1      34.943  22.317  27.050  1.00  0.00    -0.356 N 
ATOM      4  C   UNL A   1      33.657  22.722  27.118  1.00  0.00     0.224 C 
ATOM      5  O   UNL A   1      33.139  22.643  28.242  1.00  0.00    -0.275 OA
ATOM      6  H   UNL A   1      35.290  21.971  27.904  1.00  0.00     0.163 HD
BRANCH   4   7
ATOM      7  C   UNL A   1      32.781  23.173  25.954  1.00  0.00     0.098 C 
ATOM      8  C   UNL A   1      32.635  24.713  25.823  1.00  0.00     0.099 C 
ATOM      9  C   UNL A   1      31.193  24.845  25.246  1.00  0.00     0.025 C 
ATOM     10  C   UNL A   1      31.333  22.655  25.728  1.00  0.00     0.025 C 
ATOM     11  C   UNL A   1      30.217  24.584  26.360  1.00  0.00    -0.027 C 
ATOM     12  C   UNL A   1      30.990  23.509  24.496  1.00  0.00     0.017 C 
ATOM     13  C   UNL A   1      30.282  23.271  26.625  1.00  0.00    -0.027 C 
BRANCH   8  14
ATOM     14  C   UNL A   1      33.595  25.325  24.823  1.00  0.00     0.229 C 
ATOM     15  N   UNL A   1      33.820  26.654  24.671  1.00  0.00    -0.323 N 
ATOM     16  H   UNL A   1      34.507  26.825  23.987  1.00  0.00     0.170 HD
ATOM     17  O   UNL A   1      34.264  24.593  24.078  1.00  0.00    -0.274 OA
BRANCH  15  18
ATOM     18  C   UNL A   1      33.338  27.855  25.227  1.00  0.00     0.087 A 
ATOM     19  C   UNL A   1      33.759  29.510  26.974  1.00  0.00     0.121 A 
ATOM     20  C   UNL A   1      32.516  30.085  26.756  1.00  0.00     0.050 A 
ATOM     21  C   UNL A   1      34.153  28.387  26.244  1.00  0.00     0.076 A 
ATOM     22  C   UNL A   1      31.736  29.626  25.699  1.00  0.00     0.052 A 
ATOM     23  C   UNL A   1      32.182  28.570  24.891  1.00  0.00     0.142 A 
BRANCH  19  24
ATOM     24  O   UNL A   1      34.547  30.033  27.962  1.00  0.00    -0.497 OA
ATOM     25  C   UNL A   1      34.828  31.412  27.709  1.00  0.00     0.278 C 
ENDBRANCH  19  24
BRANCH  23  26
ATOM     26  O   UNL A   1      31.438  28.374  23.759  1.00  0.00    -0.495 OA
ATOM     27  C   UNL A   1      30.283  29.213  23.753  1.00  0.00     0.278 C 
ENDBRANCH  23  26
ENDBRANCH  15  18
ENDBRANCH   8  14
ENDBRANCH   4   7
ENDBRANCH   2   3
ENDBRANCH   1   2
BRANCH   1  28
ATOM     28  C   UNL A   1      38.283  23.240  26.257  1.00  0.00     0.023 C 
BRANCH  28  29
ATOM     29  C   UNL A   1      39.111  24.459  26.653  1.00  0.00     0.116 C 
BRANCH  29  30
ATOM     30  N   UNL A   1      40.208  24.745  25.736  1.00  0.00    -0.352 N 
ATOM     31  C   UNL A   1      41.226  25.659  25.889  1.00  0.00     0.251 C 
ATOM     32  H   UNL A   1      40.223  24.219  24.905  1.00  0.00     0.163 HD
ATOM     33  O   UNL A   1      42.040  25.845  24.990  1.00  0.00    -0.269 OA
BRANCH  31  34
ATOM     34  C   UNL A   1      41.290  26.446  27.136  1.00  0.00     0.039 A 
ATOM     35  C   UNL A   1      42.116  27.570  27.185  1.00  0.00     0.014 A 
ATOM     36  C   UNL A   1      40.464  26.121  28.215  1.00  0.00     0.014 A 
ATOM     37  C   UNL A   1      42.052  28.419  28.292  1.00  0.00     0.010 A 
ATOM     38  C   UNL A   1      40.344  27.010  29.276  1.00  0.00     0.010 A 
ATOM     39  C   UNL A   1      41.133  28.171  29.324  1.00  0.00    -0.014 A 
BRANCH  39  40
ATOM     40  C   UNL A   1      40.965  29.119  30.454  1.00  0.00     0.031 A 
ATOM     41  C   UNL A   1      41.828  28.994  31.678  1.00  0.00     0.074 A 
ATOM     42  C   UNL A   1      39.973  30.033  30.416  1.00  0.00     0.049 A 
ATOM     43  N   UNL A   1      41.785  29.682  32.790  1.00  0.00    -0.248 NA
ATOM     44  C   UNL A   1      42.849  27.933  31.666  1.00  0.00     0.031 C 
ATOM     45  C   UNL A   1      39.022  30.208  29.315  1.00  0.00     0.029 A 
ATOM     46  N   UNL A   1      39.592  30.977  31.336  1.00  0.00    -0.354 N 
ATOM     47  C   UNL A   1      42.749  29.119  33.618  1.00  0.00     0.074 A 
ATOM     48  C   UNL A   1      43.326  28.004  32.899  1.00  0.00     0.031 C 
ATOM     49  C   UNL A   1      38.179  31.209  29.617  1.00  0.00     0.029 A 
ATOM     50  C   UNL A   1      38.507  31.724  30.944  1.00  0.00     0.049 A 
ATOM     51  H   UNL A   1      40.053  31.106  32.196  1.00  0.00     0.167 HD
ATOM     52  C   UNL A   1      43.134  29.506  34.858  1.00  0.00     0.031 A 
ATOM     53  C   UNL A   1      37.844  32.711  31.579  1.00  0.00     0.031 A 
ATOM     54  C   UNL A   1      42.572  30.628  35.560  1.00  0.00     0.049 A 
ATOM     55  C   UNL A   1      38.312  33.151  32.937  1.00  0.00     0.074 A 
ATOM     56  C   UNL A   1      42.952  31.156  36.782  1.00  0.00     0.029 A 
ATOM     57  N   UNL A   1      41.508  31.392  35.106  1.00  0.00    -0.354 N 
ATOM     58  N   UNL A   1      39.292  32.670  33.665  1.00  0.00    -0.248 NA
ATOM     59  C   UNL A   1      37.598  34.278  33.553  1.00  0.00     0.031 C 
ATOM     60  C   UNL A   1      42.084  32.209  37.090  1.00  0.00     0.029 A 
ATOM     61  C   UNL A   1      41.199  32.371  36.036  1.00  0.00     0.049 A 
ATOM     62  H   UNL A   1      41.041  31.259  34.251  1.00  0.00     0.167 HD
ATOM     63  C   UNL A   1      39.324  33.448  34.817  1.00  0.00     0.074 A 
ATOM     64  C   UNL A   1      38.277  34.440  34.682  1.00  0.00     0.031 C 
ATOM     65  C   UNL A   1      40.148  33.348  35.890  1.00  0.00     0.031 A 
BRANCH  52  66
ATOM     66  C   UNL A   1      44.208  28.693  35.533  1.00  0.00    -0.014 A 
ATOM     67  C   UNL A   1      45.571  28.998  35.362  1.00  0.00     0.010 A 
ATOM     68  C   UNL A   1      43.848  27.610  36.355  1.00  0.00     0.010 A 
ATOM     69  C   UNL A   1      46.555  28.200  35.949  1.00  0.00     0.020 A 
ATOM     70  C   UNL A   1      44.829  26.827  36.970  1.00  0.00     0.020 A 
ATOM     71  C   UNL A   1      46.177  27.112  36.743  1.00  0.00     0.054 A 
BRANCH  71  72
ATOM     72  S   UNL A   1      47.473  26.086  37.487  1.00  0.00     0.124 S 
ATOM     73  O   UNL A   1      48.678  26.854  37.176  1.00  0.00    -0.237 OA
ATOM     74  O   UNL A   1      47.094  26.060  38.897  1.00  0.00    -0.237 OA
ATOM     75  O   UNL A   1      47.351  24.810  36.788  1.00  0.00    -0.744 OA
ENDBRANCH  71  72
ENDBRANCH  52  66
BRANCH  53  76
ATOM     76  C   UNL A   1      36.677  33.354  30.917  1.00  0.00    -0.014 A 
ATOM     77  C   UNL A   1      35.392  33.255  31.479  1.00  0.00     0.010 A 
ATOM     78  C   UNL A   1      36.854  34.111  29.743  1.00  0.00     0.010 A 
ATOM     79  C   UNL A   1      34.304  33.897  30.877  1.00  0.00     0.020 A 
ATOM     80  C   UNL A   1      35.774  34.774  29.155  1.00  0.00     0.020 A 
ATOM     81  C   UNL A   1      34.504  34.657  29.722  1.00  0.00     0.054 A 
BRANCH  81  82
ATOM     82  S   UNL A   1      33.094  35.548  29.005  1.00  0.00     0.124 S 
ATOM     83  O   UNL A   1      33.756  36.589  28.226  1.00  0.00    -0.237 OA
ATOM     84  O   UNL A   1      32.424  34.506  28.231  1.00  0.00    -0.237 OA
ATOM     85  O   UNL A   1      32.354  36.015  30.176  1.00  0.00    -0.744 OA
ENDBRANCH  81  82
ENDBRANCH  53  76
BRANCH  65  86
ATOM     86  C   UNL A   1      39.969  34.352  36.997  1.00  0.00    -0.014 A 
ATOM     87  C   UNL A   1      40.633  35.591  36.971  1.00  0.00     0.010 A 
ATOM     88  C   UNL A   1      39.071  34.075  38.045  1.00  0.00     0.010 A 
ATOM     89  C   UNL A   1      40.423  36.524  37.990  1.00  0.00     0.020 A 
ATOM     90  C   UNL A   1      38.840  35.016  39.051  1.00  0.00     0.020 A 
ATOM     91  C   UNL A   1      39.529  36.231  39.024  1.00  0.00     0.054 A 
BRANCH  91  92
ATOM     92  S   UNL A   1      39.236  37.478  40.308  1.00  0.00     0.124 S 
ATOM     93  O   UNL A   1      40.537  38.138  40.392  1.00  0.00    -0.237 OA
ATOM     94  O   UNL A   1      38.158  38.282  39.737  1.00  0.00    -0.237 OA
ATOM     95  O   UNL A   1      38.862  36.688  41.480  1.00  0.00    -0.744 OA
ENDBRANCH  91  92
ENDBRANCH  65  86
ENDBRANCH  39  40
ENDBRANCH  31  34
ENDBRANCH  29  30
ENDBRANCH  28  29
ENDBRANCH   1  28
TORSDOF 18
ENDMDL
