MODEL 1
REMARK VINA RESULT:     -11.2      0.000      0.000
REMARK SMILES Cc1ncccc1C(=O)Nc1ccccc1C(=O)NCCCCNC(=O)c1ccc(-c2c3nc(c(-c4ccc(S(=O)(=O)[O-])cc4)c4ccc([nH]4)c(-c4ccc(S(=O)(=O)[O-])cc4)c4nc(c(-c5ccc(S(=O)(=O)[O-])cc5)c5ccc2[nH]5)C=C4)C=C3)cc1
REMARK SMILES IDX 22 1 21 2 20 3 19 4 17 5 18 6 16 8 11 9 12 10 13 11 15 12
REMARK SMILES IDX 14 13 10 14 8 15 9 16 7 18 1 19 2 20 3 21 4 22 6 23 5 24
REMARK SMILES IDX 23 25 24 26 25 27 26 29 27 30 28 31 86 32 29 33 85 34 30 35
REMARK SMILES IDX 31 36 32 37 79 38 33 39 84 40 78 41 80 42 34 43 83 44 77 45
REMARK SMILES IDX 76 46 35 48 65 49 46 50 64 51 47 52 50 53 63 54 81 55 48 56
REMARK SMILES IDX 49 57 62 59 82 60 51 61 36 62 37 63 45 64 38 65 44 66 39 67
REMARK SMILES IDX 40 68 41 69 42 70 43 71 66 72 67 73 75 74 68 75 74 76 69 77
REMARK SMILES IDX 70 78 71 79 72 80 73 81 52 82 53 83 61 84 54 85 60 86 55 87
REMARK SMILES IDX 56 88 57 89 58 90 59 91
REMARK H PARENT 19 7 10 17 24 28 80 47 50 58
REMARK Flexibility Score: inf
ROOT
ATOM      1  C   UNL A   1      35.777  23.414  26.168  1.00  0.00     0.023 C 
ENDROOT
BRANCH   1   2
ATOM      2  C   UNL A   1      34.396  23.741  25.596  1.00  0.00     0.023 C 
BRANCH   2   3
ATOM      3  C   UNL A   1      33.841  25.127  25.908  1.00  0.00     0.116 C 
BRANCH   3   4
ATOM      4  N   UNL A   1      32.410  25.163  26.137  1.00  0.00    -0.352 N 
ATOM      5  C   UNL A   1      31.556  26.235  26.243  1.00  0.00     0.253 C 
ATOM      6  O   UNL A   1      30.364  26.009  26.456  1.00  0.00    -0.269 OA
ATOM      7  H   UNL A   1      31.984  24.281  26.233  1.00  0.00     0.163 HD
BRANCH   5   8
ATOM      8  C   UNL A   1      32.024  27.648  26.224  1.00  0.00     0.063 A 
ATOM      9  C   UNL A   1      31.805  28.608  25.224  1.00  0.00     0.054 A 
ATOM     10  C   UNL A   1      32.539  29.811  25.262  1.00  0.00     0.027 A 
ATOM     11  C   UNL A   1      33.341  30.139  26.353  1.00  0.00     0.002 A 
ATOM     12  C   UNL A   1      32.820  28.007  27.335  1.00  0.00     0.016 A 
ATOM     13  C   UNL A   1      33.452  29.250  27.411  1.00  0.00     0.001 A 
BRANCH   9  14
ATOM     14  N   UNL A   1      30.874  28.561  24.172  1.00  0.00    -0.321 N 
ATOM     15  C   UNL A   1      30.823  27.868  22.989  1.00  0.00     0.257 C 
ATOM     16  O   UNL A   1      29.939  28.177  22.186  1.00  0.00    -0.269 OA
ATOM     17  H   UNL A   1      30.096  29.147  24.314  1.00  0.00     0.170 HD
BRANCH  15  18
ATOM     18  C   UNL A   1      31.723  26.753  22.635  1.00  0.00     0.061 A 
ATOM     19  C   UNL A   1      33.785  28.179  22.117  1.00  0.00     0.067 C 
ATOM     20  C   UNL A   1      33.059  26.876  22.248  1.00  0.00     0.050 A 
ATOM     21  N   UNL A   1      33.838  25.788  21.992  1.00  0.00    -0.261 NA
ATOM     22  C   UNL A   1      33.297  24.562  22.165  1.00  0.00     0.111 A 
ATOM     23  C   UNL A   1      31.218  25.463  22.858  1.00  0.00     0.017 A 
ATOM     24  C   UNL A   1      32.010  24.349  22.613  1.00  0.00     0.021 A 
ENDBRANCH  15  18
ENDBRANCH   9  14
ENDBRANCH   5   8
ENDBRANCH   3   4
ENDBRANCH   2   3
ENDBRANCH   1   2
BRANCH   1  25
ATOM     25  C   UNL A   1      36.959  23.485  25.204  1.00  0.00     0.116 C 
BRANCH  25  26
ATOM     26  N   UNL A   1      38.074  22.621  25.561  1.00  0.00    -0.352 N 
ATOM     27  C   UNL A   1      39.226  22.908  26.262  1.00  0.00     0.251 C 
ATOM     28  H   UNL A   1      37.994  21.689  25.254  1.00  0.00     0.163 HD
ATOM     29  O   UNL A   1      40.102  22.061  26.380  1.00  0.00    -0.269 OA
BRANCH  27  30
ATOM     30  C   UNL A   1      39.422  24.260  26.831  1.00  0.00     0.039 A 
ATOM     31  C   UNL A   1      38.976  24.517  28.129  1.00  0.00     0.014 A 
ATOM     32  C   UNL A   1      40.078  25.255  26.103  1.00  0.00     0.014 A 
ATOM     33  C   UNL A   1      39.289  25.736  28.739  1.00  0.00     0.010 A 
ATOM     34  C   UNL A   1      40.456  26.436  26.738  1.00  0.00     0.010 A 
ATOM     35  C   UNL A   1      40.084  26.682  28.069  1.00  0.00    -0.014 A 
BRANCH  35  36
ATOM     36  C   UNL A   1      40.568  27.910  28.755  1.00  0.00     0.031 A 
ATOM     37  C   UNL A   1      41.950  27.958  29.347  1.00  0.00     0.074 A 
ATOM     38  C   UNL A   1      39.732  28.957  28.915  1.00  0.00     0.049 A 
ATOM     39  N   UNL A   1      42.515  28.910  30.045  1.00  0.00    -0.248 NA
ATOM     40  C   UNL A   1      42.800  26.771  29.153  1.00  0.00     0.031 C 
ATOM     41  C   UNL A   1      38.348  29.022  28.434  1.00  0.00     0.029 A 
ATOM     42  N   UNL A   1      39.920  30.168  29.537  1.00  0.00    -0.354 N 
ATOM     43  C   UNL A   1      43.775  28.433  30.389  1.00  0.00     0.074 A 
ATOM     44  C   UNL A   1      43.873  27.089  29.864  1.00  0.00     0.031 C 
ATOM     45  C   UNL A   1      37.826  30.217  28.753  1.00  0.00     0.029 A 
ATOM     46  C   UNL A   1      38.817  30.990  29.495  1.00  0.00     0.049 A 
ATOM     47  H   UNL A   1      40.765  30.424  29.970  1.00  0.00     0.167 HD
ATOM     48  C   UNL A   1      44.767  29.063  31.061  1.00  0.00     0.031 A 
ATOM     49  C   UNL A   1      38.620  32.223  30.001  1.00  0.00     0.031 A 
ATOM     50  C   UNL A   1      44.678  30.406  31.567  1.00  0.00     0.049 A 
ATOM     51  C   UNL A   1      39.740  32.902  30.742  1.00  0.00     0.074 A 
ATOM     52  C   UNL A   1      45.652  31.149  32.212  1.00  0.00     0.029 A 
ATOM     53  N   UNL A   1      43.552  31.210  31.484  1.00  0.00    -0.354 N 
ATOM     54  N   UNL A   1      40.946  32.455  31.000  1.00  0.00    -0.248 NA
ATOM     55  C   UNL A   1      39.476  34.255  31.250  1.00  0.00     0.031 C 
ATOM     56  C   UNL A   1      45.101  32.388  32.557  1.00  0.00     0.029 A 
ATOM     57  C   UNL A   1      43.801  32.435  32.081  1.00  0.00     0.049 A 
ATOM     58  H   UNL A   1      42.700  30.949  31.064  1.00  0.00     0.167 HD
ATOM     59  C   UNL A   1      41.593  33.485  31.675  1.00  0.00     0.074 A 
ATOM     60  C   UNL A   1      40.651  34.579  31.773  1.00  0.00     0.031 C 
ATOM     61  C   UNL A   1      42.855  33.518  32.167  1.00  0.00     0.031 A 
BRANCH  48  62
ATOM     62  C   UNL A   1      46.048  28.301  31.284  1.00  0.00    -0.014 A 
ATOM     63  C   UNL A   1      47.067  28.301  30.313  1.00  0.00     0.010 A 
ATOM     64  C   UNL A   1      46.254  27.613  32.493  1.00  0.00     0.010 A 
ATOM     65  C   UNL A   1      48.252  27.594  30.531  1.00  0.00     0.020 A 
ATOM     66  C   UNL A   1      47.450  26.927  32.727  1.00  0.00     0.020 A 
ATOM     67  C   UNL A   1      48.435  26.908  31.736  1.00  0.00     0.054 A 
BRANCH  67  68
ATOM     68  S   UNL A   1      49.993  26.021  32.002  1.00  0.00     0.124 S 
ATOM     69  O   UNL A   1      49.525  24.747  32.543  1.00  0.00    -0.237 OA
ATOM     70  O   UNL A   1      50.562  25.961  30.658  1.00  0.00    -0.237 OA
ATOM     71  O   UNL A   1      50.719  26.869  32.945  1.00  0.00    -0.744 OA
ENDBRANCH  67  68
ENDBRANCH  48  62
BRANCH  49  72
ATOM     72  C   UNL A   1      37.312  32.910  29.811  1.00  0.00    -0.014 A 
ATOM     73  C   UNL A   1      36.352  32.909  30.839  1.00  0.00     0.010 A 
ATOM     74  C   UNL A   1      37.017  33.563  28.601  1.00  0.00     0.010 A 
ATOM     75  C   UNL A   1      35.112  33.527  30.652  1.00  0.00     0.020 A 
ATOM     76  C   UNL A   1      35.789  34.206  28.420  1.00  0.00     0.020 A 
ATOM     77  C   UNL A   1      34.838  34.171  29.443  1.00  0.00     0.054 A 
BRANCH  77  78
ATOM     78  S   UNL A   1      33.237  35.000  29.234  1.00  0.00     0.124 S 
ATOM     79  O   UNL A   1      33.639  36.324  28.770  1.00  0.00    -0.237 OA
ATOM     80  O   UNL A   1      32.570  34.158  28.246  1.00  0.00    -0.237 OA
ATOM     81  O   UNL A   1      32.654  34.956  30.574  1.00  0.00    -0.744 OA
ENDBRANCH  77  78
ENDBRANCH  49  72
BRANCH  61  82
ATOM     82  C   UNL A   1      43.309  34.794  32.825  1.00  0.00    -0.014 A 
ATOM     83  C   UNL A   1      43.966  35.798  32.093  1.00  0.00     0.010 A 
ATOM     84  C   UNL A   1      43.020  35.012  34.185  1.00  0.00     0.010 A 
ATOM     85  C   UNL A   1      44.353  36.987  32.719  1.00  0.00     0.020 A 
ATOM     86  C   UNL A   1      43.382  36.210  34.807  1.00  0.00     0.020 A 
ATOM     87  C   UNL A   1      44.059  37.185  34.071  1.00  0.00     0.054 A 
BRANCH  87  88
ATOM     88  S   UNL A   1      44.528  38.756  34.848  1.00  0.00     0.124 S 
ATOM     89  O   UNL A   1      45.857  38.986  34.287  1.00  0.00    -0.237 OA
ATOM     90  O   UNL A   1      43.484  39.668  34.387  1.00  0.00    -0.237 OA
ATOM     91  O   UNL A   1      44.499  38.457  36.277  1.00  0.00    -0.744 OA
ENDBRANCH  87  88
ENDBRANCH  61  82
ENDBRANCH  35  36
ENDBRANCH  27  30
ENDBRANCH  25  26
ENDBRANCH   1  25
TORSDOF 16
ENDMDL
MODEL 2
REMARK VINA RESULT:     -10.9      2.611      9.218
REMARK SMILES Cc1ncccc1C(=O)Nc1ccccc1C(=O)NCCCCNC(=O)c1ccc(-c2c3nc(c(-c4ccc(S(=O)(=O)[O-])cc4)c4ccc([nH]4)c(-c4ccc(S(=O)(=O)[O-])cc4)c4nc(c(-c5ccc(S(=O)(=O)[O-])cc5)c5ccc2[nH]5)C=C4)C=C3)cc1
REMARK SMILES IDX 22 1 21 2 20 3 19 4 17 5 18 6 16 8 11 9 12 10 13 11 15 12
REMARK SMILES IDX 14 13 10 14 8 15 9 16 7 18 1 19 2 20 3 21 4 22 6 23 5 24
REMARK SMILES IDX 23 25 24 26 25 27 26 29 27 30 28 31 86 32 29 33 85 34 30 35
REMARK SMILES IDX 31 36 32 37 79 38 33 39 84 40 78 41 80 42 34 43 83 44 77 45
REMARK SMILES IDX 76 46 35 48 65 49 46 50 64 51 47 52 50 53 63 54 81 55 48 56
REMARK SMILES IDX 49 57 62 59 82 60 51 61 36 62 37 63 45 64 38 65 44 66 39 67
REMARK SMILES IDX 40 68 41 69 42 70 43 71 66 72 67 73 75 74 68 75 74 76 69 77
REMARK SMILES IDX 70 78 71 79 72 80 73 81 52 82 53 83 61 84 54 85 60 86 55 87
REMARK SMILES IDX 56 88 57 89 58 90 59 91
REMARK H PARENT 19 7 10 17 24 28 80 47 50 58
REMARK Flexibility Score: inf
ROOT
ATOM      1  C   UNL A   1      32.112  28.038  27.196  1.00  0.00     0.023 C 
ENDROOT
BRANCH   1   2
ATOM      2  C   UNL A   1      32.008  26.632  26.602  1.00  0.00     0.023 C 
BRANCH   2   3
ATOM      3  C   UNL A   1      30.611  26.161  26.209  1.00  0.00     0.116 C 
BRANCH   3   4
ATOM      4  N   UNL A   1      30.388  24.739  26.379  1.00  0.00    -0.352 N 
ATOM      5  C   UNL A   1      30.748  23.682  25.577  1.00  0.00     0.253 C 
ATOM      6  O   UNL A   1      30.430  22.547  25.933  1.00  0.00    -0.269 OA
ATOM      7  H   UNL A   1      29.901  24.491  27.198  1.00  0.00     0.163 HD
BRANCH   5   8
ATOM      8  C   UNL A   1      31.404  23.859  24.252  1.00  0.00     0.063 A 
ATOM      9  C   UNL A   1      32.408  23.062  23.681  1.00  0.00     0.054 A 
ATOM     10  C   UNL A   1      33.081  23.531  22.535  1.00  0.00     0.027 A 
ATOM     11  C   UNL A   1      32.660  24.677  21.862  1.00  0.00     0.002 A 
ATOM     12  C   UNL A   1      30.972  25.002  23.543  1.00  0.00     0.016 A 
ATOM     13  C   UNL A   1      31.576  25.394  22.347  1.00  0.00     0.001 A 
BRANCH   9  14
ATOM     14  N   UNL A   1      32.819  21.777  24.076  1.00  0.00    -0.321 N 
ATOM     15  C   UNL A   1      34.003  21.269  24.546  1.00  0.00     0.257 C 
ATOM     16  O   UNL A   1      34.097  20.043  24.645  1.00  0.00    -0.269 OA
ATOM     17  H   UNL A   1      32.107  21.100  24.000  1.00  0.00     0.170 HD
BRANCH  15  18
ATOM     18  C   UNL A   1      35.150  22.090  24.979  1.00  0.00     0.061 A 
ATOM     19  C   UNL A   1      34.064  23.039  27.094  1.00  0.00     0.067 C 
ATOM     20  C   UNL A   1      35.196  22.885  26.127  1.00  0.00     0.050 A 
ATOM     21  N   UNL A   1      36.319  23.570  26.484  1.00  0.00    -0.261 NA
ATOM     22  C   UNL A   1      37.423  23.428  25.718  1.00  0.00     0.111 A 
ATOM     23  C   UNL A   1      36.335  21.924  24.245  1.00  0.00     0.017 A 
ATOM     24  C   UNL A   1      37.487  22.607  24.611  1.00  0.00     0.021 A 
ENDBRANCH  15  18
ENDBRANCH   9  14
ENDBRANCH   5   8
ENDBRANCH   3   4
ENDBRANCH   2   3
ENDBRANCH   1   2
BRANCH   1  25
ATOM     25  C   UNL A   1      33.433  28.777  26.996  1.00  0.00     0.116 C 
BRANCH  25  26
ATOM     26  N   UNL A   1      33.450  30.128  27.538  1.00  0.00    -0.352 N 
ATOM     27  C   UNL A   1      34.450  30.798  28.211  1.00  0.00     0.251 C 
ATOM     28  H   UNL A   1      32.622  30.641  27.405  1.00  0.00     0.163 HD
ATOM     29  O   UNL A   1      34.241  31.909  28.678  1.00  0.00    -0.269 OA
BRANCH  27  30
ATOM     30  C   UNL A   1      35.766  30.148  28.408  1.00  0.00     0.039 A 
ATOM     31  C   UNL A   1      36.702  30.191  27.373  1.00  0.00     0.014 A 
ATOM     32  C   UNL A   1      36.088  29.537  29.622  1.00  0.00     0.014 A 
ATOM     33  C   UNL A   1      38.000  29.721  27.595  1.00  0.00     0.010 A 
ATOM     34  C   UNL A   1      37.400  29.141  29.866  1.00  0.00     0.010 A 
ATOM     35  C   UNL A   1      38.377  29.247  28.863  1.00  0.00    -0.014 A 
BRANCH  35  36
ATOM     36  C   UNL A   1      39.790  28.898  29.170  1.00  0.00     0.031 A 
ATOM     37  C   UNL A   1      40.709  29.915  29.791  1.00  0.00     0.074 A 
ATOM     38  C   UNL A   1      40.269  27.688  28.816  1.00  0.00     0.049 A 
ATOM     39  N   UNL A   1      41.986  29.817  30.058  1.00  0.00    -0.248 NA
ATOM     40  C   UNL A   1      40.123  31.223  30.132  1.00  0.00     0.031 C 
ATOM     41  C   UNL A   1      39.499  26.626  28.160  1.00  0.00     0.029 A 
ATOM     42  N   UNL A   1      41.525  27.147  28.948  1.00  0.00    -0.354 N 
ATOM     43  C   UNL A   1      42.361  31.050  30.580  1.00  0.00     0.074 A 
ATOM     44  C   UNL A   1      41.187  31.896  30.546  1.00  0.00     0.031 C 
ATOM     45  C   UNL A   1      40.289  25.557  27.975  1.00  0.00     0.029 A 
ATOM     46  C   UNL A   1      41.632  25.865  28.459  1.00  0.00     0.049 A 
ATOM     47  H   UNL A   1      42.279  27.631  29.356  1.00  0.00     0.167 HD
ATOM     48  C   UNL A   1      43.565  31.438  31.062  1.00  0.00     0.031 A 
ATOM     49  C   UNL A   1      42.688  25.032  28.399  1.00  0.00     0.031 A 
ATOM     50  C   UNL A   1      44.728  30.593  31.114  1.00  0.00     0.049 A 
ATOM     51  C   UNL A   1      44.015  25.486  28.944  1.00  0.00     0.074 A 
ATOM     52  C   UNL A   1      45.977  30.879  31.637  1.00  0.00     0.029 A 
ATOM     53  N   UNL A   1      44.786  29.296  30.628  1.00  0.00    -0.354 N 
ATOM     54  N   UNL A   1      44.331  26.636  29.491  1.00  0.00    -0.248 NA
ATOM     55  C   UNL A   1      45.126  24.526  28.874  1.00  0.00     0.031 C 
ATOM     56  C   UNL A   1      46.804  29.770  31.429  1.00  0.00     0.029 A 
ATOM     57  C   UNL A   1      46.054  28.774  30.824  1.00  0.00     0.049 A 
ATOM     58  H   UNL A   1      44.036  28.816  30.206  1.00  0.00     0.167 HD
ATOM     59  C   UNL A   1      45.668  26.526  29.856  1.00  0.00     0.074 A 
ATOM     60  C   UNL A   1      46.097  25.195  29.481  1.00  0.00     0.031 C 
ATOM     61  C   UNL A   1      46.466  27.446  30.450  1.00  0.00     0.031 A 
BRANCH  48  62
ATOM     62  C   UNL A   1      43.684  32.847  31.582  1.00  0.00    -0.014 A 
ATOM     63  C   UNL A   1      43.436  33.140  32.936  1.00  0.00     0.010 A 
ATOM     64  C   UNL A   1      44.090  33.882  30.721  1.00  0.00     0.010 A 
ATOM     65  C   UNL A   1      43.553  34.450  33.409  1.00  0.00     0.020 A 
ATOM     66  C   UNL A   1      44.235  35.188  31.196  1.00  0.00     0.020 A 
ATOM     67  C   UNL A   1      43.949  35.467  32.535  1.00  0.00     0.054 A 
BRANCH  67  68
ATOM     68  S   UNL A   1      44.118  37.152  33.182  1.00  0.00     0.124 S 
ATOM     69  O   UNL A   1      44.188  37.940  31.954  1.00  0.00    -0.237 OA
ATOM     70  O   UNL A   1      42.896  37.319  33.965  1.00  0.00    -0.237 OA
ATOM     71  O   UNL A   1      45.352  37.102  33.963  1.00  0.00    -0.744 OA
ENDBRANCH  67  68
ENDBRANCH  48  62
BRANCH  49  72
ATOM     72  C   UNL A   1      42.536  23.670  27.814  1.00  0.00    -0.014 A 
ATOM     73  C   UNL A   1      42.156  22.586  28.625  1.00  0.00     0.010 A 
ATOM     74  C   UNL A   1      42.775  23.449  26.446  1.00  0.00     0.010 A 
ATOM     75  C   UNL A   1      42.042  21.302  28.086  1.00  0.00     0.020 A 
ATOM     76  C   UNL A   1      42.635  22.171  25.897  1.00  0.00     0.020 A 
ATOM     77  C   UNL A   1      42.284  21.102  26.724  1.00  0.00     0.054 A 
BRANCH  77  78
ATOM     78  S   UNL A   1      42.093  19.434  26.035  1.00  0.00     0.124 S 
ATOM     79  O   UNL A   1      40.652  19.360  25.814  1.00  0.00    -0.237 OA
ATOM     80  O   UNL A   1      42.916  19.492  24.831  1.00  0.00    -0.237 OA
ATOM     81  O   UNL A   1      42.611  18.568  27.092  1.00  0.00    -0.744 OA
ENDBRANCH  77  78
ENDBRANCH  49  72
BRANCH  61  82
ATOM     82  C   UNL A   1      47.879  27.035  30.769  1.00  0.00    -0.014 A 
ATOM     83  C   UNL A   1      48.909  27.169  29.822  1.00  0.00     0.010 A 
ATOM     84  C   UNL A   1      48.187  26.559  32.057  1.00  0.00     0.010 A 
ATOM     85  C   UNL A   1      50.219  26.807  30.149  1.00  0.00     0.020 A 
ATOM     86  C   UNL A   1      49.500  26.223  32.396  1.00  0.00     0.020 A 
ATOM     87  C   UNL A   1      50.506  26.336  31.434  1.00  0.00     0.054 A 
BRANCH  87  88
ATOM     88  S   UNL A   1      52.222  25.919  31.850  1.00  0.00     0.124 S 
ATOM     89  O   UNL A   1      52.153  24.468  32.002  1.00  0.00    -0.237 OA
ATOM     90  O   UNL A   1      52.961  26.394  30.682  1.00  0.00    -0.237 OA
ATOM     91  O   UNL A   1      52.471  26.662  33.082  1.00  0.00    -0.744 OA
ENDBRANCH  87  88
ENDBRANCH  61  82
ENDBRANCH  35  36
ENDBRANCH  27  30
ENDBRANCH  25  26
ENDBRANCH   1  25
TORSDOF 16
ENDMDL
MODEL 3
REMARK VINA RESULT:     -10.7      3.097      9.176
REMARK SMILES Cc1ncccc1C(=O)Nc1ccccc1C(=O)NCCCCNC(=O)c1ccc(-c2c3nc(c(-c4ccc(S(=O)(=O)[O-])cc4)c4ccc([nH]4)c(-c4ccc(S(=O)(=O)[O-])cc4)c4nc(c(-c5ccc(S(=O)(=O)[O-])cc5)c5ccc2[nH]5)C=C4)C=C3)cc1
REMARK SMILES IDX 22 1 21 2 20 3 19 4 17 5 18 6 16 8 11 9 12 10 13 11 15 12
REMARK SMILES IDX 14 13 10 14 8 15 9 16 7 18 1 19 2 20 3 21 4 22 6 23 5 24
REMARK SMILES IDX 23 25 24 26 25 27 26 29 27 30 28 31 86 32 29 33 85 34 30 35
REMARK SMILES IDX 31 36 32 37 79 38 33 39 84 40 78 41 80 42 34 43 83 44 77 45
REMARK SMILES IDX 76 46 35 48 65 49 46 50 64 51 47 52 50 53 63 54 81 55 48 56
REMARK SMILES IDX 49 57 62 59 82 60 51 61 36 62 37 63 45 64 38 65 44 66 39 67
REMARK SMILES IDX 40 68 41 69 42 70 43 71 66 72 67 73 75 74 68 75 74 76 69 77
REMARK SMILES IDX 70 78 71 79 72 80 73 81 52 82 53 83 61 84 54 85 60 86 55 87
REMARK SMILES IDX 56 88 57 89 58 90 59 91
REMARK H PARENT 19 7 10 17 24 28 80 47 50 58
REMARK Flexibility Score: inf
ROOT
ATOM      1  C   UNL A   1      33.573  27.730  26.160  1.00  0.00     0.023 C 
ENDROOT
BRANCH   1   2
ATOM      2  C   UNL A   1      33.624  27.028  24.801  1.00  0.00     0.023 C 
BRANCH   2   3
ATOM      3  C   UNL A   1      34.090  25.576  24.802  1.00  0.00     0.116 C 
BRANCH   3   4
ATOM      4  N   UNL A   1      33.870  24.874  23.553  1.00  0.00    -0.352 N 
ATOM      5  C   UNL A   1      34.330  23.650  23.130  1.00  0.00     0.253 C 
ATOM      6  O   UNL A   1      34.013  23.267  22.004  1.00  0.00    -0.269 OA
ATOM      7  H   UNL A   1      33.302  25.351  22.905  1.00  0.00     0.163 HD
BRANCH   5   8
ATOM      8  C   UNL A   1      35.278  22.823  23.927  1.00  0.00     0.063 A 
ATOM      9  C   UNL A   1      34.993  21.658  24.656  1.00  0.00     0.054 A 
ATOM     10  C   UNL A   1      35.963  21.160  25.550  1.00  0.00     0.027 A 
ATOM     11  C   UNL A   1      37.250  21.693  25.599  1.00  0.00     0.002 A 
ATOM     12  C   UNL A   1      36.595  23.335  23.969  1.00  0.00     0.016 A 
ATOM     13  C   UNL A   1      37.578  22.761  24.777  1.00  0.00     0.001 A 
BRANCH   9  14
ATOM     14  N   UNL A   1      33.847  20.849  24.576  1.00  0.00    -0.321 N 
ATOM     15  C   UNL A   1      32.564  20.983  25.043  1.00  0.00     0.257 C 
ATOM     16  O   UNL A   1      31.821  20.003  24.953  1.00  0.00    -0.269 OA
ATOM     17  H   UNL A   1      33.996  20.011  24.080  1.00  0.00     0.170 HD
BRANCH  15  18
ATOM     18  C   UNL A   1      32.005  22.229  25.602  1.00  0.00     0.061 A 
ATOM     19  C   UNL A   1      33.274  22.161  27.825  1.00  0.00     0.067 C 
ATOM     20  C   UNL A   1      32.321  22.776  26.848  1.00  0.00     0.050 A 
ATOM     21  N   UNL A   1      31.800  23.964  27.265  1.00  0.00    -0.261 NA
ATOM     22  C   UNL A   1      30.992  24.639  26.418  1.00  0.00     0.111 A 
ATOM     23  C   UNL A   1      31.210  22.989  24.731  1.00  0.00     0.017 A 
ATOM     24  C   UNL A   1      30.687  24.207  25.144  1.00  0.00     0.021 A 
ENDBRANCH  15  18
ENDBRANCH   9  14
ENDBRANCH   5   8
ENDBRANCH   3   4
ENDBRANCH   2   3
ENDBRANCH   1   2
BRANCH   1  25
ATOM     25  C   UNL A   1      34.584  28.849  26.398  1.00  0.00     0.116 C 
BRANCH  25  26
ATOM     26  N   UNL A   1      33.986  30.150  26.659  1.00  0.00    -0.352 N 
ATOM     27  C   UNL A   1      34.339  31.118  27.576  1.00  0.00     0.251 C 
ATOM     28  H   UNL A   1      33.210  30.372  26.096  1.00  0.00     0.163 HD
ATOM     29  O   UNL A   1      33.647  32.118  27.712  1.00  0.00    -0.269 OA
BRANCH  27  30
ATOM     30  C   UNL A   1      35.532  30.920  28.430  1.00  0.00     0.039 A 
ATOM     31  C   UNL A   1      35.497  29.939  29.423  1.00  0.00     0.014 A 
ATOM     32  C   UNL A   1      36.692  31.670  28.223  1.00  0.00     0.014 A 
ATOM     33  C   UNL A   1      36.661  29.632  30.133  1.00  0.00     0.010 A 
ATOM     34  C   UNL A   1      37.869  31.310  28.875  1.00  0.00     0.010 A 
ATOM     35  C   UNL A   1      37.872  30.275  29.823  1.00  0.00    -0.014 A 
BRANCH  35  36
ATOM     36  C   UNL A   1      39.154  29.850  30.447  1.00  0.00     0.031 A 
ATOM     37  C   UNL A   1      39.705  30.589  31.636  1.00  0.00     0.074 A 
ATOM     38  C   UNL A   1      39.865  28.847  29.892  1.00  0.00     0.049 A 
ATOM     39  N   UNL A   1      40.840  30.413  32.262  1.00  0.00    -0.248 NA
ATOM     40  C   UNL A   1      38.887  31.688  32.176  1.00  0.00     0.031 C 
ATOM     41  C   UNL A   1      39.471  28.079  28.706  1.00  0.00     0.029 A 
ATOM     42  N   UNL A   1      41.076  28.303  30.246  1.00  0.00    -0.354 N 
ATOM     43  C   UNL A   1      40.882  31.385  33.255  1.00  0.00     0.074 A 
ATOM     44  C   UNL A   1      39.681  32.179  33.116  1.00  0.00     0.031 C 
ATOM     45  C   UNL A   1      40.405  27.150  28.451  1.00  0.00     0.029 A 
ATOM     46  C   UNL A   1      41.485  27.277  29.424  1.00  0.00     0.049 A 
ATOM     47  H   UNL A   1      41.602  28.617  31.015  1.00  0.00     0.167 HD
ATOM     48  C   UNL A   1      41.822  31.586  34.208  1.00  0.00     0.031 A 
ATOM     49  C   UNL A   1      42.603  26.526  29.445  1.00  0.00     0.031 A 
ATOM     50  C   UNL A   1      43.008  30.786  34.359  1.00  0.00     0.049 A 
ATOM     51  C   UNL A   1      43.632  26.769  30.517  1.00  0.00     0.074 A 
ATOM     52  C   UNL A   1      43.991  30.879  35.329  1.00  0.00     0.029 A 
ATOM     53  N   UNL A   1      43.372  29.744  33.520  1.00  0.00    -0.354 N 
ATOM     54  N   UNL A   1      43.620  27.653  31.485  1.00  0.00    -0.248 NA
ATOM     55  C   UNL A   1      44.820  25.904  30.505  1.00  0.00     0.031 C 
ATOM     56  C   UNL A   1      44.971  29.920  35.053  1.00  0.00     0.029 A 
ATOM     57  C   UNL A   1      44.572  29.197  33.941  1.00  0.00     0.049 A 
ATOM     58  H   UNL A   1      42.853  29.439  32.741  1.00  0.00     0.167 HD
ATOM     59  C   UNL A   1      44.783  27.432  32.213  1.00  0.00     0.074 A 
ATOM     60  C   UNL A   1      45.467  26.322  31.584  1.00  0.00     0.031 C 
ATOM     61  C   UNL A   1      45.240  28.089  33.307  1.00  0.00     0.031 A 
BRANCH  48  62
ATOM     62  C   UNL A   1      41.601  32.722  35.173  1.00  0.00    -0.014 A 
ATOM     63  C   UNL A   1      40.822  32.544  36.332  1.00  0.00     0.010 A 
ATOM     64  C   UNL A   1      42.213  33.967  34.945  1.00  0.00     0.010 A 
ATOM     65  C   UNL A   1      40.626  33.603  37.222  1.00  0.00     0.020 A 
ATOM     66  C   UNL A   1      42.043  35.021  35.847  1.00  0.00     0.020 A 
ATOM     67  C   UNL A   1      41.236  34.836  36.973  1.00  0.00     0.054 A 
BRANCH  67  68
ATOM     68  S   UNL A   1      40.985  36.185  38.159  1.00  0.00     0.124 S 
ATOM     69  O   UNL A   1      42.219  36.952  38.006  1.00  0.00    -0.237 OA
ATOM     70  O   UNL A   1      39.776  36.833  37.657  1.00  0.00    -0.237 OA
ATOM     71  O   UNL A   1      40.833  35.497  39.439  1.00  0.00    -0.744 OA
ENDBRANCH  67  68
ENDBRANCH  48  62
BRANCH  49  72
ATOM     72  C   UNL A   1      42.807  25.458  28.428  1.00  0.00    -0.014 A 
ATOM     73  C   UNL A   1      42.448  24.128  28.711  1.00  0.00     0.010 A 
ATOM     74  C   UNL A   1      43.366  25.762  27.174  1.00  0.00     0.010 A 
ATOM     75  C   UNL A   1      42.666  23.118  27.770  1.00  0.00     0.020 A 
ATOM     76  C   UNL A   1      43.560  24.759  26.219  1.00  0.00     0.020 A 
ATOM     77  C   UNL A   1      43.222  23.441  26.529  1.00  0.00     0.054 A 
BRANCH  77  78
ATOM     78  S   UNL A   1      43.462  22.121  25.307  1.00  0.00     0.124 S 
ATOM     79  O   UNL A   1      44.771  21.596  25.679  1.00  0.00    -0.237 OA
ATOM     80  O   UNL A   1      42.328  21.238  25.566  1.00  0.00    -0.237 OA
ATOM     81  O   UNL A   1      43.409  22.828  24.028  1.00  0.00    -0.744 OA
ENDBRANCH  77  78
ENDBRANCH  49  72
BRANCH  61  82
ATOM     82  C   UNL A   1      46.526  27.602  33.920  1.00  0.00    -0.014 A 
ATOM     83  C   UNL A   1      46.531  26.599  34.905  1.00  0.00     0.010 A 
ATOM     84  C   UNL A   1      47.752  28.120  33.460  1.00  0.00     0.010 A 
ATOM     85  C   UNL A   1      47.739  26.143  35.440  1.00  0.00     0.020 A 
ATOM     86  C   UNL A   1      48.962  27.647  33.974  1.00  0.00     0.020 A 
ATOM     87  C   UNL A   1      48.947  26.669  34.971  1.00  0.00     0.054 A 
BRANCH  87  88
ATOM     88  S   UNL A   1      50.503  26.027  35.647  1.00  0.00     0.124 S 
ATOM     89  O   UNL A   1      51.366  27.204  35.593  1.00  0.00    -0.237 OA
ATOM     90  O   UNL A   1      50.116  25.591  36.987  1.00  0.00    -0.237 OA
ATOM     91  O   UNL A   1      50.861  24.950  34.727  1.00  0.00    -0.744 OA
ENDBRANCH  87  88
ENDBRANCH  61  82
ENDBRANCH  35  36
ENDBRANCH  27  30
ENDBRANCH  25  26
ENDBRANCH   1  25
TORSDOF 16
ENDMDL
