MODEL 1
REMARK VINA RESULT:     -13.4      0.000      0.000
REMARK SMILES Cc1cccc(CC(=O)N2CCC3(CCC(=O)N([C@H](C)C(=O)NCCCCNC(=O)c4ccc(-c5c6nc(c(-c7ccc(S(=O)(=O)[O-])cc7)c7ccc([nH]7)c(-c7ccc(S(=O)(=O)[O-])cc7)c7nc(c(-c8ccc(S(=O)(=O)[O-])cc8)c8ccc5[nH]8)C=C7)C=C6)cc4)C3)CC2)c1
REMARK SMILES IDX 25 1 24 2 23 3 21 4 22 5 19 7 20 8 18 9 8 10 9 11 10 12
REMARK SMILES IDX 11 13 93 14 12 15 92 16 13 17 14 18 91 19 15 20 16 21 17 22
REMARK SMILES IDX 7 23 6 24 1 25 2 26 3 27 94 28 4 29 5 30 26 31 27 32 28 33
REMARK SMILES IDX 29 34 30 36 31 37 32 38 90 39 33 40 89 41 34 42 35 43 36 44
REMARK SMILES IDX 83 45 37 46 88 47 82 48 84 49 38 50 87 51 81 52 80 53 39 55
REMARK SMILES IDX 69 56 50 57 68 58 51 59 54 60 67 61 85 62 52 63 53 64 66 66
REMARK SMILES IDX 86 67 55 68 40 69 41 70 49 71 42 72 48 73 43 74 44 75 45 76
REMARK SMILES IDX 46 77 47 78 70 79 71 80 79 81 72 82 78 83 73 84 74 85 75 86
REMARK SMILES IDX 76 87 77 88 56 89 57 90 65 91 58 92 64 93 59 94 60 95 61 96
REMARK SMILES IDX 62 97 63 98
REMARK H PARENT 23 6 28 35 84 54 54 65
REMARK Flexibility Score: inf
ROOT
ATOM      1  C   UNL A   1      32.224  30.826  26.425  1.00  0.00     0.023 C 
ENDROOT
BRANCH   1   2
ATOM      2  C   UNL A   1      31.409  30.212  25.287  1.00  0.00     0.116 C 
BRANCH   2   3
ATOM      3  N   UNL A   1      30.315  31.050  24.813  1.00  0.00    -0.354 N 
ATOM      4  C   UNL A   1      29.456  30.867  23.764  1.00  0.00     0.242 C 
ATOM      5  O   UNL A   1      28.448  31.583  23.716  1.00  0.00    -0.273 OA
ATOM      6  H   UNL A   1      30.172  31.877  25.328  1.00  0.00     0.163 HD
BRANCH   4   7
ATOM      7  C   UNL A   1      29.752  29.869  22.613  1.00  0.00     0.171 C 
ATOM      8  C   UNL A   1      31.191  29.992  22.106  1.00  0.00     0.042 C 
BRANCH   7   9
ATOM      9  N   UNL A   1      29.333  28.459  22.729  1.00  0.00    -0.330 N 
ATOM     10  C   UNL A   1      33.482  24.062  25.287  1.00  0.00     0.226 C 
ATOM     11  O   UNL A   1      33.985  24.347  26.381  1.00  0.00    -0.275 OA
ATOM     12  N   UNL A   1      32.234  24.557  24.932  1.00  0.00    -0.342 N 
ATOM     13  C   UNL A   1      31.669  25.691  25.661  1.00  0.00     0.120 C 
ATOM     14  C   UNL A   1      31.332  24.003  23.933  1.00  0.00     0.120 C 
ATOM     15  C   UNL A   1      31.248  26.797  24.679  1.00  0.00     0.030 C 
ATOM     16  C   UNL A   1      31.038  25.050  22.872  1.00  0.00     0.030 C 
ATOM     17  C   UNL A   1      30.365  26.298  23.497  1.00  0.00    -0.008 C 
ATOM     18  C   UNL A   1      28.934  25.907  23.948  1.00  0.00     0.019 C 
ATOM     19  C   UNL A   1      30.270  27.394  22.409  1.00  0.00     0.127 C 
ATOM     20  C   UNL A   1      28.049  27.098  24.249  1.00  0.00     0.101 C 
ATOM     21  C   UNL A   1      28.061  28.104  23.130  1.00  0.00     0.223 C 
ATOM     22  O   UNL A   1      27.036  28.644  22.736  1.00  0.00    -0.275 OA
BRANCH  10  23
ATOM     23  C   UNL A   1      34.363  23.358  24.254  1.00  0.00     0.135 C 
BRANCH  23  24
ATOM     24  C   UNL A   1      34.659  21.890  24.419  1.00  0.00    -0.038 A 
ATOM     25  C   UNL A   1      32.671  18.640  24.648  1.00  0.00     0.044 C 
ATOM     26  C   UNL A   1      33.817  19.607  24.627  1.00  0.00    -0.051 A 
ATOM     27  C   UNL A   1      35.106  19.180  24.964  1.00  0.00     0.003 A 
ATOM     28  C   UNL A   1      33.608  20.959  24.329  1.00  0.00     0.007 A 
ATOM     29  C   UNL A   1      36.166  20.089  25.001  1.00  0.00     0.001 A 
ATOM     30  C   UNL A   1      35.947  21.440  24.729  1.00  0.00     0.004 A 
ENDBRANCH  23  24
ENDBRANCH  10  23
ENDBRANCH   7   9
ENDBRANCH   4   7
ENDBRANCH   2   3
ENDBRANCH   1   2
BRANCH   1  31
ATOM     31  C   UNL A   1      32.838  29.836  27.415  1.00  0.00     0.023 C 
BRANCH  31  32
ATOM     32  C   UNL A   1      34.291  29.467  27.152  1.00  0.00     0.116 C 
BRANCH  32  33
ATOM     33  N   UNL A   1      35.220  30.581  27.047  1.00  0.00    -0.352 N 
ATOM     34  C   UNL A   1      36.182  30.794  28.036  1.00  0.00     0.251 C 
ATOM     35  H   UNL A   1      35.171  31.188  26.274  1.00  0.00     0.163 HD
ATOM     36  O   UNL A   1      36.267  31.810  28.702  1.00  0.00    -0.269 OA
BRANCH  34  37
ATOM     37  C   UNL A   1      37.131  29.670  28.222  1.00  0.00     0.039 A 
ATOM     38  C   UNL A   1      37.147  28.958  29.423  1.00  0.00     0.014 A 
ATOM     39  C   UNL A   1      38.134  29.491  27.272  1.00  0.00     0.014 A 
ATOM     40  C   UNL A   1      38.258  28.169  29.736  1.00  0.00     0.010 A 
ATOM     41  C   UNL A   1      39.269  28.793  27.623  1.00  0.00     0.010 A 
ATOM     42  C   UNL A   1      39.347  28.151  28.865  1.00  0.00    -0.014 A 
BRANCH  42  43
ATOM     43  C   UNL A   1      40.643  27.545  29.154  1.00  0.00     0.031 A 
ATOM     44  C   UNL A   1      40.915  26.142  28.766  1.00  0.00     0.074 A 
ATOM     45  C   UNL A   1      41.658  28.323  29.584  1.00  0.00     0.049 A 
ATOM     46  N   UNL A   1      41.921  25.447  29.181  1.00  0.00    -0.248 NA
ATOM     47  C   UNL A   1      40.022  25.389  27.892  1.00  0.00     0.031 C 
ATOM     48  C   UNL A   1      43.088  28.040  29.502  1.00  0.00     0.029 A 
ATOM     49  N   UNL A   1      41.577  29.462  30.381  1.00  0.00    -0.354 N 
ATOM     50  C   UNL A   1      41.989  24.315  28.401  1.00  0.00     0.074 A 
ATOM     51  C   UNL A   1      40.733  24.276  27.691  1.00  0.00     0.031 C 
ATOM     52  C   UNL A   1      43.736  28.809  30.390  1.00  0.00     0.029 A 
ATOM     53  C   UNL A   1      42.726  29.477  31.192  1.00  0.00     0.049 A 
ATOM     54  H   UNL A   1      40.853  30.129  30.378  1.00  0.00     0.167 HD
ATOM     55  C   UNL A   1      43.162  23.619  28.326  1.00  0.00     0.031 A 
ATOM     56  C   UNL A   1      42.627  29.365  32.551  1.00  0.00     0.031 A 
ATOM     57  C   UNL A   1      44.163  24.138  29.260  1.00  0.00     0.049 A 
ATOM     58  C   UNL A   1      43.319  28.149  33.128  1.00  0.00     0.074 A 
ATOM     59  C   UNL A   1      45.296  24.919  29.105  1.00  0.00     0.029 A 
ATOM     60  N   UNL A   1      43.906  24.091  30.626  1.00  0.00    -0.354 N 
ATOM     61  N   UNL A   1      43.726  27.126  32.427  1.00  0.00    -0.248 NA
ATOM     62  C   UNL A   1      43.589  27.980  34.553  1.00  0.00     0.031 C 
ATOM     63  C   UNL A   1      45.686  25.391  30.386  1.00  0.00     0.029 A 
ATOM     64  C   UNL A   1      44.804  24.879  31.321  1.00  0.00     0.049 A 
ATOM     65  H   UNL A   1      43.182  23.569  31.041  1.00  0.00     0.167 HD
ATOM     66  C   UNL A   1      44.268  26.175  33.255  1.00  0.00     0.074 A 
ATOM     67  C   UNL A   1      44.185  26.774  34.575  1.00  0.00     0.031 C 
ATOM     68  C   UNL A   1      44.719  24.976  32.775  1.00  0.00     0.031 A 
BRANCH  55  69
ATOM     69  C   UNL A   1      43.492  22.650  27.204  1.00  0.00    -0.014 A 
ATOM     70  C   UNL A   1      42.643  21.549  26.956  1.00  0.00     0.010 A 
ATOM     71  C   UNL A   1      44.649  22.719  26.405  1.00  0.00     0.010 A 
ATOM     72  C   UNL A   1      42.982  20.531  26.049  1.00  0.00     0.020 A 
ATOM     73  C   UNL A   1      45.019  21.695  25.519  1.00  0.00     0.020 A 
ATOM     74  C   UNL A   1      44.188  20.595  25.357  1.00  0.00     0.054 A 
BRANCH  74  75
ATOM     75  S   UNL A   1      44.658  19.238  24.255  1.00  0.00     0.124 S 
ATOM     76  O   UNL A   1      46.053  19.003  24.620  1.00  0.00    -0.237 OA
ATOM     77  O   UNL A   1      43.721  18.185  24.635  1.00  0.00    -0.237 OA
ATOM     78  O   UNL A   1      44.459  19.791  22.916  1.00  0.00    -0.744 OA
ENDBRANCH  74  75
ENDBRANCH  55  69
BRANCH  56  79
ATOM     79  C   UNL A   1      41.396  30.005  33.104  1.00  0.00    -0.014 A 
ATOM     80  C   UNL A   1      41.383  31.416  33.179  1.00  0.00     0.010 A 
ATOM     81  C   UNL A   1      40.171  29.314  33.096  1.00  0.00     0.010 A 
ATOM     82  C   UNL A   1      40.187  32.122  33.039  1.00  0.00     0.020 A 
ATOM     83  C   UNL A   1      38.967  30.024  32.976  1.00  0.00     0.020 A 
ATOM     84  C   UNL A   1      38.996  31.418  32.862  1.00  0.00     0.054 A 
BRANCH  84  85
ATOM     85  S   UNL A   1      37.540  32.343  32.285  1.00  0.00     0.124 S 
ATOM     86  O   UNL A   1      36.577  31.278  32.021  1.00  0.00    -0.237 OA
ATOM     87  O   UNL A   1      37.233  33.192  33.439  1.00  0.00    -0.237 OA
ATOM     88  O   UNL A   1      38.030  33.053  31.107  1.00  0.00    -0.744 OA
ENDBRANCH  84  85
ENDBRANCH  56  79
BRANCH  68  89
ATOM     89  C   UNL A   1      45.181  23.780  33.589  1.00  0.00    -0.014 A 
ATOM     90  C   UNL A   1      46.464  23.622  34.135  1.00  0.00     0.010 A 
ATOM     91  C   UNL A   1      44.232  22.778  33.921  1.00  0.00     0.010 A 
ATOM     92  C   UNL A   1      46.798  22.505  34.918  1.00  0.00     0.020 A 
ATOM     93  C   UNL A   1      44.539  21.685  34.738  1.00  0.00     0.020 A 
ATOM     94  C   UNL A   1      45.833  21.542  35.215  1.00  0.00     0.054 A 
BRANCH  94  95
ATOM     95  S   UNL A   1      46.260  20.147  36.286  1.00  0.00     0.124 S 
ATOM     96  O   UNL A   1      45.423  19.081  35.742  1.00  0.00    -0.237 OA
ATOM     97  O   UNL A   1      47.696  19.990  36.062  1.00  0.00    -0.237 OA
ATOM     98  O   UNL A   1      45.894  20.614  37.620  1.00  0.00    -0.744 OA
ENDBRANCH  94  95
ENDBRANCH  68  89
ENDBRANCH  42  43
ENDBRANCH  34  37
ENDBRANCH  32  33
ENDBRANCH  31  32
ENDBRANCH   1  31
TORSDOF 17
ENDMDL
MODEL 2
REMARK VINA RESULT:     -12.4      3.009      3.885
REMARK SMILES Cc1cccc(CC(=O)N2CCC3(CCC(=O)N([C@H](C)C(=O)NCCCCNC(=O)c4ccc(-c5c6nc(c(-c7ccc(S(=O)(=O)[O-])cc7)c7ccc([nH]7)c(-c7ccc(S(=O)(=O)[O-])cc7)c7nc(c(-c8ccc(S(=O)(=O)[O-])cc8)c8ccc5[nH]8)C=C7)C=C6)cc4)C3)CC2)c1
REMARK SMILES IDX 25 1 24 2 23 3 21 4 22 5 19 7 20 8 18 9 8 10 9 11 10 12
REMARK SMILES IDX 11 13 93 14 12 15 92 16 13 17 14 18 91 19 15 20 16 21 17 22
REMARK SMILES IDX 7 23 6 24 1 25 2 26 3 27 94 28 4 29 5 30 26 31 27 32 28 33
REMARK SMILES IDX 29 34 30 36 31 37 32 38 90 39 33 40 89 41 34 42 35 43 36 44
REMARK SMILES IDX 83 45 37 46 88 47 82 48 84 49 38 50 87 51 81 52 80 53 39 55
REMARK SMILES IDX 69 56 50 57 68 58 51 59 54 60 67 61 85 62 52 63 53 64 66 66
REMARK SMILES IDX 86 67 55 68 40 69 41 70 49 71 42 72 48 73 43 74 44 75 45 76
REMARK SMILES IDX 46 77 47 78 70 79 71 80 79 81 72 82 78 83 73 84 74 85 75 86
REMARK SMILES IDX 76 87 77 88 56 89 57 90 65 91 58 92 64 93 59 94 60 95 61 96
REMARK SMILES IDX 62 97 63 98
REMARK H PARENT 23 6 28 35 84 54 54 65
REMARK Flexibility Score: inf
ROOT
ATOM      1  C   UNL A   1      33.437  31.207  27.680  1.00  0.00     0.023 C 
ENDROOT
BRANCH   1   2
ATOM      2  C   UNL A   1      32.327  30.727  26.747  1.00  0.00     0.116 C 
BRANCH   2   3
ATOM      3  N   UNL A   1      31.767  29.428  27.099  1.00  0.00    -0.354 N 
ATOM      4  C   UNL A   1      31.882  28.220  26.468  1.00  0.00     0.242 C 
ATOM      5  O   UNL A   1      31.534  27.211  27.094  1.00  0.00    -0.273 OA
ATOM      6  H   UNL A   1      31.222  29.419  27.920  1.00  0.00     0.163 HD
BRANCH   4   7
ATOM      7  C   UNL A   1      32.341  28.095  24.990  1.00  0.00     0.171 C 
ATOM      8  C   UNL A   1      33.857  28.243  24.849  1.00  0.00     0.042 C 
BRANCH   7   9
ATOM      9  N   UNL A   1      31.817  27.007  24.143  1.00  0.00    -0.330 N 
ATOM     10  C   UNL A   1      33.528  20.803  25.438  1.00  0.00     0.226 C 
ATOM     11  O   UNL A   1      33.370  20.417  26.603  1.00  0.00    -0.275 OA
ATOM     12  N   UNL A   1      32.722  21.801  24.908  1.00  0.00    -0.342 N 
ATOM     13  C   UNL A   1      31.940  22.654  25.803  1.00  0.00     0.120 C 
ATOM     14  C   UNL A   1      32.474  22.061  23.498  1.00  0.00     0.120 C 
ATOM     15  C   UNL A   1      32.214  24.136  25.497  1.00  0.00     0.030 C 
ATOM     16  C   UNL A   1      32.892  23.481  23.158  1.00  0.00     0.030 C 
ATOM     17  C   UNL A   1      32.087  24.511  23.991  1.00  0.00    -0.008 C 
ATOM     18  C   UNL A   1      30.618  24.496  23.497  1.00  0.00     0.019 C 
ATOM     19  C   UNL A   1      32.690  25.913  23.742  1.00  0.00     0.127 C 
ATOM     20  C   UNL A   1      29.809  25.684  23.973  1.00  0.00     0.101 C 
ATOM     21  C   UNL A   1      30.511  26.988  23.700  1.00  0.00     0.223 C 
ATOM     22  O   UNL A   1      29.914  27.963  23.262  1.00  0.00    -0.275 OA
BRANCH  10  23
ATOM     23  C   UNL A   1      34.772  20.327  24.687  1.00  0.00     0.135 C 
BRANCH  23  24
ATOM     24  C   UNL A   1      36.103  20.964  24.990  1.00  0.00    -0.038 A 
ATOM     25  C   UNL A   1      39.673  19.803  25.683  1.00  0.00     0.044 C 
ATOM     26  C   UNL A   1      38.477  20.689  25.491  1.00  0.00    -0.051 A 
ATOM     27  C   UNL A   1      38.554  22.052  25.795  1.00  0.00     0.003 A 
ATOM     28  C   UNL A   1      37.255  20.158  25.063  1.00  0.00     0.007 A 
ATOM     29  C   UNL A   1      37.429  22.870  25.673  1.00  0.00     0.001 A 
ATOM     30  C   UNL A   1      36.205  22.331  25.271  1.00  0.00     0.004 A 
ENDBRANCH  23  24
ENDBRANCH  10  23
ENDBRANCH   7   9
ENDBRANCH   4   7
ENDBRANCH   2   3
ENDBRANCH   1   2
BRANCH   1  31
ATOM     31  C   UNL A   1      34.862  30.836  27.268  1.00  0.00     0.023 C 
BRANCH  31  32
ATOM     32  C   UNL A   1      35.518  29.743  28.099  1.00  0.00     0.116 C 
BRANCH  32  33
ATOM     33  N   UNL A   1      35.894  30.114  29.454  1.00  0.00    -0.352 N 
ATOM     34  C   UNL A   1      36.906  29.423  30.122  1.00  0.00     0.251 C 
ATOM     35  H   UNL A   1      35.431  30.858  29.903  1.00  0.00     0.163 HD
ATOM     36  O   UNL A   1      36.750  28.824  31.170  1.00  0.00    -0.269 OA
BRANCH  34  37
ATOM     37  C   UNL A   1      38.229  29.475  29.453  1.00  0.00     0.039 A 
ATOM     38  C   UNL A   1      38.367  29.024  28.138  1.00  0.00     0.014 A 
ATOM     39  C   UNL A   1      39.347  29.773  30.228  1.00  0.00     0.014 A 
ATOM     40  C   UNL A   1      39.642  28.728  27.648  1.00  0.00     0.010 A 
ATOM     41  C   UNL A   1      40.592  29.389  29.778  1.00  0.00     0.010 A 
ATOM     42  C   UNL A   1      40.742  28.841  28.498  1.00  0.00    -0.014 A 
BRANCH  42  43
ATOM     43  C   UNL A   1      42.091  28.377  28.192  1.00  0.00     0.031 A 
ATOM     44  C   UNL A   1      42.392  26.928  28.152  1.00  0.00     0.074 A 
ATOM     45  C   UNL A   1      43.009  29.257  27.741  1.00  0.00     0.049 A 
ATOM     46  N   UNL A   1      43.581  26.425  28.131  1.00  0.00    -0.248 NA
ATOM     47  C   UNL A   1      41.344  25.913  28.182  1.00  0.00     0.031 C 
ATOM     48  C   UNL A   1      44.217  28.965  26.975  1.00  0.00     0.029 A 
ATOM     49  N   UNL A   1      43.129  30.605  28.072  1.00  0.00    -0.354 N 
ATOM     50  C   UNL A   1      43.459  25.090  27.818  1.00  0.00     0.074 A 
ATOM     51  C   UNL A   1      42.051  24.802  27.963  1.00  0.00     0.031 C 
ATOM     52  C   UNL A   1      45.065  29.998  27.087  1.00  0.00     0.029 A 
ATOM     53  C   UNL A   1      44.503  30.906  28.071  1.00  0.00     0.049 A 
ATOM     54  H   UNL A   1      42.392  31.227  28.270  1.00  0.00     0.167 HD
ATOM     55  C   UNL A   1      44.535  24.413  27.321  1.00  0.00     0.031 A 
ATOM     56  C   UNL A   1      45.139  31.281  29.222  1.00  0.00     0.031 A 
ATOM     57  C   UNL A   1      45.751  25.230  27.348  1.00  0.00     0.049 A 
ATOM     58  C   UNL A   1      46.250  30.348  29.652  1.00  0.00     0.074 A 
ATOM     59  C   UNL A   1      46.466  25.906  26.374  1.00  0.00     0.029 A 
ATOM     60  N   UNL A   1      46.246  25.669  28.572  1.00  0.00    -0.354 N 
ATOM     61  N   UNL A   1      46.429  29.144  29.182  1.00  0.00    -0.248 NA
ATOM     62  C   UNL A   1      47.240  30.694  30.668  1.00  0.00     0.031 C 
ATOM     63  C   UNL A   1      47.358  26.801  27.023  1.00  0.00     0.029 A 
ATOM     64  C   UNL A   1      47.200  26.652  28.389  1.00  0.00     0.049 A 
ATOM     65  H   UNL A   1      45.956  25.326  29.447  1.00  0.00     0.167 HD
ATOM     66  C   UNL A   1      47.492  28.548  29.813  1.00  0.00     0.074 A 
ATOM     67  C   UNL A   1      47.984  29.575  30.715  1.00  0.00     0.031 C 
ATOM     68  C   UNL A   1      47.857  27.256  29.545  1.00  0.00     0.031 A 
BRANCH  55  69
ATOM     69  C   UNL A   1      44.424  23.110  26.548  1.00  0.00    -0.014 A 
ATOM     70  C   UNL A   1      43.289  22.290  26.718  1.00  0.00     0.010 A 
ATOM     71  C   UNL A   1      45.423  22.600  25.697  1.00  0.00     0.010 A 
ATOM     72  C   UNL A   1      43.205  21.001  26.164  1.00  0.00     0.020 A 
ATOM     73  C   UNL A   1      45.371  21.303  25.162  1.00  0.00     0.020 A 
ATOM     74  C   UNL A   1      44.265  20.502  25.412  1.00  0.00     0.054 A 
BRANCH  74  75
ATOM     75  S   UNL A   1      44.188  18.810  24.774  1.00  0.00     0.124 S 
ATOM     76  O   UNL A   1      45.286  18.155  25.480  1.00  0.00    -0.237 OA
ATOM     77  O   UNL A   1      42.846  18.387  25.163  1.00  0.00    -0.237 OA
ATOM     78  O   UNL A   1      44.394  18.971  23.335  1.00  0.00    -0.744 OA
ENDBRANCH  74  75
ENDBRANCH  55  69
BRANCH  56  79
ATOM     79  C   UNL A   1      44.269  32.075  30.141  1.00  0.00    -0.014 A 
ATOM     80  C   UNL A   1      43.670  33.240  29.612  1.00  0.00     0.010 A 
ATOM     81  C   UNL A   1      43.698  31.472  31.275  1.00  0.00     0.010 A 
ATOM     82  C   UNL A   1      42.423  33.668  30.073  1.00  0.00     0.020 A 
ATOM     83  C   UNL A   1      42.454  31.914  31.752  1.00  0.00     0.020 A 
ATOM     84  C   UNL A   1      41.791  32.954  31.091  1.00  0.00     0.054 A 
BRANCH  84  85
ATOM     85  S   UNL A   1      40.026  33.279  31.387  1.00  0.00     0.124 S 
ATOM     86  O   UNL A   1      39.464  33.208  30.041  1.00  0.00    -0.237 OA
ATOM     87  O   UNL A   1      39.652  32.178  32.279  1.00  0.00    -0.237 OA
ATOM     88  O   UNL A   1      40.019  34.603  32.000  1.00  0.00    -0.744 OA
ENDBRANCH  84  85
ENDBRANCH  56  79
BRANCH  68  89
ATOM     89  C   UNL A   1      48.894  26.426  30.281  1.00  0.00    -0.014 A 
ATOM     90  C   UNL A   1      50.234  26.282  29.894  1.00  0.00     0.010 A 
ATOM     91  C   UNL A   1      48.527  25.819  31.511  1.00  0.00     0.010 A 
ATOM     92  C   UNL A   1      51.144  25.532  30.659  1.00  0.00     0.020 A 
ATOM     93  C   UNL A   1      49.434  25.109  32.304  1.00  0.00     0.020 A 
ATOM     94  C   UNL A   1      50.738  24.949  31.859  1.00  0.00     0.054 A 
BRANCH  94  95
ATOM     95  S   UNL A   1      51.940  24.048  32.869  1.00  0.00     0.124 S 
ATOM     96  O   UNL A   1      51.523  24.401  34.223  1.00  0.00    -0.237 OA
ATOM     97  O   UNL A   1      51.710  22.656  32.486  1.00  0.00    -0.237 OA
ATOM     98  O   UNL A   1      53.225  24.598  32.445  1.00  0.00    -0.744 OA
ENDBRANCH  94  95
ENDBRANCH  68  89
ENDBRANCH  42  43
ENDBRANCH  34  37
ENDBRANCH  32  33
ENDBRANCH  31  32
ENDBRANCH   1  31
TORSDOF 17
ENDMDL
MODEL 3
REMARK VINA RESULT:     -12.1      1.700      2.331
REMARK SMILES Cc1cccc(CC(=O)N2CCC3(CCC(=O)N([C@H](C)C(=O)NCCCCNC(=O)c4ccc(-c5c6nc(c(-c7ccc(S(=O)(=O)[O-])cc7)c7ccc([nH]7)c(-c7ccc(S(=O)(=O)[O-])cc7)c7nc(c(-c8ccc(S(=O)(=O)[O-])cc8)c8ccc5[nH]8)C=C7)C=C6)cc4)C3)CC2)c1
REMARK SMILES IDX 25 1 24 2 23 3 21 4 22 5 19 7 20 8 18 9 8 10 9 11 10 12
REMARK SMILES IDX 11 13 93 14 12 15 92 16 13 17 14 18 91 19 15 20 16 21 17 22
REMARK SMILES IDX 7 23 6 24 1 25 2 26 3 27 94 28 4 29 5 30 26 31 27 32 28 33
REMARK SMILES IDX 29 34 30 36 31 37 32 38 90 39 33 40 89 41 34 42 35 43 36 44
REMARK SMILES IDX 83 45 37 46 88 47 82 48 84 49 38 50 87 51 81 52 80 53 39 55
REMARK SMILES IDX 69 56 50 57 68 58 51 59 54 60 67 61 85 62 52 63 53 64 66 66
REMARK SMILES IDX 86 67 55 68 40 69 41 70 49 71 42 72 48 73 43 74 44 75 45 76
REMARK SMILES IDX 46 77 47 78 70 79 71 80 79 81 72 82 78 83 73 84 74 85 75 86
REMARK SMILES IDX 76 87 77 88 56 89 57 90 65 91 58 92 64 93 59 94 60 95 61 96
REMARK SMILES IDX 62 97 63 98
REMARK H PARENT 23 6 28 35 84 54 54 65
REMARK Flexibility Score: inf
ROOT
ATOM      1  C   UNL A   1      32.607  31.783  26.640  1.00  0.00     0.023 C 
ENDROOT
BRANCH   1   2
ATOM      2  C   UNL A   1      31.169  32.298  26.580  1.00  0.00     0.116 C 
BRANCH   2   3
ATOM      3  N   UNL A   1      30.843  33.028  25.362  1.00  0.00    -0.354 N 
ATOM      4  C   UNL A   1      29.896  32.770  24.409  1.00  0.00     0.242 C 
ATOM      5  O   UNL A   1      29.635  33.672  23.602  1.00  0.00    -0.273 OA
ATOM      6  H   UNL A   1      31.389  33.831  25.200  1.00  0.00     0.163 HD
BRANCH   4   7
ATOM      7  C   UNL A   1      29.222  31.380  24.260  1.00  0.00     0.171 C 
ATOM      8  C   UNL A   1      27.703  31.493  24.114  1.00  0.00     0.042 C 
BRANCH   7   9
ATOM      9  N   UNL A   1      29.786  30.379  23.335  1.00  0.00    -0.330 N 
ATOM     10  C   UNL A   1      32.593  24.963  25.760  1.00  0.00     0.226 C 
ATOM     11  O   UNL A   1      31.930  24.315  26.580  1.00  0.00    -0.275 OA
ATOM     12  N   UNL A   1      31.964  25.725  24.785  1.00  0.00    -0.342 N 
ATOM     13  C   UNL A   1      30.550  26.069  24.932  1.00  0.00     0.120 C 
ATOM     14  C   UNL A   1      32.539  26.173  23.526  1.00  0.00     0.120 C 
ATOM     15  C   UNL A   1      30.354  27.587  24.789  1.00  0.00     0.030 C 
ATOM     16  C   UNL A   1      32.489  27.689  23.450  1.00  0.00     0.030 C 
ATOM     17  C   UNL A   1      31.028  28.200  23.525  1.00  0.00    -0.008 C 
ATOM     18  C   UNL A   1      30.304  27.803  22.214  1.00  0.00     0.019 C 
ATOM     19  C   UNL A   1      31.058  29.743  23.639  1.00  0.00     0.127 C 
ATOM     20  C   UNL A   1      28.994  28.533  22.003  1.00  0.00     0.101 C 
ATOM     21  C   UNL A   1      29.147  30.021  22.166  1.00  0.00     0.223 C 
ATOM     22  O   UNL A   1      28.618  30.812  21.396  1.00  0.00    -0.275 OA
BRANCH  10  23
ATOM     23  C   UNL A   1      34.098  25.090  25.995  1.00  0.00     0.135 C 
BRANCH  23  24
ATOM     24  C   UNL A   1      35.034  24.135  25.301  1.00  0.00    -0.038 A 
ATOM     25  C   UNL A   1      38.439  22.552  25.987  1.00  0.00     0.044 C 
ATOM     26  C   UNL A   1      37.155  22.925  25.306  1.00  0.00    -0.051 A 
ATOM     27  C   UNL A   1      36.933  22.563  23.973  1.00  0.00     0.003 A 
ATOM     28  C   UNL A   1      36.188  23.688  25.971  1.00  0.00     0.007 A 
ATOM     29  C   UNL A   1      35.765  22.957  23.317  1.00  0.00     0.001 A 
ATOM     30  C   UNL A   1      34.816  23.740  23.976  1.00  0.00     0.004 A 
ENDBRANCH  23  24
ENDBRANCH  10  23
ENDBRANCH   7   9
ENDBRANCH   4   7
ENDBRANCH   2   3
ENDBRANCH   1   2
BRANCH   1  31
ATOM     31  C   UNL A   1      33.538  32.514  27.608  1.00  0.00     0.023 C 
BRANCH  31  32
ATOM     32  C   UNL A   1      34.643  31.664  28.216  1.00  0.00     0.116 C 
BRANCH  32  33
ATOM     33  N   UNL A   1      34.384  30.235  28.279  1.00  0.00    -0.352 N 
ATOM     34  C   UNL A   1      35.182  29.339  27.564  1.00  0.00     0.251 C 
ATOM     35  H   UNL A   1      33.642  29.896  28.830  1.00  0.00     0.163 HD
ATOM     36  O   UNL A   1      34.763  28.580  26.710  1.00  0.00    -0.269 OA
BRANCH  34  37
ATOM     37  C   UNL A   1      36.618  29.368  27.933  1.00  0.00     0.039 A 
ATOM     38  C   UNL A   1      37.589  29.569  26.949  1.00  0.00     0.014 A 
ATOM     39  C   UNL A   1      36.975  28.977  29.221  1.00  0.00     0.014 A 
ATOM     40  C   UNL A   1      38.918  29.230  27.222  1.00  0.00     0.010 A 
ATOM     41  C   UNL A   1      38.265  28.554  29.456  1.00  0.00     0.010 A 
ATOM     42  C   UNL A   1      39.235  28.653  28.451  1.00  0.00    -0.014 A 
BRANCH  42  43
ATOM     43  C   UNL A   1      40.527  28.067  28.795  1.00  0.00     0.031 A 
ATOM     44  C   UNL A   1      40.826  26.660  28.447  1.00  0.00     0.074 A 
ATOM     45  C   UNL A   1      41.519  28.866  29.240  1.00  0.00     0.049 A 
ATOM     46  N   UNL A   1      41.824  25.985  28.910  1.00  0.00    -0.248 NA
ATOM     47  C   UNL A   1      39.970  25.877  27.561  1.00  0.00     0.031 C 
ATOM     48  C   UNL A   1      42.954  28.597  29.211  1.00  0.00     0.029 A 
ATOM     49  N   UNL A   1      41.401  30.021  30.009  1.00  0.00    -0.354 N 
ATOM     50  C   UNL A   1      41.930  24.836  28.158  1.00  0.00     0.074 A 
ATOM     51  C   UNL A   1      40.697  24.768  27.408  1.00  0.00     0.031 C 
ATOM     52  C   UNL A   1      43.565  29.391  30.102  1.00  0.00     0.029 A 
ATOM     53  C   UNL A   1      42.523  30.066  30.856  1.00  0.00     0.049 A 
ATOM     54  H   UNL A   1      40.670  30.680  29.967  1.00  0.00     0.167 HD
ATOM     55  C   UNL A   1      43.111  24.152  28.136  1.00  0.00     0.031 A 
ATOM     56  C   UNL A   1      42.380  29.981  32.214  1.00  0.00     0.031 A 
ATOM     57  C   UNL A   1      44.076  24.702  29.091  1.00  0.00     0.049 A 
ATOM     58  C   UNL A   1      43.065  28.786  32.840  1.00  0.00     0.074 A 
ATOM     59  C   UNL A   1      45.206  25.491  28.954  1.00  0.00     0.029 A 
ATOM     60  N   UNL A   1      43.775  24.682  30.448  1.00  0.00    -0.354 N 
ATOM     61  N   UNL A   1      43.506  27.753  32.174  1.00  0.00    -0.248 NA
ATOM     62  C   UNL A   1      43.290  28.651  34.275  1.00  0.00     0.031 C 
ATOM     63  C   UNL A   1      45.549  25.996  30.237  1.00  0.00     0.029 A 
ATOM     64  C   UNL A   1      44.642  25.494  31.154  1.00  0.00     0.049 A 
ATOM     65  H   UNL A   1      43.043  24.161  30.851  1.00  0.00     0.167 HD
ATOM     66  C   UNL A   1      44.029  26.826  33.040  1.00  0.00     0.074 A 
ATOM     67  C   UNL A   1      43.897  27.453  34.344  1.00  0.00     0.031 C 
ATOM     68  C   UNL A   1      44.508  25.621  32.602  1.00  0.00     0.031 A 
BRANCH  55  69
ATOM     69  C   UNL A   1      43.488  23.162  27.047  1.00  0.00    -0.014 A 
ATOM     70  C   UNL A   1      42.790  21.940  26.939  1.00  0.00     0.010 A 
ATOM     71  C   UNL A   1      44.555  23.336  26.145  1.00  0.00     0.010 A 
ATOM     72  C   UNL A   1      43.200  20.918  26.066  1.00  0.00     0.020 A 
ATOM     73  C   UNL A   1      44.998  22.314  25.291  1.00  0.00     0.020 A 
ATOM     74  C   UNL A   1      44.324  21.101  25.267  1.00  0.00     0.054 A 
BRANCH  74  75
ATOM     75  S   UNL A   1      44.897  19.748  24.208  1.00  0.00     0.124 S 
ATOM     76  O   UNL A   1      44.117  18.613  24.694  1.00  0.00    -0.237 OA
ATOM     77  O   UNL A   1      44.550  20.225  22.872  1.00  0.00    -0.237 OA
ATOM     78  O   UNL A   1      46.331  19.672  24.486  1.00  0.00    -0.744 OA
ENDBRANCH  74  75
ENDBRANCH  55  69
BRANCH  56  79
ATOM     79  C   UNL A   1      41.125  30.620  32.712  1.00  0.00    -0.014 A 
ATOM     80  C   UNL A   1      40.072  29.758  33.091  1.00  0.00     0.010 A 
ATOM     81  C   UNL A   1      41.149  31.929  33.224  1.00  0.00     0.010 A 
ATOM     82  C   UNL A   1      39.189  30.122  34.110  1.00  0.00     0.020 A 
ATOM     83  C   UNL A   1      40.249  32.303  34.234  1.00  0.00     0.020 A 
ATOM     84  C   UNL A   1      39.334  31.365  34.725  1.00  0.00     0.054 A 
BRANCH  84  85
ATOM     85  S   UNL A   1      38.453  31.646  36.291  1.00  0.00     0.124 S 
ATOM     86  O   UNL A   1      39.397  32.472  37.039  1.00  0.00    -0.237 OA
ATOM     87  O   UNL A   1      37.237  32.333  35.845  1.00  0.00    -0.237 OA
ATOM     88  O   UNL A   1      38.246  30.299  36.815  1.00  0.00    -0.744 OA
ENDBRANCH  84  85
ENDBRANCH  56  79
BRANCH  68  89
ATOM     89  C   UNL A   1      44.955  24.448  33.457  1.00  0.00    -0.014 A 
ATOM     90  C   UNL A   1      44.172  23.325  33.757  1.00  0.00     0.010 A 
ATOM     91  C   UNL A   1      46.298  24.418  33.917  1.00  0.00     0.010 A 
ATOM     92  C   UNL A   1      44.677  22.257  34.517  1.00  0.00     0.020 A 
ATOM     93  C   UNL A   1      46.827  23.341  34.636  1.00  0.00     0.020 A 
ATOM     94  C   UNL A   1      46.002  22.272  34.953  1.00  0.00     0.054 A 
BRANCH  94  95
ATOM     95  S   UNL A   1      46.660  20.855  35.869  1.00  0.00     0.124 S 
ATOM     96  O   UNL A   1      45.438  20.168  36.281  1.00  0.00    -0.237 OA
ATOM     97  O   UNL A   1      47.460  20.159  34.864  1.00  0.00    -0.237 OA
ATOM     98  O   UNL A   1      47.427  21.470  36.948  1.00  0.00    -0.744 OA
ENDBRANCH  94  95
ENDBRANCH  68  89
ENDBRANCH  42  43
ENDBRANCH  34  37
ENDBRANCH  32  33
ENDBRANCH  31  32
ENDBRANCH   1  31
TORSDOF 17
ENDMDL
