MODEL 1
REMARK VINA RESULT:     -11.8      0.000      0.000
REMARK SMILES Cc1cc(C)c(C(=O)NC[C@H]2CC[C@@H](C(=O)NCCCCNC(=O)c3ccc(-c4c5nc(c(-c6ccc(S(=O)(=O)[O-])cc6)c6ccc([nH]6)c(-c6ccc(S(=O)(=O)[O-])cc6)c6nc(c(-c7ccc(S(=O)(=O)[O-])cc7)c7ccc4[nH]7)C=C6)C=C5)cc3)O2)c(C)c1
REMARK SMILES IDX 19 1 18 2 17 3 15 4 16 5 14 7 11 8 12 9 85 10 13 11 10 12
REMARK SMILES IDX 9 13 7 14 8 15 6 17 1 18 2 19 3 20 88 21 4 22 86 23 5 24
REMARK SMILES IDX 87 25 20 26 21 27 22 28 23 29 24 31 25 32 26 33 84 34 27 35
REMARK SMILES IDX 83 36 28 37 29 38 30 39 77 40 31 41 82 42 76 43 78 44 32 45
REMARK SMILES IDX 81 46 75 47 74 48 33 50 63 51 44 52 62 53 45 54 48 55 61 56
REMARK SMILES IDX 79 57 46 58 47 59 60 61 80 62 49 63 34 64 35 65 43 66 36 67
REMARK SMILES IDX 42 68 37 69 38 70 39 71 40 72 41 73 64 74 65 75 73 76 66 77
REMARK SMILES IDX 72 78 67 79 68 80 69 81 70 82 71 83 50 84 51 85 59 86 52 87
REMARK SMILES IDX 58 88 53 89 54 90 55 91 56 92 57 93
REMARK H PARENT 17 6 9 16 22 30 78 49 48 60
REMARK Flexibility Score: inf
ROOT
ATOM      1  C   UNL A   1      38.151  21.884  25.395  1.00  0.00     0.023 C 
ENDROOT
BRANCH   1   2
ATOM      2  C   UNL A   1      37.094  21.490  24.368  1.00  0.00     0.116 C 
BRANCH   2   3
ATOM      3  N   UNL A   1      35.790  21.275  24.970  1.00  0.00    -0.354 N 
ATOM      4  C   UNL A   1      34.658  22.034  24.843  1.00  0.00     0.249 C 
ATOM      5  O   UNL A   1      33.634  21.661  25.419  1.00  0.00    -0.272 OA
ATOM      6  H   UNL A   1      35.710  20.480  25.546  1.00  0.00     0.163 HD
BRANCH   4   7
ATOM      7  C   UNL A   1      34.725  23.331  24.024  1.00  0.00     0.207 C 
ATOM      8  C   UNL A   1      32.933  24.404  22.955  1.00  0.00     0.138 C 
ATOM      9  C   UNL A   1      33.649  25.433  23.809  1.00  0.00     0.037 C 
ATOM     10  O   UNL A   1      33.813  23.274  22.912  1.00  0.00    -0.363 OA
ATOM     11  C   UNL A   1      34.361  24.575  24.825  1.00  0.00     0.045 C 
BRANCH   8  12
ATOM     12  C   UNL A   1      31.555  23.960  23.500  1.00  0.00     0.148 C 
BRANCH  12  13
ATOM     13  N   UNL A   1      30.527  24.926  23.166  1.00  0.00    -0.349 N 
ATOM     14  C   UNL A   1      29.967  26.026  23.758  1.00  0.00     0.251 C 
ATOM     15  O   UNL A   1      28.764  26.127  23.477  1.00  0.00    -0.269 OA
ATOM     16  H   UNL A   1      30.128  24.742  22.284  1.00  0.00     0.163 HD
BRANCH  14  17
ATOM     17  C   UNL A   1      30.598  27.112  24.617  1.00  0.00     0.045 A 
ATOM     18  C   UNL A   1      32.970  29.656  27.282  1.00  0.00     0.044 C 
ATOM     19  C   UNL A   1      32.116  28.803  26.396  1.00  0.00    -0.051 A 
ATOM     20  C   UNL A   1      31.714  27.542  26.798  1.00  0.00     0.007 A 
ATOM     21  C   UNL A   1      31.720  29.239  25.139  1.00  0.00     0.007 A 
ATOM     22  C   UNL A   1      30.936  26.711  25.958  1.00  0.00    -0.038 A 
ATOM     23  C   UNL A   1      30.985  28.423  24.237  1.00  0.00    -0.038 A 
ATOM     24  C   UNL A   1      30.558  25.387  26.591  1.00  0.00     0.045 C 
ATOM     25  C   UNL A   1      30.710  29.112  22.939  1.00  0.00     0.045 C 
ENDBRANCH  14  17
ENDBRANCH  12  13
ENDBRANCH   8  12
ENDBRANCH   4   7
ENDBRANCH   2   3
ENDBRANCH   1   2
BRANCH   1  26
ATOM     26  C   UNL A   1      37.981  23.274  26.004  1.00  0.00     0.023 C 
BRANCH  26  27
ATOM     27  C   UNL A   1      39.112  23.729  26.921  1.00  0.00     0.116 C 
BRANCH  27  28
ATOM     28  N   UNL A   1      40.345  24.010  26.203  1.00  0.00    -0.352 N 
ATOM     29  C   UNL A   1      41.169  25.110  26.273  1.00  0.00     0.251 C 
ATOM     30  H   UNL A   1      40.633  23.310  25.574  1.00  0.00     0.163 HD
ATOM     31  O   UNL A   1      42.093  25.231  25.477  1.00  0.00    -0.269 OA
BRANCH  29  32
ATOM     32  C   UNL A   1      40.919  26.160  27.287  1.00  0.00     0.039 A 
ATOM     33  C   UNL A   1      39.992  25.911  28.302  1.00  0.00     0.014 A 
ATOM     34  C   UNL A   1      41.602  27.378  27.248  1.00  0.00     0.014 A 
ATOM     35  C   UNL A   1      39.812  26.849  29.323  1.00  0.00     0.010 A 
ATOM     36  C   UNL A   1      41.479  28.276  28.306  1.00  0.00     0.010 A 
ATOM     37  C   UNL A   1      40.588  28.018  29.359  1.00  0.00    -0.014 A 
BRANCH  37  38
ATOM     38  C   UNL A   1      40.501  28.974  30.495  1.00  0.00     0.031 A 
ATOM     39  C   UNL A   1      41.390  28.806  31.699  1.00  0.00     0.074 A 
ATOM     40  C   UNL A   1      39.575  29.954  30.475  1.00  0.00     0.049 A 
ATOM     41  N   UNL A   1      41.400  29.485  32.817  1.00  0.00    -0.248 NA
ATOM     42  C   UNL A   1      42.382  27.720  31.648  1.00  0.00     0.031 C 
ATOM     43  C   UNL A   1      38.635  30.210  29.380  1.00  0.00     0.029 A 
ATOM     44  N   UNL A   1      39.265  30.915  31.406  1.00  0.00    -0.354 N 
ATOM     45  C   UNL A   1      42.389  28.907  33.604  1.00  0.00     0.074 A 
ATOM     46  C   UNL A   1      42.920  27.787  32.857  1.00  0.00     0.031 C 
ATOM     47  C   UNL A   1      37.873  31.271  29.691  1.00  0.00     0.029 A 
ATOM     48  C   UNL A   1      38.233  31.742  31.026  1.00  0.00     0.049 A 
ATOM     49  H   UNL A   1      39.736  31.004  32.265  1.00  0.00     0.167 HD
ATOM     50  C   UNL A   1      42.830  29.283  34.829  1.00  0.00     0.031 A 
ATOM     51  C   UNL A   1      37.630  32.754  31.679  1.00  0.00     0.031 A 
ATOM     52  C   UNL A   1      42.300  30.397  35.571  1.00  0.00     0.049 A 
ATOM     53  C   UNL A   1      38.106  33.121  33.061  1.00  0.00     0.074 A 
ATOM     54  C   UNL A   1      42.707  30.879  36.803  1.00  0.00     0.029 A 
ATOM     55  N   UNL A   1      41.250  31.200  35.155  1.00  0.00    -0.354 N 
ATOM     56  N   UNL A   1      39.080  32.594  33.764  1.00  0.00    -0.248 NA
ATOM     57  C   UNL A   1      37.405  34.223  33.733  1.00  0.00     0.031 C 
ATOM     58  C   UNL A   1      41.864  31.937  37.159  1.00  0.00     0.029 A 
ATOM     59  C   UNL A   1      40.975  32.156  36.119  1.00  0.00     0.049 A 
ATOM     60  H   UNL A   1      40.769  31.105  34.301  1.00  0.00     0.167 HD
ATOM     61  C   UNL A   1      39.126  33.321  34.949  1.00  0.00     0.074 A 
ATOM     62  C   UNL A   1      38.097  34.335  34.858  1.00  0.00     0.031 C 
ATOM     63  C   UNL A   1      39.947  33.163  36.017  1.00  0.00     0.031 A 
BRANCH  50  64
ATOM     64  C   UNL A   1      43.946  28.480  35.447  1.00  0.00    -0.014 A 
ATOM     65  C   UNL A   1      45.293  28.828  35.238  1.00  0.00     0.010 A 
ATOM     66  C   UNL A   1      43.645  27.396  36.292  1.00  0.00     0.010 A 
ATOM     67  C   UNL A   1      46.317  28.087  35.830  1.00  0.00     0.020 A 
ATOM     68  C   UNL A   1      44.666  26.669  36.913  1.00  0.00     0.020 A 
ATOM     69  C   UNL A   1      45.997  27.012  36.665  1.00  0.00     0.054 A 
BRANCH  69  70
ATOM     70  S   UNL A   1      47.350  26.088  37.446  1.00  0.00     0.124 S 
ATOM     71  O   UNL A   1      47.236  26.511  38.840  1.00  0.00    -0.237 OA
ATOM     72  O   UNL A   1      46.984  24.700  37.179  1.00  0.00    -0.237 OA
ATOM     73  O   UNL A   1      48.542  26.562  36.748  1.00  0.00    -0.744 OA
ENDBRANCH  69  70
ENDBRANCH  50  64
BRANCH  51  74
ATOM     74  C   UNL A   1      36.508  33.499  31.042  1.00  0.00    -0.014 A 
ATOM     75  C   UNL A   1      35.321  33.746  31.754  1.00  0.00     0.010 A 
ATOM     76  C   UNL A   1      36.615  33.955  29.715  1.00  0.00     0.010 A 
ATOM     77  C   UNL A   1      34.252  34.408  31.143  1.00  0.00     0.020 A 
ATOM     78  C   UNL A   1      35.560  34.646  29.111  1.00  0.00     0.020 A 
ATOM     79  C   UNL A   1      34.379  34.855  29.824  1.00  0.00     0.054 A 
BRANCH  79  80
ATOM     80  S   UNL A   1      32.990  35.739  29.063  1.00  0.00     0.124 S 
ATOM     81  O   UNL A   1      32.208  36.138  30.229  1.00  0.00    -0.237 OA
ATOM     82  O   UNL A   1      33.660  36.822  28.348  1.00  0.00    -0.237 OA
ATOM     83  O   UNL A   1      32.370  34.729  28.207  1.00  0.00    -0.744 OA
ENDBRANCH  79  80
ENDBRANCH  51  74
BRANCH  63  84
ATOM     84  C   UNL A   1      39.794  34.130  37.161  1.00  0.00    -0.014 A 
ATOM     85  C   UNL A   1      40.398  35.400  37.132  1.00  0.00     0.010 A 
ATOM     86  C   UNL A   1      38.987  33.781  38.261  1.00  0.00     0.010 A 
ATOM     87  C   UNL A   1      40.225  36.290  38.196  1.00  0.00     0.020 A 
ATOM     88  C   UNL A   1      38.786  34.681  39.311  1.00  0.00     0.020 A 
ATOM     89  C   UNL A   1      39.418  35.924  39.278  1.00  0.00     0.054 A 
BRANCH  89  90
ATOM     90  S   UNL A   1      39.173  37.116  40.623  1.00  0.00     0.124 S 
ATOM     91  O   UNL A   1      38.280  38.092  40.005  1.00  0.00    -0.237 OA
ATOM     92  O   UNL A   1      38.577  36.294  41.673  1.00  0.00    -0.237 OA
ATOM     93  O   UNL A   1      40.522  37.599  40.910  1.00  0.00    -0.744 OA
ENDBRANCH  89  90
ENDBRANCH  63  84
ENDBRANCH  37  38
ENDBRANCH  29  32
ENDBRANCH  27  28
ENDBRANCH  26  27
ENDBRANCH   1  26
TORSDOF 17
ENDMDL
MODEL 2
REMARK VINA RESULT:     -11.5      1.212      8.308
REMARK SMILES Cc1cc(C)c(C(=O)NC[C@H]2CC[C@@H](C(=O)NCCCCNC(=O)c3ccc(-c4c5nc(c(-c6ccc(S(=O)(=O)[O-])cc6)c6ccc([nH]6)c(-c6ccc(S(=O)(=O)[O-])cc6)c6nc(c(-c7ccc(S(=O)(=O)[O-])cc7)c7ccc4[nH]7)C=C6)C=C5)cc3)O2)c(C)c1
REMARK SMILES IDX 19 1 18 2 17 3 15 4 16 5 14 7 11 8 12 9 85 10 13 11 10 12
REMARK SMILES IDX 9 13 7 14 8 15 6 17 1 18 2 19 3 20 88 21 4 22 86 23 5 24
REMARK SMILES IDX 87 25 20 26 21 27 22 28 23 29 24 31 25 32 26 33 84 34 27 35
REMARK SMILES IDX 83 36 28 37 29 38 30 39 77 40 31 41 82 42 76 43 78 44 32 45
REMARK SMILES IDX 81 46 75 47 74 48 33 50 63 51 44 52 62 53 45 54 48 55 61 56
REMARK SMILES IDX 79 57 46 58 47 59 60 61 80 62 49 63 34 64 35 65 43 66 36 67
REMARK SMILES IDX 42 68 37 69 38 70 39 71 40 72 41 73 64 74 65 75 73 76 66 77
REMARK SMILES IDX 72 78 67 79 68 80 69 81 70 82 71 83 50 84 51 85 59 86 52 87
REMARK SMILES IDX 58 88 53 89 54 90 55 91 56 92 57 93
REMARK H PARENT 17 6 9 16 22 30 78 49 48 60
REMARK Flexibility Score: inf
ROOT
ATOM      1  C   UNL A   1      39.933  22.036  26.247  1.00  0.00     0.023 C 
ENDROOT
BRANCH   1   2
ATOM      2  C   UNL A   1      38.414  22.141  26.145  1.00  0.00     0.116 C 
BRANCH   2   3
ATOM      3  N   UNL A   1      37.969  22.435  24.794  1.00  0.00    -0.354 N 
ATOM      4  C   UNL A   1      36.698  22.397  24.290  1.00  0.00     0.249 C 
ATOM      5  O   UNL A   1      36.524  22.712  23.112  1.00  0.00    -0.272 OA
ATOM      6  H   UNL A   1      38.675  22.695  24.158  1.00  0.00     0.163 HD
BRANCH   4   7
ATOM      7  C   UNL A   1      35.554  21.926  25.200  1.00  0.00     0.207 C 
ATOM      8  C   UNL A   1      33.278  21.814  24.643  1.00  0.00     0.138 C 
ATOM      9  C   UNL A   1      33.685  20.467  25.208  1.00  0.00     0.037 C 
ATOM     10  O   UNL A   1      34.363  22.696  24.956  1.00  0.00    -0.363 OA
ATOM     11  C   UNL A   1      35.178  20.463  24.998  1.00  0.00     0.045 C 
BRANCH   8  12
ATOM     12  C   UNL A   1      33.032  21.826  23.117  1.00  0.00     0.148 C 
BRANCH  12  13
ATOM     13  N   UNL A   1      31.916  22.687  22.775  1.00  0.00    -0.349 N 
ATOM     14  C   UNL A   1      31.487  23.940  23.121  1.00  0.00     0.251 C 
ATOM     15  O   UNL A   1      30.250  24.005  23.141  1.00  0.00    -0.269 OA
ATOM     16  H   UNL A   1      31.310  22.258  22.127  1.00  0.00     0.163 HD
BRANCH  14  17
ATOM     17  C   UNL A   1      32.277  25.209  23.408  1.00  0.00     0.045 A 
ATOM     18  C   UNL A   1      34.043  29.210  23.680  1.00  0.00     0.044 C 
ATOM     19  C   UNL A   1      33.489  27.822  23.582  1.00  0.00    -0.051 A 
ATOM     20  C   UNL A   1      33.264  27.233  22.351  1.00  0.00     0.007 A 
ATOM     21  C   UNL A   1      33.161  27.095  24.718  1.00  0.00     0.007 A 
ATOM     22  C   UNL A   1      32.709  25.937  22.242  1.00  0.00    -0.038 A 
ATOM     23  C   UNL A   1      32.551  25.812  24.661  1.00  0.00    -0.038 A 
ATOM     24  C   UNL A   1      32.580  25.445  20.814  1.00  0.00     0.045 C 
ATOM     25  C   UNL A   1      32.272  25.254  26.020  1.00  0.00     0.045 C 
ENDBRANCH  14  17
ENDBRANCH  12  13
ENDBRANCH   8  12
ENDBRANCH   4   7
ENDBRANCH   2   3
ENDBRANCH   1   2
BRANCH   1  26
ATOM     26  C   UNL A   1      40.515  22.334  27.628  1.00  0.00     0.023 C 
BRANCH  26  27
ATOM     27  C   UNL A   1      41.454  23.534  27.697  1.00  0.00     0.116 C 
BRANCH  27  28
ATOM     28  N   UNL A   1      41.548  24.253  26.436  1.00  0.00    -0.352 N 
ATOM     29  C   UNL A   1      41.296  25.579  26.162  1.00  0.00     0.251 C 
ATOM     30  H   UNL A   1      41.832  23.712  25.664  1.00  0.00     0.163 HD
ATOM     31  O   UNL A   1      41.288  25.970  25.001  1.00  0.00    -0.269 OA
BRANCH  29  32
ATOM     32  C   UNL A   1      41.003  26.520  27.267  1.00  0.00     0.039 A 
ATOM     33  C   UNL A   1      39.957  26.227  28.145  1.00  0.00     0.014 A 
ATOM     34  C   UNL A   1      41.762  27.679  27.447  1.00  0.00     0.014 A 
ATOM     35  C   UNL A   1      39.727  27.052  29.250  1.00  0.00     0.010 A 
ATOM     36  C   UNL A   1      41.582  28.456  28.589  1.00  0.00     0.010 A 
ATOM     37  C   UNL A   1      40.567  28.147  29.508  1.00  0.00    -0.014 A 
BRANCH  37  38
ATOM     38  C   UNL A   1      40.417  28.969  30.737  1.00  0.00     0.031 A 
ATOM     39  C   UNL A   1      39.394  30.072  30.795  1.00  0.00     0.074 A 
ATOM     40  C   UNL A   1      41.249  28.769  31.780  1.00  0.00     0.049 A 
ATOM     41  N   UNL A   1      39.175  30.945  31.745  1.00  0.00    -0.248 NA
ATOM     42  C   UNL A   1      38.515  30.226  29.624  1.00  0.00     0.031 C 
ATOM     43  C   UNL A   1      42.302  27.751  31.842  1.00  0.00     0.029 A 
ATOM     44  N   UNL A   1      41.348  29.417  32.987  1.00  0.00    -0.354 N 
ATOM     45  C   UNL A   1      38.144  31.756  31.285  1.00  0.00     0.074 A 
ATOM     46  C   UNL A   1      37.817  31.305  29.950  1.00  0.00     0.031 C 
ATOM     47  C   UNL A   1      42.919  27.827  33.032  1.00  0.00     0.029 A 
ATOM     48  C   UNL A   1      42.345  28.929  33.799  1.00  0.00     0.049 A 
ATOM     49  H   UNL A   1      40.760  30.162  33.247  1.00  0.00     0.167 HD
ATOM     50  C   UNL A   1      37.512  32.771  31.923  1.00  0.00     0.031 A 
ATOM     51  C   UNL A   1      42.764  29.329  35.015  1.00  0.00     0.031 A 
ATOM     52  C   UNL A   1      37.839  33.219  33.251  1.00  0.00     0.049 A 
ATOM     53  C   UNL A   1      42.078  30.492  35.681  1.00  0.00     0.074 A 
ATOM     54  C   UNL A   1      37.231  34.215  33.995  1.00  0.00     0.029 A 
ATOM     55  N   UNL A   1      38.862  32.705  34.032  1.00  0.00    -0.354 N 
ATOM     56  N   UNL A   1      41.069  31.210  35.250  1.00  0.00    -0.248 NA
ATOM     57  C   UNL A   1      42.585  30.895  37.000  1.00  0.00     0.031 C 
ATOM     58  C   UNL A   1      37.924  34.343  35.203  1.00  0.00     0.029 A 
ATOM     59  C   UNL A   1      38.921  33.382  35.239  1.00  0.00     0.049 A 
ATOM     60  H   UNL A   1      39.459  31.968  33.769  1.00  0.00     0.167 HD
ATOM     61  C   UNL A   1      40.801  32.130  36.259  1.00  0.00     0.074 A 
ATOM     62  C   UNL A   1      41.741  31.864  37.328  1.00  0.00     0.031 C 
ATOM     63  C   UNL A   1      39.862  33.107  36.297  1.00  0.00     0.031 A 
BRANCH  50  64
ATOM     64  C   UNL A   1      36.398  33.472  31.187  1.00  0.00    -0.014 A 
ATOM     65  C   UNL A   1      35.211  33.839  31.848  1.00  0.00     0.010 A 
ATOM     66  C   UNL A   1      36.559  33.816  29.833  1.00  0.00     0.010 A 
ATOM     67  C   UNL A   1      34.194  34.504  31.162  1.00  0.00     0.020 A 
ATOM     68  C   UNL A   1      35.555  34.509  29.148  1.00  0.00     0.020 A 
ATOM     69  C   UNL A   1      34.372  34.835  29.815  1.00  0.00     0.054 A 
BRANCH  69  70
ATOM     70  S   UNL A   1      33.044  35.727  28.958  1.00  0.00     0.124 S 
ATOM     71  O   UNL A   1      32.153  36.073  30.063  1.00  0.00    -0.237 OA
ATOM     72  O   UNL A   1      33.755  36.849  28.350  1.00  0.00    -0.237 OA
ATOM     73  O   UNL A   1      32.515  34.743  28.018  1.00  0.00    -0.744 OA
ENDBRANCH  69  70
ENDBRANCH  50  64
BRANCH  51  74
ATOM     74  C   UNL A   1      43.893  28.627  35.690  1.00  0.00    -0.014 A 
ATOM     75  C   UNL A   1      45.219  29.043  35.480  1.00  0.00     0.010 A 
ATOM     76  C   UNL A   1      43.648  27.531  36.538  1.00  0.00     0.010 A 
ATOM     77  C   UNL A   1      46.281  28.359  36.080  1.00  0.00     0.020 A 
ATOM     78  C   UNL A   1      44.705  26.864  37.165  1.00  0.00     0.020 A 
ATOM     79  C   UNL A   1      46.016  27.274  36.919  1.00  0.00     0.054 A 
BRANCH  79  80
ATOM     80  S   UNL A   1      47.409  26.422  37.712  1.00  0.00     0.124 S 
ATOM     81  O   UNL A   1      48.552  26.977  36.995  1.00  0.00    -0.237 OA
ATOM     82  O   UNL A   1      47.276  26.833  39.107  1.00  0.00    -0.237 OA
ATOM     83  O   UNL A   1      47.134  25.009  37.457  1.00  0.00    -0.744 OA
ENDBRANCH  79  80
ENDBRANCH  51  74
BRANCH  63  84
ATOM     84  C   UNL A   1      39.776  33.941  37.549  1.00  0.00    -0.014 A 
ATOM     85  C   UNL A   1      40.539  35.112  37.701  1.00  0.00     0.010 A 
ATOM     86  C   UNL A   1      38.877  33.572  38.568  1.00  0.00     0.010 A 
ATOM     87  C   UNL A   1      40.428  35.882  38.862  1.00  0.00     0.020 A 
ATOM     88  C   UNL A   1      38.741  34.357  39.716  1.00  0.00     0.020 A 
ATOM     89  C   UNL A   1      39.528  35.499  39.862  1.00  0.00     0.054 A 
BRANCH  89  90
ATOM     90  S   UNL A   1      39.371  36.542  41.338  1.00  0.00     0.124 S 
ATOM     91  O   UNL A   1      38.895  37.801  40.772  1.00  0.00    -0.237 OA
ATOM     92  O   UNL A   1      38.399  35.808  42.145  1.00  0.00    -0.237 OA
ATOM     93  O   UNL A   1      40.725  36.577  41.885  1.00  0.00    -0.744 OA
ENDBRANCH  89  90
ENDBRANCH  63  84
ENDBRANCH  37  38
ENDBRANCH  29  32
ENDBRANCH  27  28
ENDBRANCH  26  27
ENDBRANCH   1  26
TORSDOF 17
ENDMDL
MODEL 3
REMARK VINA RESULT:     -11.5      6.332     12.097
REMARK SMILES Cc1cc(C)c(C(=O)NC[C@H]2CC[C@@H](C(=O)NCCCCNC(=O)c3ccc(-c4c5nc(c(-c6ccc(S(=O)(=O)[O-])cc6)c6ccc([nH]6)c(-c6ccc(S(=O)(=O)[O-])cc6)c6nc(c(-c7ccc(S(=O)(=O)[O-])cc7)c7ccc4[nH]7)C=C6)C=C5)cc3)O2)c(C)c1
REMARK SMILES IDX 19 1 18 2 17 3 15 4 16 5 14 7 11 8 12 9 85 10 13 11 10 12
REMARK SMILES IDX 9 13 7 14 8 15 6 17 1 18 2 19 3 20 88 21 4 22 86 23 5 24
REMARK SMILES IDX 87 25 20 26 21 27 22 28 23 29 24 31 25 32 26 33 84 34 27 35
REMARK SMILES IDX 83 36 28 37 29 38 30 39 77 40 31 41 82 42 76 43 78 44 32 45
REMARK SMILES IDX 81 46 75 47 74 48 33 50 63 51 44 52 62 53 45 54 48 55 61 56
REMARK SMILES IDX 79 57 46 58 47 59 60 61 80 62 49 63 34 64 35 65 43 66 36 67
REMARK SMILES IDX 42 68 37 69 38 70 39 71 40 72 41 73 64 74 65 75 73 76 66 77
REMARK SMILES IDX 72 78 67 79 68 80 69 81 70 82 71 83 50 84 51 85 59 86 52 87
REMARK SMILES IDX 58 88 53 89 54 90 55 91 56 92 57 93
REMARK H PARENT 17 6 9 16 22 30 78 49 48 60
REMARK Flexibility Score: inf
ROOT
ATOM      1  C   UNL A   1      33.068  29.992  27.088  1.00  0.00     0.023 C 
ENDROOT
BRANCH   1   2
ATOM      2  C   UNL A   1      32.293  30.107  25.778  1.00  0.00     0.116 C 
BRANCH   2   3
ATOM      3  N   UNL A   1      33.072  29.664  24.634  1.00  0.00    -0.354 N 
ATOM      4  C   UNL A   1      32.720  28.767  23.662  1.00  0.00     0.249 C 
ATOM      5  O   UNL A   1      33.519  28.546  22.751  1.00  0.00    -0.272 OA
ATOM      6  H   UNL A   1      33.969  30.060  24.548  1.00  0.00     0.163 HD
BRANCH   4   7
ATOM      7  C   UNL A   1      31.366  28.051  23.770  1.00  0.00     0.207 C 
ATOM      8  C   UNL A   1      30.968  25.759  23.464  1.00  0.00     0.138 C 
ATOM      9  C   UNL A   1      30.355  26.164  24.791  1.00  0.00     0.037 C 
ATOM     10  O   UNL A   1      31.276  26.991  22.800  1.00  0.00    -0.363 OA
ATOM     11  C   UNL A   1      31.121  27.418  25.135  1.00  0.00     0.045 C 
BRANCH   8  12
ATOM     12  C   UNL A   1      32.252  24.905  23.581  1.00  0.00     0.148 C 
BRANCH  12  13
ATOM     13  N   UNL A   1      32.548  24.597  24.966  1.00  0.00    -0.349 N 
ATOM     14  C   UNL A   1      32.980  23.504  25.669  1.00  0.00     0.251 C 
ATOM     15  O   UNL A   1      32.476  23.467  26.801  1.00  0.00    -0.269 OA
ATOM     16  H   UNL A   1      32.401  25.375  25.552  1.00  0.00     0.163 HD
BRANCH  14  17
ATOM     17  C   UNL A   1      33.984  22.424  25.295  1.00  0.00     0.045 A 
ATOM     18  C   UNL A   1      37.278  19.562  24.895  1.00  0.00     0.044 C 
ATOM     19  C   UNL A   1      36.159  20.553  24.981  1.00  0.00    -0.051 A 
ATOM     20  C   UNL A   1      36.412  21.894  25.206  1.00  0.00     0.007 A 
ATOM     21  C   UNL A   1      34.834  20.155  24.861  1.00  0.00     0.007 A 
ATOM     22  C   UNL A   1      35.363  22.835  25.322  1.00  0.00    -0.038 A 
ATOM     23  C   UNL A   1      33.743  21.052  25.025  1.00  0.00    -0.038 A 
ATOM     24  C   UNL A   1      35.841  24.260  25.522  1.00  0.00     0.045 C 
ATOM     25  C   UNL A   1      32.419  20.372  24.878  1.00  0.00     0.045 C 
ENDBRANCH  14  17
ENDBRANCH  12  13
ENDBRANCH   8  12
ENDBRANCH   4   7
ENDBRANCH   2   3
ENDBRANCH   1   2
BRANCH   1  26
ATOM     26  C   UNL A   1      34.223  28.993  27.075  1.00  0.00     0.023 C 
BRANCH  26  27
ATOM     27  C   UNL A   1      35.522  29.488  27.703  1.00  0.00     0.116 C 
BRANCH  27  28
ATOM     28  N   UNL A   1      35.380  29.819  29.113  1.00  0.00    -0.352 N 
ATOM     29  C   UNL A   1      36.336  29.867  30.102  1.00  0.00     0.251 C 
ATOM     30  H   UNL A   1      34.465  30.040  29.401  1.00  0.00     0.163 HD
ATOM     31  O   UNL A   1      35.997  30.024  31.269  1.00  0.00    -0.269 OA
BRANCH  29  32
ATOM     32  C   UNL A   1      37.766  29.696  29.759  1.00  0.00     0.039 A 
ATOM     33  C   UNL A   1      38.664  29.335  30.767  1.00  0.00     0.014 A 
ATOM     34  C   UNL A   1      38.220  29.878  28.451  1.00  0.00     0.014 A 
ATOM     35  C   UNL A   1      39.999  29.075  30.445  1.00  0.00     0.010 A 
ATOM     36  C   UNL A   1      39.531  29.544  28.119  1.00  0.00     0.010 A 
ATOM     37  C   UNL A   1      40.434  29.131  29.112  1.00  0.00    -0.014 A 
BRANCH  37  38
ATOM     38  C   UNL A   1      41.817  28.745  28.728  1.00  0.00     0.031 A 
ATOM     39  C   UNL A   1      42.908  29.782  28.667  1.00  0.00     0.074 A 
ATOM     40  C   UNL A   1      42.080  27.472  28.368  1.00  0.00     0.049 A 
ATOM     41  N   UNL A   1      44.148  29.651  28.274  1.00  0.00    -0.248 NA
ATOM     42  C   UNL A   1      42.550  31.148  29.082  1.00  0.00     0.031 C 
ATOM     43  C   UNL A   1      41.108  26.375  28.358  1.00  0.00     0.029 A 
ATOM     44  N   UNL A   1      43.242  26.884  27.932  1.00  0.00    -0.354 N 
ATOM     45  C   UNL A   1      44.717  30.915  28.386  1.00  0.00     0.074 A 
ATOM     46  C   UNL A   1      43.671  31.809  28.832  1.00  0.00     0.031 C 
ATOM     47  C   UNL A   1      41.719  25.247  27.963  1.00  0.00     0.029 A 
ATOM     48  C   UNL A   1      43.112  25.545  27.642  1.00  0.00     0.049 A 
ATOM     49  H   UNL A   1      44.090  27.374  27.836  1.00  0.00     0.167 HD
ATOM     50  C   UNL A   1      45.998  31.294  28.157  1.00  0.00     0.031 A 
ATOM     51  C   UNL A   1      44.004  24.659  27.159  1.00  0.00     0.031 A 
ATOM     52  C   UNL A   1      47.037  30.403  27.713  1.00  0.00     0.049 A 
ATOM     53  C   UNL A   1      45.408  25.118  26.866  1.00  0.00     0.074 A 
ATOM     54  C   UNL A   1      48.373  30.686  27.489  1.00  0.00     0.029 A 
ATOM     55  N   UNL A   1      46.859  29.060  27.421  1.00  0.00    -0.354 N 
ATOM     56  N   UNL A   1      45.938  26.306  27.030  1.00  0.00    -0.248 NA
ATOM     57  C   UNL A   1      46.335  24.113  26.327  1.00  0.00     0.031 C 
ATOM     58  C   UNL A   1      48.991  29.529  27.006  1.00  0.00     0.029 A 
ATOM     59  C   UNL A   1      48.055  28.507  26.992  1.00  0.00     0.049 A 
ATOM     60  H   UNL A   1      46.010  28.571  27.505  1.00  0.00     0.167 HD
ATOM     61  C   UNL A   1      47.268  26.182  26.643  1.00  0.00     0.074 A 
ATOM     62  C   UNL A   1      47.466  24.802  26.255  1.00  0.00     0.031 C 
ATOM     63  C   UNL A   1      48.240  27.129  26.610  1.00  0.00     0.031 A 
BRANCH  50  64
ATOM     64  C   UNL A   1      46.348  32.743  28.384  1.00  0.00    -0.014 A 
ATOM     65  C   UNL A   1      46.264  33.681  27.339  1.00  0.00     0.010 A 
ATOM     66  C   UNL A   1      46.714  33.184  29.668  1.00  0.00     0.010 A 
ATOM     67  C   UNL A   1      46.574  35.024  27.564  1.00  0.00     0.020 A 
ATOM     68  C   UNL A   1      46.996  34.533  29.907  1.00  0.00     0.020 A 
ATOM     69  C   UNL A   1      46.938  35.442  28.848  1.00  0.00     0.054 A 
BRANCH  69  70
ATOM     70  S   UNL A   1      47.303  37.198  29.116  1.00  0.00     0.124 S 
ATOM     71  O   UNL A   1      45.966  37.761  29.287  1.00  0.00    -0.237 OA
ATOM     72  O   UNL A   1      48.132  37.172  30.319  1.00  0.00    -0.237 OA
ATOM     73  O   UNL A   1      47.995  37.600  27.894  1.00  0.00    -0.744 OA
ENDBRANCH  69  70
ENDBRANCH  50  64
BRANCH  51  74
ATOM     74  C   UNL A   1      43.603  23.243  26.918  1.00  0.00    -0.014 A 
ATOM     75  C   UNL A   1      43.568  22.724  25.612  1.00  0.00     0.010 A 
ATOM     76  C   UNL A   1      43.242  22.411  27.993  1.00  0.00     0.010 A 
ATOM     77  C   UNL A   1      43.152  21.410  25.382  1.00  0.00     0.020 A 
ATOM     78  C   UNL A   1      42.856  21.085  27.770  1.00  0.00     0.020 A 
ATOM     79  C   UNL A   1      42.799  20.598  26.464  1.00  0.00     0.054 A 
BRANCH  79  80
ATOM     80  S   UNL A   1      42.293  18.885  26.143  1.00  0.00     0.124 S 
ATOM     81  O   UNL A   1      40.882  19.043  25.809  1.00  0.00    -0.237 OA
ATOM     82  O   UNL A   1      43.167  18.501  25.037  1.00  0.00    -0.237 OA
ATOM     83  O   UNL A   1      42.568  18.206  27.408  1.00  0.00    -0.744 OA
ENDBRANCH  79  80
ENDBRANCH  51  74
BRANCH  63  84
ATOM     84  C   UNL A   1      49.616  26.697  26.175  1.00  0.00    -0.014 A 
ATOM     85  C   UNL A   1      50.040  26.840  24.842  1.00  0.00     0.010 A 
ATOM     86  C   UNL A   1      50.518  26.189  27.129  1.00  0.00     0.010 A 
ATOM     87  C   UNL A   1      51.329  26.453  24.465  1.00  0.00     0.020 A 
ATOM     88  C   UNL A   1      51.817  25.831  26.762  1.00  0.00     0.020 A 
ATOM     89  C   UNL A   1      52.210  25.951  25.428  1.00  0.00     0.054 A 
BRANCH  89  90
ATOM     90  S   UNL A   1      53.891  25.500  24.920  1.00  0.00     0.124 S 
ATOM     91  O   UNL A   1      54.706  26.199  25.910  1.00  0.00    -0.237 OA
ATOM     92  O   UNL A   1      53.878  24.043  25.032  1.00  0.00    -0.237 OA
ATOM     93  O   UNL A   1      53.992  26.012  23.556  1.00  0.00    -0.744 OA
ENDBRANCH  89  90
ENDBRANCH  63  84
ENDBRANCH  37  38
ENDBRANCH  29  32
ENDBRANCH  27  28
ENDBRANCH  26  27
ENDBRANCH   1  26
TORSDOF 17
ENDMDL
