MODEL 1
REMARK VINA RESULT:      -9.6      0.000      0.000
REMARK SMILES Nc1c(Nc2ccc(I)cc2)ncnc1Nc1ccc(C(=O)NCCCCNC(=O)c2ccc(-c3c4nc(c(-c5ccc(S(=O)(=O)[O-])cc5)c5ccc([nH]5)c(-c5ccc(S(=O)(=O)[O-])cc5)c5nc(c(-c6ccc(S(=O)(=O)[O-])cc6)c6ccc3[nH]6)C=C5)C=C4)cc2)cc1
REMARK SMILES IDX 25 1 24 2 23 3 21 4 22 5 20 7 17 8 18 9 92 10 19 11 91 12
REMARK SMILES IDX 16 13 15 15 2 16 3 17 12 18 14 19 13 20 1 21 4 24 5 26 6 27
REMARK SMILES IDX 11 28 7 29 10 30 8 31 9 32 26 33 27 34 28 35 29 36 30 38
REMARK SMILES IDX 31 39 32 40 90 41 33 42 89 43 34 44 35 45 36 46 83 47 37 48
REMARK SMILES IDX 88 49 82 50 84 51 38 52 87 53 81 54 80 55 39 57 69 58 50 59
REMARK SMILES IDX 68 60 51 61 54 62 67 63 85 64 52 65 53 66 66 68 86 69 55 70
REMARK SMILES IDX 40 71 41 72 49 73 42 74 48 75 43 76 44 77 45 78 46 79 47 80
REMARK SMILES IDX 70 81 71 82 79 83 72 84 78 85 73 86 74 87 75 88 76 89 77 90
REMARK SMILES IDX 56 91 57 92 65 93 58 94 64 95 59 96 60 97 61 98 62 99 63 100
REMARK H PARENT 23 6 16 14 1 22 1 23 4 25 28 37 84 56 54 67
REMARK Flexibility Score: inf
ROOT
ATOM      1  C   UNL A   1      34.360  34.930  29.224  1.00  0.00     0.023 C 
ENDROOT
BRANCH   1   2
ATOM      2  C   UNL A   1      33.471  34.807  30.464  1.00  0.00     0.116 C 
BRANCH   2   3
ATOM      3  N   UNL A   1      33.756  35.870  31.407  1.00  0.00    -0.352 N 
ATOM      4  C   UNL A   1      34.577  35.942  32.503  1.00  0.00     0.251 C 
ATOM      5  O   UNL A   1      34.625  37.019  33.101  1.00  0.00    -0.269 OA
ATOM      6  H   UNL A   1      33.263  36.703  31.226  1.00  0.00     0.163 HD
BRANCH   4   7
ATOM      7  C   UNL A   1      35.445  34.822  32.978  1.00  0.00     0.039 A 
ATOM      8  C   UNL A   1      36.888  32.600  33.984  1.00  0.00     0.040 A 
ATOM      9  C   UNL A   1      35.519  32.499  33.732  1.00  0.00     0.027 A 
ATOM     10  C   UNL A   1      37.532  33.804  33.688  1.00  0.00     0.027 A 
ATOM     11  C   UNL A   1      34.807  33.600  33.242  1.00  0.00     0.016 A 
ATOM     12  C   UNL A   1      36.826  34.891  33.158  1.00  0.00     0.016 A 
BRANCH   8  13
ATOM     13  N   UNL A   1      37.571  31.554  34.629  1.00  0.00    -0.338 N 
ATOM     14  H   UNL A   1      37.666  31.610  35.608  1.00  0.00     0.168 HD
BRANCH  13  15
ATOM     15  C   UNL A   1      38.134  30.425  33.981  1.00  0.00     0.159 A 
ATOM     16  C   UNL A   1      39.528  30.289  33.947  1.00  0.00     0.118 A 
ATOM     17  C   UNL A   1      40.001  29.163  33.257  1.00  0.00     0.159 A 
ATOM     18  N   UNL A   1      39.183  28.310  32.613  1.00  0.00    -0.217 NA
ATOM     19  N   UNL A   1      37.306  29.541  33.393  1.00  0.00    -0.217 NA
ATOM     20  C   UNL A   1      37.873  28.535  32.726  1.00  0.00     0.226 A 
BRANCH  16  21
ATOM     21  N   UNL A   1      40.389  31.160  34.628  1.00  0.00    -0.393 N 
ATOM     22  H   UNL A   1      40.947  30.823  35.365  1.00  0.00     0.156 HD
ATOM     23  H   UNL A   1      40.436  32.109  34.369  1.00  0.00     0.156 HD
ENDBRANCH  16  21
BRANCH  17  24
ATOM     24  N   UNL A   1      41.395  28.905  33.263  1.00  0.00    -0.338 N 
ATOM     25  H   UNL A   1      41.979  29.642  32.969  1.00  0.00     0.168 HD
BRANCH  24  26
ATOM     26  C   UNL A   1      42.034  27.714  33.643  1.00  0.00     0.040 A 
ATOM     27  C   UNL A   1      43.164  27.275  32.941  1.00  0.00     0.027 A 
ATOM     28  C   UNL A   1      41.619  26.981  34.764  1.00  0.00     0.027 A 
ATOM     29  C   UNL A   1      43.873  26.144  33.359  1.00  0.00     0.017 A 
ATOM     30  C   UNL A   1      42.315  25.842  35.179  1.00  0.00     0.017 A 
ATOM     31  C   UNL A   1      43.446  25.433  34.479  1.00  0.00     0.013 A 
ATOM     32  I   UNL A   1      44.514  23.770  35.121  1.00  0.00    -0.044 I 
ENDBRANCH  24  26
ENDBRANCH  17  24
ENDBRANCH  13  15
ENDBRANCH   8  13
ENDBRANCH   4   7
ENDBRANCH   2   3
ENDBRANCH   1   2
BRANCH   1  33
ATOM     33  C   UNL A   1      35.380  33.799  29.061  1.00  0.00     0.023 C 
BRANCH  33  34
ATOM     34  C   UNL A   1      35.344  33.086  27.713  1.00  0.00     0.116 C 
BRANCH  34  35
ATOM     35  N   UNL A   1      34.306  32.070  27.626  1.00  0.00    -0.352 N 
ATOM     36  C   UNL A   1      34.438  30.706  27.743  1.00  0.00     0.251 C 
ATOM     37  H   UNL A   1      33.393  32.401  27.462  1.00  0.00     0.163 HD
ATOM     38  O   UNL A   1      33.480  29.971  27.546  1.00  0.00    -0.269 OA
BRANCH  36  39
ATOM     39  C   UNL A   1      35.766  30.143  28.062  1.00  0.00     0.039 A 
ATOM     40  C   UNL A   1      36.740  30.111  27.060  1.00  0.00     0.014 A 
ATOM     41  C   UNL A   1      36.059  29.695  29.352  1.00  0.00     0.014 A 
ATOM     42  C   UNL A   1      38.035  29.698  27.374  1.00  0.00     0.010 A 
ATOM     43  C   UNL A   1      37.363  29.333  29.676  1.00  0.00     0.010 A 
ATOM     44  C   UNL A   1      38.363  29.342  28.692  1.00  0.00    -0.014 A 
BRANCH  44  45
ATOM     45  C   UNL A   1      39.754  28.994  29.070  1.00  0.00     0.031 A 
ATOM     46  C   UNL A   1      40.617  29.999  29.777  1.00  0.00     0.074 A 
ATOM     47  C   UNL A   1      40.256  27.793  28.719  1.00  0.00     0.049 A 
ATOM     48  N   UNL A   1      41.876  29.907  30.120  1.00  0.00    -0.248 NA
ATOM     49  C   UNL A   1      39.987  31.282  30.130  1.00  0.00     0.031 C 
ATOM     50  C   UNL A   1      39.523  26.742  28.010  1.00  0.00     0.029 A 
ATOM     51  N   UNL A   1      41.505  27.256  28.909  1.00  0.00    -0.354 N 
ATOM     52  C   UNL A   1      42.192  31.119  30.720  1.00  0.00     0.074 A 
ATOM     53  C   UNL A   1      41.007  31.947  30.655  1.00  0.00     0.031 C 
ATOM     54  C   UNL A   1      40.325  25.677  27.851  1.00  0.00     0.029 A 
ATOM     55  C   UNL A   1      41.639  25.983  28.410  1.00  0.00     0.049 A 
ATOM     56  H   UNL A   1      42.235  27.738  29.359  1.00  0.00     0.167 HD
ATOM     57  C   UNL A   1      43.359  31.502  31.290  1.00  0.00     0.031 A 
ATOM     58  C   UNL A   1      42.700  25.154  28.401  1.00  0.00     0.031 A 
ATOM     59  C   UNL A   1      44.535  30.676  31.355  1.00  0.00     0.049 A 
ATOM     60  C   UNL A   1      43.993  25.609  29.019  1.00  0.00     0.074 A 
ATOM     61  C   UNL A   1      45.760  30.966  31.930  1.00  0.00     0.029 A 
ATOM     62  N   UNL A   1      44.631  29.395  30.833  1.00  0.00    -0.354 N 
ATOM     63  N   UNL A   1      44.267  26.753  29.599  1.00  0.00    -0.248 NA
ATOM     64  C   UNL A   1      45.115  24.661  28.989  1.00  0.00     0.031 C 
ATOM     65  C   UNL A   1      46.609  29.874  31.725  1.00  0.00     0.029 A 
ATOM     66  C   UNL A   1      45.896  28.884  31.065  1.00  0.00     0.049 A 
ATOM     67  H   UNL A   1      43.907  28.919  30.368  1.00  0.00     0.167 HD
ATOM     68  C   UNL A   1      45.587  26.654  30.024  1.00  0.00     0.074 A 
ATOM     69  C   UNL A   1      46.052  25.335  29.642  1.00  0.00     0.031 C 
ATOM     70  C   UNL A   1      46.343  27.570  30.676  1.00  0.00     0.031 A 
BRANCH  57  71
ATOM     71  C   UNL A   1      43.415  32.880  31.892  1.00  0.00    -0.014 A 
ATOM     72  C   UNL A   1      43.818  33.985  31.121  1.00  0.00     0.010 A 
ATOM     73  C   UNL A   1      43.028  33.080  33.229  1.00  0.00     0.010 A 
ATOM     74  C   UNL A   1      43.870  35.261  31.688  1.00  0.00     0.020 A 
ATOM     75  C   UNL A   1      43.056  34.360  33.793  1.00  0.00     0.020 A 
ATOM     76  C   UNL A   1      43.491  35.439  33.022  1.00  0.00     0.054 A 
BRANCH  76  77
ATOM     77  S   UNL A   1      43.551  37.110  33.725  1.00  0.00     0.124 S 
ATOM     78  O   UNL A   1      44.792  37.068  34.494  1.00  0.00    -0.237 OA
ATOM     79  O   UNL A   1      43.578  37.957  32.535  1.00  0.00    -0.237 OA
ATOM     80  O   UNL A   1      42.328  37.195  34.520  1.00  0.00    -0.744 OA
ENDBRANCH  76  77
ENDBRANCH  57  71
BRANCH  58  81
ATOM     81  C   UNL A   1      42.571  23.795  27.812  1.00  0.00    -0.014 A 
ATOM     82  C   UNL A   1      42.777  23.599  26.436  1.00  0.00     0.010 A 
ATOM     83  C   UNL A   1      42.280  22.684  28.626  1.00  0.00     0.010 A 
ATOM     84  C   UNL A   1      42.690  22.319  25.881  1.00  0.00     0.020 A 
ATOM     85  C   UNL A   1      42.213  21.400  28.078  1.00  0.00     0.020 A 
ATOM     86  C   UNL A   1      42.413  21.226  26.707  1.00  0.00     0.054 A 
BRANCH  86  87
ATOM     87  S   UNL A   1      42.376  19.566  25.976  1.00  0.00     0.124 S 
ATOM     88  O   UNL A   1      42.654  18.719  27.132  1.00  0.00    -0.237 OA
ATOM     89  O   UNL A   1      41.017  19.486  25.445  1.00  0.00    -0.237 OA
ATOM     90  O   UNL A   1      43.429  19.615  24.965  1.00  0.00    -0.744 OA
ENDBRANCH  86  87
ENDBRANCH  58  81
BRANCH  70  91
ATOM     91  C   UNL A   1      47.745  27.175  31.047  1.00  0.00    -0.014 A 
ATOM     92  C   UNL A   1      48.002  26.404  32.195  1.00  0.00     0.010 A 
ATOM     93  C   UNL A   1      48.812  27.521  30.199  1.00  0.00     0.010 A 
ATOM     94  C   UNL A   1      49.305  26.005  32.498  1.00  0.00     0.020 A 
ATOM     95  C   UNL A   1      50.114  27.105  30.486  1.00  0.00     0.020 A 
ATOM     96  C   UNL A   1      50.353  26.357  31.641  1.00  0.00     0.054 A 
BRANCH  96  97
ATOM     97  S   UNL A   1      52.029  25.780  32.028  1.00  0.00     0.124 S 
ATOM     98  O   UNL A   1      52.619  25.648  30.700  1.00  0.00    -0.237 OA
ATOM     99  O   UNL A   1      52.562  26.864  32.849  1.00  0.00    -0.237 OA
ATOM    100  O   UNL A   1      51.807  24.521  32.738  1.00  0.00    -0.744 OA
ENDBRANCH  96  97
ENDBRANCH  70  91
ENDBRANCH  44  45
ENDBRANCH  36  39
ENDBRANCH  34  35
ENDBRANCH  33  34
ENDBRANCH   1  33
TORSDOF 19
ENDMDL
MODEL 2
REMARK VINA RESULT:      -9.3      5.605     12.198
REMARK SMILES Nc1c(Nc2ccc(I)cc2)ncnc1Nc1ccc(C(=O)NCCCCNC(=O)c2ccc(-c3c4nc(c(-c5ccc(S(=O)(=O)[O-])cc5)c5ccc([nH]5)c(-c5ccc(S(=O)(=O)[O-])cc5)c5nc(c(-c6ccc(S(=O)(=O)[O-])cc6)c6ccc3[nH]6)C=C5)C=C4)cc2)cc1
REMARK SMILES IDX 25 1 24 2 23 3 21 4 22 5 20 7 17 8 18 9 92 10 19 11 91 12
REMARK SMILES IDX 16 13 15 15 2 16 3 17 12 18 14 19 13 20 1 21 4 24 5 26 6 27
REMARK SMILES IDX 11 28 7 29 10 30 8 31 9 32 26 33 27 34 28 35 29 36 30 38
REMARK SMILES IDX 31 39 32 40 90 41 33 42 89 43 34 44 35 45 36 46 83 47 37 48
REMARK SMILES IDX 88 49 82 50 84 51 38 52 87 53 81 54 80 55 39 57 69 58 50 59
REMARK SMILES IDX 68 60 51 61 54 62 67 63 85 64 52 65 53 66 66 68 86 69 55 70
REMARK SMILES IDX 40 71 41 72 49 73 42 74 48 75 43 76 44 77 45 78 46 79 47 80
REMARK SMILES IDX 70 81 71 82 79 83 72 84 78 85 73 86 74 87 75 88 76 89 77 90
REMARK SMILES IDX 56 91 57 92 65 93 58 94 64 95 59 96 60 97 61 98 62 99 63 100
REMARK H PARENT 23 6 16 14 1 22 1 23 4 25 28 37 84 56 54 67
REMARK Flexibility Score: inf
ROOT
ATOM      1  C   UNL A   1      40.676  20.859  26.766  1.00  0.00     0.023 C 
ENDROOT
BRANCH   1   2
ATOM      2  C   UNL A   1      39.771  21.684  25.849  1.00  0.00     0.116 C 
BRANCH   2   3
ATOM      3  N   UNL A   1      39.558  23.010  26.396  1.00  0.00    -0.352 N 
ATOM      4  C   UNL A   1      38.486  23.865  26.364  1.00  0.00     0.251 C 
ATOM      5  O   UNL A   1      38.604  24.938  26.959  1.00  0.00    -0.269 OA
ATOM      6  H   UNL A   1      40.334  23.365  26.886  1.00  0.00     0.163 HD
BRANCH   4   7
ATOM      7  C   UNL A   1      37.183  23.554  25.700  1.00  0.00     0.039 A 
ATOM      8  C   UNL A   1      34.815  23.043  24.229  1.00  0.00     0.040 A 
ATOM      9  C   UNL A   1      36.060  23.022  23.597  1.00  0.00     0.027 A 
ATOM     10  C   UNL A   1      34.773  23.278  25.606  1.00  0.00     0.027 A 
ATOM     11  C   UNL A   1      37.227  23.282  24.323  1.00  0.00     0.016 A 
ATOM     12  C   UNL A   1      35.946  23.496  26.339  1.00  0.00     0.016 A 
BRANCH   8  13
ATOM     13  N   UNL A   1      33.634  22.946  23.475  1.00  0.00    -0.338 N 
ATOM     14  H   UNL A   1      33.262  22.046  23.327  1.00  0.00     0.168 HD
BRANCH  13  15
ATOM     15  C   UNL A   1      32.934  24.043  22.909  1.00  0.00     0.159 A 
ATOM     16  C   UNL A   1      31.775  24.507  23.543  1.00  0.00     0.118 A 
ATOM     17  C   UNL A   1      31.127  25.571  22.899  1.00  0.00     0.159 A 
ATOM     18  N   UNL A   1      31.544  26.068  21.720  1.00  0.00    -0.217 NA
ATOM     19  N   UNL A   1      33.395  24.577  21.762  1.00  0.00    -0.217 NA
ATOM     20  C   UNL A   1      32.668  25.554  21.218  1.00  0.00     0.226 A 
BRANCH  16  21
ATOM     21  N   UNL A   1      31.340  24.010  24.780  1.00  0.00    -0.393 N 
ATOM     22  H   UNL A   1      31.156  23.049  24.886  1.00  0.00     0.156 HD
ATOM     23  H   UNL A   1      31.219  24.622  25.542  1.00  0.00     0.156 HD
ENDBRANCH  16  21
BRANCH  17  24
ATOM     24  N   UNL A   1      30.002  26.158  23.532  1.00  0.00    -0.338 N 
ATOM     25  H   UNL A   1      29.428  25.553  24.057  1.00  0.00     0.168 HD
BRANCH  24  26
ATOM     26  C   UNL A   1      29.617  27.508  23.492  1.00  0.00     0.040 A 
ATOM     27  C   UNL A   1      30.544  28.508  23.813  1.00  0.00     0.027 A 
ATOM     28  C   UNL A   1      28.340  27.896  23.062  1.00  0.00     0.027 A 
ATOM     29  C   UNL A   1      30.212  29.860  23.688  1.00  0.00     0.017 A 
ATOM     30  C   UNL A   1      27.996  29.246  22.948  1.00  0.00     0.017 A 
ATOM     31  C   UNL A   1      28.938  30.224  23.255  1.00  0.00     0.013 A 
ATOM     32  I   UNL A   1      28.450  32.232  23.040  1.00  0.00    -0.044 I 
ENDBRANCH  24  26
ENDBRANCH  17  24
ENDBRANCH  13  15
ENDBRANCH   8  13
ENDBRANCH   4   7
ENDBRANCH   2   3
ENDBRANCH   1   2
BRANCH   1  33
ATOM     33  C   UNL A   1      41.193  19.559  26.142  1.00  0.00     0.023 C 
BRANCH  33  34
ATOM     34  C   UNL A   1      42.643  19.216  26.471  1.00  0.00     0.116 C 
BRANCH  34  35
ATOM     35  N   UNL A   1      43.465  18.999  25.290  1.00  0.00    -0.352 N 
ATOM     36  C   UNL A   1      44.199  19.922  24.582  1.00  0.00     0.251 C 
ATOM     37  H   UNL A   1      43.500  18.074  24.955  1.00  0.00     0.163 HD
ATOM     38  O   UNL A   1      44.764  19.602  23.546  1.00  0.00    -0.269 OA
BRANCH  36  39
ATOM     39  C   UNL A   1      44.253  21.316  25.069  1.00  0.00     0.039 A 
ATOM     40  C   UNL A   1      44.774  21.563  26.341  1.00  0.00     0.014 A 
ATOM     41  C   UNL A   1      43.835  22.372  24.255  1.00  0.00     0.014 A 
ATOM     42  C   UNL A   1      44.947  22.879  26.769  1.00  0.00     0.010 A 
ATOM     43  C   UNL A   1      44.057  23.684  24.662  1.00  0.00     0.010 A 
ATOM     44  C   UNL A   1      44.624  23.948  25.918  1.00  0.00    -0.014 A 
BRANCH  44  45
ATOM     45  C   UNL A   1      44.890  25.352  26.312  1.00  0.00     0.031 A 
ATOM     46  C   UNL A   1      46.278  25.915  26.205  1.00  0.00     0.074 A 
ATOM     47  C   UNL A   1      43.891  26.098  26.825  1.00  0.00     0.049 A 
ATOM     48  N   UNL A   1      46.721  27.090  26.570  1.00  0.00    -0.248 NA
ATOM     49  C   UNL A   1      47.308  25.036  25.627  1.00  0.00     0.031 C 
ATOM     50  C   UNL A   1      42.507  25.655  27.000  1.00  0.00     0.029 A 
ATOM     51  N   UNL A   1      43.889  27.387  27.297  1.00  0.00    -0.354 N 
ATOM     52  C   UNL A   1      48.078  27.091  26.276  1.00  0.00     0.074 A 
ATOM     53  C   UNL A   1      48.396  25.783  25.742  1.00  0.00     0.031 C 
ATOM     54  C   UNL A   1      41.783  26.664  27.513  1.00  0.00     0.029 A 
ATOM     55  C   UNL A   1      42.659  27.809  27.739  1.00  0.00     0.049 A 
ATOM     56  H   UNL A   1      44.693  27.954  27.317  1.00  0.00     0.167 HD
ATOM     57  C   UNL A   1      48.975  28.095  26.419  1.00  0.00     0.031 A 
ATOM     58  C   UNL A   1      42.277  28.987  28.271  1.00  0.00     0.031 A 
ATOM     59  C   UNL A   1      48.655  29.393  26.947  1.00  0.00     0.049 A 
ATOM     60  C   UNL A   1      43.296  30.080  28.441  1.00  0.00     0.074 A 
ATOM     61  C   UNL A   1      49.490  30.485  27.113  1.00  0.00     0.029 A 
ATOM     62  N   UNL A   1      47.398  29.780  27.389  1.00  0.00    -0.354 N 
ATOM     63  N   UNL A   1      44.572  30.067  28.140  1.00  0.00    -0.248 NA
ATOM     64  C   UNL A   1      42.822  31.346  29.017  1.00  0.00     0.031 C 
ATOM     65  C   UNL A   1      48.746  31.520  27.688  1.00  0.00     0.029 A 
ATOM     66  C   UNL A   1      47.436  31.089  27.835  1.00  0.00     0.049 A 
ATOM     67  H   UNL A   1      46.598  29.208  27.385  1.00  0.00     0.167 HD
ATOM     68  C   UNL A   1      45.050  31.330  28.466  1.00  0.00     0.074 A 
ATOM     69  C   UNL A   1      43.924  32.084  28.981  1.00  0.00     0.031 C 
ATOM     70  C   UNL A   1      46.306  31.823  28.347  1.00  0.00     0.031 A 
BRANCH  57  71
ATOM     71  C   UNL A   1      50.392  27.821  25.993  1.00  0.00    -0.014 A 
ATOM     72  C   UNL A   1      51.317  27.260  26.891  1.00  0.00     0.010 A 
ATOM     73  C   UNL A   1      50.795  28.094  24.674  1.00  0.00     0.010 A 
ATOM     74  C   UNL A   1      52.632  27.013  26.489  1.00  0.00     0.020 A 
ATOM     75  C   UNL A   1      52.104  27.825  24.260  1.00  0.00     0.020 A 
ATOM     76  C   UNL A   1      53.017  27.300  25.177  1.00  0.00     0.054 A 
BRANCH  76  77
ATOM     77  S   UNL A   1      54.726  26.949  24.677  1.00  0.00     0.124 S 
ATOM     78  O   UNL A   1      55.223  26.189  25.820  1.00  0.00    -0.237 OA
ATOM     79  O   UNL A   1      54.547  26.185  23.444  1.00  0.00    -0.237 OA
ATOM     80  O   UNL A   1      55.315  28.274  24.506  1.00  0.00    -0.744 OA
ENDBRANCH  76  77
ENDBRANCH  57  71
BRANCH  58  81
ATOM     81  C   UNL A   1      40.855  29.201  28.647  1.00  0.00    -0.014 A 
ATOM     82  C   UNL A   1      40.483  29.243  30.002  1.00  0.00     0.010 A 
ATOM     83  C   UNL A   1      39.873  29.401  27.660  1.00  0.00     0.010 A 
ATOM     84  C   UNL A   1      39.154  29.477  30.365  1.00  0.00     0.020 A 
ATOM     85  C   UNL A   1      38.546  29.657  28.019  1.00  0.00     0.020 A 
ATOM     86  C   UNL A   1      38.194  29.687  29.370  1.00  0.00     0.054 A 
BRANCH  86  87
ATOM     87  S   UNL A   1      36.489  30.060  29.867  1.00  0.00     0.124 S 
ATOM     88  O   UNL A   1      35.725  29.569  28.724  1.00  0.00    -0.237 OA
ATOM     89  O   UNL A   1      36.346  29.293  31.101  1.00  0.00    -0.237 OA
ATOM     90  O   UNL A   1      36.494  31.510  30.042  1.00  0.00    -0.744 OA
ENDBRANCH  86  87
ENDBRANCH  58  81
BRANCH  70  91
ATOM     91  C   UNL A   1      46.532  33.254  28.750  1.00  0.00    -0.014 A 
ATOM     92  C   UNL A   1      46.788  33.598  30.089  1.00  0.00     0.010 A 
ATOM     93  C   UNL A   1      46.555  34.258  27.766  1.00  0.00     0.010 A 
ATOM     94  C   UNL A   1      47.044  34.926  30.438  1.00  0.00     0.020 A 
ATOM     95  C   UNL A   1      46.831  35.583  28.107  1.00  0.00     0.020 A 
ATOM     96  C   UNL A   1      47.064  35.910  29.445  1.00  0.00     0.054 A 
BRANCH  96  97
ATOM     97  S   UNL A   1      47.452  37.618  29.917  1.00  0.00     0.124 S 
ATOM     98  O   UNL A   1      47.607  38.265  28.617  1.00  0.00    -0.237 OA
ATOM     99  O   UNL A   1      46.273  38.017  30.682  1.00  0.00    -0.237 OA
ATOM    100  O   UNL A   1      48.681  37.492  30.699  1.00  0.00    -0.744 OA
ENDBRANCH  96  97
ENDBRANCH  70  91
ENDBRANCH  44  45
ENDBRANCH  36  39
ENDBRANCH  34  35
ENDBRANCH  33  34
ENDBRANCH   1  33
TORSDOF 19
ENDMDL
MODEL 3
REMARK VINA RESULT:      -9.2      4.815      7.337
REMARK SMILES Nc1c(Nc2ccc(I)cc2)ncnc1Nc1ccc(C(=O)NCCCCNC(=O)c2ccc(-c3c4nc(c(-c5ccc(S(=O)(=O)[O-])cc5)c5ccc([nH]5)c(-c5ccc(S(=O)(=O)[O-])cc5)c5nc(c(-c6ccc(S(=O)(=O)[O-])cc6)c6ccc3[nH]6)C=C5)C=C4)cc2)cc1
REMARK SMILES IDX 25 1 24 2 23 3 21 4 22 5 20 7 17 8 18 9 92 10 19 11 91 12
REMARK SMILES IDX 16 13 15 15 2 16 3 17 12 18 14 19 13 20 1 21 4 24 5 26 6 27
REMARK SMILES IDX 11 28 7 29 10 30 8 31 9 32 26 33 27 34 28 35 29 36 30 38
REMARK SMILES IDX 31 39 32 40 90 41 33 42 89 43 34 44 35 45 36 46 83 47 37 48
REMARK SMILES IDX 88 49 82 50 84 51 38 52 87 53 81 54 80 55 39 57 69 58 50 59
REMARK SMILES IDX 68 60 51 61 54 62 67 63 85 64 52 65 53 66 66 68 86 69 55 70
REMARK SMILES IDX 40 71 41 72 49 73 42 74 48 75 43 76 44 77 45 78 46 79 47 80
REMARK SMILES IDX 70 81 71 82 79 83 72 84 78 85 73 86 74 87 75 88 76 89 77 90
REMARK SMILES IDX 56 91 57 92 65 93 58 94 64 95 59 96 60 97 61 98 62 99 63 100
REMARK H PARENT 23 6 16 14 1 22 1 23 4 25 28 37 84 56 54 67
REMARK Flexibility Score: inf
ROOT
ATOM      1  C   UNL A   1      34.969  29.943  27.874  1.00  0.00     0.023 C 
ENDROOT
BRANCH   1   2
ATOM      2  C   UNL A   1      34.216  29.528  26.608  1.00  0.00     0.116 C 
BRANCH   2   3
ATOM      3  N   UNL A   1      33.125  30.442  26.336  1.00  0.00    -0.352 N 
ATOM      4  C   UNL A   1      31.877  30.263  25.796  1.00  0.00     0.251 C 
ATOM      5  O   UNL A   1      31.149  31.255  25.718  1.00  0.00    -0.269 OA
ATOM      6  H   UNL A   1      33.317  31.374  26.589  1.00  0.00     0.163 HD
BRANCH   4   7
ATOM      7  C   UNL A   1      31.336  28.943  25.350  1.00  0.00     0.039 A 
ATOM      8  C   UNL A   1      30.440  26.336  24.691  1.00  0.00     0.040 A 
ATOM      9  C   UNL A   1      30.825  26.643  25.997  1.00  0.00     0.027 A 
ATOM     10  C   UNL A   1      30.467  27.354  23.734  1.00  0.00     0.027 A 
ATOM     11  C   UNL A   1      31.275  27.928  26.319  1.00  0.00     0.016 A 
ATOM     12  C   UNL A   1      30.876  28.650  24.067  1.00  0.00     0.016 A 
BRANCH   8  13
ATOM     13  N   UNL A   1      30.148  25.010  24.329  1.00  0.00    -0.338 N 
ATOM     14  H   UNL A   1      29.372  24.861  23.740  1.00  0.00     0.168 HD
BRANCH  13  15
ATOM     15  C   UNL A   1      30.881  23.869  24.744  1.00  0.00     0.159 A 
ATOM     16  C   UNL A   1      32.026  23.502  24.025  1.00  0.00     0.118 A 
ATOM     17  C   UNL A   1      32.672  22.344  24.482  1.00  0.00     0.159 A 
ATOM     18  N   UNL A   1      32.191  21.596  25.493  1.00  0.00    -0.217 NA
ATOM     19  N   UNL A   1      30.430  23.162  25.797  1.00  0.00    -0.217 NA
ATOM     20  C   UNL A   1      31.100  22.052  26.109  1.00  0.00     0.226 A 
BRANCH  16  21
ATOM     21  N   UNL A   1      32.547  24.282  22.983  1.00  0.00    -0.393 N 
ATOM     22  H   UNL A   1      32.894  25.183  23.170  1.00  0.00     0.156 HD
ATOM     23  H   UNL A   1      32.566  23.927  22.065  1.00  0.00     0.156 HD
ENDBRANCH  16  21
BRANCH  17  24
ATOM     24  N   UNL A   1      33.891  21.964  23.867  1.00  0.00    -0.338 N 
ATOM     25  H   UNL A   1      33.823  21.560  22.971  1.00  0.00     0.168 HD
BRANCH  24  26
ATOM     26  C   UNL A   1      35.185  22.102  24.395  1.00  0.00     0.040 A 
ATOM     27  C   UNL A   1      35.663  23.371  24.748  1.00  0.00     0.027 A 
ATOM     28  C   UNL A   1      35.996  20.988  24.655  1.00  0.00     0.027 A 
ATOM     29  C   UNL A   1      36.910  23.522  25.363  1.00  0.00     0.017 A 
ATOM     30  C   UNL A   1      37.249  21.133  25.257  1.00  0.00     0.017 A 
ATOM     31  C   UNL A   1      37.698  22.400  25.617  1.00  0.00     0.013 A 
ATOM     32  I   UNL A   1      39.538  22.618  26.557  1.00  0.00    -0.044 I 
ENDBRANCH  24  26
ENDBRANCH  17  24
ENDBRANCH  13  15
ENDBRANCH   8  13
ENDBRANCH   4   7
ENDBRANCH   2   3
ENDBRANCH   1   2
BRANCH   1  33
ATOM     33  C   UNL A   1      35.732  31.266  27.750  1.00  0.00     0.023 C 
BRANCH  33  34
ATOM     34  C   UNL A   1      36.217  31.857  29.070  1.00  0.00     0.116 C 
BRANCH  34  35
ATOM     35  N   UNL A   1      35.940  31.007  30.218  1.00  0.00    -0.352 N 
ATOM     36  C   UNL A   1      36.745  30.043  30.778  1.00  0.00     0.251 C 
ATOM     37  H   UNL A   1      35.063  31.138  30.648  1.00  0.00     0.163 HD
ATOM     38  O   UNL A   1      36.329  29.339  31.687  1.00  0.00    -0.269 OA
BRANCH  36  39
ATOM     39  C   UNL A   1      38.103  29.842  30.231  1.00  0.00     0.039 A 
ATOM     40  C   UNL A   1      39.202  30.218  31.008  1.00  0.00     0.014 A 
ATOM     41  C   UNL A   1      38.287  29.244  28.982  1.00  0.00     0.014 A 
ATOM     42  C   UNL A   1      40.490  29.923  30.563  1.00  0.00     0.010 A 
ATOM     43  C   UNL A   1      39.569  28.904  28.564  1.00  0.00     0.010 A 
ATOM     44  C   UNL A   1      40.681  29.232  29.356  1.00  0.00    -0.014 A 
BRANCH  44  45
ATOM     45  C   UNL A   1      42.034  28.822  28.910  1.00  0.00     0.031 A 
ATOM     46  C   UNL A   1      43.145  29.830  28.852  1.00  0.00     0.074 A 
ATOM     47  C   UNL A   1      42.243  27.556  28.499  1.00  0.00     0.049 A 
ATOM     48  N   UNL A   1      44.371  29.682  28.419  1.00  0.00    -0.248 NA
ATOM     49  C   UNL A   1      42.834  31.189  29.327  1.00  0.00     0.031 C 
ATOM     50  C   UNL A   1      41.236  26.492  28.487  1.00  0.00     0.029 A 
ATOM     51  N   UNL A   1      43.372  26.950  28.007  1.00  0.00    -0.354 N 
ATOM     52  C   UNL A   1      44.974  30.925  28.561  1.00  0.00     0.074 A 
ATOM     53  C   UNL A   1      43.968  31.828  29.078  1.00  0.00     0.031 C 
ATOM     54  C   UNL A   1      41.801  25.358  28.040  1.00  0.00     0.029 A 
ATOM     55  C   UNL A   1      43.195  25.623  27.698  1.00  0.00     0.049 A 
ATOM     56  H   UNL A   1      44.227  27.421  27.888  1.00  0.00     0.167 HD
ATOM     57  C   UNL A   1      46.255  31.279  28.301  1.00  0.00     0.031 A 
ATOM     58  C   UNL A   1      44.057  24.720  27.192  1.00  0.00     0.031 A 
ATOM     59  C   UNL A   1      47.252  30.378  27.790  1.00  0.00     0.049 A 
ATOM     60  C   UNL A   1      45.468  25.141  26.890  1.00  0.00     0.074 A 
ATOM     61  C   UNL A   1      48.584  30.636  27.513  1.00  0.00     0.029 A 
ATOM     62  N   UNL A   1      47.031  29.044  27.484  1.00  0.00    -0.354 N 
ATOM     63  N   UNL A   1      46.025  26.318  27.048  1.00  0.00    -0.248 NA
ATOM     64  C   UNL A   1      46.367  24.113  26.348  1.00  0.00     0.031 C 
ATOM     65  C   UNL A   1      49.159  29.466  27.007  1.00  0.00     0.029 A 
ATOM     66  C   UNL A   1      48.198  28.467  27.013  1.00  0.00     0.049 A 
ATOM     67  H   UNL A   1      46.172  28.576  27.587  1.00  0.00     0.167 HD
ATOM     68  C   UNL A   1      47.348  26.166  26.648  1.00  0.00     0.074 A 
ATOM     69  C   UNL A   1      47.508  24.782  26.249  1.00  0.00     0.031 C 
ATOM     70  C   UNL A   1      48.340  27.088  26.619  1.00  0.00     0.031 A 
BRANCH  57  71
ATOM     71  C   UNL A   1      46.646  32.706  28.572  1.00  0.00    -0.014 A 
ATOM     72  C   UNL A   1      47.168  33.084  29.821  1.00  0.00     0.010 A 
ATOM     73  C   UNL A   1      46.524  33.673  27.558  1.00  0.00     0.010 A 
ATOM     74  C   UNL A   1      47.526  34.412  30.066  1.00  0.00     0.020 A 
ATOM     75  C   UNL A   1      46.904  34.999  27.792  1.00  0.00     0.020 A 
ATOM     76  C   UNL A   1      47.389  35.361  29.050  1.00  0.00     0.054 A 
BRANCH  76  77
ATOM     77  S   UNL A   1      47.879  37.074  29.390  1.00  0.00     0.124 S 
ATOM     78  O   UNL A   1      47.417  37.253  30.764  1.00  0.00    -0.237 OA
ATOM     79  O   UNL A   1      49.330  37.031  29.216  1.00  0.00    -0.237 OA
ATOM     80  O   UNL A   1      47.157  37.848  28.384  1.00  0.00    -0.744 OA
ENDBRANCH  76  77
ENDBRANCH  57  71
BRANCH  58  81
ATOM     81  C   UNL A   1      43.613  23.318  26.972  1.00  0.00    -0.014 A 
ATOM     82  C   UNL A   1      43.568  22.788  25.671  1.00  0.00     0.010 A 
ATOM     83  C   UNL A   1      43.271  22.494  28.060  1.00  0.00     0.010 A 
ATOM     84  C   UNL A   1      43.184  21.461  25.460  1.00  0.00     0.020 A 
ATOM     85  C   UNL A   1      42.906  21.160  27.854  1.00  0.00     0.020 A 
ATOM     86  C   UNL A   1      42.860  20.653  26.554  1.00  0.00     0.054 A 
BRANCH  86  87
ATOM     87  S   UNL A   1      42.434  18.914  26.260  1.00  0.00     0.124 S 
ATOM     88  O   UNL A   1      42.513  18.351  27.604  1.00  0.00    -0.237 OA
ATOM     89  O   UNL A   1      41.091  19.010  25.692  1.00  0.00    -0.237 OA
ATOM     90  O   UNL A   1      43.464  18.463  25.327  1.00  0.00    -0.744 OA
ENDBRANCH  86  87
ENDBRANCH  58  81
BRANCH  70  91
ATOM     91  C   UNL A   1      49.699  26.631  26.167  1.00  0.00    -0.014 A 
ATOM     92  C   UNL A   1      50.086  26.725  24.819  1.00  0.00     0.010 A 
ATOM     93  C   UNL A   1      50.625  26.163  27.118  1.00  0.00     0.010 A 
ATOM     94  C   UNL A   1      51.370  26.341  24.426  1.00  0.00     0.020 A 
ATOM     95  C   UNL A   1      51.917  25.798  26.732  1.00  0.00     0.020 A 
ATOM     96  C   UNL A   1      52.278  25.880  25.385  1.00  0.00     0.054 A 
BRANCH  96  97
ATOM     97  S   UNL A   1      53.956  25.439  24.858  1.00  0.00     0.124 S 
ATOM     98  O   UNL A   1      54.053  26.107  23.564  1.00  0.00    -0.237 OA
ATOM     99  O   UNL A   1      54.786  26.001  25.920  1.00  0.00    -0.237 OA
ATOM    100  O   UNL A   1      53.931  23.978  24.804  1.00  0.00    -0.744 OA
ENDBRANCH  96  97
ENDBRANCH  70  91
ENDBRANCH  44  45
ENDBRANCH  36  39
ENDBRANCH  34  35
ENDBRANCH  33  34
ENDBRANCH   1  33
TORSDOF 19
ENDMDL
