MODEL 1
REMARK VINA RESULT:     -11.1      0.000      0.000
REMARK SMILES Cc1cc(F)c([C@](C)(NC=O)C(=O)NCCCCNC(=O)c2ccc(-c3c4nc(c(-c5ccc(S(=O)(=O)[O-])cc5)c5ccc([nH]5)c(-c5ccc(S(=O)(=O)[O-])cc5)c5nc(c(-c6ccc(S(=O)(=O)[O-])cc6)c6ccc3[nH]6)C=C5)C=C4)cc2)cc1F
REMARK SMILES IDX 17 1 16 2 15 3 14 4 12 5 13 6 7 8 8 9 6 10 1 11 2 12 3 13
REMARK SMILES IDX 83 14 4 15 82 16 84 17 5 18 9 19 10 20 11 22 18 23 19 24
REMARK SMILES IDX 20 25 21 27 22 28 23 29 81 30 24 31 80 32 25 33 26 34 27 35
REMARK SMILES IDX 74 36 28 37 79 38 73 39 75 40 29 41 78 42 72 43 71 44 30 46
REMARK SMILES IDX 60 47 41 48 59 49 42 50 45 51 58 52 76 53 43 54 44 55 57 57
REMARK SMILES IDX 77 58 46 59 31 60 32 61 40 62 33 63 39 64 34 65 35 66 36 67
REMARK SMILES IDX 37 68 38 69 61 70 62 71 70 72 63 73 69 74 64 75 65 76 66 77
REMARK SMILES IDX 67 78 68 79 47 80 48 81 56 82 49 83 55 84 50 85 51 86 52 87
REMARK SMILES IDX 53 88 54 89
REMARK H PARENT 14 7 9 21 19 26 75 45 45 56
REMARK Flexibility Score: inf
ROOT
ATOM      1  C   UNL A   1      33.099  28.212  27.171  1.00  0.00     0.023 C 
ENDROOT
BRANCH   1   2
ATOM      2  C   UNL A   1      31.688  27.639  27.024  1.00  0.00     0.023 C 
BRANCH   2   3
ATOM      3  C   UNL A   1      31.572  26.439  26.095  1.00  0.00     0.116 C 
BRANCH   3   4
ATOM      4  N   UNL A   1      31.435  25.170  26.791  1.00  0.00    -0.354 N 
ATOM      5  C   UNL A   1      32.034  23.960  26.570  1.00  0.00     0.250 C 
ATOM      6  O   UNL A   1      32.094  23.210  27.554  1.00  0.00    -0.272 OA
ATOM      7  H   UNL A   1      30.806  25.184  27.547  1.00  0.00     0.163 HD
BRANCH   5   8
ATOM      8  C   UNL A   1      32.669  23.515  25.191  1.00  0.00     0.144 C 
ATOM      9  C   UNL A   1      31.854  22.254  24.778  1.00  0.00     0.051 C 
BRANCH   8  10
ATOM     10  C   UNL A   1      34.171  23.173  25.356  1.00  0.00     0.025 A 
ATOM     11  C   UNL A   1      38.413  22.298  25.859  1.00  0.00     0.047 C 
ATOM     12  C   UNL A   1      36.962  22.593  25.648  1.00  0.00    -0.012 A 
ATOM     13  C   UNL A   1      36.483  23.891  25.799  1.00  0.00     0.046 A 
ATOM     14  C   UNL A   1      36.041  21.591  25.350  1.00  0.00     0.126 A 
ATOM     15  C   UNL A   1      35.121  24.163  25.647  1.00  0.00     0.129 A 
ATOM     16  C   UNL A   1      34.678  21.869  25.193  1.00  0.00     0.049 A 
ATOM     17  F   UNL A   1      36.459  20.327  25.202  1.00  0.00    -0.207 F 
ATOM     18  F   UNL A   1      34.764  25.440  25.771  1.00  0.00    -0.207 F 
ENDBRANCH   8  10
BRANCH   8  19
ATOM     19  N   UNL A   1      32.533  24.503  24.113  1.00  0.00    -0.341 N 
ATOM     20  C   UNL A   1      31.602  24.450  23.116  1.00  0.00     0.338 C 
ATOM     21  H   UNL A   1      33.159  25.262  24.110  1.00  0.00     0.164 HD
ATOM     22  O   UNL A   1      31.586  25.250  22.192  1.00  0.00    -0.279 OA
ENDBRANCH   8  19
ENDBRANCH   5   8
ENDBRANCH   3   4
ENDBRANCH   2   3
ENDBRANCH   1   2
BRANCH   1  23
ATOM     23  C   UNL A   1      33.392  29.500  26.410  1.00  0.00     0.116 C 
BRANCH  23  24
ATOM     24  N   UNL A   1      33.400  30.703  27.236  1.00  0.00    -0.352 N 
ATOM     25  C   UNL A   1      34.391  31.162  28.079  1.00  0.00     0.251 C 
ATOM     26  H   UNL A   1      32.590  31.261  27.185  1.00  0.00     0.163 HD
ATOM     27  O   UNL A   1      34.242  32.190  28.723  1.00  0.00    -0.269 OA
BRANCH  25  28
ATOM     28  C   UNL A   1      35.612  30.345  28.237  1.00  0.00     0.039 A 
ATOM     29  C   UNL A   1      35.834  29.639  29.419  1.00  0.00     0.014 A 
ATOM     30  C   UNL A   1      36.597  30.412  27.249  1.00  0.00     0.014 A 
ATOM     31  C   UNL A   1      37.114  29.179  29.700  1.00  0.00     0.010 A 
ATOM     32  C   UNL A   1      37.859  29.872  27.501  1.00  0.00     0.010 A 
ATOM     33  C   UNL A   1      38.149  29.317  28.757  1.00  0.00    -0.014 A 
BRANCH  33  34
ATOM     34  C   UNL A   1      39.533  28.921  29.128  1.00  0.00     0.031 A 
ATOM     35  C   UNL A   1      40.364  29.792  30.036  1.00  0.00     0.074 A 
ATOM     36  C   UNL A   1      40.010  27.732  28.715  1.00  0.00     0.049 A 
ATOM     37  N   UNL A   1      41.574  29.581  30.491  1.00  0.00    -0.248 NA
ATOM     38  C   UNL A   1      39.769  31.059  30.493  1.00  0.00     0.031 C 
ATOM     39  C   UNL A   1      39.282  26.787  27.867  1.00  0.00     0.029 A 
ATOM     40  N   UNL A   1      41.195  27.096  28.985  1.00  0.00    -0.354 N 
ATOM     41  C   UNL A   1      41.889  30.691  31.268  1.00  0.00     0.074 A 
ATOM     42  C   UNL A   1      40.756  31.587  31.205  1.00  0.00     0.031 C 
ATOM     43  C   UNL A   1      40.002  25.662  27.748  1.00  0.00     0.029 A 
ATOM     44  C   UNL A   1      41.273  25.833  28.449  1.00  0.00     0.049 A 
ATOM     45  H   UNL A   1      41.919  27.505  29.512  1.00  0.00     0.167 HD
ATOM     46  C   UNL A   1      43.016  30.935  31.980  1.00  0.00     0.031 A 
ATOM     47  C   UNL A   1      42.253  24.910  28.506  1.00  0.00     0.031 A 
ATOM     48  C   UNL A   1      44.135  30.032  32.054  1.00  0.00     0.049 A 
ATOM     49  C   UNL A   1      43.511  25.221  29.260  1.00  0.00     0.074 A 
ATOM     50  C   UNL A   1      45.320  30.194  32.752  1.00  0.00     0.029 A 
ATOM     51  N   UNL A   1      44.208  28.801  31.423  1.00  0.00    -0.354 N 
ATOM     52  N   UNL A   1      43.801  26.290  29.962  1.00  0.00    -0.248 NA
ATOM     53  C   UNL A   1      44.578  24.212  29.222  1.00  0.00     0.031 C 
ATOM     54  C   UNL A   1      46.129  29.083  32.501  1.00  0.00     0.029 A 
ATOM     55  C   UNL A   1      45.426  28.201  31.695  1.00  0.00     0.049 A 
ATOM     56  H   UNL A   1      43.498  28.409  30.863  1.00  0.00     0.167 HD
ATOM     57  C   UNL A   1      45.086  26.086  30.447  1.00  0.00     0.074 A 
ATOM     58  C   UNL A   1      45.510  24.782  29.978  1.00  0.00     0.031 C 
ATOM     59  C   UNL A   1      45.845  26.911  31.207  1.00  0.00     0.031 A 
BRANCH  46  60
ATOM     60  C   UNL A   1      43.113  32.235  32.733  1.00  0.00    -0.014 A 
ATOM     61  C   UNL A   1      43.693  33.358  32.114  1.00  0.00     0.010 A 
ATOM     62  C   UNL A   1      42.721  32.324  34.081  1.00  0.00     0.010 A 
ATOM     63  C   UNL A   1      43.894  34.541  32.831  1.00  0.00     0.020 A 
ATOM     64  C   UNL A   1      42.900  33.513  34.795  1.00  0.00     0.020 A 
ATOM     65  C   UNL A   1      43.501  34.608  34.170  1.00  0.00     0.054 A 
BRANCH  65  66
ATOM     66  S   UNL A   1      43.760  36.153  35.088  1.00  0.00     0.124 S 
ATOM     67  O   UNL A   1      45.059  36.594  34.590  1.00  0.00    -0.237 OA
ATOM     68  O   UNL A   1      42.616  36.967  34.680  1.00  0.00    -0.237 OA
ATOM     69  O   UNL A   1      43.737  35.724  36.485  1.00  0.00    -0.744 OA
ENDBRANCH  65  66
ENDBRANCH  46  60
BRANCH  47  70
ATOM     70  C   UNL A   1      42.041  23.604  27.828  1.00  0.00    -0.014 A 
ATOM     71  C   UNL A   1      41.540  22.505  28.550  1.00  0.00     0.010 A 
ATOM     72  C   UNL A   1      42.465  23.419  26.502  1.00  0.00     0.010 A 
ATOM     73  C   UNL A   1      41.533  21.229  27.983  1.00  0.00     0.020 A 
ATOM     74  C   UNL A   1      42.434  22.147  25.921  1.00  0.00     0.020 A 
ATOM     75  C   UNL A   1      42.002  21.055  26.679  1.00  0.00     0.054 A 
BRANCH  75  76
ATOM     76  S   UNL A   1      42.069  19.379  25.990  1.00  0.00     0.124 S 
ATOM     77  O   UNL A   1      40.669  19.143  25.646  1.00  0.00    -0.237 OA
ATOM     78  O   UNL A   1      42.978  19.531  24.858  1.00  0.00    -0.237 OA
ATOM     79  O   UNL A   1      42.586  18.576  27.096  1.00  0.00    -0.744 OA
ENDBRANCH  75  76
ENDBRANCH  47  70
BRANCH  59  80
ATOM     80  C   UNL A   1      47.230  26.456  31.577  1.00  0.00    -0.014 A 
ATOM     81  C   UNL A   1      48.317  26.765  30.739  1.00  0.00     0.010 A 
ATOM     82  C   UNL A   1      47.432  25.616  32.686  1.00  0.00     0.010 A 
ATOM     83  C   UNL A   1      49.577  26.215  30.983  1.00  0.00     0.020 A 
ATOM     84  C   UNL A   1      48.697  25.082  32.946  1.00  0.00     0.020 A 
ATOM     85  C   UNL A   1      49.756  25.365  32.079  1.00  0.00     0.054 A 
BRANCH  85  86
ATOM     86  S   UNL A   1      51.390  24.632  32.364  1.00  0.00     0.124 S 
ATOM     87  O   UNL A   1      51.657  25.005  33.750  1.00  0.00    -0.237 OA
ATOM     88  O   UNL A   1      51.154  23.210  32.128  1.00  0.00    -0.237 OA
ATOM     89  O   UNL A   1      52.235  25.287  31.367  1.00  0.00    -0.744 OA
ENDBRANCH  85  86
ENDBRANCH  59  80
ENDBRANCH  33  34
ENDBRANCH  25  28
ENDBRANCH  23  24
ENDBRANCH   1  23
TORSDOF 16
ENDMDL
MODEL 2
REMARK VINA RESULT:     -11.0      1.994      3.238
REMARK SMILES Cc1cc(F)c([C@](C)(NC=O)C(=O)NCCCCNC(=O)c2ccc(-c3c4nc(c(-c5ccc(S(=O)(=O)[O-])cc5)c5ccc([nH]5)c(-c5ccc(S(=O)(=O)[O-])cc5)c5nc(c(-c6ccc(S(=O)(=O)[O-])cc6)c6ccc3[nH]6)C=C5)C=C4)cc2)cc1F
REMARK SMILES IDX 17 1 16 2 15 3 14 4 12 5 13 6 7 8 8 9 6 10 1 11 2 12 3 13
REMARK SMILES IDX 83 14 4 15 82 16 84 17 5 18 9 19 10 20 11 22 18 23 19 24
REMARK SMILES IDX 20 25 21 27 22 28 23 29 81 30 24 31 80 32 25 33 26 34 27 35
REMARK SMILES IDX 74 36 28 37 79 38 73 39 75 40 29 41 78 42 72 43 71 44 30 46
REMARK SMILES IDX 60 47 41 48 59 49 42 50 45 51 58 52 76 53 43 54 44 55 57 57
REMARK SMILES IDX 77 58 46 59 31 60 32 61 40 62 33 63 39 64 34 65 35 66 36 67
REMARK SMILES IDX 37 68 38 69 61 70 62 71 70 72 63 73 69 74 64 75 65 76 66 77
REMARK SMILES IDX 67 78 68 79 47 80 48 81 56 82 49 83 55 84 50 85 51 86 52 87
REMARK SMILES IDX 53 88 54 89
REMARK H PARENT 14 7 9 21 19 26 75 45 45 56
REMARK Flexibility Score: inf
ROOT
ATOM      1  C   UNL A   1      32.062  28.471  27.432  1.00  0.00     0.023 C 
ENDROOT
BRANCH   1   2
ATOM      2  C   UNL A   1      31.750  27.196  26.647  1.00  0.00     0.023 C 
BRANCH   2   3
ATOM      3  C   UNL A   1      32.967  26.414  26.175  1.00  0.00     0.116 C 
BRANCH   3   4
ATOM      4  N   UNL A   1      32.661  25.393  25.186  1.00  0.00    -0.354 N 
ATOM      5  C   UNL A   1      32.725  25.423  23.821  1.00  0.00     0.250 C 
ATOM      6  O   UNL A   1      32.856  24.322  23.270  1.00  0.00    -0.272 OA
ATOM      7  H   UNL A   1      32.356  24.537  25.563  1.00  0.00     0.163 HD
BRANCH   5   8
ATOM      8  C   UNL A   1      32.689  26.746  22.953  1.00  0.00     0.144 C 
ATOM      9  C   UNL A   1      33.747  27.675  23.620  1.00  0.00     0.051 C 
BRANCH   8  10
ATOM     10  C   UNL A   1      31.283  27.395  22.987  1.00  0.00     0.025 A 
ATOM     11  C   UNL A   1      27.359  29.297  23.033  1.00  0.00     0.047 C 
ATOM     12  C   UNL A   1      28.707  28.647  23.056  1.00  0.00    -0.012 A 
ATOM     13  C   UNL A   1      29.824  29.339  22.600  1.00  0.00     0.046 A 
ATOM     14  C   UNL A   1      28.884  27.331  23.477  1.00  0.00     0.126 A 
ATOM     15  C   UNL A   1      31.078  28.721  22.579  1.00  0.00     0.129 A 
ATOM     16  C   UNL A   1      30.142  26.716  23.458  1.00  0.00     0.049 A 
ATOM     17  F   UNL A   1      27.833  26.626  23.917  1.00  0.00    -0.207 F 
ATOM     18  F   UNL A   1      32.093  29.476  22.164  1.00  0.00    -0.207 F 
ENDBRANCH   8  10
BRANCH   8  19
ATOM     19  N   UNL A   1      33.084  26.563  21.550  1.00  0.00    -0.341 N 
ATOM     20  C   UNL A   1      32.568  25.620  20.709  1.00  0.00     0.338 C 
ATOM     21  H   UNL A   1      33.772  27.166  21.189  1.00  0.00     0.164 HD
ATOM     22  O   UNL A   1      32.992  25.451  19.575  1.00  0.00    -0.279 OA
ENDBRANCH   8  19
ENDBRANCH   5   8
ENDBRANCH   3   4
ENDBRANCH   2   3
ENDBRANCH   1   2
BRANCH   1  23
ATOM     23  C   UNL A   1      33.257  29.289  26.953  1.00  0.00     0.116 C 
BRANCH  23  24
ATOM     24  N   UNL A   1      33.377  30.605  27.571  1.00  0.00    -0.352 N 
ATOM     25  C   UNL A   1      34.459  31.152  28.230  1.00  0.00     0.251 C 
ATOM     26  H   UNL A   1      32.579  31.179  27.510  1.00  0.00     0.163 HD
ATOM     27  O   UNL A   1      34.400  32.273  28.712  1.00  0.00    -0.269 OA
BRANCH  25  28
ATOM     28  C   UNL A   1      35.670  30.323  28.397  1.00  0.00     0.039 A 
ATOM     29  C   UNL A   1      35.902  29.658  29.602  1.00  0.00     0.014 A 
ATOM     30  C   UNL A   1      36.638  30.338  27.391  1.00  0.00     0.014 A 
ATOM     31  C   UNL A   1      37.180  29.189  29.878  1.00  0.00     0.010 A 
ATOM     32  C   UNL A   1      37.897  29.788  27.642  1.00  0.00     0.010 A 
ATOM     33  C   UNL A   1      38.200  29.276  28.913  1.00  0.00    -0.014 A 
BRANCH  33  34
ATOM     34  C   UNL A   1      39.585  28.874  29.275  1.00  0.00     0.031 A 
ATOM     35  C   UNL A   1      40.413  29.722  30.207  1.00  0.00     0.074 A 
ATOM     36  C   UNL A   1      40.065  27.697  28.831  1.00  0.00     0.049 A 
ATOM     37  N   UNL A   1      41.623  29.501  30.658  1.00  0.00    -0.248 NA
ATOM     38  C   UNL A   1      39.814  30.974  30.698  1.00  0.00     0.031 C 
ATOM     39  C   UNL A   1      39.341  26.774  27.956  1.00  0.00     0.029 A 
ATOM     40  N   UNL A   1      41.252  27.057  29.086  1.00  0.00    -0.354 N 
ATOM     41  C   UNL A   1      41.934  30.590  31.466  1.00  0.00     0.074 A 
ATOM     42  C   UNL A   1      40.800  31.485  31.425  1.00  0.00     0.031 C 
ATOM     43  C   UNL A   1      40.064  25.655  27.808  1.00  0.00     0.029 A 
ATOM     44  C   UNL A   1      41.333  25.809  28.515  1.00  0.00     0.049 A 
ATOM     45  H   UNL A   1      41.973  27.453  29.624  1.00  0.00     0.167 HD
ATOM     46  C   UNL A   1      43.060  30.817  32.185  1.00  0.00     0.031 A 
ATOM     47  C   UNL A   1      42.314  24.887  28.548  1.00  0.00     0.031 A 
ATOM     48  C   UNL A   1      44.180  29.915  32.237  1.00  0.00     0.049 A 
ATOM     49  C   UNL A   1      43.571  25.180  29.312  1.00  0.00     0.074 A 
ATOM     50  C   UNL A   1      45.364  30.061  32.941  1.00  0.00     0.029 A 
ATOM     51  N   UNL A   1      44.257  28.702  31.573  1.00  0.00    -0.354 N 
ATOM     52  N   UNL A   1      43.857  26.230  30.044  1.00  0.00    -0.248 NA
ATOM     53  C   UNL A   1      44.641  24.175  29.249  1.00  0.00     0.031 C 
ATOM     54  C   UNL A   1      46.176  28.959  32.660  1.00  0.00     0.029 A 
ATOM     55  C   UNL A   1      45.476  28.098  31.830  1.00  0.00     0.049 A 
ATOM     56  H   UNL A   1      43.549  28.324  31.001  1.00  0.00     0.167 HD
ATOM     57  C   UNL A   1      45.143  26.016  30.525  1.00  0.00     0.074 A 
ATOM     58  C   UNL A   1      45.570  24.726  30.021  1.00  0.00     0.031 C 
ATOM     59  C   UNL A   1      45.899  26.822  31.308  1.00  0.00     0.031 A 
BRANCH  46  60
ATOM     60  C   UNL A   1      43.153  32.097  32.974  1.00  0.00    -0.014 A 
ATOM     61  C   UNL A   1      43.696  33.248  32.373  1.00  0.00     0.010 A 
ATOM     62  C   UNL A   1      42.794  32.140  34.333  1.00  0.00     0.010 A 
ATOM     63  C   UNL A   1      43.895  34.413  33.119  1.00  0.00     0.020 A 
ATOM     64  C   UNL A   1      42.970  33.311  35.077  1.00  0.00     0.020 A 
ATOM     65  C   UNL A   1      43.535  34.435  34.469  1.00  0.00     0.054 A 
BRANCH  65  66
ATOM     66  S   UNL A   1      43.790  35.957  35.425  1.00  0.00     0.124 S 
ATOM     67  O   UNL A   1      43.269  35.587  36.737  1.00  0.00    -0.237 OA
ATOM     68  O   UNL A   1      45.237  36.147  35.349  1.00  0.00    -0.237 OA
ATOM     69  O   UNL A   1      43.005  36.950  34.695  1.00  0.00    -0.744 OA
ENDBRANCH  65  66
ENDBRANCH  46  60
BRANCH  47  70
ATOM     70  C   UNL A   1      42.107  23.599  27.835  1.00  0.00    -0.014 A 
ATOM     71  C   UNL A   1      41.376  22.562  28.445  1.00  0.00     0.010 A 
ATOM     72  C   UNL A   1      42.749  23.358  26.610  1.00  0.00     0.010 A 
ATOM     73  C   UNL A   1      41.351  21.286  27.878  1.00  0.00     0.020 A 
ATOM     74  C   UNL A   1      42.703  22.088  26.025  1.00  0.00     0.020 A 
ATOM     75  C   UNL A   1      42.035  21.052  26.684  1.00  0.00     0.054 A 
BRANCH  75  76
ATOM     76  S   UNL A   1      42.065  19.369  26.009  1.00  0.00     0.124 S 
ATOM     77  O   UNL A   1      40.657  19.152  25.688  1.00  0.00    -0.237 OA
ATOM     78  O   UNL A   1      42.960  19.497  24.862  1.00  0.00    -0.237 OA
ATOM     79  O   UNL A   1      42.587  18.568  27.114  1.00  0.00    -0.744 OA
ENDBRANCH  75  76
ENDBRANCH  47  70
BRANCH  59  80
ATOM     80  C   UNL A   1      47.284  26.361  31.668  1.00  0.00    -0.014 A 
ATOM     81  C   UNL A   1      48.349  26.578  30.775  1.00  0.00     0.010 A 
ATOM     82  C   UNL A   1      47.503  25.599  32.829  1.00  0.00     0.010 A 
ATOM     83  C   UNL A   1      49.604  26.015  31.020  1.00  0.00     0.020 A 
ATOM     84  C   UNL A   1      48.763  25.054  33.089  1.00  0.00     0.020 A 
ATOM     85  C   UNL A   1      49.799  25.245  32.170  1.00  0.00     0.054 A 
BRANCH  85  86
ATOM     86  S   UNL A   1      51.425  24.493  32.458  1.00  0.00     0.124 S 
ATOM     87  O   UNL A   1      51.640  24.761  33.877  1.00  0.00    -0.237 OA
ATOM     88  O   UNL A   1      51.201  23.092  32.108  1.00  0.00    -0.237 OA
ATOM     89  O   UNL A   1      52.302  25.221  31.545  1.00  0.00    -0.744 OA
ENDBRANCH  85  86
ENDBRANCH  59  80
ENDBRANCH  33  34
ENDBRANCH  25  28
ENDBRANCH  23  24
ENDBRANCH   1  23
TORSDOF 16
ENDMDL
MODEL 3
REMARK VINA RESULT:     -10.7      3.723      6.440
REMARK SMILES Cc1cc(F)c([C@](C)(NC=O)C(=O)NCCCCNC(=O)c2ccc(-c3c4nc(c(-c5ccc(S(=O)(=O)[O-])cc5)c5ccc([nH]5)c(-c5ccc(S(=O)(=O)[O-])cc5)c5nc(c(-c6ccc(S(=O)(=O)[O-])cc6)c6ccc3[nH]6)C=C5)C=C4)cc2)cc1F
REMARK SMILES IDX 17 1 16 2 15 3 14 4 12 5 13 6 7 8 8 9 6 10 1 11 2 12 3 13
REMARK SMILES IDX 83 14 4 15 82 16 84 17 5 18 9 19 10 20 11 22 18 23 19 24
REMARK SMILES IDX 20 25 21 27 22 28 23 29 81 30 24 31 80 32 25 33 26 34 27 35
REMARK SMILES IDX 74 36 28 37 79 38 73 39 75 40 29 41 78 42 72 43 71 44 30 46
REMARK SMILES IDX 60 47 41 48 59 49 42 50 45 51 58 52 76 53 43 54 44 55 57 57
REMARK SMILES IDX 77 58 46 59 31 60 32 61 40 62 33 63 39 64 34 65 35 66 36 67
REMARK SMILES IDX 37 68 38 69 61 70 62 71 70 72 63 73 69 74 64 75 65 76 66 77
REMARK SMILES IDX 67 78 68 79 47 80 48 81 56 82 49 83 55 84 50 85 51 86 52 87
REMARK SMILES IDX 53 88 54 89
REMARK H PARENT 14 7 9 21 19 26 75 45 45 56
REMARK Flexibility Score: inf
ROOT
ATOM      1  C   UNL A   1      34.850  32.678  31.317  1.00  0.00     0.023 C 
ENDROOT
BRANCH   1   2
ATOM      2  C   UNL A   1      34.507  33.894  32.179  1.00  0.00     0.023 C 
BRANCH   2   3
ATOM      3  C   UNL A   1      35.389  34.087  33.404  1.00  0.00     0.116 C 
BRANCH   3   4
ATOM      4  N   UNL A   1      36.703  34.631  33.100  1.00  0.00    -0.354 N 
ATOM      5  C   UNL A   1      37.952  34.191  33.440  1.00  0.00     0.250 C 
ATOM      6  O   UNL A   1      38.868  34.557  32.689  1.00  0.00    -0.272 OA
ATOM      7  H   UNL A   1      36.691  35.453  32.560  1.00  0.00     0.163 HD
BRANCH   5   8
ATOM      8  C   UNL A   1      38.263  33.237  34.664  1.00  0.00     0.144 C 
ATOM      9  C   UNL A   1      39.425  33.945  35.422  1.00  0.00     0.051 C 
BRANCH   8  10
ATOM     10  C   UNL A   1      38.695  31.832  34.177  1.00  0.00     0.025 A 
ATOM     11  C   UNL A   1      39.829  27.868  32.757  1.00  0.00     0.047 C 
ATOM     12  C   UNL A   1      39.441  29.215  33.280  1.00  0.00    -0.012 A 
ATOM     13  C   UNL A   1      38.149  29.694  33.087  1.00  0.00     0.046 A 
ATOM     14  C   UNL A   1      40.354  30.047  33.924  1.00  0.00     0.126 A 
ATOM     15  C   UNL A   1      37.794  30.969  33.536  1.00  0.00     0.129 A 
ATOM     16  C   UNL A   1      39.993  31.322  34.377  1.00  0.00     0.049 A 
ATOM     17  F   UNL A   1      41.610  29.627  34.126  1.00  0.00    -0.207 F 
ATOM     18  F   UNL A   1      36.526  31.324  33.340  1.00  0.00    -0.207 F 
ENDBRANCH   8  10
BRANCH   8  19
ATOM     19  N   UNL A   1      37.150  33.081  35.609  1.00  0.00    -0.341 N 
ATOM     20  C   UNL A   1      37.200  33.392  36.937  1.00  0.00     0.338 C 
ATOM     21  H   UNL A   1      36.302  32.726  35.258  1.00  0.00     0.164 HD
ATOM     22  O   UNL A   1      36.273  33.162  37.700  1.00  0.00    -0.279 OA
ENDBRANCH   8  19
ENDBRANCH   5   8
ENDBRANCH   3   4
ENDBRANCH   2   3
ENDBRANCH   1   2
BRANCH   1  23
ATOM     23  C   UNL A   1      35.161  32.950  29.849  1.00  0.00     0.116 C 
BRANCH  23  24
ATOM     24  N   UNL A   1      34.203  32.378  28.911  1.00  0.00    -0.352 N 
ATOM     25  C   UNL A   1      34.313  31.222  28.165  1.00  0.00     0.251 C 
ATOM     26  H   UNL A   1      33.366  32.884  28.793  1.00  0.00     0.163 HD
ATOM     27  O   UNL A   1      33.421  30.879  27.402  1.00  0.00    -0.269 OA
BRANCH  25  28
ATOM     28  C   UNL A   1      35.564  30.442  28.260  1.00  0.00     0.039 A 
ATOM     29  C   UNL A   1      35.840  29.700  29.408  1.00  0.00     0.014 A 
ATOM     30  C   UNL A   1      36.520  30.581  27.251  1.00  0.00     0.014 A 
ATOM     31  C   UNL A   1      37.141  29.273  29.639  1.00  0.00     0.010 A 
ATOM     32  C   UNL A   1      37.806  30.075  27.451  1.00  0.00     0.010 A 
ATOM     33  C   UNL A   1      38.146  29.483  28.677  1.00  0.00    -0.014 A 
BRANCH  33  34
ATOM     34  C   UNL A   1      39.552  29.121  28.998  1.00  0.00     0.031 A 
ATOM     35  C   UNL A   1      40.412  30.041  29.828  1.00  0.00     0.074 A 
ATOM     36  C   UNL A   1      40.026  27.921  28.613  1.00  0.00     0.049 A 
ATOM     37  N   UNL A   1      41.645  29.865  30.233  1.00  0.00    -0.248 NA
ATOM     38  C   UNL A   1      39.820  31.318  30.259  1.00  0.00     0.031 C 
ATOM     39  C   UNL A   1      39.274  26.932  27.841  1.00  0.00     0.029 A 
ATOM     40  N   UNL A   1      41.232  27.313  28.853  1.00  0.00    -0.354 N 
ATOM     41  C   UNL A   1      41.979  31.010  30.947  1.00  0.00     0.074 A 
ATOM     42  C   UNL A   1      40.832  31.888  30.900  1.00  0.00     0.031 C 
ATOM     43  C   UNL A   1      40.004  25.812  27.735  1.00  0.00     0.029 A 
ATOM     44  C   UNL A   1      41.303  26.029  28.367  1.00  0.00     0.049 A 
ATOM     45  H   UNL A   1      41.974  27.753  29.327  1.00  0.00     0.167 HD
ATOM     46  C   UNL A   1      43.135  31.299  31.593  1.00  0.00     0.031 A 
ATOM     47  C   UNL A   1      42.298  25.122  28.416  1.00  0.00     0.031 A 
ATOM     48  C   UNL A   1      44.269  30.414  31.653  1.00  0.00     0.049 A 
ATOM     49  C   UNL A   1      43.586  25.480  29.096  1.00  0.00     0.074 A 
ATOM     50  C   UNL A   1      45.484  30.621  32.286  1.00  0.00     0.029 A 
ATOM     51  N   UNL A   1      44.331  29.158  31.071  1.00  0.00    -0.354 N 
ATOM     52  N   UNL A   1      43.892  26.582  29.738  1.00  0.00    -0.248 NA
ATOM     53  C   UNL A   1      44.665  24.485  29.050  1.00  0.00     0.031 C 
ATOM     54  C   UNL A   1      46.297  29.511  32.043  1.00  0.00     0.029 A 
ATOM     55  C   UNL A   1      45.569  28.586  31.310  1.00  0.00     0.049 A 
ATOM     56  H   UNL A   1      43.602  28.734  30.562  1.00  0.00     0.167 HD
ATOM     57  C   UNL A   1      45.202  26.415  30.170  1.00  0.00     0.074 A 
ATOM     58  C   UNL A   1      45.622  25.098  29.736  1.00  0.00     0.031 C 
ATOM     59  C   UNL A   1      45.984  27.282  30.857  1.00  0.00     0.031 A 
BRANCH  46  60
ATOM     60  C   UNL A   1      43.249  32.631  32.286  1.00  0.00    -0.014 A 
ATOM     61  C   UNL A   1      42.924  32.737  33.651  1.00  0.00     0.010 A 
ATOM     62  C   UNL A   1      43.584  33.795  31.571  1.00  0.00     0.010 A 
ATOM     63  C   UNL A   1      42.916  33.982  34.286  1.00  0.00     0.020 A 
ATOM     64  C   UNL A   1      43.599  35.040  32.208  1.00  0.00     0.020 A 
ATOM     65  C   UNL A   1      43.248  35.127  33.558  1.00  0.00     0.054 A 
BRANCH  65  66
ATOM     66  S   UNL A   1      43.242  36.737  34.396  1.00  0.00     0.124 S 
ATOM     67  O   UNL A   1      43.366  37.667  33.278  1.00  0.00    -0.237 OA
ATOM     68  O   UNL A   1      41.951  36.740  35.080  1.00  0.00    -0.237 OA
ATOM     69  O   UNL A   1      44.402  36.662  35.281  1.00  0.00    -0.744 OA
ENDBRANCH  65  66
ENDBRANCH  46  60
BRANCH  47  70
ATOM     70  C   UNL A   1      42.074  23.785  27.805  1.00  0.00    -0.014 A 
ATOM     71  C   UNL A   1      41.598  22.719  28.590  1.00  0.00     0.010 A 
ATOM     72  C   UNL A   1      42.462  23.541  26.477  1.00  0.00     0.010 A 
ATOM     73  C   UNL A   1      41.581  21.418  28.082  1.00  0.00     0.020 A 
ATOM     74  C   UNL A   1      42.421  22.244  25.956  1.00  0.00     0.020 A 
ATOM     75  C   UNL A   1      42.015  21.186  26.775  1.00  0.00     0.054 A 
BRANCH  75  76
ATOM     76  S   UNL A   1      42.071  19.481  26.162  1.00  0.00     0.124 S 
ATOM     77  O   UNL A   1      40.675  19.249  25.799  1.00  0.00    -0.237 OA
ATOM     78  O   UNL A   1      43.005  19.570  25.043  1.00  0.00    -0.237 OA
ATOM     79  O   UNL A   1      42.553  18.720  27.313  1.00  0.00    -0.744 OA
ENDBRANCH  75  76
ENDBRANCH  47  70
BRANCH  59  80
ATOM     80  C   UNL A   1      47.391  26.861  31.180  1.00  0.00    -0.014 A 
ATOM     81  C   UNL A   1      48.403  26.999  30.213  1.00  0.00     0.010 A 
ATOM     82  C   UNL A   1      47.681  26.211  32.392  1.00  0.00     0.010 A 
ATOM     83  C   UNL A   1      49.674  26.466  30.438  1.00  0.00     0.020 A 
ATOM     84  C   UNL A   1      48.958  25.697  32.630  1.00  0.00     0.020 A 
ATOM     85  C   UNL A   1      49.940  25.806  31.642  1.00  0.00     0.054 A 
BRANCH  85  86
ATOM     86  S   UNL A   1      51.586  25.091  31.906  1.00  0.00     0.124 S 
ATOM     87  O   UNL A   1      51.319  23.659  31.800  1.00  0.00    -0.237 OA
ATOM     88  O   UNL A   1      52.369  25.668  30.816  1.00  0.00    -0.237 OA
ATOM     89  O   UNL A   1      51.951  25.562  33.240  1.00  0.00    -0.744 OA
ENDBRANCH  85  86
ENDBRANCH  59  80
ENDBRANCH  33  34
ENDBRANCH  25  28
ENDBRANCH  23  24
ENDBRANCH   1  23
TORSDOF 16
ENDMDL
