MODEL 1
REMARK VINA RESULT:     -10.1      0.000      0.000
REMARK SMILES C[C@@H](Oc1cncc(C(=O)NCCCCNC(=O)c2ccc(-c3c4nc(c(-c5ccc(S(=O)(=O)[O-])cc5)c5ccc([nH]5)c(-c5ccc(S(=O)(=O)[O-])cc5)c5nc(c(-c6ccc(S(=O)(=O)[O-])cc6)c6ccc3[nH]6)C=C5)C=C4)cc2)n1)C(F)(F)F
REMARK SMILES IDX 13 1 12 2 11 3 9 4 10 5 8 7 4 8 5 9 79 10 6 11 7 12 3 13
REMARK SMILES IDX 2 14 1 15 80 16 81 17 82 18 83 19 14 20 15 21 16 22 17 23
REMARK SMILES IDX 18 25 19 26 20 27 78 28 21 29 77 30 22 31 23 32 24 33 71 34
REMARK SMILES IDX 25 35 76 36 70 37 72 38 26 39 75 40 69 41 68 42 27 44 57 45
REMARK SMILES IDX 38 46 56 47 39 48 42 49 55 50 73 51 40 52 41 53 54 55 74 56
REMARK SMILES IDX 43 57 28 58 29 59 37 60 30 61 36 62 31 63 32 64 33 65 34 66
REMARK SMILES IDX 35 67 58 68 59 69 67 70 60 71 66 72 61 73 62 74 63 75 64 76
REMARK SMILES IDX 65 77 44 78 45 79 53 80 46 81 52 82 47 83 48 84 49 85 50 86
REMARK SMILES IDX 51 87
REMARK H PARENT 11 6 16 24 72 43 42 54
REMARK Flexibility Score: inf
ROOT
ATOM      1  C   UNL A   1      31.307  28.491  26.034  1.00  0.00     0.023 C 
ENDROOT
BRANCH   1   2
ATOM      2  C   UNL A   1      31.266  28.246  24.527  1.00  0.00     0.116 C 
BRANCH   2   3
ATOM      3  N   UNL A   1      32.485  28.714  23.894  1.00  0.00    -0.351 N 
ATOM      4  C   UNL A   1      33.479  28.051  23.216  1.00  0.00     0.271 C 
ATOM      5  O   UNL A   1      34.447  28.718  22.842  1.00  0.00    -0.267 OA
ATOM      6  H   UNL A   1      32.626  29.686  23.964  1.00  0.00     0.163 HD
BRANCH   4   7
ATOM      7  C   UNL A   1      33.432  26.598  22.873  1.00  0.00     0.150 A 
ATOM      8  C   UNL A   1      33.292  24.381  23.420  1.00  0.00     0.233 A 
ATOM      9  C   UNL A   1      33.044  24.063  22.090  1.00  0.00     0.179 A 
ATOM     10  N   UNL A   1      33.493  25.645  23.841  1.00  0.00    -0.205 NA
ATOM     11  N   UNL A   1      33.048  24.989  21.107  1.00  0.00    -0.257 NA
ATOM     12  C   UNL A   1      33.235  26.266  21.532  1.00  0.00     0.145 A 
BRANCH   8  13
ATOM     13  O   UNL A   1      33.138  23.430  24.394  1.00  0.00    -0.464 OA
BRANCH  13  14
ATOM     14  C   UNL A   1      32.485  23.944  25.571  1.00  0.00     0.277 C 
ATOM     15  C   UNL A   1      33.161  23.354  26.812  1.00  0.00     0.063 C 
BRANCH  14  16
ATOM     16  C   UNL A   1      31.012  23.524  25.550  1.00  0.00     0.425 C 
ATOM     17  F   UNL A   1      30.490  23.663  24.306  1.00  0.00    -0.167 F 
ATOM     18  F   UNL A   1      30.853  22.230  25.905  1.00  0.00    -0.167 F 
ATOM     19  F   UNL A   1      30.262  24.281  26.384  1.00  0.00    -0.167 F 
ENDBRANCH  14  16
ENDBRANCH  13  14
ENDBRANCH   8  13
ENDBRANCH   4   7
ENDBRANCH   2   3
ENDBRANCH   1   2
BRANCH   1  20
ATOM     20  C   UNL A   1      32.347  27.648  26.782  1.00  0.00     0.023 C 
BRANCH  20  21
ATOM     21  C   UNL A   1      33.695  28.325  27.019  1.00  0.00     0.116 C 
BRANCH  21  22
ATOM     22  N   UNL A   1      33.571  29.710  27.447  1.00  0.00    -0.352 N 
ATOM     23  C   UNL A   1      34.492  30.500  28.091  1.00  0.00     0.251 C 
ATOM     24  H   UNL A   1      32.708  30.139  27.248  1.00  0.00     0.163 HD
ATOM     25  O   UNL A   1      34.173  31.617  28.489  1.00  0.00    -0.269 OA
BRANCH  23  26
ATOM     26  C   UNL A   1      35.857  29.986  28.332  1.00  0.00     0.039 A 
ATOM     27  C   UNL A   1      36.794  30.054  27.298  1.00  0.00     0.014 A 
ATOM     28  C   UNL A   1      36.215  29.455  29.575  1.00  0.00     0.014 A 
ATOM     29  C   UNL A   1      38.111  29.655  27.532  1.00  0.00     0.010 A 
ATOM     30  C   UNL A   1      37.543  29.118  29.824  1.00  0.00     0.010 A 
ATOM     31  C   UNL A   1      38.505  29.217  28.808  1.00  0.00    -0.014 A 
BRANCH  31  32
ATOM     32  C   UNL A   1      39.918  28.871  29.101  1.00  0.00     0.031 A 
ATOM     33  C   UNL A   1      40.840  29.897  29.702  1.00  0.00     0.074 A 
ATOM     34  C   UNL A   1      40.391  27.654  28.762  1.00  0.00     0.049 A 
ATOM     35  N   UNL A   1      42.119  29.802  29.965  1.00  0.00    -0.248 NA
ATOM     36  C   UNL A   1      40.256  31.208  30.026  1.00  0.00     0.031 C 
ATOM     37  C   UNL A   1      39.608  26.585  28.136  1.00  0.00     0.029 A 
ATOM     38  N   UNL A   1      41.646  27.114  28.890  1.00  0.00    -0.354 N 
ATOM     39  C   UNL A   1      42.494  31.042  30.468  1.00  0.00     0.074 A 
ATOM     40  C   UNL A   1      41.320  31.887  30.430  1.00  0.00     0.031 C 
ATOM     41  C   UNL A   1      40.396  25.512  27.956  1.00  0.00     0.029 A 
ATOM     42  C   UNL A   1      41.745  25.826  28.417  1.00  0.00     0.049 A 
ATOM     43  H   UNL A   1      42.405  27.602  29.283  1.00  0.00     0.167 HD
ATOM     44  C   UNL A   1      43.702  31.439  30.936  1.00  0.00     0.031 A 
ATOM     45  C   UNL A   1      42.802  24.994  28.352  1.00  0.00     0.031 A 
ATOM     46  C   UNL A   1      44.865  30.593  30.986  1.00  0.00     0.049 A 
ATOM     47  C   UNL A   1      44.134  25.457  28.875  1.00  0.00     0.074 A 
ATOM     48  C   UNL A   1      46.119  30.885  31.493  1.00  0.00     0.029 A 
ATOM     49  N   UNL A   1      44.919  29.291  30.511  1.00  0.00    -0.354 N 
ATOM     50  N   UNL A   1      44.453  26.615  29.405  1.00  0.00    -0.248 NA
ATOM     51  C   UNL A   1      45.246  24.499  28.802  1.00  0.00     0.031 C 
ATOM     52  C   UNL A   1      46.945  29.775  31.284  1.00  0.00     0.029 A 
ATOM     53  C   UNL A   1      46.189  28.773  30.694  1.00  0.00     0.049 A 
ATOM     54  H   UNL A   1      44.165  28.808  30.102  1.00  0.00     0.167 HD
ATOM     55  C   UNL A   1      45.796  26.514  29.752  1.00  0.00     0.074 A 
ATOM     56  C   UNL A   1      46.224  25.180  29.385  1.00  0.00     0.031 C 
ATOM     57  C   UNL A   1      46.601  27.443  30.324  1.00  0.00     0.031 A 
BRANCH  44  58
ATOM     58  C   UNL A   1      43.825  32.856  31.431  1.00  0.00    -0.014 A 
ATOM     59  C   UNL A   1      43.567  33.179  32.775  1.00  0.00     0.010 A 
ATOM     60  C   UNL A   1      44.240  33.871  30.550  1.00  0.00     0.010 A 
ATOM     61  C   UNL A   1      43.680  34.499  33.219  1.00  0.00     0.020 A 
ATOM     62  C   UNL A   1      44.380  35.188  30.997  1.00  0.00     0.020 A 
ATOM     63  C   UNL A   1      44.081  35.496  32.326  1.00  0.00     0.054 A 
BRANCH  63  64
ATOM     64  S   UNL A   1      44.237  37.198  32.934  1.00  0.00     0.124 S 
ATOM     65  O   UNL A   1      45.554  37.171  33.568  1.00  0.00    -0.237 OA
ATOM     66  O   UNL A   1      44.148  37.987  31.709  1.00  0.00    -0.237 OA
ATOM     67  O   UNL A   1      43.109  37.344  33.851  1.00  0.00    -0.744 OA
ENDBRANCH  63  64
ENDBRANCH  44  58
BRANCH  45  68
ATOM     68  C   UNL A   1      42.640  23.628  27.783  1.00  0.00    -0.014 A 
ATOM     69  C   UNL A   1      42.962  23.375  26.437  1.00  0.00     0.010 A 
ATOM     70  C   UNL A   1      42.174  22.572  28.586  1.00  0.00     0.010 A 
ATOM     71  C   UNL A   1      42.802  22.094  25.900  1.00  0.00     0.020 A 
ATOM     72  C   UNL A   1      42.037  21.284  28.059  1.00  0.00     0.020 A 
ATOM     73  C   UNL A   1      42.341  21.057  26.715  1.00  0.00     0.054 A 
BRANCH  73  74
ATOM     74  S   UNL A   1      42.189  19.392  26.010  1.00  0.00     0.124 S 
ATOM     75  O   UNL A   1      40.751  19.288  25.785  1.00  0.00    -0.237 OA
ATOM     76  O   UNL A   1      43.014  19.480  24.808  1.00  0.00    -0.237 OA
ATOM     77  O   UNL A   1      42.724  18.526  27.060  1.00  0.00    -0.744 OA
ENDBRANCH  73  74
ENDBRANCH  45  68
BRANCH  57  78
ATOM     78  C   UNL A   1      48.021  27.040  30.622  1.00  0.00    -0.014 A 
ATOM     79  C   UNL A   1      49.065  27.338  29.728  1.00  0.00     0.010 A 
ATOM     80  C   UNL A   1      48.319  26.403  31.839  1.00  0.00     0.010 A 
ATOM     81  C   UNL A   1      50.380  26.979  30.037  1.00  0.00     0.020 A 
ATOM     82  C   UNL A   1      49.636  26.066  32.162  1.00  0.00     0.020 A 
ATOM     83  C   UNL A   1      50.657  26.345  31.252  1.00  0.00     0.054 A 
BRANCH  83  84
ATOM     84  S   UNL A   1      52.378  25.930  31.649  1.00  0.00     0.124 S 
ATOM     85  O   UNL A   1      53.036  26.097  30.356  1.00  0.00    -0.237 OA
ATOM     86  O   UNL A   1      52.723  26.924  32.662  1.00  0.00    -0.237 OA
ATOM     87  O   UNL A   1      52.299  24.555  32.136  1.00  0.00    -0.744 OA
ENDBRANCH  83  84
ENDBRANCH  57  78
ENDBRANCH  31  32
ENDBRANCH  23  26
ENDBRANCH  21  22
ENDBRANCH  20  21
ENDBRANCH   1  20
TORSDOF 17
ENDMDL
MODEL 2
REMARK VINA RESULT:     -10.0      6.354     12.014
REMARK SMILES C[C@@H](Oc1cncc(C(=O)NCCCCNC(=O)c2ccc(-c3c4nc(c(-c5ccc(S(=O)(=O)[O-])cc5)c5ccc([nH]5)c(-c5ccc(S(=O)(=O)[O-])cc5)c5nc(c(-c6ccc(S(=O)(=O)[O-])cc6)c6ccc3[nH]6)C=C5)C=C4)cc2)n1)C(F)(F)F
REMARK SMILES IDX 13 1 12 2 11 3 9 4 10 5 8 7 4 8 5 9 79 10 6 11 7 12 3 13
REMARK SMILES IDX 2 14 1 15 80 16 81 17 82 18 83 19 14 20 15 21 16 22 17 23
REMARK SMILES IDX 18 25 19 26 20 27 78 28 21 29 77 30 22 31 23 32 24 33 71 34
REMARK SMILES IDX 25 35 76 36 70 37 72 38 26 39 75 40 69 41 68 42 27 44 57 45
REMARK SMILES IDX 38 46 56 47 39 48 42 49 55 50 73 51 40 52 41 53 54 55 74 56
REMARK SMILES IDX 43 57 28 58 29 59 37 60 30 61 36 62 31 63 32 64 33 65 34 66
REMARK SMILES IDX 35 67 58 68 59 69 67 70 60 71 66 72 61 73 62 74 63 75 64 76
REMARK SMILES IDX 65 77 44 78 45 79 53 80 46 81 52 82 47 83 48 84 49 85 50 86
REMARK SMILES IDX 51 87
REMARK H PARENT 11 6 16 24 72 43 42 54
REMARK Flexibility Score: inf
ROOT
ATOM      1  C   UNL A   1      40.292  21.104  26.576  1.00  0.00     0.023 C 
ENDROOT
BRANCH   1   2
ATOM      2  C   UNL A   1      41.723  20.625  26.814  1.00  0.00     0.116 C 
BRANCH   2   3
ATOM      3  N   UNL A   1      41.839  19.200  26.563  1.00  0.00    -0.351 N 
ATOM      4  C   UNL A   1      42.817  18.453  25.954  1.00  0.00     0.271 C 
ATOM      5  O   UNL A   1      42.604  17.245  25.823  1.00  0.00    -0.267 OA
ATOM      6  H   UNL A   1      41.075  18.671  26.890  1.00  0.00     0.163 HD
BRANCH   4   7
ATOM      7  C   UNL A   1      44.124  19.006  25.489  1.00  0.00     0.150 A 
ATOM      8  C   UNL A   1      45.471  20.706  24.760  1.00  0.00     0.233 A 
ATOM      9  C   UNL A   1      46.594  19.915  24.974  1.00  0.00     0.179 A 
ATOM     10  N   UNL A   1      44.219  20.274  25.007  1.00  0.00    -0.205 NA
ATOM     11  N   UNL A   1      46.512  18.632  25.386  1.00  0.00    -0.257 NA
ATOM     12  C   UNL A   1      45.252  18.201  25.651  1.00  0.00     0.145 A 
BRANCH   8  13
ATOM     13  O   UNL A   1      45.613  22.039  24.477  1.00  0.00    -0.464 OA
BRANCH  13  14
ATOM     14  C   UNL A   1      44.724  22.867  25.253  1.00  0.00     0.277 C 
ATOM     15  C   UNL A   1      43.654  23.449  24.327  1.00  0.00     0.063 C 
BRANCH  14  16
ATOM     16  C   UNL A   1      45.526  24.011  25.882  1.00  0.00     0.425 C 
ATOM     17  F   UNL A   1      46.062  24.806  24.923  1.00  0.00    -0.167 F 
ATOM     18  F   UNL A   1      44.754  24.797  26.663  1.00  0.00    -0.167 F 
ATOM     19  F   UNL A   1      46.551  23.551  26.636  1.00  0.00    -0.167 F 
ENDBRANCH  14  16
ENDBRANCH  13  14
ENDBRANCH   8  13
ENDBRANCH   4   7
ENDBRANCH   2   3
ENDBRANCH   1   2
BRANCH   1  20
ATOM     20  C   UNL A   1      39.963  22.455  27.220  1.00  0.00     0.023 C 
BRANCH  20  21
ATOM     21  C   UNL A   1      41.137  23.424  27.352  1.00  0.00     0.116 C 
BRANCH  21  22
ATOM     22  N   UNL A   1      41.318  24.263  26.177  1.00  0.00    -0.352 N 
ATOM     23  C   UNL A   1      41.331  25.634  26.089  1.00  0.00     0.251 C 
ATOM     24  H   UNL A   1      41.449  23.781  25.328  1.00  0.00     0.163 HD
ATOM     25  O   UNL A   1      41.375  26.179  24.989  1.00  0.00    -0.269 OA
BRANCH  23  26
ATOM     26  C   UNL A   1      41.257  26.447  27.321  1.00  0.00     0.039 A 
ATOM     27  C   UNL A   1      42.214  27.444  27.527  1.00  0.00     0.014 A 
ATOM     28  C   UNL A   1      40.241  26.239  28.258  1.00  0.00     0.014 A 
ATOM     29  C   UNL A   1      42.111  28.281  28.640  1.00  0.00     0.010 A 
ATOM     30  C   UNL A   1      40.104  27.115  29.332  1.00  0.00     0.010 A 
ATOM     31  C   UNL A   1      41.034  28.146  29.533  1.00  0.00    -0.014 A 
BRANCH  31  32
ATOM     32  C   UNL A   1      40.858  29.080  30.674  1.00  0.00     0.031 A 
ATOM     33  C   UNL A   1      41.714  28.942  31.903  1.00  0.00     0.074 A 
ATOM     34  C   UNL A   1      39.882  30.009  30.631  1.00  0.00     0.049 A 
ATOM     35  N   UNL A   1      41.663  29.619  33.023  1.00  0.00    -0.248 NA
ATOM     36  C   UNL A   1      42.745  27.892  31.882  1.00  0.00     0.031 C 
ATOM     37  C   UNL A   1      38.958  30.217  29.512  1.00  0.00     0.029 A 
ATOM     38  N   UNL A   1      39.499  30.948  31.555  1.00  0.00    -0.354 N 
ATOM     39  C   UNL A   1      42.639  29.066  33.843  1.00  0.00     0.074 A 
ATOM     40  C   UNL A   1      43.235  27.970  33.111  1.00  0.00     0.031 C 
ATOM     41  C   UNL A   1      38.132  31.234  29.808  1.00  0.00     0.029 A 
ATOM     42  C   UNL A   1      38.439  31.725  31.148  1.00  0.00     0.049 A 
ATOM     43  H   UNL A   1      39.940  31.056  32.429  1.00  0.00     0.167 HD
ATOM     44  C   UNL A   1      43.018  29.447  35.087  1.00  0.00     0.031 A 
ATOM     45  C   UNL A   1      37.782  32.715  31.782  1.00  0.00     0.031 A 
ATOM     46  C   UNL A   1      42.433  30.546  35.808  1.00  0.00     0.049 A 
ATOM     47  C   UNL A   1      38.220  33.118  33.163  1.00  0.00     0.074 A 
ATOM     48  C   UNL A   1      42.786  31.044  37.049  1.00  0.00     0.029 A 
ATOM     49  N   UNL A   1      41.374  31.316  35.353  1.00  0.00    -0.354 N 
ATOM     50  N   UNL A   1      39.187  32.623  33.898  1.00  0.00    -0.248 NA
ATOM     51  C   UNL A   1      37.483  34.220  33.798  1.00  0.00     0.031 C 
ATOM     52  C   UNL A   1      41.909  32.088  37.367  1.00  0.00     0.029 A 
ATOM     53  C   UNL A   1      41.045  32.273  36.298  1.00  0.00     0.049 A 
ATOM     54  H   UNL A   1      40.921  31.199  34.487  1.00  0.00     0.167 HD
ATOM     55  C   UNL A   1      39.192  33.371  35.070  1.00  0.00     0.074 A 
ATOM     56  C   UNL A   1      38.142  34.360  34.940  1.00  0.00     0.031 C 
ATOM     57  C   UNL A   1      39.997  33.251  36.155  1.00  0.00     0.031 A 
BRANCH  44  58
ATOM     58  C   UNL A   1      44.121  28.662  35.748  1.00  0.00    -0.014 A 
ATOM     59  C   UNL A   1      43.833  27.546  36.555  1.00  0.00     0.010 A 
ATOM     60  C   UNL A   1      45.463  29.020  35.530  1.00  0.00     0.010 A 
ATOM     61  C   UNL A   1      44.865  26.830  37.166  1.00  0.00     0.020 A 
ATOM     62  C   UNL A   1      46.500  28.290  36.118  1.00  0.00     0.020 A 
ATOM     63  C   UNL A   1      46.192  27.210  36.948  1.00  0.00     0.054 A 
BRANCH  63  64
ATOM     64  S   UNL A   1      47.513  26.250  37.739  1.00  0.00     0.124 S 
ATOM     65  O   UNL A   1      47.449  24.988  37.004  1.00  0.00    -0.237 OA
ATOM     66  O   UNL A   1      48.698  27.064  37.485  1.00  0.00    -0.237 OA
ATOM     67  O   UNL A   1      47.099  26.177  39.138  1.00  0.00    -0.744 OA
ENDBRANCH  63  64
ENDBRANCH  44  58
BRANCH  45  68
ATOM     68  C   UNL A   1      36.649  33.407  31.109  1.00  0.00    -0.014 A 
ATOM     69  C   UNL A   1      36.847  34.074  29.887  1.00  0.00     0.010 A 
ATOM     70  C   UNL A   1      35.364  33.392  31.681  1.00  0.00     0.010 A 
ATOM     71  C   UNL A   1      35.784  34.730  29.259  1.00  0.00     0.020 A 
ATOM     72  C   UNL A   1      34.294  34.026  31.043  1.00  0.00     0.020 A 
ATOM     73  C   UNL A   1      34.514  34.701  29.841  1.00  0.00     0.054 A 
BRANCH  73  74
ATOM     74  S   UNL A   1      33.139  35.517  28.982  1.00  0.00     0.124 S 
ATOM     75  O   UNL A   1      32.350  36.033  30.096  1.00  0.00    -0.237 OA
ATOM     76  O   UNL A   1      33.824  36.522  28.172  1.00  0.00    -0.237 OA
ATOM     77  O   UNL A   1      32.520  34.433  28.222  1.00  0.00    -0.744 OA
ENDBRANCH  73  74
ENDBRANCH  45  68
BRANCH  57  78
ATOM     78  C   UNL A   1      39.796  34.233  37.278  1.00  0.00    -0.014 A 
ATOM     79  C   UNL A   1      38.955  33.936  38.365  1.00  0.00     0.010 A 
ATOM     80  C   UNL A   1      40.504  35.449  37.270  1.00  0.00     0.010 A 
ATOM     81  C   UNL A   1      38.804  34.851  39.411  1.00  0.00     0.020 A 
ATOM     82  C   UNL A   1      40.376  36.354  38.326  1.00  0.00     0.020 A 
ATOM     83  C   UNL A   1      39.516  36.054  39.384  1.00  0.00     0.054 A 
BRANCH  83  84
ATOM     84  S   UNL A   1      39.338  37.205  40.775  1.00  0.00     0.124 S 
ATOM     85  O   UNL A   1      40.693  37.733  40.908  1.00  0.00    -0.237 OA
ATOM     86  O   UNL A   1      38.341  38.153  40.283  1.00  0.00    -0.237 OA
ATOM     87  O   UNL A   1      38.890  36.354  41.874  1.00  0.00    -0.744 OA
ENDBRANCH  83  84
ENDBRANCH  57  78
ENDBRANCH  31  32
ENDBRANCH  23  26
ENDBRANCH  21  22
ENDBRANCH  20  21
ENDBRANCH   1  20
TORSDOF 17
ENDMDL
MODEL 3
REMARK VINA RESULT:      -9.9      1.619      2.217
REMARK SMILES C[C@@H](Oc1cncc(C(=O)NCCCCNC(=O)c2ccc(-c3c4nc(c(-c5ccc(S(=O)(=O)[O-])cc5)c5ccc([nH]5)c(-c5ccc(S(=O)(=O)[O-])cc5)c5nc(c(-c6ccc(S(=O)(=O)[O-])cc6)c6ccc3[nH]6)C=C5)C=C4)cc2)n1)C(F)(F)F
REMARK SMILES IDX 13 1 12 2 11 3 9 4 10 5 8 7 4 8 5 9 79 10 6 11 7 12 3 13
REMARK SMILES IDX 2 14 1 15 80 16 81 17 82 18 83 19 14 20 15 21 16 22 17 23
REMARK SMILES IDX 18 25 19 26 20 27 78 28 21 29 77 30 22 31 23 32 24 33 71 34
REMARK SMILES IDX 25 35 76 36 70 37 72 38 26 39 75 40 69 41 68 42 27 44 57 45
REMARK SMILES IDX 38 46 56 47 39 48 42 49 55 50 73 51 40 52 41 53 54 55 74 56
REMARK SMILES IDX 43 57 28 58 29 59 37 60 30 61 36 62 31 63 32 64 33 65 34 66
REMARK SMILES IDX 35 67 58 68 59 69 67 70 60 71 66 72 61 73 62 74 63 75 64 76
REMARK SMILES IDX 65 77 44 78 45 79 53 80 46 81 52 82 47 83 48 84 49 85 50 86
REMARK SMILES IDX 51 87
REMARK H PARENT 11 6 16 24 72 43 42 54
REMARK Flexibility Score: inf
ROOT
ATOM      1  C   UNL A   1      31.680  28.272  25.256  1.00  0.00     0.023 C 
ENDROOT
BRANCH   1   2
ATOM      2  C   UNL A   1      30.547  27.432  24.668  1.00  0.00     0.116 C 
BRANCH   2   3
ATOM      3  N   UNL A   1      30.935  26.867  23.389  1.00  0.00    -0.351 N 
ATOM      4  C   UNL A   1      31.832  25.882  23.055  1.00  0.00     0.271 C 
ATOM      5  O   UNL A   1      32.002  25.658  21.854  1.00  0.00    -0.267 OA
ATOM      6  H   UNL A   1      30.469  27.263  22.617  1.00  0.00     0.163 HD
BRANCH   4   7
ATOM      7  C   UNL A   1      32.568  25.048  24.053  1.00  0.00     0.150 A 
ATOM      8  C   UNL A   1      34.474  24.335  25.099  1.00  0.00     0.233 A 
ATOM      9  C   UNL A   1      33.710  23.731  26.090  1.00  0.00     0.179 A 
ATOM     10  N   UNL A   1      33.927  25.002  24.062  1.00  0.00    -0.205 NA
ATOM     11  N   UNL A   1      32.360  23.709  26.057  1.00  0.00    -0.257 NA
ATOM     12  C   UNL A   1      31.807  24.394  25.022  1.00  0.00     0.145 A 
BRANCH   8  13
ATOM     13  O   UNL A   1      35.830  24.450  25.251  1.00  0.00    -0.464 OA
BRANCH  13  14
ATOM     14  C   UNL A   1      36.477  23.175  25.431  1.00  0.00     0.277 C 
ATOM     15  C   UNL A   1      37.886  23.407  25.984  1.00  0.00     0.063 C 
BRANCH  14  16
ATOM     16  C   UNL A   1      36.576  22.468  24.075  1.00  0.00     0.425 C 
ATOM     17  F   UNL A   1      36.979  23.332  23.111  1.00  0.00    -0.167 F 
ATOM     18  F   UNL A   1      37.470  21.456  24.100  1.00  0.00    -0.167 F 
ATOM     19  F   UNL A   1      35.383  21.962  23.684  1.00  0.00    -0.167 F 
ENDBRANCH  14  16
ENDBRANCH  13  14
ENDBRANCH   8  13
ENDBRANCH   4   7
ENDBRANCH   2   3
ENDBRANCH   1   2
BRANCH   1  20
ATOM     20  C   UNL A   1      32.181  27.787  26.622  1.00  0.00     0.023 C 
BRANCH  20  21
ATOM     21  C   UNL A   1      33.503  28.392  27.089  1.00  0.00     0.116 C 
BRANCH  21  22
ATOM     22  N   UNL A   1      33.393  29.797  27.447  1.00  0.00    -0.352 N 
ATOM     23  C   UNL A   1      34.320  30.608  28.055  1.00  0.00     0.251 C 
ATOM     24  H   UNL A   1      32.534  30.225  27.224  1.00  0.00     0.163 HD
ATOM     25  O   UNL A   1      34.011  31.748  28.395  1.00  0.00    -0.269 OA
BRANCH  23  26
ATOM     26  C   UNL A   1      35.678  30.093  28.326  1.00  0.00     0.039 A 
ATOM     27  C   UNL A   1      36.635  30.148  27.309  1.00  0.00     0.014 A 
ATOM     28  C   UNL A   1      36.011  29.573  29.580  1.00  0.00     0.014 A 
ATOM     29  C   UNL A   1      37.946  29.747  27.572  1.00  0.00     0.010 A 
ATOM     30  C   UNL A   1      37.333  29.235  29.858  1.00  0.00     0.010 A 
ATOM     31  C   UNL A   1      38.314  29.321  28.860  1.00  0.00    -0.014 A 
BRANCH  31  32
ATOM     32  C   UNL A   1      39.721  28.973  29.182  1.00  0.00     0.031 A 
ATOM     33  C   UNL A   1      40.627  29.993  29.816  1.00  0.00     0.074 A 
ATOM     34  C   UNL A   1      40.204  27.761  28.841  1.00  0.00     0.049 A 
ATOM     35  N   UNL A   1      41.899  29.898  30.109  1.00  0.00    -0.248 NA
ATOM     36  C   UNL A   1      40.032  31.300  30.141  1.00  0.00     0.031 C 
ATOM     37  C   UNL A   1      39.438  26.697  28.185  1.00  0.00     0.029 A 
ATOM     38  N   UNL A   1      41.456  27.221  28.993  1.00  0.00    -0.354 N 
ATOM     39  C   UNL A   1      42.260  31.133  30.635  1.00  0.00     0.074 A 
ATOM     40  C   UNL A   1      41.086  31.976  30.578  1.00  0.00     0.031 C 
ATOM     41  C   UNL A   1      40.231  25.628  28.012  1.00  0.00     0.029 A 
ATOM     42  C   UNL A   1      41.568  25.939  28.508  1.00  0.00     0.049 A 
ATOM     43  H   UNL A   1      42.205  27.706  29.410  1.00  0.00     0.167 HD
ATOM     44  C   UNL A   1      43.456  31.525  31.136  1.00  0.00     0.031 A 
ATOM     45  C   UNL A   1      42.628  25.109  28.459  1.00  0.00     0.031 A 
ATOM     46  C   UNL A   1      44.619  30.680  31.204  1.00  0.00     0.049 A 
ATOM     47  C   UNL A   1      43.946  25.568  29.019  1.00  0.00     0.074 A 
ATOM     48  C   UNL A   1      45.859  30.968  31.745  1.00  0.00     0.029 A 
ATOM     49  N   UNL A   1      44.686  29.384  30.716  1.00  0.00    -0.354 N 
ATOM     50  N   UNL A   1      44.250  26.720  29.569  1.00  0.00    -0.248 NA
ATOM     51  C   UNL A   1      45.061  24.612  28.962  1.00  0.00     0.031 C 
ATOM     52  C   UNL A   1      46.691  29.862  31.542  1.00  0.00     0.029 A 
ATOM     53  C   UNL A   1      45.952  28.866  30.924  1.00  0.00     0.049 A 
ATOM     54  H   UNL A   1      43.943  28.904  30.284  1.00  0.00     0.167 HD
ATOM     55  C   UNL A   1      45.585  26.617  29.947  1.00  0.00     0.074 A 
ATOM     56  C   UNL A   1      46.024  25.287  29.575  1.00  0.00     0.031 C 
ATOM     57  C   UNL A   1      46.375  27.540  30.549  1.00  0.00     0.031 A 
BRANCH  44  58
ATOM     58  C   UNL A   1      43.564  32.937  31.649  1.00  0.00    -0.014 A 
ATOM     59  C   UNL A   1      44.017  33.978  30.818  1.00  0.00     0.010 A 
ATOM     60  C   UNL A   1      43.174  33.235  32.967  1.00  0.00     0.010 A 
ATOM     61  C   UNL A   1      44.117  35.282  31.309  1.00  0.00     0.020 A 
ATOM     62  C   UNL A   1      43.247  34.543  33.454  1.00  0.00     0.020 A 
ATOM     63  C   UNL A   1      43.736  35.555  32.625  1.00  0.00     0.054 A 
BRANCH  63  64
ATOM     64  S   UNL A   1      43.859  37.261  33.230  1.00  0.00     0.124 S 
ATOM     65  O   UNL A   1      45.171  37.258  33.874  1.00  0.00    -0.237 OA
ATOM     66  O   UNL A   1      43.766  38.045  32.001  1.00  0.00    -0.237 OA
ATOM     67  O   UNL A   1      42.720  37.392  34.136  1.00  0.00    -0.744 OA
ENDBRANCH  63  64
ENDBRANCH  44  58
BRANCH  45  68
ATOM     68  C   UNL A   1      42.482  23.749  27.871  1.00  0.00    -0.014 A 
ATOM     69  C   UNL A   1      42.465  22.613  28.699  1.00  0.00     0.010 A 
ATOM     70  C   UNL A   1      42.348  23.585  26.480  1.00  0.00     0.010 A 
ATOM     71  C   UNL A   1      42.335  21.336  28.146  1.00  0.00     0.020 A 
ATOM     72  C   UNL A   1      42.193  22.311  25.926  1.00  0.00     0.020 A 
ATOM     73  C   UNL A   1      42.200  21.193  26.762  1.00  0.00     0.054 A 
BRANCH  73  74
ATOM     74  S   UNL A   1      41.983  19.529  26.071  1.00  0.00     0.124 S 
ATOM     75  O   UNL A   1      40.556  19.511  25.767  1.00  0.00    -0.237 OA
ATOM     76  O   UNL A   1      42.877  19.548  24.916  1.00  0.00    -0.237 OA
ATOM     77  O   UNL A   1      42.405  18.650  27.160  1.00  0.00    -0.744 OA
ENDBRANCH  73  74
ENDBRANCH  45  68
BRANCH  57  78
ATOM     78  C   UNL A   1      47.787  27.136  30.876  1.00  0.00    -0.014 A 
ATOM     79  C   UNL A   1      48.112  26.555  32.115  1.00  0.00     0.010 A 
ATOM     80  C   UNL A   1      48.794  27.292  29.905  1.00  0.00     0.010 A 
ATOM     81  C   UNL A   1      49.425  26.163  32.386  1.00  0.00     0.020 A 
ATOM     82  C   UNL A   1      50.102  26.877  30.164  1.00  0.00     0.020 A 
ATOM     83  C   UNL A   1      50.412  26.327  31.410  1.00  0.00     0.054 A 
BRANCH  83  84
ATOM     84  S   UNL A   1      52.100  25.768  31.770  1.00  0.00     0.124 S 
ATOM     85  O   UNL A   1      51.900  24.344  32.028  1.00  0.00    -0.237 OA
ATOM     86  O   UNL A   1      52.815  26.088  30.537  1.00  0.00    -0.237 OA
ATOM     87  O   UNL A   1      52.487  26.564  32.932  1.00  0.00    -0.744 OA
ENDBRANCH  83  84
ENDBRANCH  57  78
ENDBRANCH  31  32
ENDBRANCH  23  26
ENDBRANCH  21  22
ENDBRANCH  20  21
ENDBRANCH   1  20
TORSDOF 17
ENDMDL
