MODEL 1
REMARK VINA RESULT:     -10.5      0.000      0.000
REMARK SMILES C[C@@]([NH3+])(C(=O)NCCCCNC(=O)c1ccc(-c2c3nc(c(-c4ccc(S(=O)(=O)[O-])cc4)c4ccc([nH]4)c(-c4ccc(S(=O)(=O)[O-])cc4)c4nc(c(-c5ccc(S(=O)(=O)[O-])cc5)c5ccc2[nH]5)C=C4)C=C3)cc1)c1ccc(S(=O)(=O)[O-])cc1
REMARK SMILES IDX 9 1 8 2 7 3 6 4 4 5 5 6 2 8 1 9 3 10 74 14 75 15 83 16 76 17
REMARK SMILES IDX 82 18 77 19 78 20 79 21 80 22 81 23 10 24 11 25 12 26 13 28
REMARK SMILES IDX 14 29 15 30 73 31 16 32 72 33 17 34 18 35 19 36 66 37 20 38
REMARK SMILES IDX 71 39 65 40 67 41 21 42 70 43 64 44 63 45 22 47 52 48 33 49
REMARK SMILES IDX 51 50 34 51 37 52 50 53 68 54 35 55 36 56 49 58 69 59 38 60
REMARK SMILES IDX 23 61 24 62 32 63 25 64 31 65 26 66 27 67 28 68 29 69 30 70
REMARK SMILES IDX 53 71 54 72 62 73 55 74 61 75 56 76 57 77 58 78 59 79 60 80
REMARK SMILES IDX 39 81 40 82 48 83 41 84 47 85 42 86 43 87 44 88 45 89 46 90
REMARK H PARENT 6 7 3 11 3 12 3 13 11 27 67 46 37 57
REMARK Flexibility Score: inf
ROOT
ATOM      1  C   UNL A   1      32.809  27.901  26.134  1.00  0.00     0.023 C 
ENDROOT
BRANCH   1   2
ATOM      2  C   UNL A   1      33.833  27.205  25.234  1.00  0.00     0.023 C 
BRANCH   2   3
ATOM      3  C   UNL A   1      34.100  25.742  25.578  1.00  0.00     0.116 C 
BRANCH   3   4
ATOM      4  N   UNL A   1      34.456  24.974  24.401  1.00  0.00    -0.350 N 
ATOM      5  C   UNL A   1      33.707  24.168  23.590  1.00  0.00     0.285 C 
ATOM      6  O   UNL A   1      34.313  23.657  22.641  1.00  0.00    -0.267 OA
ATOM      7  H   UNL A   1      35.402  25.045  24.140  1.00  0.00     0.163 HD
BRANCH   5   8
ATOM      8  C   UNL A   1      32.166  23.916  23.841  1.00  0.00     0.196 C 
ATOM      9  C   UNL A   1      31.634  22.805  22.912  1.00  0.00     0.096 C 
BRANCH   8  10
ATOM     10  N   UNL A   1      31.992  23.436  25.236  1.00  0.00    -0.341 N 
ATOM     11  H   UNL A   1      31.336  24.044  25.726  1.00  0.00     0.345 HD
ATOM     12  H   UNL A   1      32.892  23.450  25.715  1.00  0.00     0.345 HD
ATOM     13  H   UNL A   1      31.628  22.483  25.225  1.00  0.00     0.345 HD
ENDBRANCH   8  10
BRANCH   8  14
ATOM     14  C   UNL A   1      31.357  25.215  23.580  1.00  0.00     0.022 A 
ATOM     15  C   UNL A   1      31.680  26.027  22.470  1.00  0.00     0.012 A 
ATOM     16  C   UNL A   1      30.311  25.648  24.419  1.00  0.00     0.012 A 
ATOM     17  C   UNL A   1      30.977  27.202  22.195  1.00  0.00     0.019 A 
ATOM     18  C   UNL A   1      29.600  26.822  24.149  1.00  0.00     0.019 A 
ATOM     19  C   UNL A   1      29.937  27.591  23.036  1.00  0.00     0.054 A 
BRANCH  19  20
ATOM     20  S   UNL A   1      29.048  29.068  22.655  1.00  0.00     0.124 S 
ATOM     21  O   UNL A   1      29.492  29.545  21.363  1.00  0.00    -0.237 OA
ATOM     22  O   UNL A   1      27.650  28.832  22.936  1.00  0.00    -0.237 OA
ATOM     23  O   UNL A   1      29.545  30.175  23.720  1.00  0.00    -0.744 OA
ENDBRANCH  19  20
ENDBRANCH   8  14
ENDBRANCH   5   8
ENDBRANCH   3   4
ENDBRANCH   2   3
ENDBRANCH   1   2
BRANCH   1  24
ATOM     24  C   UNL A   1      33.350  28.416  27.465  1.00  0.00     0.116 C 
BRANCH  24  25
ATOM     25  N   UNL A   1      33.312  29.867  27.575  1.00  0.00    -0.352 N 
ATOM     26  C   UNL A   1      34.304  30.726  27.981  1.00  0.00     0.251 C 
ATOM     27  H   UNL A   1      32.459  30.290  27.324  1.00  0.00     0.163 HD
ATOM     28  O   UNL A   1      34.060  31.920  28.128  1.00  0.00    -0.269 OA
BRANCH  26  29
ATOM     29  C   UNL A   1      35.655  30.201  28.274  1.00  0.00     0.039 A 
ATOM     30  C   UNL A   1      36.615  30.206  27.259  1.00  0.00     0.014 A 
ATOM     31  C   UNL A   1      35.978  29.728  29.549  1.00  0.00     0.014 A 
ATOM     32  C   UNL A   1      37.921  29.800  27.541  1.00  0.00     0.010 A 
ATOM     33  C   UNL A   1      37.296  29.386  29.844  1.00  0.00     0.010 A 
ATOM     34  C   UNL A   1      38.281  29.422  28.845  1.00  0.00    -0.014 A 
BRANCH  34  35
ATOM     35  C   UNL A   1      39.683  29.072  29.187  1.00  0.00     0.031 A 
ATOM     36  C   UNL A   1      40.578  30.087  29.843  1.00  0.00     0.074 A 
ATOM     37  C   UNL A   1      40.170  27.863  28.843  1.00  0.00     0.049 A 
ATOM     38  N   UNL A   1      41.844  29.987  30.159  1.00  0.00    -0.248 NA
ATOM     39  C   UNL A   1      39.981  31.394  30.164  1.00  0.00     0.031 C 
ATOM     40  C   UNL A   1      39.416  26.806  28.165  1.00  0.00     0.029 A 
ATOM     41  N   UNL A   1      41.421  27.323  29.008  1.00  0.00    -0.354 N 
ATOM     42  C   UNL A   1      42.200  31.219  30.694  1.00  0.00     0.074 A 
ATOM     43  C   UNL A   1      41.028  32.065  30.621  1.00  0.00     0.031 C 
ATOM     44  C   UNL A   1      40.211  25.736  27.996  1.00  0.00     0.029 A 
ATOM     45  C   UNL A   1      41.539  26.044  28.518  1.00  0.00     0.049 A 
ATOM     46  H   UNL A   1      42.164  27.806  29.437  1.00  0.00     0.167 HD
ATOM     47  C   UNL A   1      43.389  31.608  31.213  1.00  0.00     0.031 A 
ATOM     48  C   UNL A   1      42.598  25.210  28.488  1.00  0.00     0.031 A 
ATOM     49  C   UNL A   1      44.548  30.760  31.300  1.00  0.00     0.049 A 
ATOM     50  C   UNL A   1      43.907  25.664  29.071  1.00  0.00     0.074 A 
ATOM     51  C   UNL A   1      45.778  31.041  31.868  1.00  0.00     0.029 A 
ATOM     52  N   UNL A   1      44.622  29.468  30.805  1.00  0.00    -0.354 N 
ATOM     53  N   UNL A   1      44.204  26.812  29.634  1.00  0.00    -0.248 NA
ATOM     54  C   UNL A   1      45.021  24.707  29.027  1.00  0.00     0.031 C 
ATOM     55  C   UNL A   1      46.612  29.934  31.677  1.00  0.00     0.029 A 
ATOM     56  C   UNL A   1      45.883  28.944  31.036  1.00  0.00     0.049 A 
ATOM     57  H   UNL A   1      43.886  28.991  30.357  1.00  0.00     0.167 HD
ATOM     58  C   UNL A   1      45.531  26.703  30.033  1.00  0.00     0.074 A 
ATOM     59  C   UNL A   1      45.975  25.376  29.660  1.00  0.00     0.031 C 
ATOM     60  C   UNL A   1      46.310  27.621  30.657  1.00  0.00     0.031 A 
BRANCH  47  61
ATOM     61  C   UNL A   1      43.495  33.022  31.721  1.00  0.00    -0.014 A 
ATOM     62  C   UNL A   1      43.326  33.318  33.085  1.00  0.00     0.010 A 
ATOM     63  C   UNL A   1      43.801  34.065  30.826  1.00  0.00     0.010 A 
ATOM     64  C   UNL A   1      43.416  34.636  33.539  1.00  0.00     0.020 A 
ATOM     65  C   UNL A   1      43.919  35.381  31.281  1.00  0.00     0.020 A 
ATOM     66  C   UNL A   1      43.707  35.660  32.633  1.00  0.00     0.054 A 
BRANCH  66  67
ATOM     67  S   UNL A   1      43.832  37.362  33.252  1.00  0.00     0.124 S 
ATOM     68  O   UNL A   1      43.915  38.126  32.010  1.00  0.00    -0.237 OA
ATOM     69  O   UNL A   1      42.591  37.522  34.005  1.00  0.00    -0.237 OA
ATOM     70  O   UNL A   1      45.049  37.349  34.058  1.00  0.00    -0.744 OA
ENDBRANCH  66  67
ENDBRANCH  47  61
BRANCH  48  71
ATOM     71  C   UNL A   1      42.456  23.849  27.902  1.00  0.00    -0.014 A 
ATOM     72  C   UNL A   1      42.641  23.649  26.523  1.00  0.00     0.010 A 
ATOM     73  C   UNL A   1      42.151  22.747  28.720  1.00  0.00     0.010 A 
ATOM     74  C   UNL A   1      42.507  22.373  25.968  1.00  0.00     0.020 A 
ATOM     75  C   UNL A   1      42.042  21.465  28.174  1.00  0.00     0.020 A 
ATOM     76  C   UNL A   1      42.211  21.287  26.798  1.00  0.00     0.054 A 
BRANCH  76  77
ATOM     77  S   UNL A   1      42.097  19.631  26.067  1.00  0.00     0.124 S 
ATOM     78  O   UNL A   1      40.681  19.549  25.720  1.00  0.00    -0.237 OA
ATOM     79  O   UNL A   1      43.020  19.719  24.938  1.00  0.00    -0.237 OA
ATOM     80  O   UNL A   1      42.530  18.750  27.149  1.00  0.00    -0.744 OA
ENDBRANCH  76  77
ENDBRANCH  48  71
BRANCH  60  81
ATOM     81  C   UNL A   1      47.716  27.213  31.007  1.00  0.00    -0.014 A 
ATOM     82  C   UNL A   1      47.990  26.466  32.165  1.00  0.00     0.010 A 
ATOM     83  C   UNL A   1      48.769  27.538  30.133  1.00  0.00     0.010 A 
ATOM     84  C   UNL A   1      49.301  26.074  32.458  1.00  0.00     0.020 A 
ATOM     85  C   UNL A   1      50.075  27.126  30.408  1.00  0.00     0.020 A 
ATOM     86  C   UNL A   1      50.335  26.407  31.577  1.00  0.00     0.054 A 
BRANCH  86  87
ATOM     87  S   UNL A   1      52.018  25.848  31.954  1.00  0.00     0.124 S 
ATOM     88  O   UNL A   1      51.800  24.449  32.313  1.00  0.00    -0.237 OA
ATOM     89  O   UNL A   1      52.721  26.072  30.694  1.00  0.00    -0.237 OA
ATOM     90  O   UNL A   1      52.433  26.716  33.054  1.00  0.00    -0.744 OA
ENDBRANCH  86  87
ENDBRANCH  60  81
ENDBRANCH  34  35
ENDBRANCH  26  29
ENDBRANCH  24  25
ENDBRANCH   1  24
TORSDOF 17
ENDMDL
MODEL 2
REMARK VINA RESULT:     -10.5      2.443      4.045
REMARK SMILES C[C@@]([NH3+])(C(=O)NCCCCNC(=O)c1ccc(-c2c3nc(c(-c4ccc(S(=O)(=O)[O-])cc4)c4ccc([nH]4)c(-c4ccc(S(=O)(=O)[O-])cc4)c4nc(c(-c5ccc(S(=O)(=O)[O-])cc5)c5ccc2[nH]5)C=C4)C=C3)cc1)c1ccc(S(=O)(=O)[O-])cc1
REMARK SMILES IDX 9 1 8 2 7 3 6 4 4 5 5 6 2 8 1 9 3 10 74 14 75 15 83 16 76 17
REMARK SMILES IDX 82 18 77 19 78 20 79 21 80 22 81 23 10 24 11 25 12 26 13 28
REMARK SMILES IDX 14 29 15 30 73 31 16 32 72 33 17 34 18 35 19 36 66 37 20 38
REMARK SMILES IDX 71 39 65 40 67 41 21 42 70 43 64 44 63 45 22 47 52 48 33 49
REMARK SMILES IDX 51 50 34 51 37 52 50 53 68 54 35 55 36 56 49 58 69 59 38 60
REMARK SMILES IDX 23 61 24 62 32 63 25 64 31 65 26 66 27 67 28 68 29 69 30 70
REMARK SMILES IDX 53 71 54 72 62 73 55 74 61 75 56 76 57 77 58 78 59 79 60 80
REMARK SMILES IDX 39 81 40 82 48 83 41 84 47 85 42 86 43 87 44 88 45 89 46 90
REMARK H PARENT 6 7 3 11 3 12 3 13 11 27 67 46 37 57
REMARK Flexibility Score: inf
ROOT
ATOM      1  C   UNL A   1      33.674  28.117  25.750  1.00  0.00     0.023 C 
ENDROOT
BRANCH   1   2
ATOM      2  C   UNL A   1      33.129  26.760  25.295  1.00  0.00     0.023 C 
BRANCH   2   3
ATOM      3  C   UNL A   1      34.092  25.588  25.477  1.00  0.00     0.116 C 
BRANCH   3   4
ATOM      4  N   UNL A   1      33.465  24.489  26.186  1.00  0.00    -0.350 N 
ATOM      5  C   UNL A   1      33.147  23.222  25.785  1.00  0.00     0.285 C 
ATOM      6  O   UNL A   1      32.623  22.507  26.646  1.00  0.00    -0.267 OA
ATOM      7  H   UNL A   1      33.226  24.692  27.119  1.00  0.00     0.163 HD
BRANCH   5   8
ATOM      8  C   UNL A   1      33.443  22.701  24.321  1.00  0.00     0.196 C 
ATOM      9  C   UNL A   1      32.320  23.122  23.351  1.00  0.00     0.096 C 
BRANCH   8  10
ATOM     10  N   UNL A   1      34.694  23.343  23.841  1.00  0.00    -0.341 N 
ATOM     11  H   UNL A   1      35.285  22.643  23.391  1.00  0.00     0.345 HD
ATOM     12  H   UNL A   1      35.192  23.751  24.632  1.00  0.00     0.345 HD
ATOM     13  H   UNL A   1      34.464  24.075  23.169  1.00  0.00     0.345 HD
ENDBRANCH   8  10
BRANCH   8  14
ATOM     14  C   UNL A   1      33.556  21.153  24.312  1.00  0.00     0.022 A 
ATOM     15  C   UNL A   1      34.754  20.538  24.738  1.00  0.00     0.012 A 
ATOM     16  C   UNL A   1      32.515  20.311  23.872  1.00  0.00     0.012 A 
ATOM     17  C   UNL A   1      34.899  19.149  24.750  1.00  0.00     0.019 A 
ATOM     18  C   UNL A   1      32.652  18.919  23.882  1.00  0.00     0.019 A 
ATOM     19  C   UNL A   1      33.844  18.347  24.324  1.00  0.00     0.054 A 
BRANCH  19  20
ATOM     20  S   UNL A   1      34.043  16.593  24.368  1.00  0.00     0.124 S 
ATOM     21  O   UNL A   1      34.027  16.099  23.008  1.00  0.00    -0.237 OA
ATOM     22  O   UNL A   1      35.130  16.290  25.270  1.00  0.00    -0.237 OA
ATOM     23  O   UNL A   1      32.704  16.009  25.057  1.00  0.00    -0.744 OA
ENDBRANCH  19  20
ENDBRANCH   8  14
ENDBRANCH   5   8
ENDBRANCH   3   4
ENDBRANCH   2   3
ENDBRANCH   1   2
BRANCH   1  24
ATOM     24  C   UNL A   1      33.597  28.385  27.250  1.00  0.00     0.116 C 
BRANCH  24  25
ATOM     25  N   UNL A   1      33.513  29.801  27.574  1.00  0.00    -0.352 N 
ATOM     26  C   UNL A   1      34.472  30.617  28.125  1.00  0.00     0.251 C 
ATOM     27  H   UNL A   1      32.652  30.233  27.372  1.00  0.00     0.163 HD
ATOM     28  O   UNL A   1      34.188  31.768  28.444  1.00  0.00    -0.269 OA
BRANCH  26  29
ATOM     29  C   UNL A   1      35.833  30.091  28.364  1.00  0.00     0.039 A 
ATOM     30  C   UNL A   1      36.764  30.133  27.323  1.00  0.00     0.014 A 
ATOM     31  C   UNL A   1      36.194  29.582  29.614  1.00  0.00     0.014 A 
ATOM     32  C   UNL A   1      38.080  29.727  27.557  1.00  0.00     0.010 A 
ATOM     33  C   UNL A   1      37.521  29.239  29.862  1.00  0.00     0.010 A 
ATOM     34  C   UNL A   1      38.478  29.312  28.838  1.00  0.00    -0.014 A 
BRANCH  34  35
ATOM     35  C   UNL A   1      39.890  28.960  29.130  1.00  0.00     0.031 A 
ATOM     36  C   UNL A   1      40.814  29.979  29.742  1.00  0.00     0.074 A 
ATOM     37  C   UNL A   1      40.361  27.746  28.780  1.00  0.00     0.049 A 
ATOM     38  N   UNL A   1      42.090  29.877  30.010  1.00  0.00    -0.248 NA
ATOM     39  C   UNL A   1      40.234  31.291  30.071  1.00  0.00     0.031 C 
ATOM     40  C   UNL A   1      39.578  26.685  28.143  1.00  0.00     0.029 A 
ATOM     41  N   UNL A   1      41.616  27.203  28.904  1.00  0.00    -0.354 N 
ATOM     42  C   UNL A   1      42.470  31.114  30.518  1.00  0.00     0.074 A 
ATOM     43  C   UNL A   1      41.299  31.963  30.481  1.00  0.00     0.031 C 
ATOM     44  C   UNL A   1      40.363  25.611  27.955  1.00  0.00     0.029 A 
ATOM     45  C   UNL A   1      41.711  25.919  28.423  1.00  0.00     0.049 A 
ATOM     46  H   UNL A   1      42.376  27.688  29.299  1.00  0.00     0.167 HD
ATOM     47  C   UNL A   1      43.679  31.504  30.987  1.00  0.00     0.031 A 
ATOM     48  C   UNL A   1      42.765  25.081  28.361  1.00  0.00     0.031 A 
ATOM     49  C   UNL A   1      44.838  30.653  31.039  1.00  0.00     0.049 A 
ATOM     50  C   UNL A   1      44.097  25.537  28.890  1.00  0.00     0.074 A 
ATOM     51  C   UNL A   1      46.090  30.935  31.557  1.00  0.00     0.029 A 
ATOM     52  N   UNL A   1      44.889  29.355  30.556  1.00  0.00    -0.354 N 
ATOM     53  N   UNL A   1      44.419  26.689  29.429  1.00  0.00    -0.248 NA
ATOM     54  C   UNL A   1      45.205  24.575  28.814  1.00  0.00     0.031 C 
ATOM     55  C   UNL A   1      46.912  29.823  31.346  1.00  0.00     0.029 A 
ATOM     56  C   UNL A   1      46.156  28.830  30.743  1.00  0.00     0.049 A 
ATOM     57  H   UNL A   1      44.135  28.877  30.141  1.00  0.00     0.167 HD
ATOM     58  C   UNL A   1      45.760  26.580  29.779  1.00  0.00     0.074 A 
ATOM     59  C   UNL A   1      46.185  25.247  29.403  1.00  0.00     0.031 C 
ATOM     60  C   UNL A   1      46.565  27.501  30.363  1.00  0.00     0.031 A 
BRANCH  47  61
ATOM     61  C   UNL A   1      43.809  32.922  31.476  1.00  0.00    -0.014 A 
ATOM     62  C   UNL A   1      44.156  33.965  30.598  1.00  0.00     0.010 A 
ATOM     63  C   UNL A   1      43.548  33.223  32.826  1.00  0.00     0.010 A 
ATOM     64  C   UNL A   1      44.284  35.274  31.069  1.00  0.00     0.020 A 
ATOM     65  C   UNL A   1      43.649  34.535  33.295  1.00  0.00     0.020 A 
ATOM     66  C   UNL A   1      44.035  35.550  32.416  1.00  0.00     0.054 A 
BRANCH  66  67
ATOM     67  S   UNL A   1      44.195  37.261  32.999  1.00  0.00     0.124 S 
ATOM     68  O   UNL A   1      43.014  37.399  33.849  1.00  0.00    -0.237 OA
ATOM     69  O   UNL A   1      45.475  37.243  33.701  1.00  0.00    -0.237 OA
ATOM     70  O   UNL A   1      44.172  38.049  31.770  1.00  0.00    -0.744 OA
ENDBRANCH  66  67
ENDBRANCH  47  61
BRANCH  48  71
ATOM     71  C   UNL A   1      42.596  23.715  27.796  1.00  0.00    -0.014 A 
ATOM     72  C   UNL A   1      42.293  22.631  28.638  1.00  0.00     0.010 A 
ATOM     73  C   UNL A   1      42.723  23.493  26.412  1.00  0.00     0.010 A 
ATOM     74  C   UNL A   1      42.136  21.346  28.111  1.00  0.00     0.020 A 
ATOM     75  C   UNL A   1      42.541  22.214  25.878  1.00  0.00     0.020 A 
ATOM     76  C   UNL A   1      42.258  21.146  26.734  1.00  0.00     0.054 A 
BRANCH  76  77
ATOM     77  S   UNL A   1      41.995  19.481  26.064  1.00  0.00     0.124 S 
ATOM     78  O   UNL A   1      42.834  19.498  24.869  1.00  0.00    -0.237 OA
ATOM     79  O   UNL A   1      42.461  18.624  27.152  1.00  0.00    -0.237 OA
ATOM     80  O   UNL A   1      40.555  19.435  25.819  1.00  0.00    -0.744 OA
ENDBRANCH  76  77
ENDBRANCH  48  71
BRANCH  60  81
ATOM     81  C   UNL A   1      47.981  27.091  30.664  1.00  0.00    -0.014 A 
ATOM     82  C   UNL A   1      49.027  27.379  29.771  1.00  0.00     0.010 A 
ATOM     83  C   UNL A   1      48.274  26.456  31.884  1.00  0.00     0.010 A 
ATOM     84  C   UNL A   1      50.340  27.012  30.081  1.00  0.00     0.020 A 
ATOM     85  C   UNL A   1      49.588  26.113  32.210  1.00  0.00     0.020 A 
ATOM     86  C   UNL A   1      50.612  26.381  31.299  1.00  0.00     0.054 A 
BRANCH  86  87
ATOM     87  S   UNL A   1      52.330  25.958  31.701  1.00  0.00     0.124 S 
ATOM     88  O   UNL A   1      52.992  26.120  30.409  1.00  0.00    -0.237 OA
ATOM     89  O   UNL A   1      52.677  26.950  32.714  1.00  0.00    -0.237 OA
ATOM     90  O   UNL A   1      52.242  24.583  32.188  1.00  0.00    -0.744 OA
ENDBRANCH  86  87
ENDBRANCH  60  81
ENDBRANCH  34  35
ENDBRANCH  26  29
ENDBRANCH  24  25
ENDBRANCH   1  24
TORSDOF 17
ENDMDL
MODEL 3
REMARK VINA RESULT:     -10.3      3.790      6.205
REMARK SMILES C[C@@]([NH3+])(C(=O)NCCCCNC(=O)c1ccc(-c2c3nc(c(-c4ccc(S(=O)(=O)[O-])cc4)c4ccc([nH]4)c(-c4ccc(S(=O)(=O)[O-])cc4)c4nc(c(-c5ccc(S(=O)(=O)[O-])cc5)c5ccc2[nH]5)C=C4)C=C3)cc1)c1ccc(S(=O)(=O)[O-])cc1
REMARK SMILES IDX 9 1 8 2 7 3 6 4 4 5 5 6 2 8 1 9 3 10 74 14 75 15 83 16 76 17
REMARK SMILES IDX 82 18 77 19 78 20 79 21 80 22 81 23 10 24 11 25 12 26 13 28
REMARK SMILES IDX 14 29 15 30 73 31 16 32 72 33 17 34 18 35 19 36 66 37 20 38
REMARK SMILES IDX 71 39 65 40 67 41 21 42 70 43 64 44 63 45 22 47 52 48 33 49
REMARK SMILES IDX 51 50 34 51 37 52 50 53 68 54 35 55 36 56 49 58 69 59 38 60
REMARK SMILES IDX 23 61 24 62 32 63 25 64 31 65 26 66 27 67 28 68 29 69 30 70
REMARK SMILES IDX 53 71 54 72 62 73 55 74 61 75 56 76 57 77 58 78 59 79 60 80
REMARK SMILES IDX 39 81 40 82 48 83 41 84 47 85 42 86 43 87 44 88 45 89 46 90
REMARK H PARENT 6 7 3 11 3 12 3 13 11 27 67 46 37 57
REMARK Flexibility Score: inf
ROOT
ATOM      1  C   UNL A   1      36.155  33.200  29.401  1.00  0.00     0.023 C 
ENDROOT
BRANCH   1   2
ATOM      2  C   UNL A   1      37.575  33.768  29.475  1.00  0.00     0.023 C 
BRANCH   2   3
ATOM      3  C   UNL A   1      38.160  33.850  30.883  1.00  0.00     0.116 C 
BRANCH   3   4
ATOM      4  N   UNL A   1      38.149  32.557  31.540  1.00  0.00    -0.350 N 
ATOM      5  C   UNL A   1      37.825  32.198  32.818  1.00  0.00     0.285 C 
ATOM      6  O   UNL A   1      37.905  30.990  33.069  1.00  0.00    -0.267 OA
ATOM      7  H   UNL A   1      38.423  31.807  30.966  1.00  0.00     0.163 HD
BRANCH   5   8
ATOM      8  C   UNL A   1      37.364  33.255  33.901  1.00  0.00     0.196 C 
ATOM      9  C   UNL A   1      37.204  32.590  35.283  1.00  0.00     0.096 C 
BRANCH   8  10
ATOM     10  N   UNL A   1      38.429  34.282  34.034  1.00  0.00    -0.341 N 
ATOM     11  H   UNL A   1      38.147  34.978  34.724  1.00  0.00     0.345 HD
ATOM     12  H   UNL A   1      38.577  34.737  33.133  1.00  0.00     0.345 HD
ATOM     13  H   UNL A   1      39.296  33.836  34.336  1.00  0.00     0.345 HD
ENDBRANCH   8  10
BRANCH   8  14
ATOM     14  C   UNL A   1      36.007  33.890  33.493  1.00  0.00     0.022 A 
ATOM     15  C   UNL A   1      35.933  35.279  33.245  1.00  0.00     0.012 A 
ATOM     16  C   UNL A   1      34.817  33.145  33.374  1.00  0.00     0.012 A 
ATOM     17  C   UNL A   1      34.735  35.892  32.872  1.00  0.00     0.019 A 
ATOM     18  C   UNL A   1      33.613  33.751  32.999  1.00  0.00     0.019 A 
ATOM     19  C   UNL A   1      33.581  35.122  32.748  1.00  0.00     0.054 A 
BRANCH  19  20
ATOM     20  S   UNL A   1      32.083  35.916  32.254  1.00  0.00     0.124 S 
ATOM     21  O   UNL A   1      32.272  36.455  30.925  1.00  0.00    -0.237 OA
ATOM     22  O   UNL A   1      30.986  35.028  32.563  1.00  0.00    -0.237 OA
ATOM     23  O   UNL A   1      31.917  37.198  33.222  1.00  0.00    -0.744 OA
ENDBRANCH  19  20
ENDBRANCH   8  14
ENDBRANCH   5   8
ENDBRANCH   3   4
ENDBRANCH   2   3
ENDBRANCH   1   2
BRANCH   1  24
ATOM     24  C   UNL A   1      35.589  33.030  27.994  1.00  0.00     0.116 C 
BRANCH  24  25
ATOM     25  N   UNL A   1      34.589  31.978  27.903  1.00  0.00    -0.352 N 
ATOM     26  C   UNL A   1      34.764  30.616  27.949  1.00  0.00     0.251 C 
ATOM     27  H   UNL A   1      33.659  32.283  27.794  1.00  0.00     0.163 HD
ATOM     28  O   UNL A   1      33.815  29.867  27.736  1.00  0.00    -0.269 OA
BRANCH  26  29
ATOM     29  C   UNL A   1      36.106  30.058  28.221  1.00  0.00     0.039 A 
ATOM     30  C   UNL A   1      37.056  30.057  27.196  1.00  0.00     0.014 A 
ATOM     31  C   UNL A   1      36.432  29.560  29.486  1.00  0.00     0.014 A 
ATOM     32  C   UNL A   1      38.355  29.619  27.460  1.00  0.00     0.010 A 
ATOM     33  C   UNL A   1      37.745  29.185  29.763  1.00  0.00     0.010 A 
ATOM     34  C   UNL A   1      38.720  29.215  28.755  1.00  0.00    -0.014 A 
BRANCH  34  35
ATOM     35  C   UNL A   1      40.117  28.830  29.077  1.00  0.00     0.031 A 
ATOM     36  C   UNL A   1      41.047  29.823  29.720  1.00  0.00     0.074 A 
ATOM     37  C   UNL A   1      40.570  27.609  28.728  1.00  0.00     0.049 A 
ATOM     38  N   UNL A   1      42.314  29.691  30.018  1.00  0.00    -0.248 NA
ATOM     39  C   UNL A   1      40.488  31.145  30.047  1.00  0.00     0.031 C 
ATOM     40  C   UNL A   1      39.780  26.570  28.062  1.00  0.00     0.029 A 
ATOM     41  N   UNL A   1      41.809  27.037  28.877  1.00  0.00    -0.354 N 
ATOM     42  C   UNL A   1      42.709  30.915  30.546  1.00  0.00     0.074 A 
ATOM     43  C   UNL A   1      41.558  31.790  30.488  1.00  0.00     0.031 C 
ATOM     44  C   UNL A   1      40.545  25.481  27.884  1.00  0.00     0.029 A 
ATOM     45  C   UNL A   1      41.888  25.755  28.387  1.00  0.00     0.049 A 
ATOM     46  H   UNL A   1      42.569  27.502  29.295  1.00  0.00     0.167 HD
ATOM     47  C   UNL A   1      43.915  31.274  31.047  1.00  0.00     0.031 A 
ATOM     48  C   UNL A   1      42.924  24.895  28.343  1.00  0.00     0.031 A 
ATOM     49  C   UNL A   1      45.053  30.398  31.119  1.00  0.00     0.049 A 
ATOM     50  C   UNL A   1      44.253  25.317  28.908  1.00  0.00     0.074 A 
ATOM     51  C   UNL A   1      46.298  30.648  31.670  1.00  0.00     0.029 A 
ATOM     52  N   UNL A   1      45.088  29.103  30.626  1.00  0.00    -0.354 N 
ATOM     53  N   UNL A   1      44.586  26.457  29.464  1.00  0.00    -0.248 NA
ATOM     54  C   UNL A   1      45.341  24.332  28.849  1.00  0.00     0.031 C 
ATOM     55  C   UNL A   1      47.100  29.520  31.468  1.00  0.00     0.029 A 
ATOM     56  C   UNL A   1      46.338  28.549  30.839  1.00  0.00     0.049 A 
ATOM     57  H   UNL A   1      44.333  28.645  30.188  1.00  0.00     0.167 HD
ATOM     58  C   UNL A   1      45.916  26.316  29.845  1.00  0.00     0.074 A 
ATOM     59  C   UNL A   1      46.321  24.978  29.468  1.00  0.00     0.031 C 
ATOM     60  C   UNL A   1      46.727  27.214  30.457  1.00  0.00     0.031 A 
BRANCH  47  61
ATOM     61  C   UNL A   1      44.063  32.685  31.551  1.00  0.00    -0.014 A 
ATOM     62  C   UNL A   1      43.898  32.992  32.914  1.00  0.00     0.010 A 
ATOM     63  C   UNL A   1      44.406  33.715  30.655  1.00  0.00     0.010 A 
ATOM     64  C   UNL A   1      44.028  34.307  33.365  1.00  0.00     0.020 A 
ATOM     65  C   UNL A   1      44.563  35.028  31.107  1.00  0.00     0.020 A 
ATOM     66  C   UNL A   1      44.354  35.319  32.457  1.00  0.00     0.054 A 
BRANCH  66  67
ATOM     67  S   UNL A   1      44.531  37.017  33.071  1.00  0.00     0.124 S 
ATOM     68  O   UNL A   1      45.172  37.680  31.938  1.00  0.00    -0.237 OA
ATOM     69  O   UNL A   1      43.148  37.411  33.328  1.00  0.00    -0.237 OA
ATOM     70  O   UNL A   1      45.365  36.871  34.260  1.00  0.00    -0.744 OA
ENDBRANCH  66  67
ENDBRANCH  47  61
BRANCH  48  71
ATOM     71  C   UNL A   1      42.740  23.538  27.762  1.00  0.00    -0.014 A 
ATOM     72  C   UNL A   1      43.175  23.262  26.454  1.00  0.00     0.010 A 
ATOM     73  C   UNL A   1      42.144  22.511  28.516  1.00  0.00     0.010 A 
ATOM     74  C   UNL A   1      43.003  21.989  25.903  1.00  0.00     0.020 A 
ATOM     75  C   UNL A   1      41.993  21.230  27.978  1.00  0.00     0.020 A 
ATOM     76  C   UNL A   1      42.415  20.979  26.670  1.00  0.00     0.054 A 
BRANCH  76  77
ATOM     77  S   UNL A   1      42.251  19.319  25.956  1.00  0.00     0.124 S 
ATOM     78  O   UNL A   1      40.809  19.218  25.752  1.00  0.00    -0.237 OA
ATOM     79  O   UNL A   1      43.057  19.416  24.741  1.00  0.00    -0.237 OA
ATOM     80  O   UNL A   1      42.802  18.447  26.992  1.00  0.00    -0.744 OA
ENDBRANCH  76  77
ENDBRANCH  48  71
BRANCH  60  81
ATOM     81  C   UNL A   1      48.126  26.771  30.787  1.00  0.00    -0.014 A 
ATOM     82  C   UNL A   1      49.208  27.091  29.950  1.00  0.00     0.010 A 
ATOM     83  C   UNL A   1      48.366  26.070  31.983  1.00  0.00     0.010 A 
ATOM     84  C   UNL A   1      50.504  26.692  30.289  1.00  0.00     0.020 A 
ATOM     85  C   UNL A   1      49.663  25.693  32.339  1.00  0.00     0.020 A 
ATOM     86  C   UNL A   1      50.723  25.995  31.481  1.00  0.00     0.054 A 
BRANCH  86  87
ATOM     87  S   UNL A   1      52.420  25.529  31.923  1.00  0.00     0.124 S 
ATOM     88  O   UNL A   1      53.126  25.717  30.659  1.00  0.00    -0.237 OA
ATOM     89  O   UNL A   1      52.752  26.485  32.977  1.00  0.00    -0.237 OA
ATOM     90  O   UNL A   1      52.293  24.142  32.366  1.00  0.00    -0.744 OA
ENDBRANCH  86  87
ENDBRANCH  60  81
ENDBRANCH  34  35
ENDBRANCH  26  29
ENDBRANCH  24  25
ENDBRANCH   1  24
TORSDOF 17
ENDMDL
