MODEL 1
REMARK VINA RESULT:     -11.6      0.000      0.000
REMARK SMILES Cc1cc2c(c(C)c1Cl)C=C(C(=O)NCCCCNC(=O)c1ccc(-c3c4nc(c(-c5ccc(S(=O)(=O)[O-])cc5)c5ccc([nH]5)c(-c5ccc(S(=O)(=O)[O-])cc5)c5nc(c(-c6ccc(S(=O)(=O)[O-])cc6)c6ccc3[nH]6)C=C5)C=C4)cc1)[C@@H](C(F)(F)F)O2
REMARK SMILES IDX 17 1 16 2 15 3 14 4 12 5 13 6 11 8 1 9 2 10 3 11 8 12 4 13
REMARK SMILES IDX 6 14 9 15 5 16 87 17 7 18 10 19 82 20 83 21 84 22 85 23
REMARK SMILES IDX 86 24 18 25 19 26 20 27 21 29 22 30 23 31 81 32 24 33 80 34
REMARK SMILES IDX 25 35 26 36 27 37 74 38 28 39 79 40 73 41 75 42 29 43 78 44
REMARK SMILES IDX 72 45 71 46 30 48 60 49 41 50 59 51 42 52 45 53 58 54 76 55
REMARK SMILES IDX 43 56 44 57 57 59 77 60 46 61 31 62 32 63 40 64 33 65 39 66
REMARK SMILES IDX 34 67 35 68 36 69 37 70 38 71 61 72 62 73 70 74 63 75 69 76
REMARK SMILES IDX 64 77 65 78 66 79 67 80 68 81 47 82 48 83 56 84 49 85 55 86
REMARK SMILES IDX 50 87 51 88 52 89 53 90 54 91
REMARK H PARENT 14 7 19 28 75 47 45 58
REMARK Flexibility Score: inf
ROOT
ATOM      1  C   UNL A   1      33.816  28.294  25.578  1.00  0.00     0.023 C 
ENDROOT
BRANCH   1   2
ATOM      2  C   UNL A   1      32.576  28.086  24.702  1.00  0.00     0.023 C 
BRANCH   2   3
ATOM      3  C   UNL A   1      32.288  26.625  24.367  1.00  0.00     0.116 C 
BRANCH   3   4
ATOM      4  N   UNL A   1      31.554  25.960  25.428  1.00  0.00    -0.352 N 
ATOM      5  C   UNL A   1      31.552  24.741  26.017  1.00  0.00     0.251 C 
ATOM      6  O   UNL A   1      30.722  24.595  26.919  1.00  0.00    -0.270 OA
ATOM      7  H   UNL A   1      30.877  26.554  25.826  1.00  0.00     0.163 HD
BRANCH   5   8
ATOM      8  C   UNL A   1      32.457  23.607  25.661  1.00  0.00     0.067 C 
ATOM      9  C   UNL A   1      37.336  19.386  24.766  1.00  0.00     0.046 C 
ATOM     10  C   UNL A   1      36.461  20.556  25.123  1.00  0.00    -0.028 A 
ATOM     11  C   UNL A   1      35.079  20.426  24.950  1.00  0.00     0.052 A 
ATOM     12  C   UNL A   1      36.976  21.788  25.577  1.00  0.00     0.047 A 
ATOM     13  C   UNL A   1      34.227  21.488  25.235  1.00  0.00     0.128 A 
ATOM     14  C   UNL A   1      36.116  22.871  25.890  1.00  0.00    -0.021 A 
ATOM     15  Cl  UNL A   1      38.699  21.952  25.738  1.00  0.00    -0.084 Cl
ATOM     16  C   UNL A   1      34.720  22.703  25.719  1.00  0.00     0.022 A 
ATOM     17  O   UNL A   1      32.897  21.238  25.052  1.00  0.00    -0.475 OA
ATOM     18  C   UNL A   1      36.647  24.190  26.402  1.00  0.00     0.047 C 
ATOM     19  C   UNL A   1      33.738  23.740  26.055  1.00  0.00     0.026 C 
ATOM     20  C   UNL A   1      32.038  22.398  24.881  1.00  0.00     0.314 C 
BRANCH  20  21
ATOM     21  C   UNL A   1      31.864  22.689  23.379  1.00  0.00     0.429 C 
ATOM     22  F   UNL A   1      32.900  23.433  22.918  1.00  0.00    -0.167 F 
ATOM     23  F   UNL A   1      31.837  21.561  22.630  1.00  0.00    -0.167 F 
ATOM     24  F   UNL A   1      30.726  23.369  23.108  1.00  0.00    -0.167 F 
ENDBRANCH  20  21
ENDBRANCH   5   8
ENDBRANCH   3   4
ENDBRANCH   2   3
ENDBRANCH   1   2
BRANCH   1  25
ATOM     25  C   UNL A   1      33.542  28.508  27.066  1.00  0.00     0.116 C 
BRANCH  25  26
ATOM     26  N   UNL A   1      33.448  29.909  27.449  1.00  0.00    -0.352 N 
ATOM     27  C   UNL A   1      34.414  30.691  28.037  1.00  0.00     0.251 C 
ATOM     28  H   UNL A   1      32.588  30.351  27.267  1.00  0.00     0.163 HD
ATOM     29  O   UNL A   1      34.164  31.843  28.377  1.00  0.00    -0.269 OA
BRANCH  27  30
ATOM     30  C   UNL A   1      35.741  30.102  28.290  1.00  0.00     0.039 A 
ATOM     31  C   UNL A   1      36.692  30.122  27.267  1.00  0.00     0.014 A 
ATOM     32  C   UNL A   1      36.063  29.608  29.556  1.00  0.00     0.014 A 
ATOM     33  C   UNL A   1      37.996  29.710  27.538  1.00  0.00     0.010 A 
ATOM     34  C   UNL A   1      37.377  29.251  29.839  1.00  0.00     0.010 A 
ATOM     35  C   UNL A   1      38.356  29.307  28.834  1.00  0.00    -0.014 A 
BRANCH  35  36
ATOM     36  C   UNL A   1      39.754  28.943  29.164  1.00  0.00     0.031 A 
ATOM     37  C   UNL A   1      40.643  29.940  29.851  1.00  0.00     0.074 A 
ATOM     38  C   UNL A   1      40.236  27.740  28.795  1.00  0.00     0.049 A 
ATOM     39  N   UNL A   1      41.908  29.835  30.162  1.00  0.00    -0.248 NA
ATOM     40  C   UNL A   1      40.035  31.230  30.217  1.00  0.00     0.031 C 
ATOM     41  C   UNL A   1      39.477  26.700  28.096  1.00  0.00     0.029 A 
ATOM     42  N   UNL A   1      41.482  27.191  28.954  1.00  0.00    -0.354 N 
ATOM     43  C   UNL A   1      42.251  31.047  30.749  1.00  0.00     0.074 A 
ATOM     44  C   UNL A   1      41.075  31.887  30.708  1.00  0.00     0.031 C 
ATOM     45  C   UNL A   1      40.266  25.626  27.918  1.00  0.00     0.029 A 
ATOM     46  C   UNL A   1      41.591  25.915  28.455  1.00  0.00     0.049 A 
ATOM     47  H   UNL A   1      42.229  27.666  29.387  1.00  0.00     0.167 HD
ATOM     48  C   UNL A   1      43.434  31.419  31.292  1.00  0.00     0.031 A 
ATOM     49  C   UNL A   1      42.642  25.072  28.433  1.00  0.00     0.031 A 
ATOM     50  C   UNL A   1      44.599  30.580  31.343  1.00  0.00     0.049 A 
ATOM     51  C   UNL A   1      43.949  25.512  29.030  1.00  0.00     0.074 A 
ATOM     52  C   UNL A   1      45.834  30.853  31.901  1.00  0.00     0.029 A 
ATOM     53  N   UNL A   1      44.669  29.297  30.820  1.00  0.00    -0.354 N 
ATOM     54  N   UNL A   1      44.245  26.652  29.606  1.00  0.00    -0.248 NA
ATOM     55  C   UNL A   1      45.059  24.552  28.979  1.00  0.00     0.031 C 
ATOM     56  C   UNL A   1      46.664  29.746  31.689  1.00  0.00     0.029 A 
ATOM     57  C   UNL A   1      45.931  28.769  31.034  1.00  0.00     0.049 A 
ATOM     58  H   UNL A   1      43.931  28.830  30.365  1.00  0.00     0.167 HD
ATOM     59  C   UNL A   1      45.574  26.541  30.001  1.00  0.00     0.074 A 
ATOM     60  C   UNL A   1      46.018  25.218  29.610  1.00  0.00     0.031 C 
ATOM     61  C   UNL A   1      46.354  27.452  30.631  1.00  0.00     0.031 A 
BRANCH  48  62
ATOM     62  C   UNL A   1      43.515  32.802  31.879  1.00  0.00    -0.014 A 
ATOM     63  C   UNL A   1      43.041  33.059  33.179  1.00  0.00     0.010 A 
ATOM     64  C   UNL A   1      44.086  33.850  31.136  1.00  0.00     0.010 A 
ATOM     65  C   UNL A   1      43.100  34.348  33.709  1.00  0.00     0.020 A 
ATOM     66  C   UNL A   1      44.168  35.138  31.674  1.00  0.00     0.020 A 
ATOM     67  C   UNL A   1      43.658  35.382  32.950  1.00  0.00     0.054 A 
BRANCH  67  68
ATOM     68  S   UNL A   1      43.732  37.046  33.670  1.00  0.00     0.124 S 
ATOM     69  O   UNL A   1      45.051  37.042  34.298  1.00  0.00    -0.237 OA
ATOM     70  O   UNL A   1      43.597  37.908  32.499  1.00  0.00    -0.237 OA
ATOM     71  O   UNL A   1      42.602  37.074  34.595  1.00  0.00    -0.744 OA
ENDBRANCH  67  68
ENDBRANCH  48  62
BRANCH  49  72
ATOM     72  C   UNL A   1      42.487  23.714  27.849  1.00  0.00    -0.014 A 
ATOM     73  C   UNL A   1      42.715  23.506  26.477  1.00  0.00     0.010 A 
ATOM     74  C   UNL A   1      42.145  22.618  28.661  1.00  0.00     0.010 A 
ATOM     75  C   UNL A   1      42.597  22.227  25.926  1.00  0.00     0.020 A 
ATOM     76  C   UNL A   1      42.047  21.334  28.117  1.00  0.00     0.020 A 
ATOM     77  C   UNL A   1      42.267  21.147  26.751  1.00  0.00     0.054 A 
BRANCH  77  78
ATOM     78  S   UNL A   1      42.190  19.485  26.027  1.00  0.00     0.124 S 
ATOM     79  O   UNL A   1      43.098  19.607  24.890  1.00  0.00    -0.237 OA
ATOM     80  O   UNL A   1      42.659  18.641  27.123  1.00  0.00    -0.237 OA
ATOM     81  O   UNL A   1      40.778  19.326  25.688  1.00  0.00    -0.744 OA
ENDBRANCH  77  78
ENDBRANCH  49  72
BRANCH  61  82
ATOM     82  C   UNL A   1      47.766  27.048  30.951  1.00  0.00    -0.014 A 
ATOM     83  C   UNL A   1      48.063  26.334  32.125  1.00  0.00     0.010 A 
ATOM     84  C   UNL A   1      48.795  27.326  30.032  1.00  0.00     0.010 A 
ATOM     85  C   UNL A   1      49.372  25.919  32.383  1.00  0.00     0.020 A 
ATOM     86  C   UNL A   1      50.100  26.894  30.279  1.00  0.00     0.020 A 
ATOM     87  C   UNL A   1      50.382  26.201  31.458  1.00  0.00     0.054 A 
BRANCH  87  88
ATOM     88  S   UNL A   1      52.061  25.601  31.790  1.00  0.00     0.124 S 
ATOM     89  O   UNL A   1      52.738  25.875  30.525  1.00  0.00    -0.237 OA
ATOM     90  O   UNL A   1      52.481  26.428  32.919  1.00  0.00    -0.237 OA
ATOM     91  O   UNL A   1      51.868  24.187  32.100  1.00  0.00    -0.744 OA
ENDBRANCH  87  88
ENDBRANCH  61  82
ENDBRANCH  35  36
ENDBRANCH  27  30
ENDBRANCH  25  26
ENDBRANCH   1  25
TORSDOF 15
ENDMDL
MODEL 2
REMARK VINA RESULT:     -11.1      4.507     10.420
REMARK SMILES Cc1cc2c(c(C)c1Cl)C=C(C(=O)NCCCCNC(=O)c1ccc(-c3c4nc(c(-c5ccc(S(=O)(=O)[O-])cc5)c5ccc([nH]5)c(-c5ccc(S(=O)(=O)[O-])cc5)c5nc(c(-c6ccc(S(=O)(=O)[O-])cc6)c6ccc3[nH]6)C=C5)C=C4)cc1)[C@@H](C(F)(F)F)O2
REMARK SMILES IDX 17 1 16 2 15 3 14 4 12 5 13 6 11 8 1 9 2 10 3 11 8 12 4 13
REMARK SMILES IDX 6 14 9 15 5 16 87 17 7 18 10 19 82 20 83 21 84 22 85 23
REMARK SMILES IDX 86 24 18 25 19 26 20 27 21 29 22 30 23 31 81 32 24 33 80 34
REMARK SMILES IDX 25 35 26 36 27 37 74 38 28 39 79 40 73 41 75 42 29 43 78 44
REMARK SMILES IDX 72 45 71 46 30 48 60 49 41 50 59 51 42 52 45 53 58 54 76 55
REMARK SMILES IDX 43 56 44 57 57 59 77 60 46 61 31 62 32 63 40 64 33 65 39 66
REMARK SMILES IDX 34 67 35 68 36 69 37 70 38 71 61 72 62 73 70 74 63 75 69 76
REMARK SMILES IDX 64 77 65 78 66 79 67 80 68 81 47 82 48 83 56 84 49 85 55 86
REMARK SMILES IDX 50 87 51 88 52 89 53 90 54 91
REMARK H PARENT 14 7 19 28 75 47 45 58
REMARK Flexibility Score: inf
ROOT
ATOM      1  C   UNL A   1      37.567  23.200  25.705  1.00  0.00     0.023 C 
ENDROOT
BRANCH   1   2
ATOM      2  C   UNL A   1      36.082  23.257  26.077  1.00  0.00     0.023 C 
BRANCH   2   3
ATOM      3  C   UNL A   1      35.389  24.558  25.681  1.00  0.00     0.116 C 
BRANCH   3   4
ATOM      4  N   UNL A   1      34.848  24.496  24.336  1.00  0.00    -0.352 N 
ATOM      5  C   UNL A   1      33.964  25.199  23.590  1.00  0.00     0.251 C 
ATOM      6  O   UNL A   1      33.789  24.776  22.443  1.00  0.00    -0.270 OA
ATOM      7  H   UNL A   1      35.223  23.739  23.830  1.00  0.00     0.163 HD
BRANCH   5   8
ATOM      8  C   UNL A   1      33.219  26.411  24.046  1.00  0.00     0.067 C 
ATOM      9  C   UNL A   1      31.142  32.022  26.622  1.00  0.00     0.046 C 
ATOM     10  C   UNL A   1      31.919  30.804  26.200  1.00  0.00    -0.028 A 
ATOM     11  C   UNL A   1      31.361  29.969  25.227  1.00  0.00     0.052 A 
ATOM     12  C   UNL A   1      33.156  30.447  26.775  1.00  0.00     0.047 A 
ATOM     13  C   UNL A   1      32.022  28.813  24.823  1.00  0.00     0.128 A 
ATOM     14  C   UNL A   1      33.849  29.283  26.357  1.00  0.00    -0.021 A 
ATOM     15  Cl  UNL A   1      33.812  31.468  28.019  1.00  0.00    -0.084 Cl
ATOM     16  C   UNL A   1      33.265  28.465  25.359  1.00  0.00     0.022 A 
ATOM     17  O   UNL A   1      31.395  28.088  23.851  1.00  0.00    -0.475 OA
ATOM     18  C   UNL A   1      35.188  28.897  26.943  1.00  0.00     0.047 C 
ATOM     19  C   UNL A   1      33.915  27.265  24.821  1.00  0.00     0.026 C 
ATOM     20  C   UNL A   1      31.780  26.691  23.735  1.00  0.00     0.314 C 
BRANCH  20  21
ATOM     21  C   UNL A   1      30.811  25.823  24.560  1.00  0.00     0.429 C 
ATOM     22  F   UNL A   1      30.588  24.640  23.936  1.00  0.00    -0.167 F 
ATOM     23  F   UNL A   1      31.299  25.524  25.787  1.00  0.00    -0.167 F 
ATOM     24  F   UNL A   1      29.610  26.415  24.746  1.00  0.00    -0.167 F 
ENDBRANCH  20  21
ENDBRANCH   5   8
ENDBRANCH   3   4
ENDBRANCH   2   3
ENDBRANCH   1   2
BRANCH   1  25
ATOM     25  C   UNL A   1      38.484  24.114  26.518  1.00  0.00     0.116 C 
BRANCH  25  26
ATOM     26  N   UNL A   1      39.892  23.994  26.166  1.00  0.00    -0.352 N 
ATOM     27  C   UNL A   1      40.937  24.787  26.577  1.00  0.00     0.251 C 
ATOM     28  H   UNL A   1      40.124  23.256  25.557  1.00  0.00     0.163 HD
ATOM     29  O   UNL A   1      42.066  24.613  26.134  1.00  0.00    -0.269 OA
BRANCH  27  30
ATOM     30  C   UNL A   1      40.662  25.879  27.530  1.00  0.00     0.039 A 
ATOM     31  C   UNL A   1      39.705  25.676  28.527  1.00  0.00     0.014 A 
ATOM     32  C   UNL A   1      41.405  27.060  27.480  1.00  0.00     0.014 A 
ATOM     33  C   UNL A   1      39.544  26.636  29.525  1.00  0.00     0.010 A 
ATOM     34  C   UNL A   1      41.283  27.990  28.507  1.00  0.00     0.010 A 
ATOM     35  C   UNL A   1      40.358  27.782  29.542  1.00  0.00    -0.014 A 
BRANCH  35  36
ATOM     36  C   UNL A   1      40.260  28.774  30.638  1.00  0.00     0.031 A 
ATOM     37  C   UNL A   1      41.159  28.656  31.836  1.00  0.00     0.074 A 
ATOM     38  C   UNL A   1      39.327  29.745  30.579  1.00  0.00     0.049 A 
ATOM     39  N   UNL A   1      41.181  29.382  32.921  1.00  0.00    -0.248 NA
ATOM     40  C   UNL A   1      42.147  27.565  31.818  1.00  0.00     0.031 C 
ATOM     41  C   UNL A   1      38.378  29.944  29.480  1.00  0.00     0.029 A 
ATOM     42  N   UNL A   1      39.023  30.746  31.465  1.00  0.00    -0.354 N 
ATOM     43  C   UNL A   1      42.174  28.832  33.721  1.00  0.00     0.074 A 
ATOM     44  C   UNL A   1      42.699  27.684  33.016  1.00  0.00     0.031 C 
ATOM     45  C   UNL A   1      37.620  31.022  29.746  1.00  0.00     0.029 A 
ATOM     46  C   UNL A   1      38.004  31.567  31.044  1.00  0.00     0.049 A 
ATOM     47  H   UNL A   1      39.491  30.866  32.324  1.00  0.00     0.167 HD
ATOM     48  C   UNL A   1      42.624  29.257  34.926  1.00  0.00     0.031 A 
ATOM     49  C   UNL A   1      37.443  32.637  31.637  1.00  0.00     0.031 A 
ATOM     50  C   UNL A   1      42.109  30.404  35.620  1.00  0.00     0.049 A 
ATOM     51  C   UNL A   1      37.950  33.083  32.980  1.00  0.00     0.074 A 
ATOM     52  C   UNL A   1      42.520  30.935  36.829  1.00  0.00     0.029 A 
ATOM     53  N   UNL A   1      41.074  31.204  35.161  1.00  0.00    -0.354 N 
ATOM     54  N   UNL A   1      38.910  32.565  33.707  1.00  0.00    -0.248 NA
ATOM     55  C   UNL A   1      37.301  34.257  33.578  1.00  0.00     0.031 C 
ATOM     56  C   UNL A   1      41.711  32.040  37.118  1.00  0.00     0.029 A 
ATOM     57  C   UNL A   1      40.824  32.219  36.069  1.00  0.00     0.049 A 
ATOM     58  H   UNL A   1      40.588  31.071  34.315  1.00  0.00     0.167 HD
ATOM     59  C   UNL A   1      38.993  33.361  34.844  1.00  0.00     0.074 A 
ATOM     60  C   UNL A   1      37.994  34.402  34.701  1.00  0.00     0.031 C 
ATOM     61  C   UNL A   1      39.821  33.241  35.910  1.00  0.00     0.031 A 
BRANCH  48  62
ATOM     62  C   UNL A   1      43.736  28.467  35.560  1.00  0.00    -0.014 A 
ATOM     63  C   UNL A   1      45.082  28.784  35.298  1.00  0.00     0.010 A 
ATOM     64  C   UNL A   1      43.436  27.413  36.442  1.00  0.00     0.010 A 
ATOM     65  C   UNL A   1      46.108  28.034  35.874  1.00  0.00     0.020 A 
ATOM     66  C   UNL A   1      44.463  26.675  37.039  1.00  0.00     0.020 A 
ATOM     67  C   UNL A   1      45.792  26.980  36.736  1.00  0.00     0.054 A 
BRANCH  67  68
ATOM     68  S   UNL A   1      47.147  26.029  37.480  1.00  0.00     0.124 S 
ATOM     69  O   UNL A   1      47.573  26.913  38.563  1.00  0.00    -0.237 OA
ATOM     70  O   UNL A   1      46.483  24.798  37.899  1.00  0.00    -0.237 OA
ATOM     71  O   UNL A   1      48.104  25.877  36.387  1.00  0.00    -0.744 OA
ENDBRANCH  67  68
ENDBRANCH  48  62
BRANCH  49  72
ATOM     72  C   UNL A   1      36.356  33.380  30.945  1.00  0.00    -0.014 A 
ATOM     73  C   UNL A   1      35.086  33.486  31.539  1.00  0.00     0.010 A 
ATOM     74  C   UNL A   1      36.591  34.011  29.710  1.00  0.00     0.010 A 
ATOM     75  C   UNL A   1      34.067  34.205  30.907  1.00  0.00     0.020 A 
ATOM     76  C   UNL A   1      35.580  34.749  29.086  1.00  0.00     0.020 A 
ATOM     77  C   UNL A   1      34.322  34.835  29.686  1.00  0.00     0.054 A 
BRANCH  77  78
ATOM     78  S   UNL A   1      33.006  35.822  28.920  1.00  0.00     0.124 S 
ATOM     79  O   UNL A   1      32.346  34.838  28.067  1.00  0.00    -0.237 OA
ATOM     80  O   UNL A   1      32.237  36.274  30.077  1.00  0.00    -0.237 OA
ATOM     81  O   UNL A   1      33.735  36.875  28.216  1.00  0.00    -0.744 OA
ENDBRANCH  77  78
ENDBRANCH  49  72
BRANCH  61  82
ATOM     82  C   UNL A   1      39.695  34.267  37.001  1.00  0.00    -0.014 A 
ATOM     83  C   UNL A   1      38.899  34.021  38.134  1.00  0.00     0.010 A 
ATOM     84  C   UNL A   1      40.437  35.459  36.925  1.00  0.00     0.010 A 
ATOM     85  C   UNL A   1      38.834  34.960  39.165  1.00  0.00     0.020 A 
ATOM     86  C   UNL A   1      40.389  36.391  37.964  1.00  0.00     0.020 A 
ATOM     87  C   UNL A   1      39.580  36.140  39.073  1.00  0.00     0.054 A 
BRANCH  87  88
ATOM     88  S   UNL A   1      39.522  37.318  40.452  1.00  0.00     0.124 S 
ATOM     89  O   UNL A   1      38.861  36.535  41.493  1.00  0.00    -0.237 OA
ATOM     90  O   UNL A   1      40.934  37.610  40.686  1.00  0.00    -0.237 OA
ATOM     91  O   UNL A   1      38.741  38.433  39.921  1.00  0.00    -0.744 OA
ENDBRANCH  87  88
ENDBRANCH  61  82
ENDBRANCH  35  36
ENDBRANCH  27  30
ENDBRANCH  25  26
ENDBRANCH   1  25
TORSDOF 15
ENDMDL
MODEL 3
REMARK VINA RESULT:     -10.9      4.534     11.285
REMARK SMILES Cc1cc2c(c(C)c1Cl)C=C(C(=O)NCCCCNC(=O)c1ccc(-c3c4nc(c(-c5ccc(S(=O)(=O)[O-])cc5)c5ccc([nH]5)c(-c5ccc(S(=O)(=O)[O-])cc5)c5nc(c(-c6ccc(S(=O)(=O)[O-])cc6)c6ccc3[nH]6)C=C5)C=C4)cc1)[C@@H](C(F)(F)F)O2
REMARK SMILES IDX 17 1 16 2 15 3 14 4 12 5 13 6 11 8 1 9 2 10 3 11 8 12 4 13
REMARK SMILES IDX 6 14 9 15 5 16 87 17 7 18 10 19 82 20 83 21 84 22 85 23
REMARK SMILES IDX 86 24 18 25 19 26 20 27 21 29 22 30 23 31 81 32 24 33 80 34
REMARK SMILES IDX 25 35 26 36 27 37 74 38 28 39 79 40 73 41 75 42 29 43 78 44
REMARK SMILES IDX 72 45 71 46 30 48 60 49 41 50 59 51 42 52 45 53 58 54 76 55
REMARK SMILES IDX 43 56 44 57 57 59 77 60 46 61 31 62 32 63 40 64 33 65 39 66
REMARK SMILES IDX 34 67 35 68 36 69 37 70 38 71 61 72 62 73 70 74 63 75 69 76
REMARK SMILES IDX 64 77 65 78 66 79 67 80 68 81 47 82 48 83 56 84 49 85 55 86
REMARK SMILES IDX 50 87 51 88 52 89 53 90 54 91
REMARK H PARENT 14 7 19 28 75 47 45 58
REMARK Flexibility Score: inf
ROOT
ATOM      1  C   UNL A   1      41.613  21.684  25.830  1.00  0.00     0.023 C 
ENDROOT
BRANCH   1   2
ATOM      2  C   UNL A   1      42.598  22.811  26.156  1.00  0.00     0.023 C 
BRANCH   2   3
ATOM      3  C   UNL A   1      44.032  22.340  26.381  1.00  0.00     0.116 C 
BRANCH   3   4
ATOM      4  N   UNL A   1      44.641  22.986  27.529  1.00  0.00    -0.352 N 
ATOM      5  C   UNL A   1      45.590  23.926  27.749  1.00  0.00     0.251 C 
ATOM      6  O   UNL A   1      45.809  24.185  28.936  1.00  0.00    -0.270 OA
ATOM      7  H   UNL A   1      44.264  22.651  28.374  1.00  0.00     0.163 HD
BRANCH   5   8
ATOM      8  C   UNL A   1      46.356  24.647  26.688  1.00  0.00     0.067 C 
ATOM      9  C   UNL A   1      50.763  27.529  22.854  1.00  0.00     0.046 C 
ATOM     10  C   UNL A   1      50.022  26.817  23.953  1.00  0.00    -0.028 A 
ATOM     11  C   UNL A   1      48.697  26.437  23.718  1.00  0.00     0.052 A 
ATOM     12  C   UNL A   1      50.588  26.563  25.220  1.00  0.00     0.047 A 
ATOM     13  C   UNL A   1      47.955  25.804  24.711  1.00  0.00     0.128 A 
ATOM     14  C   UNL A   1      49.850  25.901  26.233  1.00  0.00    -0.021 A 
ATOM     15  Cl  UNL A   1      52.219  27.087  25.514  1.00  0.00    -0.084 Cl
ATOM     16  C   UNL A   1      48.514  25.514  25.959  1.00  0.00     0.022 A 
ATOM     17  O   UNL A   1      46.682  25.458  24.362  1.00  0.00    -0.475 OA
ATOM     18  C   UNL A   1      50.448  25.595  27.587  1.00  0.00     0.047 C 
ATOM     19  C   UNL A   1      47.676  24.785  26.917  1.00  0.00     0.026 C 
ATOM     20  C   UNL A   1      45.747  25.238  25.453  1.00  0.00     0.314 C 
BRANCH  20  21
ATOM     21  C   UNL A   1      44.974  26.541  25.735  1.00  0.00     0.429 C 
ATOM     22  F   UNL A   1      45.469  27.155  26.838  1.00  0.00    -0.167 F 
ATOM     23  F   UNL A   1      45.072  27.433  24.722  1.00  0.00    -0.167 F 
ATOM     24  F   UNL A   1      43.656  26.328  25.948  1.00  0.00    -0.167 F 
ENDBRANCH  20  21
ENDBRANCH   5   8
ENDBRANCH   3   4
ENDBRANCH   2   3
ENDBRANCH   1   2
BRANCH   1  25
ATOM     25  C   UNL A   1      40.386  21.599  26.737  1.00  0.00     0.116 C 
BRANCH  25  26
ATOM     26  N   UNL A   1      39.145  21.989  26.082  1.00  0.00    -0.352 N 
ATOM     27  C   UNL A   1      38.529  23.217  26.101  1.00  0.00     0.251 C 
ATOM     28  H   UNL A   1      38.691  21.286  25.563  1.00  0.00     0.163 HD
ATOM     29  O   UNL A   1      37.439  23.378  25.563  1.00  0.00    -0.269 OA
BRANCH  27  30
ATOM     30  C   UNL A   1      39.186  24.326  26.818  1.00  0.00     0.039 A 
ATOM     31  C   UNL A   1      39.987  25.214  26.096  1.00  0.00     0.014 A 
ATOM     32  C   UNL A   1      38.943  24.526  28.179  1.00  0.00     0.014 A 
ATOM     33  C   UNL A   1      40.487  26.351  26.728  1.00  0.00     0.010 A 
ATOM     34  C   UNL A   1      39.396  25.688  28.792  1.00  0.00     0.010 A 
ATOM     35  C   UNL A   1      40.165  26.614  28.069  1.00  0.00    -0.014 A 
BRANCH  35  36
ATOM     36  C   UNL A   1      40.619  27.857  28.737  1.00  0.00     0.031 A 
ATOM     37  C   UNL A   1      42.017  27.946  29.279  1.00  0.00     0.074 A 
ATOM     38  C   UNL A   1      39.758  28.880  28.902  1.00  0.00     0.049 A 
ATOM     39  N   UNL A   1      42.578  28.916  29.950  1.00  0.00    -0.248 NA
ATOM     40  C   UNL A   1      42.890  26.782  29.056  1.00  0.00     0.031 C 
ATOM     41  C   UNL A   1      38.366  28.899  28.444  1.00  0.00     0.029 A 
ATOM     42  N   UNL A   1      39.926  30.100  29.504  1.00  0.00    -0.354 N 
ATOM     43  C   UNL A   1      43.864  28.478  30.239  1.00  0.00     0.074 A 
ATOM     44  C   UNL A   1      43.985  27.137  29.712  1.00  0.00     0.031 C 
ATOM     45  C   UNL A   1      37.819  30.088  28.753  1.00  0.00     0.029 A 
ATOM     46  C   UNL A   1      38.806  30.897  29.460  1.00  0.00     0.049 A 
ATOM     47  H   UNL A   1      40.770  30.380  29.927  1.00  0.00     0.167 HD
ATOM     48  C   UNL A   1      44.863  29.141  30.870  1.00  0.00     0.031 A 
ATOM     49  C   UNL A   1      38.599  32.139  29.936  1.00  0.00     0.031 A 
ATOM     50  C   UNL A   1      44.746  30.478  31.382  1.00  0.00     0.049 A 
ATOM     51  C   UNL A   1      39.719  32.850  30.644  1.00  0.00     0.074 A 
ATOM     52  C   UNL A   1      45.710  31.248  32.007  1.00  0.00     0.029 A 
ATOM     53  N   UNL A   1      43.593  31.247  31.323  1.00  0.00    -0.354 N 
ATOM     54  N   UNL A   1      40.937  32.430  30.882  1.00  0.00    -0.248 NA
ATOM     55  C   UNL A   1      39.436  34.204  31.140  1.00  0.00     0.031 C 
ATOM     56  C   UNL A   1      45.131  32.474  32.355  1.00  0.00     0.029 A 
ATOM     57  C   UNL A   1      43.818  32.480  31.910  1.00  0.00     0.049 A 
ATOM     58  H   UNL A   1      42.741  30.959  30.923  1.00  0.00     0.167 HD
ATOM     59  C   UNL A   1      41.574  33.473  31.544  1.00  0.00     0.074 A 
ATOM     60  C   UNL A   1      40.610  34.549  31.656  1.00  0.00     0.031 C 
ATOM     61  C   UNL A   1      42.842  33.535  32.016  1.00  0.00     0.031 A 
BRANCH  48  62
ATOM     62  C   UNL A   1      46.172  28.418  31.030  1.00  0.00    -0.014 A 
ATOM     63  C   UNL A   1      46.486  27.759  32.233  1.00  0.00     0.010 A 
ATOM     64  C   UNL A   1      47.088  28.377  29.964  1.00  0.00     0.010 A 
ATOM     65  C   UNL A   1      47.711  27.108  32.382  1.00  0.00     0.020 A 
ATOM     66  C   UNL A   1      48.307  27.705  30.102  1.00  0.00     0.020 A 
ATOM     67  C   UNL A   1      48.617  27.090  31.317  1.00  0.00     0.054 A 
BRANCH  67  68
ATOM     68  S   UNL A   1      50.197  26.225  31.535  1.00  0.00     0.124 S 
ATOM     69  O   UNL A   1      50.323  26.194  32.990  1.00  0.00    -0.237 OA
ATOM     70  O   UNL A   1      49.947  24.935  30.898  1.00  0.00    -0.237 OA
ATOM     71  O   UNL A   1      51.158  27.081  30.845  1.00  0.00    -0.744 OA
ENDBRANCH  67  68
ENDBRANCH  48  62
BRANCH  49  72
ATOM     72  C   UNL A   1      37.284  32.800  29.730  1.00  0.00    -0.014 A 
ATOM     73  C   UNL A   1      36.334  32.820  30.767  1.00  0.00     0.010 A 
ATOM     74  C   UNL A   1      36.984  33.439  28.513  1.00  0.00     0.010 A 
ATOM     75  C   UNL A   1      35.105  33.462  30.589  1.00  0.00     0.020 A 
ATOM     76  C   UNL A   1      35.764  34.100  28.339  1.00  0.00     0.020 A 
ATOM     77  C   UNL A   1      34.830  34.101  29.377  1.00  0.00     0.054 A 
BRANCH  77  78
ATOM     78  S   UNL A   1      33.257  34.989  29.195  1.00  0.00     0.124 S 
ATOM     79  O   UNL A   1      33.701  36.304  28.743  1.00  0.00    -0.237 OA
ATOM     80  O   UNL A   1      32.553  34.182  28.201  1.00  0.00    -0.237 OA
ATOM     81  O   UNL A   1      32.685  34.948  30.539  1.00  0.00    -0.744 OA
ENDBRANCH  77  78
ENDBRANCH  49  72
BRANCH  61  82
ATOM     82  C   UNL A   1      43.269  34.812  32.686  1.00  0.00    -0.014 A 
ATOM     83  C   UNL A   1      43.852  35.855  31.944  1.00  0.00     0.010 A 
ATOM     84  C   UNL A   1      43.020  34.995  34.058  1.00  0.00     0.010 A 
ATOM     85  C   UNL A   1      44.194  37.055  32.570  1.00  0.00     0.020 A 
ATOM     86  C   UNL A   1      43.344  36.202  34.681  1.00  0.00     0.020 A 
ATOM     87  C   UNL A   1      43.938  37.222  33.935  1.00  0.00     0.054 A 
BRANCH  87  88
ATOM     88  S   UNL A   1      44.340  38.811  34.710  1.00  0.00     0.124 S 
ATOM     89  O   UNL A   1      44.192  38.503  36.130  1.00  0.00    -0.237 OA
ATOM     90  O   UNL A   1      45.708  39.053  34.258  1.00  0.00    -0.237 OA
ATOM     91  O   UNL A   1      43.340  39.726  34.163  1.00  0.00    -0.744 OA
ENDBRANCH  87  88
ENDBRANCH  61  82
ENDBRANCH  35  36
ENDBRANCH  27  30
ENDBRANCH  25  26
ENDBRANCH   1  25
TORSDOF 15
ENDMDL
