MODEL 1
REMARK VINA RESULT:     -11.9      0.000      0.000
REMARK SMILES Nc1oc2ccc(F)cc2c(=O)c1[C@@H]1[NH2+][C@H](C(=O)NCCCCNC(=O)c2ccc(-c3c4nc(c(-c5ccc(S(=O)(=O)[O-])cc5)c5ccc([nH]5)c(-c5ccc(S(=O)(=O)[O-])cc5)c5nc(c(-c6ccc(S(=O)(=O)[O-])cc6)c6ccc3[nH]6)C=C5)C=C4)cc2)CS1
REMARK SMILES IDX 22 1 21 2 20 3 19 4 17 5 18 6 16 8 14 9 15 10 88 11 87 14
REMARK SMILES IDX 13 15 2 16 3 17 4 18 11 19 5 20 10 21 12 22 6 23 9 24 7 25
REMARK SMILES IDX 8 26 1 27 23 30 24 31 25 32 26 34 27 35 28 36 86 37 29 38
REMARK SMILES IDX 85 39 30 40 31 41 32 42 79 43 33 44 84 45 78 46 80 47 34 48
REMARK SMILES IDX 83 49 77 50 76 51 35 53 65 54 46 55 64 56 47 57 50 58 63 59
REMARK SMILES IDX 81 60 48 61 49 62 62 64 82 65 51 66 36 67 37 68 45 69 38 70
REMARK SMILES IDX 44 71 39 72 40 73 41 74 42 75 43 76 66 77 67 78 75 79 68 80
REMARK SMILES IDX 74 81 69 82 70 83 71 84 72 85 73 86 52 87 53 88 61 89 54 90
REMARK SMILES IDX 60 91 55 92 56 93 57 94 58 95 59 96
REMARK H PARENT 19 7 15 12 15 13 1 28 1 29 24 33 80 52 50 63
REMARK Flexibility Score: inf
ROOT
ATOM      1  C   UNL A   1      33.039  28.420  27.064  1.00  0.00     0.023 C 
ENDROOT
BRANCH   1   2
ATOM      2  C   UNL A   1      33.332  27.185  26.227  1.00  0.00     0.023 C 
BRANCH   2   3
ATOM      3  C   UNL A   1      32.364  26.931  25.081  1.00  0.00     0.116 C 
BRANCH   3   4
ATOM      4  N   UNL A   1      33.070  26.836  23.815  1.00  0.00    -0.351 N 
ATOM      5  C   UNL A   1      32.969  25.998  22.752  1.00  0.00     0.279 C 
ATOM      6  O   UNL A   1      33.880  26.096  21.914  1.00  0.00    -0.268 OA
ATOM      7  H   UNL A   1      33.767  27.523  23.705  1.00  0.00     0.163 HD
BRANCH   5   8
ATOM      8  C   UNL A   1      31.861  24.944  22.514  1.00  0.00     0.283 C 
ATOM      9  C   UNL A   1      32.038  22.618  23.294  1.00  0.00     0.283 C 
ATOM     10  N   UNL A   1      32.437  23.597  22.264  1.00  0.00    -0.320 N 
ATOM     11  S   UNL A   1      30.893  23.456  24.452  1.00  0.00    -0.087 SA
ATOM     12  H   UNL A   1      32.114  23.265  21.355  1.00  0.00     0.348 HD
ATOM     13  H   UNL A   1      33.453  23.681  22.291  1.00  0.00     0.348 HD
ATOM     14  C   UNL A   1      30.650  24.900  23.413  1.00  0.00     0.151 C 
BRANCH   9  15
ATOM     15  C   UNL A   1      33.177  21.973  24.054  1.00  0.00     0.128 A 
ATOM     16  C   UNL A   1      33.438  20.656  24.221  1.00  0.00     0.205 A 
ATOM     17  O   UNL A   1      34.631  20.171  24.740  1.00  0.00    -0.440 OA
ATOM     18  C   UNL A   1      35.665  21.046  24.939  1.00  0.00     0.140 A 
ATOM     19  C   UNL A   1      34.105  22.915  24.743  1.00  0.00     0.205 A 
ATOM     20  C   UNL A   1      36.949  20.525  25.093  1.00  0.00     0.051 A 
ATOM     21  C   UNL A   1      35.450  22.414  25.038  1.00  0.00     0.068 A 
ATOM     22  O   UNL A   1      33.782  24.059  25.040  1.00  0.00    -0.288 OA
ATOM     23  C   UNL A   1      38.008  21.385  25.393  1.00  0.00     0.043 A 
ATOM     24  C   UNL A   1      36.493  23.276  25.377  1.00  0.00     0.055 A 
ATOM     25  C   UNL A   1      37.764  22.746  25.558  1.00  0.00     0.124 A 
ATOM     26  F   UNL A   1      38.774  23.560  25.894  1.00  0.00    -0.207 F 
BRANCH  16  27
ATOM     27  N   UNL A   1      32.607  19.655  23.814  1.00  0.00    -0.369 N 
ATOM     28  H   UNL A   1      31.823  19.414  24.359  1.00  0.00     0.159 HD
ATOM     29  H   UNL A   1      32.791  19.173  22.976  1.00  0.00     0.159 HD
ENDBRANCH  16  27
ENDBRANCH   9  15
ENDBRANCH   5   8
ENDBRANCH   3   4
ENDBRANCH   2   3
ENDBRANCH   1   2
BRANCH   1  30
ATOM     30  C   UNL A   1      33.594  29.709  26.484  1.00  0.00     0.116 C 
BRANCH  30  31
ATOM     31  N   UNL A   1      33.597  30.834  27.414  1.00  0.00    -0.352 N 
ATOM     32  C   UNL A   1      34.563  31.196  28.331  1.00  0.00     0.251 C 
ATOM     33  H   UNL A   1      32.801  31.413  27.384  1.00  0.00     0.163 HD
ATOM     34  O   UNL A   1      34.379  32.148  29.085  1.00  0.00    -0.269 OA
BRANCH  32  35
ATOM     35  C   UNL A   1      35.790  30.379  28.438  1.00  0.00     0.039 A 
ATOM     36  C   UNL A   1      36.051  29.669  29.607  1.00  0.00     0.014 A 
ATOM     37  C   UNL A   1      36.750  30.439  27.424  1.00  0.00     0.014 A 
ATOM     38  C   UNL A   1      37.351  29.272  29.876  1.00  0.00     0.010 A 
ATOM     39  C   UNL A   1      38.022  29.901  27.645  1.00  0.00     0.010 A 
ATOM     40  C   UNL A   1      38.361  29.384  28.904  1.00  0.00    -0.014 A 
BRANCH  40  41
ATOM     41  C   UNL A   1      39.754  28.981  29.255  1.00  0.00     0.031 A 
ATOM     42  C   UNL A   1      40.322  27.657  28.800  1.00  0.00     0.074 A 
ATOM     43  C   UNL A   1      40.546  29.860  29.903  1.00  0.00     0.049 A 
ATOM     44  N   UNL A   1      41.510  27.156  29.032  1.00  0.00    -0.248 NA
ATOM     45  C   UNL A   1      39.458  26.780  27.991  1.00  0.00     0.031 C 
ATOM     46  C   UNL A   1      40.126  31.187  30.367  1.00  0.00     0.029 A 
ATOM     47  N   UNL A   1      41.877  29.805  30.233  1.00  0.00    -0.354 N 
ATOM     48  C   UNL A   1      41.517  25.895  28.445  1.00  0.00     0.074 A 
ATOM     49  C   UNL A   1      40.216  25.699  27.849  1.00  0.00     0.031 C 
ATOM     50  C   UNL A   1      41.196  31.856  30.812  1.00  0.00     0.029 A 
ATOM     51  C   UNL A   1      42.356  30.973  30.781  1.00  0.00     0.049 A 
ATOM     52  H   UNL A   1      42.435  29.006  30.093  1.00  0.00     0.167 HD
ATOM     53  C   UNL A   1      42.520  24.986  28.407  1.00  0.00     0.031 A 
ATOM     54  C   UNL A   1      43.581  31.303  31.232  1.00  0.00     0.031 A 
ATOM     55  C   UNL A   1      43.832  25.209  28.958  1.00  0.00     0.049 A 
ATOM     56  C   UNL A   1      44.671  30.276  31.191  1.00  0.00     0.074 A 
ATOM     57  C   UNL A   1      44.915  24.344  28.966  1.00  0.00     0.029 A 
ATOM     58  N   UNL A   1      44.249  26.377  29.575  1.00  0.00    -0.354 N 
ATOM     59  N   UNL A   1      44.632  29.065  30.691  1.00  0.00    -0.248 NA
ATOM     60  C   UNL A   1      45.958  30.644  31.795  1.00  0.00     0.031 C 
ATOM     61  C   UNL A   1      45.970  24.973  29.629  1.00  0.00     0.029 A 
ATOM     62  C   UNL A   1      45.566  26.250  29.981  1.00  0.00     0.049 A 
ATOM     63  H   UNL A   1      43.691  27.178  29.706  1.00  0.00     0.167 HD
ATOM     64  C   UNL A   1      45.885  28.518  30.934  1.00  0.00     0.074 A 
ATOM     65  C   UNL A   1      46.670  29.542  31.593  1.00  0.00     0.031 C 
ATOM     66  C   UNL A   1      46.333  27.273  30.648  1.00  0.00     0.031 A 
BRANCH  53  67
ATOM     67  C   UNL A   1      42.262  23.647  27.763  1.00  0.00    -0.014 A 
ATOM     68  C   UNL A   1      41.869  22.559  28.567  1.00  0.00     0.010 A 
ATOM     69  C   UNL A   1      42.537  23.427  26.403  1.00  0.00     0.010 A 
ATOM     70  C   UNL A   1      41.791  21.270  28.033  1.00  0.00     0.020 A 
ATOM     71  C   UNL A   1      42.436  22.141  25.859  1.00  0.00     0.020 A 
ATOM     72  C   UNL A   1      42.088  21.067  26.684  1.00  0.00     0.054 A 
BRANCH  72  73
ATOM     73  S   UNL A   1      42.013  19.383  26.012  1.00  0.00     0.124 S 
ATOM     74  O   UNL A   1      42.515  18.584  27.126  1.00  0.00    -0.237 OA
ATOM     75  O   UNL A   1      40.594  19.221  25.708  1.00  0.00    -0.237 OA
ATOM     76  O   UNL A   1      42.887  19.444  24.842  1.00  0.00    -0.744 OA
ENDBRANCH  72  73
ENDBRANCH  53  67
BRANCH  54  77
ATOM     77  C   UNL A   1      43.804  32.670  31.779  1.00  0.00    -0.014 A 
ATOM     78  C   UNL A   1      43.548  32.938  33.137  1.00  0.00     0.010 A 
ATOM     79  C   UNL A   1      44.157  33.730  30.927  1.00  0.00     0.010 A 
ATOM     80  C   UNL A   1      43.563  34.249  33.618  1.00  0.00     0.020 A 
ATOM     81  C   UNL A   1      44.206  35.041  31.412  1.00  0.00     0.020 A 
ATOM     82  C   UNL A   1      43.873  35.294  32.745  1.00  0.00     0.054 A 
BRANCH  82  83
ATOM     83  S   UNL A   1      43.819  36.998  33.367  1.00  0.00     0.124 S 
ATOM     84  O   UNL A   1      42.581  36.992  34.142  1.00  0.00    -0.237 OA
ATOM     85  O   UNL A   1      45.048  37.097  34.149  1.00  0.00    -0.237 OA
ATOM     86  O   UNL A   1      43.793  37.802  32.148  1.00  0.00    -0.744 OA
ENDBRANCH  82  83
ENDBRANCH  54  77
BRANCH  66  87
ATOM     87  C   UNL A   1      47.737  26.921  31.054  1.00  0.00    -0.014 A 
ATOM     88  C   UNL A   1      48.774  26.970  30.105  1.00  0.00     0.010 A 
ATOM     89  C   UNL A   1      48.003  26.424  32.342  1.00  0.00     0.010 A 
ATOM     90  C   UNL A   1      50.047  26.497  30.427  1.00  0.00     0.020 A 
ATOM     91  C   UNL A   1      49.282  25.973  32.673  1.00  0.00     0.020 A 
ATOM     92  C   UNL A   1      50.290  25.990  31.706  1.00  0.00     0.054 A 
BRANCH  92  93
ATOM     93  S   UNL A   1      51.942  25.354  32.098  1.00  0.00     0.124 S 
ATOM     94  O   UNL A   1      51.714  23.913  32.144  1.00  0.00    -0.237 OA
ATOM     95  O   UNL A   1      52.747  25.829  30.974  1.00  0.00    -0.237 OA
ATOM     96  O   UNL A   1      52.253  25.980  33.382  1.00  0.00    -0.744 OA
ENDBRANCH  92  93
ENDBRANCH  66  87
ENDBRANCH  40  41
ENDBRANCH  32  35
ENDBRANCH  30  31
ENDBRANCH   1  30
TORSDOF 16
ENDMDL
MODEL 2
REMARK VINA RESULT:     -11.8      1.722      2.372
REMARK SMILES Nc1oc2ccc(F)cc2c(=O)c1[C@@H]1[NH2+][C@H](C(=O)NCCCCNC(=O)c2ccc(-c3c4nc(c(-c5ccc(S(=O)(=O)[O-])cc5)c5ccc([nH]5)c(-c5ccc(S(=O)(=O)[O-])cc5)c5nc(c(-c6ccc(S(=O)(=O)[O-])cc6)c6ccc3[nH]6)C=C5)C=C4)cc2)CS1
REMARK SMILES IDX 22 1 21 2 20 3 19 4 17 5 18 6 16 8 14 9 15 10 88 11 87 14
REMARK SMILES IDX 13 15 2 16 3 17 4 18 11 19 5 20 10 21 12 22 6 23 9 24 7 25
REMARK SMILES IDX 8 26 1 27 23 30 24 31 25 32 26 34 27 35 28 36 86 37 29 38
REMARK SMILES IDX 85 39 30 40 31 41 32 42 79 43 33 44 84 45 78 46 80 47 34 48
REMARK SMILES IDX 83 49 77 50 76 51 35 53 65 54 46 55 64 56 47 57 50 58 63 59
REMARK SMILES IDX 81 60 48 61 49 62 62 64 82 65 51 66 36 67 37 68 45 69 38 70
REMARK SMILES IDX 44 71 39 72 40 73 41 74 42 75 43 76 66 77 67 78 75 79 68 80
REMARK SMILES IDX 74 81 69 82 70 83 71 84 72 85 73 86 52 87 53 88 61 89 54 90
REMARK SMILES IDX 60 91 55 92 56 93 57 94 58 95 59 96
REMARK H PARENT 19 7 15 12 15 13 1 28 1 29 24 33 80 52 50 63
REMARK Flexibility Score: inf
ROOT
ATOM      1  C   UNL A   1      32.948  29.524  25.728  1.00  0.00     0.023 C 
ENDROOT
BRANCH   1   2
ATOM      2  C   UNL A   1      31.487  29.105  25.664  1.00  0.00     0.023 C 
BRANCH   2   3
ATOM      3  C   UNL A   1      31.068  28.396  24.385  1.00  0.00     0.116 C 
BRANCH   3   4
ATOM      4  N   UNL A   1      30.593  27.052  24.666  1.00  0.00    -0.351 N 
ATOM      5  C   UNL A   1      31.220  25.866  24.867  1.00  0.00     0.279 C 
ATOM      6  O   UNL A   1      30.476  24.872  24.889  1.00  0.00    -0.268 OA
ATOM      7  H   UNL A   1      29.612  26.989  24.721  1.00  0.00     0.163 HD
BRANCH   5   8
ATOM      8  C   UNL A   1      32.742  25.648  25.042  1.00  0.00     0.283 C 
ATOM      9  C   UNL A   1      33.826  23.463  24.725  1.00  0.00     0.283 C 
ATOM     10  N   UNL A   1      33.037  24.317  25.634  1.00  0.00    -0.320 N 
ATOM     11  S   UNL A   1      34.211  24.443  23.227  1.00  0.00    -0.087 SA
ATOM     12  H   UNL A   1      33.563  24.451  26.498  1.00  0.00     0.348 HD
ATOM     13  H   UNL A   1      32.148  23.849  25.809  1.00  0.00     0.348 HD
ATOM     14  C   UNL A   1      33.694  26.012  23.928  1.00  0.00     0.151 C 
BRANCH   9  15
ATOM     15  C   UNL A   1      33.181  22.148  24.345  1.00  0.00     0.128 A 
ATOM     16  C   UNL A   1      32.154  21.932  23.491  1.00  0.00     0.205 A 
ATOM     17  O   UNL A   1      31.787  20.671  23.038  1.00  0.00    -0.440 OA
ATOM     18  C   UNL A   1      32.598  19.608  23.326  1.00  0.00     0.140 A 
ATOM     19  C   UNL A   1      33.721  20.943  25.036  1.00  0.00     0.205 A 
ATOM     20  C   UNL A   1      32.448  18.441  22.577  1.00  0.00     0.051 A 
ATOM     21  C   UNL A   1      33.516  19.656  24.367  1.00  0.00     0.068 A 
ATOM     22  O   UNL A   1      34.322  21.008  26.102  1.00  0.00    -0.288 OA
ATOM     23  C   UNL A   1      33.193  17.309  22.912  1.00  0.00     0.043 A 
ATOM     24  C   UNL A   1      34.236  18.519  24.735  1.00  0.00     0.055 A 
ATOM     25  C   UNL A   1      34.059  17.351  24.002  1.00  0.00     0.124 A 
ATOM     26  F   UNL A   1      34.736  16.249  24.349  1.00  0.00    -0.207 F 
BRANCH  16  27
ATOM     27  N   UNL A   1      31.425  22.924  22.905  1.00  0.00    -0.369 N 
ATOM     28  H   UNL A   1      31.597  23.865  23.139  1.00  0.00     0.159 HD
ATOM     29  H   UNL A   1      30.726  22.700  22.250  1.00  0.00     0.159 HD
ENDBRANCH  16  27
ENDBRANCH   9  15
ENDBRANCH   5   8
ENDBRANCH   3   4
ENDBRANCH   2   3
ENDBRANCH   1   2
BRANCH   1  30
ATOM     30  C   UNL A   1      33.589  29.331  27.090  1.00  0.00     0.116 C 
BRANCH  30  31
ATOM     31  N   UNL A   1      33.706  30.555  27.877  1.00  0.00    -0.352 N 
ATOM     32  C   UNL A   1      34.788  31.021  28.596  1.00  0.00     0.251 C 
ATOM     33  H   UNL A   1      32.904  31.125  27.899  1.00  0.00     0.163 HD
ATOM     34  O   UNL A   1      34.698  32.052  29.258  1.00  0.00    -0.269 OA
BRANCH  32  35
ATOM     35  C   UNL A   1      36.033  30.224  28.614  1.00  0.00     0.039 A 
ATOM     36  C   UNL A   1      36.421  29.568  29.779  1.00  0.00     0.014 A 
ATOM     37  C   UNL A   1      36.885  30.252  27.507  1.00  0.00     0.014 A 
ATOM     38  C   UNL A   1      37.748  29.199  29.933  1.00  0.00     0.010 A 
ATOM     39  C   UNL A   1      38.182  29.739  27.621  1.00  0.00     0.010 A 
ATOM     40  C   UNL A   1      38.654  29.281  28.861  1.00  0.00    -0.014 A 
BRANCH  40  41
ATOM     41  C   UNL A   1      40.081  28.910  29.087  1.00  0.00     0.031 A 
ATOM     42  C   UNL A   1      40.627  27.582  28.617  1.00  0.00     0.074 A 
ATOM     43  C   UNL A   1      40.916  29.821  29.629  1.00  0.00     0.049 A 
ATOM     44  N   UNL A   1      41.840  27.106  28.747  1.00  0.00    -0.248 NA
ATOM     45  C   UNL A   1      39.705  26.667  27.922  1.00  0.00     0.031 C 
ATOM     46  C   UNL A   1      40.519  31.154  30.092  1.00  0.00     0.029 A 
ATOM     47  N   UNL A   1      42.273  29.796  29.830  1.00  0.00    -0.354 N 
ATOM     48  C   UNL A   1      41.814  25.828  28.200  1.00  0.00     0.074 A 
ATOM     49  C   UNL A   1      40.464  25.594  27.738  1.00  0.00     0.031 C 
ATOM     50  C   UNL A   1      41.614  31.854  30.412  1.00  0.00     0.029 A 
ATOM     51  C   UNL A   1      42.781  30.988  30.295  1.00  0.00     0.049 A 
ATOM     52  H   UNL A   1      42.830  29.002  29.660  1.00  0.00     0.167 HD
ATOM     53  C   UNL A   1      42.825  24.933  28.091  1.00  0.00     0.031 A 
ATOM     54  C   UNL A   1      44.038  31.350  30.616  1.00  0.00     0.031 A 
ATOM     55  C   UNL A   1      44.179  25.193  28.506  1.00  0.00     0.049 A 
ATOM     56  C   UNL A   1      45.137  30.339  30.499  1.00  0.00     0.074 A 
ATOM     57  C   UNL A   1      45.273  24.346  28.434  1.00  0.00     0.029 A 
ATOM     58  N   UNL A   1      44.633  26.386  29.045  1.00  0.00    -0.354 N 
ATOM     59  N   UNL A   1      45.072  29.112  30.041  1.00  0.00    -0.248 NA
ATOM     60  C   UNL A   1      46.470  30.744  30.965  1.00  0.00     0.031 C 
ATOM     61  C   UNL A   1      46.376  25.011  28.973  1.00  0.00     0.029 A 
ATOM     62  C   UNL A   1      45.985  26.292  29.325  1.00  0.00     0.049 A 
ATOM     63  H   UNL A   1      44.075  27.182  29.206  1.00  0.00     0.167 HD
ATOM     64  C   UNL A   1      46.352  28.593  30.176  1.00  0.00     0.074 A 
ATOM     65  C   UNL A   1      47.179  29.648  30.726  1.00  0.00     0.031 C 
ATOM     66  C   UNL A   1      46.793  27.346  29.884  1.00  0.00     0.031 A 
BRANCH  53  67
ATOM     67  C   UNL A   1      42.529  23.572  27.514  1.00  0.00    -0.014 A 
ATOM     68  C   UNL A   1      42.108  22.536  28.371  1.00  0.00     0.010 A 
ATOM     69  C   UNL A   1      42.798  23.276  26.167  1.00  0.00     0.010 A 
ATOM     70  C   UNL A   1      41.994  21.225  27.902  1.00  0.00     0.020 A 
ATOM     71  C   UNL A   1      42.663  21.968  25.688  1.00  0.00     0.020 A 
ATOM     72  C   UNL A   1      42.286  20.947  26.565  1.00  0.00     0.054 A 
BRANCH  72  73
ATOM     73  S   UNL A   1      42.164  19.234  25.978  1.00  0.00     0.124 S 
ATOM     74  O   UNL A   1      42.664  18.479  27.124  1.00  0.00    -0.237 OA
ATOM     75  O   UNL A   1      40.738  19.089  25.701  1.00  0.00    -0.237 OA
ATOM     76  O   UNL A   1      43.023  19.218  24.795  1.00  0.00    -0.744 OA
ENDBRANCH  72  73
ENDBRANCH  53  67
BRANCH  54  77
ATOM     77  C   UNL A   1      44.287  32.736  31.098  1.00  0.00    -0.014 A 
ATOM     78  C   UNL A   1      44.045  33.071  32.444  1.00  0.00     0.010 A 
ATOM     79  C   UNL A   1      44.654  33.750  30.197  1.00  0.00     0.010 A 
ATOM     80  C   UNL A   1      44.085  34.401  32.864  1.00  0.00     0.020 A 
ATOM     81  C   UNL A   1      44.729  35.080  30.622  1.00  0.00     0.020 A 
ATOM     82  C   UNL A   1      44.407  35.400  31.943  1.00  0.00     0.054 A 
BRANCH  82  83
ATOM     83  S   UNL A   1      44.387  37.131  32.486  1.00  0.00     0.124 S 
ATOM     84  O   UNL A   1      43.929  37.815  31.280  1.00  0.00    -0.237 OA
ATOM     85  O   UNL A   1      43.436  37.111  33.595  1.00  0.00    -0.237 OA
ATOM     86  O   UNL A   1      45.775  37.384  32.864  1.00  0.00    -0.744 OA
ENDBRANCH  82  83
ENDBRANCH  54  77
BRANCH  66  87
ATOM     87  C   UNL A   1      48.236  27.029  30.163  1.00  0.00    -0.014 A 
ATOM     88  C   UNL A   1      48.600  26.444  31.389  1.00  0.00     0.010 A 
ATOM     89  C   UNL A   1      49.240  27.424  29.262  1.00  0.00     0.010 A 
ATOM     90  C   UNL A   1      49.947  26.289  31.725  1.00  0.00     0.020 A 
ATOM     91  C   UNL A   1      50.587  27.248  29.586  1.00  0.00     0.020 A 
ATOM     92  C   UNL A   1      50.932  26.703  30.826  1.00  0.00     0.054 A 
BRANCH  92  93
ATOM     93  S   UNL A   1      52.675  26.520  31.289  1.00  0.00     0.124 S 
ATOM     94  O   UNL A   1      52.995  27.845  31.812  1.00  0.00    -0.237 OA
ATOM     95  O   UNL A   1      52.636  25.445  32.278  1.00  0.00    -0.237 OA
ATOM     96  O   UNL A   1      53.328  26.171  30.029  1.00  0.00    -0.744 OA
ENDBRANCH  92  93
ENDBRANCH  66  87
ENDBRANCH  40  41
ENDBRANCH  32  35
ENDBRANCH  30  31
ENDBRANCH   1  30
TORSDOF 16
ENDMDL
MODEL 3
REMARK VINA RESULT:     -11.7      3.237      8.853
REMARK SMILES Nc1oc2ccc(F)cc2c(=O)c1[C@@H]1[NH2+][C@H](C(=O)NCCCCNC(=O)c2ccc(-c3c4nc(c(-c5ccc(S(=O)(=O)[O-])cc5)c5ccc([nH]5)c(-c5ccc(S(=O)(=O)[O-])cc5)c5nc(c(-c6ccc(S(=O)(=O)[O-])cc6)c6ccc3[nH]6)C=C5)C=C4)cc2)CS1
REMARK SMILES IDX 22 1 21 2 20 3 19 4 17 5 18 6 16 8 14 9 15 10 88 11 87 14
REMARK SMILES IDX 13 15 2 16 3 17 4 18 11 19 5 20 10 21 12 22 6 23 9 24 7 25
REMARK SMILES IDX 8 26 1 27 23 30 24 31 25 32 26 34 27 35 28 36 86 37 29 38
REMARK SMILES IDX 85 39 30 40 31 41 32 42 79 43 33 44 84 45 78 46 80 47 34 48
REMARK SMILES IDX 83 49 77 50 76 51 35 53 65 54 46 55 64 56 47 57 50 58 63 59
REMARK SMILES IDX 81 60 48 61 49 62 62 64 82 65 51 66 36 67 37 68 45 69 38 70
REMARK SMILES IDX 44 71 39 72 40 73 41 74 42 75 43 76 66 77 67 78 75 79 68 80
REMARK SMILES IDX 74 81 69 82 70 83 71 84 72 85 73 86 52 87 53 88 61 89 54 90
REMARK SMILES IDX 60 91 55 92 56 93 57 94 58 95 59 96
REMARK H PARENT 19 7 15 12 15 13 1 28 1 29 24 33 80 52 50 63
REMARK Flexibility Score: inf
ROOT
ATOM      1  C   UNL A   1      35.815  22.009  25.897  1.00  0.00     0.023 C 
ENDROOT
BRANCH   1   2
ATOM      2  C   UNL A   1      35.162  21.237  24.760  1.00  0.00     0.023 C 
BRANCH   2   3
ATOM      3  C   UNL A   1      33.847  21.811  24.254  1.00  0.00     0.116 C 
BRANCH   3   4
ATOM      4  N   UNL A   1      34.073  23.006  23.458  1.00  0.00    -0.351 N 
ATOM      5  C   UNL A   1      33.882  24.329  23.690  1.00  0.00     0.279 C 
ATOM      6  O   UNL A   1      34.006  25.064  22.696  1.00  0.00    -0.268 OA
ATOM      7  H   UNL A   1      34.441  22.816  22.564  1.00  0.00     0.163 HD
BRANCH   5   8
ATOM      8  C   UNL A   1      33.510  24.982  25.043  1.00  0.00     0.283 C 
ATOM      9  C   UNL A   1      32.044  26.949  25.222  1.00  0.00     0.283 C 
ATOM     10  N   UNL A   1      33.404  26.459  24.924  1.00  0.00    -0.320 N 
ATOM     11  S   UNL A   1      31.025  25.510  25.715  1.00  0.00    -0.087 SA
ATOM     12  H   UNL A   1      34.057  26.890  25.579  1.00  0.00     0.348 HD
ATOM     13  H   UNL A   1      33.622  26.712  23.960  1.00  0.00     0.348 HD
ATOM     14  C   UNL A   1      32.415  24.388  25.896  1.00  0.00     0.151 C 
BRANCH   9  15
ATOM     15  C   UNL A   1      31.369  27.713  24.103  1.00  0.00     0.128 A 
ATOM     16  C   UNL A   1      30.977  27.258  22.891  1.00  0.00     0.205 A 
ATOM     17  O   UNL A   1      30.164  27.982  22.028  1.00  0.00    -0.440 OA
ATOM     18  C   UNL A   1      29.588  29.137  22.481  1.00  0.00     0.140 A 
ATOM     19  C   UNL A   1      31.151  29.166  24.358  1.00  0.00     0.205 A 
ATOM     20  C   UNL A   1      28.501  29.653  21.777  1.00  0.00     0.051 A 
ATOM     21  C   UNL A   1      30.092  29.817  23.582  1.00  0.00     0.068 A 
ATOM     22  O   UNL A   1      31.804  29.796  25.182  1.00  0.00    -0.288 OA
ATOM     23  C   UNL A   1      27.954  30.881  22.158  1.00  0.00     0.043 A 
ATOM     24  C   UNL A   1      29.580  31.062  23.947  1.00  0.00     0.055 A 
ATOM     25  C   UNL A   1      28.516  31.584  23.222  1.00  0.00     0.124 A 
ATOM     26  F   UNL A   1      28.019  32.783  23.553  1.00  0.00    -0.207 F 
BRANCH  16  27
ATOM     27  N   UNL A   1      31.250  26.010  22.418  1.00  0.00    -0.369 N 
ATOM     28  H   UNL A   1      30.597  25.283  22.542  1.00  0.00     0.159 HD
ATOM     29  H   UNL A   1      32.099  25.834  21.953  1.00  0.00     0.159 HD
ENDBRANCH  16  27
ENDBRANCH   9  15
ENDBRANCH   5   8
ENDBRANCH   3   4
ENDBRANCH   2   3
ENDBRANCH   1   2
BRANCH   1  30
ATOM     30  C   UNL A   1      37.004  22.851  25.472  1.00  0.00     0.116 C 
BRANCH  30  31
ATOM     31  N   UNL A   1      38.296  22.188  25.628  1.00  0.00    -0.352 N 
ATOM     32  C   UNL A   1      39.455  22.675  26.198  1.00  0.00     0.251 C 
ATOM     33  H   UNL A   1      38.347  21.269  25.280  1.00  0.00     0.163 HD
ATOM     34  O   UNL A   1      40.481  21.999  26.196  1.00  0.00    -0.269 OA
BRANCH  32  35
ATOM     35  C   UNL A   1      39.461  24.048  26.747  1.00  0.00     0.039 A 
ATOM     36  C   UNL A   1      39.990  25.093  25.995  1.00  0.00     0.014 A 
ATOM     37  C   UNL A   1      39.069  24.263  28.071  1.00  0.00     0.014 A 
ATOM     38  C   UNL A   1      40.388  26.252  26.643  1.00  0.00     0.010 A 
ATOM     39  C   UNL A   1      39.338  25.494  28.679  1.00  0.00     0.010 A 
ATOM     40  C   UNL A   1      40.074  26.473  27.995  1.00  0.00    -0.014 A 
BRANCH  40  41
ATOM     41  C   UNL A   1      40.558  27.718  28.659  1.00  0.00     0.031 A 
ATOM     42  C   UNL A   1      42.023  27.919  28.968  1.00  0.00     0.074 A 
ATOM     43  C   UNL A   1      39.683  28.718  28.892  1.00  0.00     0.049 A 
ATOM     44  N   UNL A   1      42.602  28.940  29.552  1.00  0.00    -0.248 NA
ATOM     45  C   UNL A   1      42.960  26.848  28.586  1.00  0.00     0.031 C 
ATOM     46  C   UNL A   1      38.246  28.661  28.607  1.00  0.00     0.029 A 
ATOM     47  N   UNL A   1      39.872  29.993  29.364  1.00  0.00    -0.354 N 
ATOM     48  C   UNL A   1      43.950  28.613  29.651  1.00  0.00     0.074 A 
ATOM     49  C   UNL A   1      44.110  27.299  29.073  1.00  0.00     0.031 C 
ATOM     50  C   UNL A   1      37.711  29.873  28.797  1.00  0.00     0.029 A 
ATOM     51  C   UNL A   1      38.733  30.764  29.334  1.00  0.00     0.049 A 
ATOM     52  H   UNL A   1      40.739  30.324  29.693  1.00  0.00     0.167 HD
ATOM     53  C   UNL A   1      44.961  29.347  30.174  1.00  0.00     0.031 A 
ATOM     54  C   UNL A   1      38.514  32.038  29.712  1.00  0.00     0.031 A 
ATOM     55  C   UNL A   1      44.803  30.677  30.701  1.00  0.00     0.049 A 
ATOM     56  C   UNL A   1      39.646  32.825  30.301  1.00  0.00     0.074 A 
ATOM     57  C   UNL A   1      45.773  31.500  31.253  1.00  0.00     0.029 A 
ATOM     58  N   UNL A   1      43.615  31.390  30.724  1.00  0.00    -0.354 N 
ATOM     59  N   UNL A   1      40.899  32.467  30.445  1.00  0.00    -0.248 NA
ATOM     60  C   UNL A   1      39.335  34.170  30.801  1.00  0.00     0.031 C 
ATOM     61  C   UNL A   1      45.160  32.689  31.651  1.00  0.00     0.029 A 
ATOM     62  C   UNL A   1      43.823  32.634  31.294  1.00  0.00     0.049 A 
ATOM     63  H   UNL A   1      42.751  31.060  30.386  1.00  0.00     0.167 HD
ATOM     64  C   UNL A   1      41.525  33.539  31.067  1.00  0.00     0.074 A 
ATOM     65  C   UNL A   1      40.522  34.570  31.240  1.00  0.00     0.031 C 
ATOM     66  C   UNL A   1      42.813  33.646  31.472  1.00  0.00     0.031 A 
BRANCH  53  67
ATOM     67  C   UNL A   1      46.342  28.743  30.229  1.00  0.00    -0.014 A 
ATOM     68  C   UNL A   1      46.764  28.091  31.404  1.00  0.00     0.010 A 
ATOM     69  C   UNL A   1      47.265  28.937  29.187  1.00  0.00     0.010 A 
ATOM     70  C   UNL A   1      48.090  27.676  31.552  1.00  0.00     0.020 A 
ATOM     71  C   UNL A   1      48.587  28.501  29.321  1.00  0.00     0.020 A 
ATOM     72  C   UNL A   1      48.998  27.896  30.513  1.00  0.00     0.054 A 
BRANCH  72  73
ATOM     73  S   UNL A   1      50.723  27.380  30.732  1.00  0.00     0.124 S 
ATOM     74  O   UNL A   1      51.438  28.317  29.871  1.00  0.00    -0.237 OA
ATOM     75  O   UNL A   1      50.933  27.556  32.167  1.00  0.00    -0.237 OA
ATOM     76  O   UNL A   1      50.723  25.989  30.280  1.00  0.00    -0.744 OA
ENDBRANCH  72  73
ENDBRANCH  53  67
BRANCH  54  77
ATOM     77  C   UNL A   1      37.150  32.613  29.556  1.00  0.00    -0.014 A 
ATOM     78  C   UNL A   1      36.794  33.274  28.365  1.00  0.00     0.010 A 
ATOM     79  C   UNL A   1      36.246  32.607  30.632  1.00  0.00     0.010 A 
ATOM     80  C   UNL A   1      35.596  33.985  28.278  1.00  0.00     0.020 A 
ATOM     81  C   UNL A   1      35.030  33.290  30.536  1.00  0.00     0.020 A 
ATOM     82  C   UNL A   1      34.730  34.005  29.373  1.00  0.00     0.054 A 
BRANCH  82  83
ATOM     83  S   UNL A   1      33.211  34.991  29.271  1.00  0.00     0.124 S 
ATOM     84  O   UNL A   1      32.433  34.236  28.292  1.00  0.00    -0.237 OA
ATOM     85  O   UNL A   1      32.705  34.950  30.641  1.00  0.00    -0.237 OA
ATOM     86  O   UNL A   1      33.685  36.298  28.823  1.00  0.00    -0.744 OA
ENDBRANCH  82  83
ENDBRANCH  54  77
BRANCH  66  87
ATOM     87  C   UNL A   1      43.229  34.916  32.161  1.00  0.00    -0.014 A 
ATOM     88  C   UNL A   1      43.086  35.035  33.555  1.00  0.00     0.010 A 
ATOM     89  C   UNL A   1      43.642  36.032  31.412  1.00  0.00     0.010 A 
ATOM     90  C   UNL A   1      43.320  36.258  34.187  1.00  0.00     0.020 A 
ATOM     91  C   UNL A   1      43.899  37.250  32.044  1.00  0.00     0.020 A 
ATOM     92  C   UNL A   1      43.713  37.362  33.425  1.00  0.00     0.054 A 
BRANCH  92  93
ATOM     93  S   UNL A   1      43.985  38.950  34.256  1.00  0.00     0.124 S 
ATOM     94  O   UNL A   1      45.339  39.291  33.831  1.00  0.00    -0.237 OA
ATOM     95  O   UNL A   1      42.921  39.788  33.707  1.00  0.00    -0.237 OA
ATOM     96  O   UNL A   1      43.837  38.622  35.673  1.00  0.00    -0.744 OA
ENDBRANCH  92  93
ENDBRANCH  66  87
ENDBRANCH  40  41
ENDBRANCH  32  35
ENDBRANCH  30  31
ENDBRANCH   1  30
TORSDOF 16
ENDMDL
