MODEL 1
REMARK VINA RESULT:      -9.6      0.000      0.000
REMARK SMILES CCCc1c(O)nc(SCCC(=O)NCCCCNC(=O)c2ccc(-c3c4nc(c(-c5ccc(S(=O)(=O)[O-])cc5)c5ccc([nH]5)c(-c5ccc(S(=O)(=O)[O-])cc5)c5nc(c(-c6ccc(S(=O)(=O)[O-])cc6)c6ccc3[nH]6)C=C5)C=C4)cc2)[nH]c1=O
REMARK SMILES IDX 15 1 14 2 12 3 13 4 11 6 10 7 9 8 8 9 4 10 5 11 83 12 7 13
REMARK SMILES IDX 82 14 84 15 3 17 2 18 1 19 6 20 16 22 17 23 18 24 19 25
REMARK SMILES IDX 20 26 21 28 22 29 23 30 81 31 24 32 80 33 25 34 26 35 27 36
REMARK SMILES IDX 74 37 28 38 79 39 73 40 75 41 29 42 78 43 72 44 71 45 30 47
REMARK SMILES IDX 60 48 41 49 59 50 42 51 45 52 58 53 76 54 43 55 44 56 57 58
REMARK SMILES IDX 77 59 46 60 31 61 32 62 40 63 33 64 39 65 34 66 35 67 36 68
REMARK SMILES IDX 37 69 38 70 61 71 62 72 70 73 63 74 69 75 64 76 65 77 66 78
REMARK SMILES IDX 67 79 68 80 47 81 48 82 56 83 49 84 55 85 50 86 51 87 52 88
REMARK SMILES IDX 53 89 54 90
REMARK H PARENT 14 5 82 16 6 21 19 27 75 46 45 57
REMARK Flexibility Score: inf
ROOT
ATOM      1  C   UNL A   1      31.675  29.046  24.411  1.00  0.00     0.116 C 
ENDROOT
BRANCH   1   2
ATOM      2  N   UNL A   1      31.097  29.360  23.114  1.00  0.00    -0.356 N 
ATOM      3  C   UNL A   1      29.925  28.968  22.539  1.00  0.00     0.220 C 
ATOM      4  O   UNL A   1      29.626  29.443  21.441  1.00  0.00    -0.275 OA
ATOM      5  H   UNL A   1      31.646  29.957  22.556  1.00  0.00     0.163 HD
BRANCH   3   6
ATOM      6  C   UNL A   1      29.002  28.013  23.267  1.00  0.00     0.111 C 
BRANCH   6   7
ATOM      7  C   UNL A   1      29.578  26.602  23.402  1.00  0.00     0.088 C 
BRANCH   7   8
ATOM      8  S   UNL A   1      29.727  26.000  25.127  1.00  0.00    -0.087 SA
BRANCH   8   9
ATOM      9  C   UNL A   1      31.197  25.082  25.050  1.00  0.00     0.171 A 
ATOM     10  C   UNL A   1      33.569  23.739  25.210  1.00  0.00     0.079 A 
ATOM     11  C   UNL A   1      33.203  24.528  24.184  1.00  0.00     0.222 A 
ATOM     12  C   UNL A   1      32.567  23.605  26.299  1.00  0.00     0.258 A 
ATOM     13  N   UNL A   1      32.024  25.196  24.077  1.00  0.00    -0.189 NA
ATOM     14  N   UNL A   1      31.398  24.285  26.122  1.00  0.00    -0.301 N 
ATOM     15  O   UNL A   1      32.783  23.010  27.348  1.00  0.00    -0.269 OA
ATOM     16  H   UNL A   1      30.682  24.193  26.793  1.00  0.00     0.172 HD
BRANCH  10  17
ATOM     17  C   UNL A   1      34.945  23.137  25.340  1.00  0.00     0.047 C 
BRANCH  17  18
ATOM     18  C   UNL A   1      36.087  23.990  25.903  1.00  0.00     0.002 C 
ATOM     19  C   UNL A   1      37.462  23.630  25.365  1.00  0.00     0.004 C 
ENDBRANCH  17  18
ENDBRANCH  10  17
BRANCH  11  20
ATOM     20  O   UNL A   1      34.090  24.843  23.187  1.00  0.00    -0.493 OA
ATOM     21  H   UNL A   1      34.639  24.177  22.820  1.00  0.00     0.295 HD
ENDBRANCH  11  20
ENDBRANCH   8   9
ENDBRANCH   7   8
ENDBRANCH   6   7
ENDBRANCH   3   6
ENDBRANCH   1   2
BRANCH   1  22
ATOM     22  C   UNL A   1      33.205  29.096  24.442  1.00  0.00     0.023 C 
BRANCH  22  23
ATOM     23  C   UNL A   1      33.861  28.024  25.314  1.00  0.00     0.023 C 
BRANCH  23  24
ATOM     24  C   UNL A   1      33.708  28.192  26.820  1.00  0.00     0.116 C 
BRANCH  24  25
ATOM     25  N   UNL A   1      33.591  29.593  27.196  1.00  0.00    -0.352 N 
ATOM     26  C   UNL A   1      34.425  30.425  27.908  1.00  0.00     0.251 C 
ATOM     27  H   UNL A   1      32.764  30.025  26.883  1.00  0.00     0.163 HD
ATOM     28  O   UNL A   1      33.980  31.521  28.249  1.00  0.00    -0.269 OA
BRANCH  26  29
ATOM     29  C   UNL A   1      35.822  30.059  28.273  1.00  0.00     0.039 A 
ATOM     30  C   UNL A   1      36.814  30.138  27.283  1.00  0.00     0.014 A 
ATOM     31  C   UNL A   1      36.174  29.559  29.527  1.00  0.00     0.014 A 
ATOM     32  C   UNL A   1      38.135  29.757  27.559  1.00  0.00     0.010 A 
ATOM     33  C   UNL A   1      37.509  29.278  29.834  1.00  0.00     0.010 A 
ATOM     34  C   UNL A   1      38.504  29.348  28.849  1.00  0.00    -0.014 A 
BRANCH  34  35
ATOM     35  C   UNL A   1      39.901  28.942  29.178  1.00  0.00     0.031 A 
ATOM     36  C   UNL A   1      40.840  29.923  29.843  1.00  0.00     0.074 A 
ATOM     37  C   UNL A   1      40.354  27.721  28.830  1.00  0.00     0.049 A 
ATOM     38  N   UNL A   1      42.116  29.798  30.111  1.00  0.00    -0.248 NA
ATOM     39  C   UNL A   1      40.276  31.228  30.227  1.00  0.00     0.031 C 
ATOM     40  C   UNL A   1      39.573  26.684  28.153  1.00  0.00     0.029 A 
ATOM     41  N   UNL A   1      41.593  27.146  28.992  1.00  0.00    -0.354 N 
ATOM     42  C   UNL A   1      42.513  31.016  30.655  1.00  0.00     0.074 A 
ATOM     43  C   UNL A   1      41.354  31.881  30.639  1.00  0.00     0.031 C 
ATOM     44  C   UNL A   1      40.338  25.593  27.986  1.00  0.00     0.029 A 
ATOM     45  C   UNL A   1      41.677  25.864  28.500  1.00  0.00     0.049 A 
ATOM     46  H   UNL A   1      42.349  27.608  29.421  1.00  0.00     0.167 HD
ATOM     47  C   UNL A   1      43.723  31.380  31.144  1.00  0.00     0.031 A 
ATOM     48  C   UNL A   1      42.714  25.004  28.458  1.00  0.00     0.031 A 
ATOM     49  C   UNL A   1      44.867  30.509  31.201  1.00  0.00     0.049 A 
ATOM     50  C   UNL A   1      44.044  25.422  29.027  1.00  0.00     0.074 A 
ATOM     51  C   UNL A   1      46.118  30.764  31.737  1.00  0.00     0.029 A 
ATOM     52  N   UNL A   1      44.897  29.211  30.717  1.00  0.00    -0.354 N 
ATOM     53  N   UNL A   1      44.383  26.563  29.577  1.00  0.00    -0.248 NA
ATOM     54  C   UNL A   1      45.128  24.431  28.975  1.00  0.00     0.031 C 
ATOM     55  C   UNL A   1      46.916  29.633  31.541  1.00  0.00     0.029 A 
ATOM     56  C   UNL A   1      46.149  28.657  30.927  1.00  0.00     0.049 A 
ATOM     57  H   UNL A   1      44.141  28.751  30.285  1.00  0.00     0.167 HD
ATOM     58  C   UNL A   1      45.712  26.418  29.957  1.00  0.00     0.074 A 
ATOM     59  C   UNL A   1      46.111  25.075  29.590  1.00  0.00     0.031 C 
ATOM     60  C   UNL A   1      46.530  27.318  30.559  1.00  0.00     0.031 A 
BRANCH  47  61
ATOM     61  C   UNL A   1      43.873  32.790  31.659  1.00  0.00    -0.014 A 
ATOM     62  C   UNL A   1      43.639  33.099  33.011  1.00  0.00     0.010 A 
ATOM     63  C   UNL A   1      44.285  33.813  30.786  1.00  0.00     0.010 A 
ATOM     64  C   UNL A   1      43.767  34.413  33.469  1.00  0.00     0.020 A 
ATOM     65  C   UNL A   1      44.443  35.124  31.247  1.00  0.00     0.020 A 
ATOM     66  C   UNL A   1      44.162  35.419  32.583  1.00  0.00     0.054 A 
BRANCH  66  67
ATOM     67  S   UNL A   1      44.331  37.113  33.208  1.00  0.00     0.124 S 
ATOM     68  O   UNL A   1      44.515  37.872  31.973  1.00  0.00    -0.237 OA
ATOM     69  O   UNL A   1      43.061  37.333  33.895  1.00  0.00    -0.237 OA
ATOM     70  O   UNL A   1      45.503  37.047  34.078  1.00  0.00    -0.744 OA
ENDBRANCH  66  67
ENDBRANCH  47  61
BRANCH  48  71
ATOM     71  C   UNL A   1      42.531  23.648  27.870  1.00  0.00    -0.014 A 
ATOM     72  C   UNL A   1      42.750  23.432  26.498  1.00  0.00     0.010 A 
ATOM     73  C   UNL A   1      42.149  22.564  28.681  1.00  0.00     0.010 A 
ATOM     74  C   UNL A   1      42.575  22.160  25.944  1.00  0.00     0.020 A 
ATOM     75  C   UNL A   1      41.998  21.285  28.136  1.00  0.00     0.020 A 
ATOM     76  C   UNL A   1      42.200  21.094  26.767  1.00  0.00     0.054 A 
BRANCH  76  77
ATOM     77  S   UNL A   1      42.029  19.442  26.036  1.00  0.00     0.124 S 
ATOM     78  O   UNL A   1      40.584  19.340  25.853  1.00  0.00    -0.237 OA
ATOM     79  O   UNL A   1      42.814  19.554  24.809  1.00  0.00    -0.237 OA
ATOM     80  O   UNL A   1      42.596  18.558  27.051  1.00  0.00    -0.744 OA
ENDBRANCH  76  77
ENDBRANCH  48  71
BRANCH  60  81
ATOM     81  C   UNL A   1      47.930  26.873  30.887  1.00  0.00    -0.014 A 
ATOM     82  C   UNL A   1      48.964  26.967  29.939  1.00  0.00     0.010 A 
ATOM     83  C   UNL A   1      48.224  26.407  32.181  1.00  0.00     0.010 A 
ATOM     84  C   UNL A   1      50.263  26.575  30.272  1.00  0.00     0.020 A 
ATOM     85  C   UNL A   1      49.527  26.038  32.525  1.00  0.00     0.020 A 
ATOM     86  C   UNL A   1      50.536  26.112  31.564  1.00  0.00     0.054 A 
BRANCH  86  87
ATOM     87  S   UNL A   1      52.240  25.653  31.987  1.00  0.00     0.124 S 
ATOM     88  O   UNL A   1      52.142  24.202  32.111  1.00  0.00    -0.237 OA
ATOM     89  O   UNL A   1      52.999  26.135  30.835  1.00  0.00    -0.237 OA
ATOM     90  O   UNL A   1      52.492  26.371  33.234  1.00  0.00    -0.744 OA
ENDBRANCH  86  87
ENDBRANCH  60  81
ENDBRANCH  34  35
ENDBRANCH  26  29
ENDBRANCH  24  25
ENDBRANCH  23  24
ENDBRANCH  22  23
ENDBRANCH   1  22
TORSDOF 20
ENDMDL
MODEL 2
REMARK VINA RESULT:      -9.6      1.327      8.943
REMARK SMILES CCCc1c(O)nc(SCCC(=O)NCCCCNC(=O)c2ccc(-c3c4nc(c(-c5ccc(S(=O)(=O)[O-])cc5)c5ccc([nH]5)c(-c5ccc(S(=O)(=O)[O-])cc5)c5nc(c(-c6ccc(S(=O)(=O)[O-])cc6)c6ccc3[nH]6)C=C5)C=C4)cc2)[nH]c1=O
REMARK SMILES IDX 15 1 14 2 12 3 13 4 11 6 10 7 9 8 8 9 4 10 5 11 83 12 7 13
REMARK SMILES IDX 82 14 84 15 3 17 2 18 1 19 6 20 16 22 17 23 18 24 19 25
REMARK SMILES IDX 20 26 21 28 22 29 23 30 81 31 24 32 80 33 25 34 26 35 27 36
REMARK SMILES IDX 74 37 28 38 79 39 73 40 75 41 29 42 78 43 72 44 71 45 30 47
REMARK SMILES IDX 60 48 41 49 59 50 42 51 45 52 58 53 76 54 43 55 44 56 57 58
REMARK SMILES IDX 77 59 46 60 31 61 32 62 40 63 33 64 39 65 34 66 35 67 36 68
REMARK SMILES IDX 37 69 38 70 61 71 62 72 70 73 63 74 69 75 64 76 65 77 66 78
REMARK SMILES IDX 67 79 68 80 47 81 48 82 56 83 49 84 55 85 50 86 51 87 52 88
REMARK SMILES IDX 53 89 54 90
REMARK H PARENT 14 5 82 16 6 21 19 27 75 46 45 57
REMARK Flexibility Score: inf
ROOT
ATOM      1  C   UNL A   1      34.045  25.675  24.622  1.00  0.00     0.116 C 
ENDROOT
BRANCH   1   2
ATOM      2  N   UNL A   1      34.101  25.004  23.334  1.00  0.00    -0.356 N 
ATOM      3  C   UNL A   1      33.169  24.259  22.673  1.00  0.00     0.220 C 
ATOM      4  O   UNL A   1      33.441  23.858  21.539  1.00  0.00    -0.275 OA
ATOM      5  H   UNL A   1      34.955  25.105  22.857  1.00  0.00     0.163 HD
BRANCH   3   6
ATOM      6  C   UNL A   1      31.823  23.985  23.309  1.00  0.00     0.111 C 
BRANCH   6   7
ATOM      7  C   UNL A   1      30.749  25.000  22.912  1.00  0.00     0.088 C 
BRANCH   7   8
ATOM      8  S   UNL A   1      30.047  25.956  24.308  1.00  0.00    -0.087 SA
BRANCH   8   9
ATOM      9  C   UNL A   1      29.674  27.468  23.543  1.00  0.00     0.171 A 
ATOM     10  C   UNL A   1      28.865  29.699  22.193  1.00  0.00     0.079 A 
ATOM     11  C   UNL A   1      30.136  29.265  22.263  1.00  0.00     0.222 A 
ATOM     12  C   UNL A   1      27.871  28.882  22.936  1.00  0.00     0.258 A 
ATOM     13  N   UNL A   1      30.564  28.166  22.938  1.00  0.00    -0.189 NA
ATOM     14  N   UNL A   1      28.367  27.804  23.608  1.00  0.00    -0.301 N 
ATOM     15  O   UNL A   1      26.663  29.079  22.890  1.00  0.00    -0.269 OA
ATOM     16  H   UNL A   1      27.757  27.256  24.154  1.00  0.00     0.172 HD
BRANCH  10  17
ATOM     17  C   UNL A   1      28.430  30.844  21.313  1.00  0.00     0.047 C 
BRANCH  17  18
ATOM     18  C   UNL A   1      27.958  32.151  21.961  1.00  0.00     0.002 C 
ATOM     19  C   UNL A   1      28.913  32.713  23.001  1.00  0.00     0.004 C 
ENDBRANCH  17  18
ENDBRANCH  10  17
BRANCH  11  20
ATOM     20  O   UNL A   1      31.122  29.850  21.510  1.00  0.00    -0.493 OA
ATOM     21  H   UNL A   1      31.367  29.476  20.687  1.00  0.00     0.295 HD
ENDBRANCH  11  20
ENDBRANCH   8   9
ENDBRANCH   7   8
ENDBRANCH   6   7
ENDBRANCH   3   6
ENDBRANCH   1   2
BRANCH   1  22
ATOM     22  C   UNL A   1      33.630  27.146  24.544  1.00  0.00     0.023 C 
BRANCH  22  23
ATOM     23  C   UNL A   1      34.338  28.063  25.543  1.00  0.00     0.023 C 
BRANCH  23  24
ATOM     24  C   UNL A   1      33.739  28.129  26.941  1.00  0.00     0.116 C 
BRANCH  24  25
ATOM     25  N   UNL A   1      33.581  29.502  27.395  1.00  0.00    -0.352 N 
ATOM     26  C   UNL A   1      34.431  30.349  28.071  1.00  0.00     0.251 C 
ATOM     27  H   UNL A   1      32.707  29.899  27.180  1.00  0.00     0.163 HD
ATOM     28  O   UNL A   1      33.961  31.400  28.505  1.00  0.00    -0.269 OA
BRANCH  26  29
ATOM     29  C   UNL A   1      35.874  30.047  28.292  1.00  0.00     0.039 A 
ATOM     30  C   UNL A   1      36.277  29.608  29.563  1.00  0.00     0.014 A 
ATOM     31  C   UNL A   1      36.853  30.263  27.322  1.00  0.00     0.014 A 
ATOM     32  C   UNL A   1      37.629  29.359  29.840  1.00  0.00     0.010 A 
ATOM     33  C   UNL A   1      38.185  29.916  27.565  1.00  0.00     0.010 A 
ATOM     34  C   UNL A   1      38.598  29.484  28.834  1.00  0.00    -0.014 A 
BRANCH  34  35
ATOM     35  C   UNL A   1      40.042  29.220  29.092  1.00  0.00     0.031 A 
ATOM     36  C   UNL A   1      40.645  27.880  28.737  1.00  0.00     0.074 A 
ATOM     37  C   UNL A   1      40.806  30.152  29.700  1.00  0.00     0.049 A 
ATOM     38  N   UNL A   1      41.848  27.421  28.981  1.00  0.00    -0.248 NA
ATOM     39  C   UNL A   1      39.770  26.918  28.047  1.00  0.00     0.031 C 
ATOM     40  C   UNL A   1      40.352  31.475  30.130  1.00  0.00     0.029 A 
ATOM     41  N   UNL A   1      42.130  30.122  30.070  1.00  0.00    -0.354 N 
ATOM     42  C   UNL A   1      41.859  26.110  28.512  1.00  0.00     0.074 A 
ATOM     43  C   UNL A   1      40.531  25.833  28.010  1.00  0.00     0.031 C 
ATOM     44  C   UNL A   1      41.382  32.140  30.675  1.00  0.00     0.029 A 
ATOM     45  C   UNL A   1      42.561  31.278  30.677  1.00  0.00     0.049 A 
ATOM     46  H   UNL A   1      42.715  29.346  29.914  1.00  0.00     0.167 HD
ATOM     47  C   UNL A   1      42.882  25.222  28.480  1.00  0.00     0.031 A 
ATOM     48  C   UNL A   1      43.764  31.609  31.187  1.00  0.00     0.031 A 
ATOM     49  C   UNL A   1      44.214  25.508  28.940  1.00  0.00     0.049 A 
ATOM     50  C   UNL A   1      44.892  30.614  31.121  1.00  0.00     0.074 A 
ATOM     51  C   UNL A   1      45.335  24.697  28.890  1.00  0.00     0.029 A 
ATOM     52  N   UNL A   1      44.611  26.702  29.521  1.00  0.00    -0.354 N 
ATOM     53  N   UNL A   1      44.890  29.397  30.632  1.00  0.00    -0.248 NA
ATOM     54  C   UNL A   1      46.186  31.042  31.670  1.00  0.00     0.031 C 
ATOM     55  C   UNL A   1      46.400  25.386  29.478  1.00  0.00     0.029 A 
ATOM     56  C   UNL A   1      45.956  26.644  29.849  1.00  0.00     0.049 A 
ATOM     57  H   UNL A   1      44.024  27.476  29.680  1.00  0.00     0.167 HD
ATOM     58  C   UNL A   1      46.188  28.924  30.794  1.00  0.00     0.074 A 
ATOM     59  C   UNL A   1      46.951  29.989  31.411  1.00  0.00     0.031 C 
ATOM     60  C   UNL A   1      46.702  27.714  30.460  1.00  0.00     0.031 A 
BRANCH  47  61
ATOM     61  C   UNL A   1      42.596  23.849  27.927  1.00  0.00    -0.014 A 
ATOM     62  C   UNL A   1      42.172  22.801  28.764  1.00  0.00     0.010 A 
ATOM     63  C   UNL A   1      42.721  23.611  26.546  1.00  0.00     0.010 A 
ATOM     64  C   UNL A   1      41.927  21.529  28.238  1.00  0.00     0.020 A 
ATOM     65  C   UNL A   1      42.448  22.348  26.011  1.00  0.00     0.020 A 
ATOM     66  C   UNL A   1      42.072  21.309  26.865  1.00  0.00     0.054 A 
BRANCH  66  67
ATOM     67  S   UNL A   1      41.735  19.652  26.209  1.00  0.00     0.124 S 
ATOM     68  O   UNL A   1      40.287  19.693  26.021  1.00  0.00    -0.237 OA
ATOM     69  O   UNL A   1      42.526  19.624  24.980  1.00  0.00    -0.237 OA
ATOM     70  O   UNL A   1      42.201  18.759  27.266  1.00  0.00    -0.744 OA
ENDBRANCH  66  67
ENDBRANCH  47  61
BRANCH  48  71
ATOM     71  C   UNL A   1      43.971  32.954  31.790  1.00  0.00    -0.014 A 
ATOM     72  C   UNL A   1      44.305  34.053  30.979  1.00  0.00     0.010 A 
ATOM     73  C   UNL A   1      43.824  33.147  33.176  1.00  0.00     0.010 A 
ATOM     74  C   UNL A   1      44.505  35.317  31.544  1.00  0.00     0.020 A 
ATOM     75  C   UNL A   1      43.997  34.413  33.742  1.00  0.00     0.020 A 
ATOM     76  C   UNL A   1      44.349  35.489  32.923  1.00  0.00     0.054 A 
BRANCH  76  77
ATOM     77  S   UNL A   1      44.562  37.147  33.628  1.00  0.00     0.124 S 
ATOM     78  O   UNL A   1      45.533  37.742  32.715  1.00  0.00    -0.237 OA
ATOM     79  O   UNL A   1      43.211  37.698  33.559  1.00  0.00    -0.237 OA
ATOM     80  O   UNL A   1      45.051  36.884  34.979  1.00  0.00    -0.744 OA
ENDBRANCH  76  77
ENDBRANCH  48  71
BRANCH  60  81
ATOM     81  C   UNL A   1      48.166  27.484  30.725  1.00  0.00    -0.014 A 
ATOM     82  C   UNL A   1      48.604  26.894  31.923  1.00  0.00     0.010 A 
ATOM     83  C   UNL A   1      49.109  27.814  29.735  1.00  0.00     0.010 A 
ATOM     84  C   UNL A   1      49.966  26.663  32.138  1.00  0.00     0.020 A 
ATOM     85  C   UNL A   1      50.469  27.561  29.937  1.00  0.00     0.020 A 
ATOM     86  C   UNL A   1      50.890  26.999  31.143  1.00  0.00     0.054 A 
BRANCH  86  87
ATOM     87  S   UNL A   1      52.647  26.647  31.426  1.00  0.00     0.124 S 
ATOM     88  O   UNL A   1      53.114  26.330  30.080  1.00  0.00    -0.237 OA
ATOM     89  O   UNL A   1      53.142  27.904  31.983  1.00  0.00    -0.237 OA
ATOM     90  O   UNL A   1      52.628  25.525  32.361  1.00  0.00    -0.744 OA
ENDBRANCH  86  87
ENDBRANCH  60  81
ENDBRANCH  34  35
ENDBRANCH  26  29
ENDBRANCH  24  25
ENDBRANCH  23  24
ENDBRANCH  22  23
ENDBRANCH   1  22
TORSDOF 20
ENDMDL
MODEL 3
REMARK VINA RESULT:      -9.5      4.467     10.364
REMARK SMILES CCCc1c(O)nc(SCCC(=O)NCCCCNC(=O)c2ccc(-c3c4nc(c(-c5ccc(S(=O)(=O)[O-])cc5)c5ccc([nH]5)c(-c5ccc(S(=O)(=O)[O-])cc5)c5nc(c(-c6ccc(S(=O)(=O)[O-])cc6)c6ccc3[nH]6)C=C5)C=C4)cc2)[nH]c1=O
REMARK SMILES IDX 15 1 14 2 12 3 13 4 11 6 10 7 9 8 8 9 4 10 5 11 83 12 7 13
REMARK SMILES IDX 82 14 84 15 3 17 2 18 1 19 6 20 16 22 17 23 18 24 19 25
REMARK SMILES IDX 20 26 21 28 22 29 23 30 81 31 24 32 80 33 25 34 26 35 27 36
REMARK SMILES IDX 74 37 28 38 79 39 73 40 75 41 29 42 78 43 72 44 71 45 30 47
REMARK SMILES IDX 60 48 41 49 59 50 42 51 45 52 58 53 76 54 43 55 44 56 57 58
REMARK SMILES IDX 77 59 46 60 31 61 32 62 40 63 33 64 39 65 34 66 35 67 36 68
REMARK SMILES IDX 37 69 38 70 61 71 62 72 70 73 63 74 69 75 64 76 65 77 66 78
REMARK SMILES IDX 67 79 68 80 47 81 48 82 56 83 49 84 55 85 50 86 51 87 52 88
REMARK SMILES IDX 53 89 54 90
REMARK H PARENT 14 5 82 16 6 21 19 27 75 46 45 57
REMARK Flexibility Score: inf
ROOT
ATOM      1  C   UNL A   1      35.514  22.416  24.409  1.00  0.00     0.116 C 
ENDROOT
BRANCH   1   2
ATOM      2  N   UNL A   1      34.680  21.243  24.613  1.00  0.00    -0.356 N 
ATOM      3  C   UNL A   1      33.434  21.115  25.152  1.00  0.00     0.220 C 
ATOM      4  O   UNL A   1      32.905  20.001  25.140  1.00  0.00    -0.275 OA
ATOM      5  H   UNL A   1      35.082  20.397  24.311  1.00  0.00     0.163 HD
BRANCH   3   6
ATOM      6  C   UNL A   1      32.713  22.329  25.700  1.00  0.00     0.111 C 
BRANCH   6   7
ATOM      7  C   UNL A   1      31.914  23.087  24.638  1.00  0.00     0.088 C 
BRANCH   7   8
ATOM      8  S   UNL A   1      30.656  24.239  25.306  1.00  0.00    -0.087 SA
BRANCH   8   9
ATOM      9  C   UNL A   1      31.610  25.653  25.619  1.00  0.00     0.171 A 
ATOM     10  C   UNL A   1      32.848  28.029  26.145  1.00  0.00     0.079 A 
ATOM     11  C   UNL A   1      33.136  27.230  25.102  1.00  0.00     0.222 A 
ATOM     12  C   UNL A   1      31.787  27.529  27.058  1.00  0.00     0.258 A 
ATOM     13  N   UNL A   1      32.542  26.039  24.827  1.00  0.00    -0.189 NA
ATOM     14  N   UNL A   1      31.245  26.319  26.737  1.00  0.00    -0.301 N 
ATOM     15  O   UNL A   1      31.336  28.181  27.992  1.00  0.00    -0.269 OA
ATOM     16  H   UNL A   1      30.571  25.922  27.335  1.00  0.00     0.172 HD
BRANCH  10  17
ATOM     17  C   UNL A   1      33.441  29.405  26.320  1.00  0.00     0.047 C 
BRANCH  17  18
ATOM     18  C   UNL A   1      34.561  29.614  27.346  1.00  0.00     0.002 C 
ATOM     19  C   UNL A   1      34.613  31.014  27.937  1.00  0.00     0.004 C 
ENDBRANCH  17  18
ENDBRANCH  10  17
BRANCH  11  20
ATOM     20  O   UNL A   1      33.994  27.642  24.115  1.00  0.00    -0.493 OA
ATOM     21  H   UNL A   1      34.294  28.529  24.095  1.00  0.00     0.295 HD
ENDBRANCH  11  20
ENDBRANCH   8   9
ENDBRANCH   7   8
ENDBRANCH   6   7
ENDBRANCH   3   6
ENDBRANCH   1   2
BRANCH   1  22
ATOM     22  C   UNL A   1      36.301  22.846  25.650  1.00  0.00     0.023 C 
BRANCH  22  23
ATOM     23  C   UNL A   1      37.822  22.804  25.488  1.00  0.00     0.023 C 
BRANCH  23  24
ATOM     24  C   UNL A   1      38.629  23.627  26.483  1.00  0.00     0.116 C 
BRANCH  24  25
ATOM     25  N   UNL A   1      40.028  23.722  26.092  1.00  0.00    -0.352 N 
ATOM     26  C   UNL A   1      41.010  24.632  26.413  1.00  0.00     0.251 C 
ATOM     27  H   UNL A   1      40.326  23.004  25.489  1.00  0.00     0.163 HD
ATOM     28  O   UNL A   1      42.063  24.581  25.776  1.00  0.00    -0.269 OA
BRANCH  26  29
ATOM     29  C   UNL A   1      40.853  25.657  27.483  1.00  0.00     0.039 A 
ATOM     30  C   UNL A   1      41.815  26.675  27.578  1.00  0.00     0.014 A 
ATOM     31  C   UNL A   1      39.845  25.603  28.445  1.00  0.00     0.014 A 
ATOM     32  C   UNL A   1      41.743  27.636  28.597  1.00  0.00     0.010 A 
ATOM     33  C   UNL A   1      39.713  26.619  29.397  1.00  0.00     0.010 A 
ATOM     34  C   UNL A   1      40.673  27.635  29.504  1.00  0.00    -0.014 A 
BRANCH  34  35
ATOM     35  C   UNL A   1      40.563  28.646  30.594  1.00  0.00     0.031 A 
ATOM     36  C   UNL A   1      41.457  28.552  31.810  1.00  0.00     0.074 A 
ATOM     37  C   UNL A   1      39.623  29.612  30.533  1.00  0.00     0.049 A 
ATOM     38  N   UNL A   1      41.440  29.266  32.908  1.00  0.00    -0.248 NA
ATOM     39  C   UNL A   1      42.483  27.497  31.802  1.00  0.00     0.031 C 
ATOM     40  C   UNL A   1      38.669  29.803  29.440  1.00  0.00     0.029 A 
ATOM     41  N   UNL A   1      39.311  30.615  31.421  1.00  0.00    -0.354 N 
ATOM     42  C   UNL A   1      42.421  28.722  33.733  1.00  0.00     0.074 A 
ATOM     43  C   UNL A   1      42.982  27.592  33.026  1.00  0.00     0.031 C 
ATOM     44  C   UNL A   1      37.901  30.872  29.705  1.00  0.00     0.029 A 
ATOM     45  C   UNL A   1      38.274  31.417  31.007  1.00  0.00     0.049 A 
ATOM     46  H   UNL A   1      39.786  30.746  32.274  1.00  0.00     0.167 HD
ATOM     47  C   UNL A   1      42.833  29.133  34.956  1.00  0.00     0.031 A 
ATOM     48  C   UNL A   1      37.682  32.469  31.607  1.00  0.00     0.031 A 
ATOM     49  C   UNL A   1      42.306  30.281  35.643  1.00  0.00     0.049 A 
ATOM     50  C   UNL A   1      38.172  32.922  32.956  1.00  0.00     0.074 A 
ATOM     51  C   UNL A   1      42.704  30.816  36.857  1.00  0.00     0.029 A 
ATOM     52  N   UNL A   1      41.277  31.081  35.173  1.00  0.00    -0.354 N 
ATOM     53  N   UNL A   1      39.130  32.419  33.696  1.00  0.00    -0.248 NA
ATOM     54  C   UNL A   1      37.503  34.089  33.547  1.00  0.00     0.031 C 
ATOM     55  C   UNL A   1      41.888  31.916  37.138  1.00  0.00     0.029 A 
ATOM     56  C   UNL A   1      41.015  32.095  36.079  1.00  0.00     0.049 A 
ATOM     57  H   UNL A   1      40.801  30.946  34.322  1.00  0.00     0.167 HD
ATOM     58  C   UNL A   1      39.195  33.223  34.829  1.00  0.00     0.074 A 
ATOM     59  C   UNL A   1      38.190  34.254  34.670  1.00  0.00     0.031 C 
ATOM     60  C   UNL A   1      40.014  33.117  35.905  1.00  0.00     0.031 A 
BRANCH  47  61
ATOM     61  C   UNL A   1      43.914  28.329  35.634  1.00  0.00    -0.014 A 
ATOM     62  C   UNL A   1      45.274  28.650  35.466  1.00  0.00     0.010 A 
ATOM     63  C   UNL A   1      43.565  27.258  36.477  1.00  0.00     0.010 A 
ATOM     64  C   UNL A   1      46.264  27.886  36.088  1.00  0.00     0.020 A 
ATOM     65  C   UNL A   1      44.553  26.509  37.125  1.00  0.00     0.020 A 
ATOM     66  C   UNL A   1      45.898  26.815  36.909  1.00  0.00     0.054 A 
BRANCH  66  67
ATOM     67  S   UNL A   1      47.204  25.848  37.714  1.00  0.00     0.124 S 
ATOM     68  O   UNL A   1      47.387  26.576  38.968  1.00  0.00    -0.237 OA
ATOM     69  O   UNL A   1      46.597  24.526  37.839  1.00  0.00    -0.237 OA
ATOM     70  O   UNL A   1      48.323  25.930  36.779  1.00  0.00    -0.744 OA
ENDBRANCH  66  67
ENDBRANCH  47  61
BRANCH  48  71
ATOM     71  C   UNL A   1      36.567  33.182  30.925  1.00  0.00    -0.014 A 
ATOM     72  C   UNL A   1      35.277  33.188  31.485  1.00  0.00     0.010 A 
ATOM     73  C   UNL A   1      36.791  33.871  29.719  1.00  0.00     0.010 A 
ATOM     74  C   UNL A   1      34.228  33.853  30.843  1.00  0.00     0.020 A 
ATOM     75  C   UNL A   1      35.751  34.560  29.087  1.00  0.00     0.020 A 
ATOM     76  C   UNL A   1      34.472  34.537  29.648  1.00  0.00     0.054 A 
BRANCH  76  77
ATOM     77  S   UNL A   1      33.108  35.437  28.860  1.00  0.00     0.124 S 
ATOM     78  O   UNL A   1      33.818  36.473  28.115  1.00  0.00    -0.237 OA
ATOM     79  O   UNL A   1      32.470  34.402  28.050  1.00  0.00    -0.237 OA
ATOM     80  O   UNL A   1      32.313  35.911  29.991  1.00  0.00    -0.744 OA
ENDBRANCH  76  77
ENDBRANCH  48  71
BRANCH  60  81
ATOM     81  C   UNL A   1      39.883  34.159  36.983  1.00  0.00    -0.014 A 
ATOM     82  C   UNL A   1      40.412  35.450  36.814  1.00  0.00     0.010 A 
ATOM     83  C   UNL A   1      39.170  33.856  38.157  1.00  0.00     0.010 A 
ATOM     84  C   UNL A   1      40.256  36.413  37.815  1.00  0.00     0.020 A 
ATOM     85  C   UNL A   1      38.990  34.823  39.149  1.00  0.00     0.020 A 
ATOM     86  C   UNL A   1      39.546  36.092  38.977  1.00  0.00     0.054 A 
BRANCH  86  87
ATOM     87  S   UNL A   1      39.315  37.373  40.242  1.00  0.00     0.124 S 
ATOM     88  O   UNL A   1      40.693  37.735  40.562  1.00  0.00    -0.237 OA
ATOM     89  O   UNL A   1      38.546  38.392  39.533  1.00  0.00    -0.237 OA
ATOM     90  O   UNL A   1      38.589  36.681  41.305  1.00  0.00    -0.744 OA
ENDBRANCH  86  87
ENDBRANCH  60  81
ENDBRANCH  34  35
ENDBRANCH  26  29
ENDBRANCH  24  25
ENDBRANCH  23  24
ENDBRANCH  22  23
ENDBRANCH   1  22
TORSDOF 20
ENDMDL
