MODEL 1
REMARK VINA RESULT:     -10.7      0.000      0.000
REMARK SMILES C[N@@H+](C[C@H]1CCC[N@H+]1C)C[C@]([NH3+])(C(=O)NCCCCNC(=O)c1ccc(-c2c3nc(c(-c4ccc(S(=O)(=O)[O-])cc4)c4ccc([nH]4)c(-c4ccc(S(=O)(=O)[O-])cc4)c4nc(c(-c5ccc(S(=O)(=O)[O-])cc5)c5ccc2[nH]5)C=C4)C=C3)cc1)c1ccccc1
REMARK SMILES IDX 17 1 16 2 15 3 13 4 14 5 11 7 10 8 2 9 1 10 3 12 4 13 5 14
REMARK SMILES IDX 8 15 6 16 7 17 9 18 83 20 84 21 88 22 85 23 87 24 86 25
REMARK SMILES IDX 12 26 18 30 19 31 20 32 21 33 22 35 23 36 24 37 82 38 25 39
REMARK SMILES IDX 81 40 26 41 27 42 28 43 75 44 29 45 80 46 74 47 76 48 30 49
REMARK SMILES IDX 79 50 73 51 72 52 31 54 61 55 42 56 60 57 43 58 46 59 59 60
REMARK SMILES IDX 77 61 44 62 45 63 58 65 78 66 47 67 32 68 33 69 41 70 34 71
REMARK SMILES IDX 40 72 35 73 36 74 37 75 38 76 39 77 62 78 63 79 71 80 64 81
REMARK SMILES IDX 70 82 65 83 66 84 67 85 68 86 69 87 48 88 49 89 57 90 50 91
REMARK SMILES IDX 56 92 51 93 52 94 53 95 54 96 55 97
REMARK H PARENT 15 6 2 11 8 19 12 27 12 28 12 29 20 34 76 53 46 64
REMARK Flexibility Score: inf
ROOT
ATOM      1  C   UNL A   1      31.916  30.570  26.652  1.00  0.00     0.023 C 
ENDROOT
BRANCH   1   2
ATOM      2  C   UNL A   1      31.411  30.056  25.302  1.00  0.00     0.116 C 
BRANCH   2   3
ATOM      3  N   UNL A   1      32.462  29.614  24.393  1.00  0.00    -0.350 N 
ATOM      4  C   UNL A   1      32.463  28.783  23.292  1.00  0.00     0.292 C 
ATOM      5  O   UNL A   1      33.513  28.754  22.646  1.00  0.00    -0.267 OA
ATOM      6  H   UNL A   1      33.349  29.983  24.610  1.00  0.00     0.163 HD
BRANCH   4   7
ATOM      7  C   UNL A   1      31.202  27.890  22.939  1.00  0.00     0.248 C 
BRANCH   7   8
ATOM      8  C   UNL A   1      30.833  27.009  24.189  1.00  0.00     0.347 C 
BRANCH   8   9
ATOM      9  N   UNL A   1      31.836  26.161  24.843  1.00  0.00    -0.326 N 
ATOM     10  C   UNL A   1      32.226  26.525  26.187  1.00  0.00     0.333 C 
ATOM     11  H   UNL A   1      32.611  26.503  24.273  1.00  0.00     0.348 HD
BRANCH   9  12
ATOM     12  C   UNL A   1      32.055  24.780  24.420  1.00  0.00     0.327 C 
BRANCH  12  13
ATOM     13  C   UNL A   1      33.395  24.299  23.726  1.00  0.00     0.239 C 
ATOM     14  C   UNL A   1      34.718  24.654  24.424  1.00  0.00     0.077 C 
ATOM     15  N   UNL A   1      33.640  22.842  23.849  1.00  0.00    -0.330 N 
ATOM     16  C   UNL A   1      34.719  23.802  25.684  1.00  0.00     0.068 C 
ATOM     17  C   UNL A   1      33.935  22.564  25.256  1.00  0.00     0.262 C 
ATOM     18  C   UNL A   1      32.697  21.954  23.218  1.00  0.00     0.333 C 
ATOM     19  H   UNL A   1      34.450  22.610  23.273  1.00  0.00     0.348 HD
ENDBRANCH  12  13
ENDBRANCH   9  12
ENDBRANCH   8   9
ENDBRANCH   7   8
BRANCH   7  20
ATOM     20  C   UNL A   1      29.935  28.698  22.550  1.00  0.00     0.028 A 
ATOM     21  C   UNL A   1      28.675  28.394  23.110  1.00  0.00     0.011 A 
ATOM     22  C   UNL A   1      30.030  29.884  21.800  1.00  0.00     0.011 A 
ATOM     23  C   UNL A   1      27.590  29.266  23.001  1.00  0.00     0.001 A 
ATOM     24  C   UNL A   1      28.939  30.751  21.678  1.00  0.00     0.001 A 
ATOM     25  C   UNL A   1      27.727  30.454  22.297  1.00  0.00     0.000 A 
ENDBRANCH   7  20
BRANCH   7  26
ATOM     26  N   UNL A   1      31.630  27.067  21.795  1.00  0.00    -0.336 N 
ATOM     27  H   UNL A   1      30.953  27.157  21.038  1.00  0.00     0.345 HD
ATOM     28  H   UNL A   1      31.691  26.091  22.083  1.00  0.00     0.345 HD
ATOM     29  H   UNL A   1      32.545  27.383  21.472  1.00  0.00     0.345 HD
ENDBRANCH   7  26
ENDBRANCH   4   7
ENDBRANCH   2   3
ENDBRANCH   1   2
BRANCH   1  30
ATOM     30  C   UNL A   1      31.735  32.066  26.890  1.00  0.00     0.023 C 
BRANCH  30  31
ATOM     31  C   UNL A   1      33.011  32.818  27.242  1.00  0.00     0.116 C 
BRANCH  31  32
ATOM     32  N   UNL A   1      32.761  34.102  27.876  1.00  0.00    -0.352 N 
ATOM     33  C   UNL A   1      33.407  34.666  28.952  1.00  0.00     0.251 C 
ATOM     34  H   UNL A   1      32.035  34.638  27.485  1.00  0.00     0.163 HD
ATOM     35  O   UNL A   1      32.988  35.708  29.437  1.00  0.00    -0.269 OA
BRANCH  33  36
ATOM     36  C   UNL A   1      34.581  33.982  29.537  1.00  0.00     0.039 A 
ATOM     37  C   UNL A   1      35.854  34.368  29.117  1.00  0.00     0.014 A 
ATOM     38  C   UNL A   1      34.431  32.990  30.511  1.00  0.00     0.014 A 
ATOM     39  C   UNL A   1      36.977  33.797  29.716  1.00  0.00     0.010 A 
ATOM     40  C   UNL A   1      35.552  32.484  31.165  1.00  0.00     0.010 A 
ATOM     41  C   UNL A   1      36.836  32.878  30.771  1.00  0.00    -0.014 A 
BRANCH  41  42
ATOM     42  C   UNL A   1      38.036  32.348  31.468  1.00  0.00     0.031 A 
ATOM     43  C   UNL A   1      38.465  32.908  32.796  1.00  0.00     0.074 A 
ATOM     44  C   UNL A   1      38.747  31.360  30.887  1.00  0.00     0.049 A 
ATOM     45  N   UNL A   1      39.449  32.525  33.569  1.00  0.00    -0.248 NA
ATOM     46  C   UNL A   1      37.709  34.059  33.317  1.00  0.00     0.031 C 
ATOM     47  C   UNL A   1      38.472  30.781  29.569  1.00  0.00     0.029 A 
ATOM     48  N   UNL A   1      39.837  30.659  31.334  1.00  0.00    -0.354 N 
ATOM     49  C   UNL A   1      39.423  33.378  34.668  1.00  0.00     0.074 A 
ATOM     50  C   UNL A   1      38.374  34.342  34.428  1.00  0.00     0.031 C 
ATOM     51  C   UNL A   1      39.341  29.785  29.334  1.00  0.00     0.029 A 
ATOM     52  C   UNL A   1      40.256  29.677  30.465  1.00  0.00     0.049 A 
ATOM     53  H   UNL A   1      40.280  30.841  32.195  1.00  0.00     0.167 HD
ATOM     54  C   UNL A   1      40.183  33.343  35.788  1.00  0.00     0.031 A 
ATOM     55  C   UNL A   1      41.259  28.784  30.569  1.00  0.00     0.031 A 
ATOM     56  C   UNL A   1      41.232  32.384  36.019  1.00  0.00     0.049 A 
ATOM     57  C   UNL A   1      42.088  28.766  31.823  1.00  0.00     0.074 A 
ATOM     58  C   UNL A   1      42.038  32.242  37.136  1.00  0.00     0.029 A 
ATOM     59  N   UNL A   1      41.624  31.405  35.118  1.00  0.00    -0.354 N 
ATOM     60  N   UNL A   1      41.996  29.534  32.884  1.00  0.00    -0.248 NA
ATOM     61  C   UNL A   1      43.140  27.745  31.905  1.00  0.00     0.031 C 
ATOM     62  C   UNL A   1      42.950  31.210  36.889  1.00  0.00     0.029 A 
ATOM     63  C   UNL A   1      42.672  30.667  35.645  1.00  0.00     0.049 A 
ATOM     64  H   UNL A   1      41.216  31.255  34.235  1.00  0.00     0.167 HD
ATOM     65  C   UNL A   1      42.971  29.077  33.765  1.00  0.00     0.074 A 
ATOM     66  C   UNL A   1      43.610  27.944  33.127  1.00  0.00     0.031 C 
ATOM     67  C   UNL A   1      43.310  29.554  34.989  1.00  0.00     0.031 A 
BRANCH  54  68
ATOM     68  C   UNL A   1      39.896  34.366  36.857  1.00  0.00    -0.014 A 
ATOM     69  C   UNL A   1      39.057  34.056  37.944  1.00  0.00     0.010 A 
ATOM     70  C   UNL A   1      40.514  35.629  36.810  1.00  0.00     0.010 A 
ATOM     71  C   UNL A   1      38.813  35.000  38.944  1.00  0.00     0.020 A 
ATOM     72  C   UNL A   1      40.296  36.567  37.825  1.00  0.00     0.020 A 
ATOM     73  C   UNL A   1      39.437  36.249  38.880  1.00  0.00     0.054 A 
BRANCH  73  74
ATOM     74  S   UNL A   1      39.134  37.438  40.216  1.00  0.00     0.124 S 
ATOM     75  O   UNL A   1      40.476  37.965  40.461  1.00  0.00    -0.237 OA
ATOM     76  O   UNL A   1      38.195  38.374  39.604  1.00  0.00    -0.237 OA
ATOM     77  O   UNL A   1      38.583  36.618  41.292  1.00  0.00    -0.744 OA
ENDBRANCH  73  74
ENDBRANCH  54  68
BRANCH  55  78
ATOM     78  C   UNL A   1      41.529  27.833  29.455  1.00  0.00    -0.014 A 
ATOM     79  C   UNL A   1      42.507  28.112  28.485  1.00  0.00     0.010 A 
ATOM     80  C   UNL A   1      40.798  26.633  29.362  1.00  0.00     0.010 A 
ATOM     81  C   UNL A   1      42.727  27.225  27.425  1.00  0.00     0.020 A 
ATOM     82  C   UNL A   1      41.039  25.729  28.325  1.00  0.00     0.020 A 
ATOM     83  C   UNL A   1      41.992  26.039  27.353  1.00  0.00     0.054 A 
BRANCH  83  84
ATOM     84  S   UNL A   1      42.317  24.886  25.990  1.00  0.00     0.124 S 
ATOM     85  O   UNL A   1      42.256  25.765  24.828  1.00  0.00    -0.237 OA
ATOM     86  O   UNL A   1      43.641  24.368  26.326  1.00  0.00    -0.237 OA
ATOM     87  O   UNL A   1      41.232  23.914  26.100  1.00  0.00    -0.744 OA
ENDBRANCH  83  84
ENDBRANCH  55  78
BRANCH  67  88
ATOM     88  C   UNL A   1      44.416  28.836  35.719  1.00  0.00    -0.014 A 
ATOM     89  C   UNL A   1      44.143  27.750  36.570  1.00  0.00     0.010 A 
ATOM     90  C   UNL A   1      45.748  29.252  35.547  1.00  0.00     0.010 A 
ATOM     91  C   UNL A   1      45.175  27.135  37.284  1.00  0.00     0.020 A 
ATOM     92  C   UNL A   1      46.787  28.617  36.230  1.00  0.00     0.020 A 
ATOM     93  C   UNL A   1      46.490  27.578  37.115  1.00  0.00     0.054 A 
BRANCH  93  94
ATOM     94  S   UNL A   1      47.810  26.767  38.056  1.00  0.00     0.124 S 
ATOM     95  O   UNL A   1      47.627  25.365  37.690  1.00  0.00    -0.237 OA
ATOM     96  O   UNL A   1      49.016  27.402  37.529  1.00  0.00    -0.237 OA
ATOM     97  O   UNL A   1      47.499  27.094  39.445  1.00  0.00    -0.744 OA
ENDBRANCH  93  94
ENDBRANCH  67  88
ENDBRANCH  41  42
ENDBRANCH  33  36
ENDBRANCH  31  32
ENDBRANCH  30  31
ENDBRANCH   1  30
TORSDOF 20
ENDMDL
MODEL 2
REMARK VINA RESULT:     -10.2      5.977      8.750
REMARK SMILES C[N@@H+](C[C@H]1CCC[N@H+]1C)C[C@]([NH3+])(C(=O)NCCCCNC(=O)c1ccc(-c2c3nc(c(-c4ccc(S(=O)(=O)[O-])cc4)c4ccc([nH]4)c(-c4ccc(S(=O)(=O)[O-])cc4)c4nc(c(-c5ccc(S(=O)(=O)[O-])cc5)c5ccc2[nH]5)C=C4)C=C3)cc1)c1ccccc1
REMARK SMILES IDX 17 1 16 2 15 3 13 4 14 5 11 7 10 8 2 9 1 10 3 12 4 13 5 14
REMARK SMILES IDX 8 15 6 16 7 17 9 18 83 20 84 21 88 22 85 23 87 24 86 25
REMARK SMILES IDX 12 26 18 30 19 31 20 32 21 33 22 35 23 36 24 37 82 38 25 39
REMARK SMILES IDX 81 40 26 41 27 42 28 43 75 44 29 45 80 46 74 47 76 48 30 49
REMARK SMILES IDX 79 50 73 51 72 52 31 54 61 55 42 56 60 57 43 58 46 59 59 60
REMARK SMILES IDX 77 61 44 62 45 63 58 65 78 66 47 67 32 68 33 69 41 70 34 71
REMARK SMILES IDX 40 72 35 73 36 74 37 75 38 76 39 77 62 78 63 79 71 80 64 81
REMARK SMILES IDX 70 82 65 83 66 84 67 85 68 86 69 87 48 88 49 89 57 90 50 91
REMARK SMILES IDX 56 92 51 93 52 94 53 95 54 96 55 97
REMARK H PARENT 15 6 2 11 8 19 12 27 12 28 12 29 20 34 76 53 46 64
REMARK Flexibility Score: inf
ROOT
ATOM      1  C   UNL A   1      33.773  31.475  27.643  1.00  0.00     0.023 C 
ENDROOT
BRANCH   1   2
ATOM      2  C   UNL A   1      32.875  30.466  26.924  1.00  0.00     0.116 C 
BRANCH   2   3
ATOM      3  N   UNL A   1      33.462  29.887  25.721  1.00  0.00    -0.350 N 
ATOM      4  C   UNL A   1      33.138  28.786  24.955  1.00  0.00     0.292 C 
ATOM      5  O   UNL A   1      33.754  28.675  23.892  1.00  0.00    -0.267 OA
ATOM      6  H   UNL A   1      34.246  30.381  25.390  1.00  0.00     0.163 HD
BRANCH   4   7
ATOM      7  C   UNL A   1      32.082  27.719  25.460  1.00  0.00     0.248 C 
BRANCH   7   8
ATOM      8  C   UNL A   1      30.779  27.836  24.585  1.00  0.00     0.347 C 
BRANCH   8   9
ATOM      9  N   UNL A   1      30.841  28.276  23.186  1.00  0.00    -0.326 N 
ATOM     10  C   UNL A   1      31.011  27.248  22.183  1.00  0.00     0.333 C 
ATOM     11  H   UNL A   1      31.776  28.677  23.272  1.00  0.00     0.348 HD
BRANCH   9  12
ATOM     12  C   UNL A   1      30.266  29.551  22.765  1.00  0.00     0.327 C 
BRANCH  12  13
ATOM     13  C   UNL A   1      29.153  30.306  23.602  1.00  0.00     0.239 C 
ATOM     14  C   UNL A   1      29.100  31.838  23.487  1.00  0.00     0.077 C 
ATOM     15  N   UNL A   1      27.785  30.147  23.053  1.00  0.00    -0.330 N 
ATOM     16  C   UNL A   1      28.620  32.091  22.066  1.00  0.00     0.068 C 
ATOM     17  C   UNL A   1      27.733  30.882  21.787  1.00  0.00     0.262 C 
ATOM     18  C   UNL A   1      27.227  28.819  23.030  1.00  0.00     0.333 C 
ATOM     19  H   UNL A   1      27.129  30.557  23.718  1.00  0.00     0.348 HD
ENDBRANCH  12  13
ENDBRANCH   9  12
ENDBRANCH   8   9
ENDBRANCH   7   8
BRANCH   7  20
ATOM     20  C   UNL A   1      32.568  26.247  25.373  1.00  0.00     0.028 A 
ATOM     21  C   UNL A   1      33.890  25.893  25.724  1.00  0.00     0.011 A 
ATOM     22  C   UNL A   1      31.664  25.194  25.153  1.00  0.00     0.011 A 
ATOM     23  C   UNL A   1      34.268  24.564  25.927  1.00  0.00     0.001 A 
ATOM     24  C   UNL A   1      32.046  23.861  25.341  1.00  0.00     0.001 A 
ATOM     25  C   UNL A   1      33.340  23.548  25.751  1.00  0.00     0.000 A 
ENDBRANCH   7  20
BRANCH   7  26
ATOM     26  N   UNL A   1      31.830  28.071  26.868  1.00  0.00    -0.336 N 
ATOM     27  H   UNL A   1      30.949  28.579  26.939  1.00  0.00     0.345 HD
ATOM     28  H   UNL A   1      32.589  28.657  27.212  1.00  0.00     0.345 HD
ATOM     29  H   UNL A   1      31.777  27.219  27.427  1.00  0.00     0.345 HD
ENDBRANCH   7  26
ENDBRANCH   4   7
ENDBRANCH   2   3
ENDBRANCH   1   2
BRANCH   1  30
ATOM     30  C   UNL A   1      35.249  31.096  27.718  1.00  0.00     0.023 C 
BRANCH  30  31
ATOM     31  C   UNL A   1      36.002  31.684  28.903  1.00  0.00     0.116 C 
BRANCH  31  32
ATOM     32  N   UNL A   1      35.823  30.924  30.129  1.00  0.00    -0.352 N 
ATOM     33  C   UNL A   1      36.689  30.032  30.718  1.00  0.00     0.251 C 
ATOM     34  H   UNL A   1      34.970  31.064  30.599  1.00  0.00     0.163 HD
ATOM     35  O   UNL A   1      36.328  29.384  31.691  1.00  0.00    -0.269 OA
BRANCH  33  36
ATOM     36  C   UNL A   1      38.038  29.838  30.142  1.00  0.00     0.039 A 
ATOM     37  C   UNL A   1      39.133  29.818  31.005  1.00  0.00     0.014 A 
ATOM     38  C   UNL A   1      38.219  29.649  28.769  1.00  0.00     0.014 A 
ATOM     39  C   UNL A   1      40.404  29.552  30.495  1.00  0.00     0.010 A 
ATOM     40  C   UNL A   1      39.474  29.301  28.276  1.00  0.00     0.010 A 
ATOM     41  C   UNL A   1      40.580  29.254  29.133  1.00  0.00    -0.014 A 
BRANCH  41  42
ATOM     42  C   UNL A   1      41.921  28.877  28.615  1.00  0.00     0.031 A 
ATOM     43  C   UNL A   1      43.017  29.902  28.501  1.00  0.00     0.074 A 
ATOM     44  C   UNL A   1      42.142  27.603  28.235  1.00  0.00     0.049 A 
ATOM     45  N   UNL A   1      44.259  29.736  28.127  1.00  0.00    -0.248 NA
ATOM     46  C   UNL A   1      42.672  31.295  28.827  1.00  0.00     0.031 C 
ATOM     47  C   UNL A   1      41.139  26.534  28.233  1.00  0.00     0.029 A 
ATOM     48  N   UNL A   1      43.283  26.985  27.790  1.00  0.00    -0.354 N 
ATOM     49  C   UNL A   1      44.845  30.996  28.182  1.00  0.00     0.074 A 
ATOM     50  C   UNL A   1      43.805  31.927  28.556  1.00  0.00     0.031 C 
ATOM     51  C   UNL A   1      41.719  25.385  27.851  1.00  0.00     0.029 A 
ATOM     52  C   UNL A   1      43.123  25.641  27.546  1.00  0.00     0.049 A 
ATOM     53  H   UNL A   1      44.136  27.459  27.656  1.00  0.00     0.167 HD
ATOM     54  C   UNL A   1      46.137  31.342  27.971  1.00  0.00     0.031 A 
ATOM     55  C   UNL A   1      44.007  24.714  27.131  1.00  0.00     0.031 A 
ATOM     56  C   UNL A   1      47.168  30.411  27.592  1.00  0.00     0.049 A 
ATOM     57  C   UNL A   1      45.436  25.124  26.904  1.00  0.00     0.074 A 
ATOM     58  C   UNL A   1      48.516  30.656  27.388  1.00  0.00     0.029 A 
ATOM     59  N   UNL A   1      46.968  29.059  27.357  1.00  0.00    -0.354 N 
ATOM     60  N   UNL A   1      45.985  26.309  27.037  1.00  0.00    -0.248 NA
ATOM     61  C   UNL A   1      46.370  24.068  26.494  1.00  0.00     0.031 C 
ATOM     62  C   UNL A   1      49.120  29.461  26.980  1.00  0.00     0.029 A 
ATOM     63  C   UNL A   1      48.162  28.459  26.992  1.00  0.00     0.049 A 
ATOM     64  H   UNL A   1      46.105  28.593  27.440  1.00  0.00     0.167 HD
ATOM     65  C   UNL A   1      47.333  26.136  26.741  1.00  0.00     0.074 A 
ATOM     66  C   UNL A   1      47.519  24.726  26.461  1.00  0.00     0.031 C 
ATOM     67  C   UNL A   1      48.327  27.058  26.699  1.00  0.00     0.031 A 
BRANCH  54  68
ATOM     68  C   UNL A   1      46.510  32.790  28.161  1.00  0.00    -0.014 A 
ATOM     69  C   UNL A   1      46.438  33.699  27.088  1.00  0.00     0.010 A 
ATOM     70  C   UNL A   1      46.882  33.263  29.432  1.00  0.00     0.010 A 
ATOM     71  C   UNL A   1      46.763  35.045  27.275  1.00  0.00     0.020 A 
ATOM     72  C   UNL A   1      47.179  34.616  29.630  1.00  0.00     0.020 A 
ATOM     73  C   UNL A   1      47.129  35.495  28.547  1.00  0.00     0.054 A 
BRANCH  73  74
ATOM     74  S   UNL A   1      47.503  37.257  28.766  1.00  0.00     0.124 S 
ATOM     75  O   UNL A   1      48.002  37.626  27.443  1.00  0.00    -0.237 OA
ATOM     76  O   UNL A   1      46.202  37.817  29.124  1.00  0.00    -0.237 OA
ATOM     77  O   UNL A   1      48.500  37.270  29.834  1.00  0.00    -0.744 OA
ENDBRANCH  73  74
ENDBRANCH  54  68
BRANCH  55  78
ATOM     78  C   UNL A   1      43.567  23.308  26.909  1.00  0.00    -0.014 A 
ATOM     79  C   UNL A   1      43.225  22.477  27.990  1.00  0.00     0.010 A 
ATOM     80  C   UNL A   1      43.488  22.794  25.601  1.00  0.00     0.010 A 
ATOM     81  C   UNL A   1      42.846  21.149  27.771  1.00  0.00     0.020 A 
ATOM     82  C   UNL A   1      43.076  21.478  25.375  1.00  0.00     0.020 A 
ATOM     83  C   UNL A   1      42.773  20.658  26.464  1.00  0.00     0.054 A 
BRANCH  83  84
ATOM     84  S   UNL A   1      42.244  18.943  26.198  1.00  0.00     0.124 S 
ATOM     85  O   UNL A   1      40.873  19.118  25.732  1.00  0.00    -0.237 OA
ATOM     86  O   UNL A   1      43.199  18.470  25.200  1.00  0.00    -0.237 OA
ATOM     87  O   UNL A   1      42.385  18.335  27.520  1.00  0.00    -0.744 OA
ENDBRANCH  83  84
ENDBRANCH  55  78
BRANCH  67  88
ATOM     88  C   UNL A   1      49.706  26.560  26.350  1.00  0.00    -0.014 A 
ATOM     89  C   UNL A   1      50.571  26.055  27.338  1.00  0.00     0.010 A 
ATOM     90  C   UNL A   1      50.142  26.597  25.014  1.00  0.00     0.010 A 
ATOM     91  C   UNL A   1      51.867  25.653  27.004  1.00  0.00     0.020 A 
ATOM     92  C   UNL A   1      51.424  26.163  24.670  1.00  0.00     0.020 A 
ATOM     93  C   UNL A   1      52.287  25.717  25.673  1.00  0.00     0.054 A 
BRANCH  93  94
ATOM     94  S   UNL A   1      53.975  25.195  25.266  1.00  0.00     0.124 S 
ATOM     95  O   UNL A   1      54.314  26.095  24.167  1.00  0.00    -0.237 OA
ATOM     96  O   UNL A   1      54.694  25.431  26.516  1.00  0.00    -0.237 OA
ATOM     97  O   UNL A   1      53.825  23.790  24.898  1.00  0.00    -0.744 OA
ENDBRANCH  93  94
ENDBRANCH  67  88
ENDBRANCH  41  42
ENDBRANCH  33  36
ENDBRANCH  31  32
ENDBRANCH  30  31
ENDBRANCH   1  30
TORSDOF 20
ENDMDL
MODEL 3
REMARK VINA RESULT:     -10.0      2.360      3.396
REMARK SMILES C[N@@H+](C[C@H]1CCC[N@H+]1C)C[C@]([NH3+])(C(=O)NCCCCNC(=O)c1ccc(-c2c3nc(c(-c4ccc(S(=O)(=O)[O-])cc4)c4ccc([nH]4)c(-c4ccc(S(=O)(=O)[O-])cc4)c4nc(c(-c5ccc(S(=O)(=O)[O-])cc5)c5ccc2[nH]5)C=C4)C=C3)cc1)c1ccccc1
REMARK SMILES IDX 17 1 16 2 15 3 13 4 14 5 11 7 10 8 2 9 1 10 3 12 4 13 5 14
REMARK SMILES IDX 8 15 6 16 7 17 9 18 83 20 84 21 88 22 85 23 87 24 86 25
REMARK SMILES IDX 12 26 18 30 19 31 20 32 21 33 22 35 23 36 24 37 82 38 25 39
REMARK SMILES IDX 81 40 26 41 27 42 28 43 75 44 29 45 80 46 74 47 76 48 30 49
REMARK SMILES IDX 79 50 73 51 72 52 31 54 61 55 42 56 60 57 43 58 46 59 59 60
REMARK SMILES IDX 77 61 44 62 45 63 58 65 78 66 47 67 32 68 33 69 41 70 34 71
REMARK SMILES IDX 40 72 35 73 36 74 37 75 38 76 39 77 62 78 63 79 71 80 64 81
REMARK SMILES IDX 70 82 65 83 66 84 67 85 68 86 69 87 48 88 49 89 57 90 50 91
REMARK SMILES IDX 56 92 51 93 52 94 53 95 54 96 55 97
REMARK H PARENT 15 6 2 11 8 19 12 27 12 28 12 29 20 34 76 53 46 64
REMARK Flexibility Score: inf
ROOT
ATOM      1  C   UNL A   1      32.084  28.120  27.609  1.00  0.00     0.023 C 
ENDROOT
BRANCH   1   2
ATOM      2  C   UNL A   1      31.062  27.736  26.537  1.00  0.00     0.116 C 
BRANCH   2   3
ATOM      3  N   UNL A   1      30.678  26.329  26.547  1.00  0.00    -0.350 N 
ATOM      4  C   UNL A   1      30.697  25.344  25.580  1.00  0.00     0.292 C 
ATOM      5  O   UNL A   1      30.453  24.202  25.977  1.00  0.00    -0.267 OA
ATOM      6  H   UNL A   1      30.336  26.020  27.417  1.00  0.00     0.163 HD
BRANCH   4   7
ATOM      7  C   UNL A   1      30.961  25.695  24.058  1.00  0.00     0.248 C 
BRANCH   7   8
ATOM      8  C   UNL A   1      30.845  24.379  23.203  1.00  0.00     0.347 C 
BRANCH   8   9
ATOM      9  N   UNL A   1      32.018  23.538  22.941  1.00  0.00    -0.326 N 
ATOM     10  C   UNL A   1      32.902  23.960  21.876  1.00  0.00     0.333 C 
ATOM     11  H   UNL A   1      31.479  22.783  22.514  1.00  0.00     0.348 HD
BRANCH   9  12
ATOM     12  C   UNL A   1      32.562  22.652  23.967  1.00  0.00     0.327 C 
BRANCH  12  13
ATOM     13  C   UNL A   1      34.050  22.110  23.929  1.00  0.00     0.239 C 
ATOM     14  C   UNL A   1      35.148  23.020  24.504  1.00  0.00     0.077 C 
ATOM     15  N   UNL A   1      34.320  21.041  24.920  1.00  0.00    -0.330 N 
ATOM     16  C   UNL A   1      34.879  23.033  26.001  1.00  0.00     0.068 C 
ATOM     17  C   UNL A   1      34.277  21.653  26.249  1.00  0.00     0.262 C 
ATOM     18  C   UNL A   1      33.597  19.803  24.775  1.00  0.00     0.333 C 
ATOM     19  H   UNL A   1      35.255  20.673  24.738  1.00  0.00     0.348 HD
ENDBRANCH  12  13
ENDBRANCH   9  12
ENDBRANCH   8   9
ENDBRANCH   7   8
BRANCH   7  20
ATOM     20  C   UNL A   1      29.970  26.727  23.458  1.00  0.00     0.028 A 
ATOM     21  C   UNL A   1      28.600  26.712  23.805  1.00  0.00     0.011 A 
ATOM     22  C   UNL A   1      30.429  27.836  22.725  1.00  0.00     0.011 A 
ATOM     23  C   UNL A   1      27.753  27.782  23.511  1.00  0.00     0.001 A 
ATOM     24  C   UNL A   1      29.577  28.902  22.417  1.00  0.00     0.001 A 
ATOM     25  C   UNL A   1      28.247  28.886  22.830  1.00  0.00     0.000 A 
ENDBRANCH   7  20
BRANCH   7  26
ATOM     26  N   UNL A   1      32.326  26.249  24.028  1.00  0.00    -0.336 N 
ATOM     27  H   UNL A   1      32.512  26.743  24.900  1.00  0.00     0.345 HD
ATOM     28  H   UNL A   1      32.412  26.897  23.245  1.00  0.00     0.345 HD
ATOM     29  H   UNL A   1      32.998  25.491  23.917  1.00  0.00     0.345 HD
ENDBRANCH   7  26
ENDBRANCH   4   7
ENDBRANCH   2   3
ENDBRANCH   1   2
BRANCH   1  30
ATOM     30  C   UNL A   1      33.543  28.087  27.160  1.00  0.00     0.023 C 
BRANCH  30  31
ATOM     31  C   UNL A   1      33.938  29.186  26.184  1.00  0.00     0.116 C 
BRANCH  31  32
ATOM     32  N   UNL A   1      33.649  30.522  26.680  1.00  0.00    -0.352 N 
ATOM     33  C   UNL A   1      34.328  31.247  27.632  1.00  0.00     0.251 C 
ATOM     34  H   UNL A   1      32.866  30.965  26.283  1.00  0.00     0.163 HD
ATOM     35  O   UNL A   1      33.876  32.315  28.020  1.00  0.00    -0.269 OA
BRANCH  33  36
ATOM     36  C   UNL A   1      35.580  30.706  28.205  1.00  0.00     0.039 A 
ATOM     37  C   UNL A   1      36.793  31.250  27.786  1.00  0.00     0.014 A 
ATOM     38  C   UNL A   1      35.557  29.691  29.167  1.00  0.00     0.014 A 
ATOM     39  C   UNL A   1      37.981  30.814  28.374  1.00  0.00     0.010 A 
ATOM     40  C   UNL A   1      36.734  29.320  29.811  1.00  0.00     0.010 A 
ATOM     41  C   UNL A   1      37.959  29.873  29.418  1.00  0.00    -0.014 A 
BRANCH  41  42
ATOM     42  C   UNL A   1      39.217  29.486  30.105  1.00  0.00     0.031 A 
ATOM     43  C   UNL A   1      39.658  30.191  31.359  1.00  0.00     0.074 A 
ATOM     44  C   UNL A   1      39.971  28.497  29.582  1.00  0.00     0.049 A 
ATOM     45  N   UNL A   1      40.695  29.944  32.118  1.00  0.00    -0.248 NA
ATOM     46  C   UNL A   1      38.847  31.333  31.809  1.00  0.00     0.031 C 
ATOM     47  C   UNL A   1      39.685  27.784  28.334  1.00  0.00     0.029 A 
ATOM     48  N   UNL A   1      41.123  27.910  30.040  1.00  0.00    -0.354 N 
ATOM     49  C   UNL A   1      40.654  30.889  33.137  1.00  0.00     0.074 A 
ATOM     50  C   UNL A   1      39.534  31.759  32.860  1.00  0.00     0.031 C 
ATOM     51  C   UNL A   1      40.609  26.829  28.150  1.00  0.00     0.029 A 
ATOM     52  C   UNL A   1      41.573  26.883  29.244  1.00  0.00     0.049 A 
ATOM     53  H   UNL A   1      41.585  28.198  30.861  1.00  0.00     0.167 HD
ATOM     54  C   UNL A   1      41.458  31.005  34.221  1.00  0.00     0.031 A 
ATOM     55  C   UNL A   1      42.637  26.069  29.380  1.00  0.00     0.031 A 
ATOM     56  C   UNL A   1      42.578  30.140  34.488  1.00  0.00     0.049 A 
ATOM     57  C   UNL A   1      43.513  26.218  30.594  1.00  0.00     0.074 A 
ATOM     58  C   UNL A   1      43.433  30.151  35.577  1.00  0.00     0.029 A 
ATOM     59  N   UNL A   1      43.000  29.110  33.661  1.00  0.00    -0.354 N 
ATOM     60  N   UNL A   1      43.411  27.071  31.586  1.00  0.00    -0.248 NA
ATOM     61  C   UNL A   1      44.635  25.278  30.717  1.00  0.00     0.031 C 
ATOM     62  C   UNL A   1      44.403  29.162  35.381  1.00  0.00     0.029 A 
ATOM     63  C   UNL A   1      44.115  28.492  34.203  1.00  0.00     0.049 A 
ATOM     64  H   UNL A   1      42.569  28.855  32.813  1.00  0.00     0.167 HD
ATOM     65  C   UNL A   1      44.448  26.760  32.459  1.00  0.00     0.074 A 
ATOM     66  C   UNL A   1      45.137  25.617  31.895  1.00  0.00     0.031 C 
ATOM     67  C   UNL A   1      44.801  27.367  33.620  1.00  0.00     0.031 A 
BRANCH  54  68
ATOM     68  C   UNL A   1      41.144  32.100  35.207  1.00  0.00    -0.014 A 
ATOM     69  C   UNL A   1      41.775  33.355  35.116  1.00  0.00     0.010 A 
ATOM     70  C   UNL A   1      40.169  31.898  36.201  1.00  0.00     0.010 A 
ATOM     71  C   UNL A   1      41.463  34.374  36.019  1.00  0.00     0.020 A 
ATOM     72  C   UNL A   1      39.832  32.925  37.088  1.00  0.00     0.020 A 
ATOM     73  C   UNL A   1      40.491  34.153  36.998  1.00  0.00     0.054 A 
BRANCH  73  74
ATOM     74  S   UNL A   1      40.077  35.510  38.128  1.00  0.00     0.124 S 
ATOM     75  O   UNL A   1      39.012  34.917  38.935  1.00  0.00    -0.237 OA
ATOM     76  O   UNL A   1      41.339  35.740  38.827  1.00  0.00    -0.237 OA
ATOM     77  O   UNL A   1      39.655  36.588  37.237  1.00  0.00    -0.744 OA
ENDBRANCH  73  74
ENDBRANCH  54  68
BRANCH  55  78
ATOM     78  C   UNL A   1      42.927  25.040  28.344  1.00  0.00    -0.014 A 
ATOM     79  C   UNL A   1      42.476  23.716  28.491  1.00  0.00     0.010 A 
ATOM     80  C   UNL A   1      43.664  25.385  27.196  1.00  0.00     0.010 A 
ATOM     81  C   UNL A   1      42.784  22.751  27.527  1.00  0.00     0.020 A 
ATOM     82  C   UNL A   1      43.945  24.432  26.214  1.00  0.00     0.020 A 
ATOM     83  C   UNL A   1      43.517  23.116  26.394  1.00  0.00     0.054 A 
BRANCH  83  84
ATOM     84  S   UNL A   1      43.876  21.857  25.138  1.00  0.00     0.124 S 
ATOM     85  O   UNL A   1      45.236  21.461  25.484  1.00  0.00    -0.237 OA
ATOM     86  O   UNL A   1      42.841  20.857  25.389  1.00  0.00    -0.237 OA
ATOM     87  O   UNL A   1      43.735  22.584  23.877  1.00  0.00    -0.744 OA
ENDBRANCH  83  84
ENDBRANCH  55  78
BRANCH  67  88
ATOM     88  C   UNL A   1      45.980  26.790  34.360  1.00  0.00    -0.014 A 
ATOM     89  C   UNL A   1      47.288  27.250  34.122  1.00  0.00     0.010 A 
ATOM     90  C   UNL A   1      45.775  25.774  35.311  1.00  0.00     0.010 A 
ATOM     91  C   UNL A   1      48.374  26.662  34.775  1.00  0.00     0.020 A 
ATOM     92  C   UNL A   1      46.855  25.208  35.993  1.00  0.00     0.020 A 
ATOM     93  C   UNL A   1      48.150  25.639  35.701  1.00  0.00     0.054 A 
BRANCH  93  94
ATOM     94  S   UNL A   1      49.576  24.889  36.532  1.00  0.00     0.124 S 
ATOM     95  O   UNL A   1      48.971  24.352  37.748  1.00  0.00    -0.237 OA
ATOM     96  O   UNL A   1      50.026  23.893  35.561  1.00  0.00    -0.237 OA
ATOM     97  O   UNL A   1      50.491  26.010  36.733  1.00  0.00    -0.744 OA
ENDBRANCH  93  94
ENDBRANCH  67  88
ENDBRANCH  41  42
ENDBRANCH  33  36
ENDBRANCH  31  32
ENDBRANCH  30  31
ENDBRANCH   1  30
TORSDOF 20
ENDMDL
