MODEL 1
REMARK VINA RESULT:     -11.5      0.000      0.000
REMARK SMILES O=C(NCCCCNC(=O)c1ccc(-c2c3nc(c(-c4ccc(S(=O)(=O)[O-])cc4)c4ccc([nH]4)c(-c4ccc(S(=O)(=O)[O-])cc4)c4nc(c(-c5ccc(S(=O)(=O)[O-])cc5)c5ccc2[nH]5)C=C4)C=C3)cc1)C1=Cc2cc(Cl)c(Cl)cc2O[C@@H]1C(F)(F)F
REMARK SMILES IDX 6 1 5 2 4 3 3 4 1 5 2 6 71 8 72 9 82 10 73 11 81 12 74 13
REMARK SMILES IDX 80 14 75 15 79 16 76 17 77 18 78 19 83 20 84 21 85 22 86 23
REMARK SMILES IDX 7 24 8 25 9 26 10 28 11 29 12 30 70 31 13 32 69 33 14 34
REMARK SMILES IDX 15 35 16 36 63 37 17 38 68 39 62 40 64 41 18 42 67 43 61 44
REMARK SMILES IDX 60 45 19 47 49 48 30 49 48 50 31 51 34 52 47 53 65 54 32 55
REMARK SMILES IDX 33 56 46 58 66 59 35 60 20 61 21 62 29 63 22 64 28 65 23 66
REMARK SMILES IDX 24 67 25 68 26 69 27 70 50 71 51 72 59 73 52 74 58 75 53 76
REMARK SMILES IDX 54 77 55 78 56 79 57 80 36 81 37 82 45 83 38 84 44 85 39 86
REMARK SMILES IDX 40 87 41 88 42 89 43 90
REMARK H PARENT 3 7 8 27 64 46 34 57
REMARK Flexibility Score: inf
ROOT
ATOM      1  C   UNL A   1      32.264  28.582  26.321  1.00  0.00     0.023 C 
ENDROOT
BRANCH   1   2
ATOM      2  C   UNL A   1      31.211  27.714  26.997  1.00  0.00     0.023 C 
BRANCH   2   3
ATOM      3  C   UNL A   1      30.724  26.509  26.199  1.00  0.00     0.116 C 
BRANCH   3   4
ATOM      4  N   UNL A   1      31.110  25.212  26.736  1.00  0.00    -0.352 N 
ATOM      5  O   UNL A   1      32.444  23.448  27.148  1.00  0.00    -0.270 OA
ATOM      6  C   UNL A   1      32.201  24.433  26.454  1.00  0.00     0.251 C 
ATOM      7  H   UNL A   1      30.493  24.838  27.406  1.00  0.00     0.163 HD
BRANCH   6   8
ATOM      8  C   UNL A   1      33.173  24.794  25.380  1.00  0.00     0.067 C 
ATOM      9  C   UNL A   1      34.452  25.070  25.680  1.00  0.00     0.025 C 
ATOM     10  C   UNL A   1      32.837  24.183  24.039  1.00  0.00     0.314 C 
ATOM     11  C   UNL A   1      35.399  24.070  25.155  1.00  0.00     0.019 A 
ATOM     12  O   UNL A   1      33.705  23.064  23.713  1.00  0.00    -0.475 OA
ATOM     13  C   UNL A   1      36.647  23.950  25.779  1.00  0.00     0.034 A 
ATOM     14  C   UNL A   1      34.947  23.060  24.295  1.00  0.00     0.129 A 
ATOM     15  C   UNL A   1      37.400  22.786  25.608  1.00  0.00     0.060 A 
ATOM     16  C   UNL A   1      35.716  21.917  24.095  1.00  0.00     0.069 A 
ATOM     17  Cl  UNL A   1      38.850  22.636  26.534  1.00  0.00    -0.083 Cl
ATOM     18  C   UNL A   1      36.929  21.764  24.775  1.00  0.00     0.063 A 
ATOM     19  Cl  UNL A   1      37.760  20.262  24.595  1.00  0.00    -0.083 Cl
BRANCH  10  20
ATOM     20  C   UNL A   1      32.860  25.245  22.925  1.00  0.00     0.429 C 
ATOM     21  F   UNL A   1      34.100  25.385  22.399  1.00  0.00    -0.167 F 
ATOM     22  F   UNL A   1      32.033  24.919  21.901  1.00  0.00    -0.167 F 
ATOM     23  F   UNL A   1      32.475  26.467  23.369  1.00  0.00    -0.167 F 
ENDBRANCH  10  20
ENDBRANCH   6   8
ENDBRANCH   3   4
ENDBRANCH   2   3
ENDBRANCH   1   2
BRANCH   1  24
ATOM     24  C   UNL A   1      33.536  28.867  27.120  1.00  0.00     0.116 C 
BRANCH  24  25
ATOM     25  N   UNL A   1      33.614  30.203  27.698  1.00  0.00    -0.352 N 
ATOM     26  C   UNL A   1      34.673  30.833  28.313  1.00  0.00     0.251 C 
ATOM     27  H   UNL A   1      32.787  30.733  27.639  1.00  0.00     0.163 HD
ATOM     28  O   UNL A   1      34.523  31.961  28.776  1.00  0.00    -0.269 OA
BRANCH  26  29
ATOM     29  C   UNL A   1      35.969  30.133  28.477  1.00  0.00     0.039 A 
ATOM     30  C   UNL A   1      36.882  30.162  27.419  1.00  0.00     0.014 A 
ATOM     31  C   UNL A   1      36.313  29.506  29.676  1.00  0.00     0.014 A 
ATOM     32  C   UNL A   1      38.174  29.666  27.606  1.00  0.00     0.010 A 
ATOM     33  C   UNL A   1      37.627  29.093  29.890  1.00  0.00     0.010 A 
ATOM     34  C   UNL A   1      38.578  29.187  28.864  1.00  0.00    -0.014 A 
BRANCH  34  35
ATOM     35  C   UNL A   1      40.003  28.850  29.123  1.00  0.00     0.031 A 
ATOM     36  C   UNL A   1      40.924  29.831  29.796  1.00  0.00     0.074 A 
ATOM     37  C   UNL A   1      40.484  27.663  28.698  1.00  0.00     0.049 A 
ATOM     38  N   UNL A   1      42.177  29.675  30.146  1.00  0.00    -0.248 NA
ATOM     39  C   UNL A   1      40.381  31.166  30.087  1.00  0.00     0.031 C 
ATOM     40  C   UNL A   1      39.718  26.653  27.960  1.00  0.00     0.029 A 
ATOM     41  N   UNL A   1      41.726  27.096  28.835  1.00  0.00    -0.354 N 
ATOM     42  C   UNL A   1      42.575  30.894  30.684  1.00  0.00     0.074 A 
ATOM     43  C   UNL A   1      41.446  31.793  30.567  1.00  0.00     0.031 C 
ATOM     44  C   UNL A   1      40.488  25.572  27.763  1.00  0.00     0.029 A 
ATOM     45  C   UNL A   1      41.808  25.819  28.333  1.00  0.00     0.049 A 
ATOM     46  H   UNL A   1      42.488  27.561  29.252  1.00  0.00     0.167 HD
ATOM     47  C   UNL A   1      43.762  31.230  31.243  1.00  0.00     0.031 A 
ATOM     48  C   UNL A   1      42.822  24.932  28.349  1.00  0.00     0.031 A 
ATOM     49  C   UNL A   1      44.878  30.331  31.370  1.00  0.00     0.049 A 
ATOM     50  C   UNL A   1      44.114  25.310  29.016  1.00  0.00     0.074 A 
ATOM     51  C   UNL A   1      46.098  30.550  31.990  1.00  0.00     0.029 A 
ATOM     52  N   UNL A   1      44.916  29.040  30.864  1.00  0.00    -0.354 N 
ATOM     53  N   UNL A   1      44.438  26.435  29.605  1.00  0.00    -0.248 NA
ATOM     54  C   UNL A   1      45.169  24.288  29.037  1.00  0.00     0.031 C 
ATOM     55  C   UNL A   1      46.888  29.406  31.821  1.00  0.00     0.029 A 
ATOM     56  C   UNL A   1      46.143  28.458  31.139  1.00  0.00     0.049 A 
ATOM     57  H   UNL A   1      44.179  28.602  30.380  1.00  0.00     0.167 HD
ATOM     58  C   UNL A   1      45.727  26.249  30.090  1.00  0.00     0.074 A 
ATOM     59  C   UNL A   1      46.114  24.896  29.739  1.00  0.00     0.031 C 
ATOM     60  C   UNL A   1      46.519  27.117  30.768  1.00  0.00     0.031 A 
BRANCH  47  61
ATOM     61  C   UNL A   1      43.909  32.640  31.753  1.00  0.00    -0.014 A 
ATOM     62  C   UNL A   1      43.568  32.974  33.077  1.00  0.00     0.010 A 
ATOM     63  C   UNL A   1      44.405  33.643  30.902  1.00  0.00     0.010 A 
ATOM     64  C   UNL A   1      43.666  34.295  33.523  1.00  0.00     0.020 A 
ATOM     65  C   UNL A   1      44.530  34.962  31.352  1.00  0.00     0.020 A 
ATOM     66  C   UNL A   1      44.136  35.283  32.653  1.00  0.00     0.054 A 
BRANCH  66  67
ATOM     67  S   UNL A   1      44.249  36.991  33.253  1.00  0.00     0.124 S 
ATOM     68  O   UNL A   1      45.655  37.077  33.645  1.00  0.00    -0.237 OA
ATOM     69  O   UNL A   1      43.877  37.772  32.076  1.00  0.00    -0.237 OA
ATOM     70  O   UNL A   1      43.291  37.036  34.354  1.00  0.00    -0.744 OA
ENDBRANCH  66  67
ENDBRANCH  47  61
BRANCH  48  71
ATOM     71  C   UNL A   1      42.629  23.573  27.773  1.00  0.00    -0.014 A 
ATOM     72  C   UNL A   1      43.054  23.293  26.463  1.00  0.00     0.010 A 
ATOM     73  C   UNL A   1      42.043  22.548  28.536  1.00  0.00     0.010 A 
ATOM     74  C   UNL A   1      42.885  22.017  25.919  1.00  0.00     0.020 A 
ATOM     75  C   UNL A   1      41.893  21.263  28.005  1.00  0.00     0.020 A 
ATOM     76  C   UNL A   1      42.308  21.009  26.694  1.00  0.00     0.054 A 
BRANCH  76  77
ATOM     77  S   UNL A   1      42.157  19.342  25.992  1.00  0.00     0.124 S 
ATOM     78  O   UNL A   1      42.979  19.444  24.791  1.00  0.00    -0.237 OA
ATOM     79  O   UNL A   1      42.694  18.500  27.059  1.00  0.00    -0.237 OA
ATOM     80  O   UNL A   1      40.721  19.199  25.761  1.00  0.00    -0.744 OA
ENDBRANCH  76  77
ENDBRANCH  48  71
BRANCH  60  81
ATOM     81  C   UNL A   1      47.873  26.614  31.190  1.00  0.00    -0.014 A 
ATOM     82  C   UNL A   1      48.990  26.729  30.342  1.00  0.00     0.010 A 
ATOM     83  C   UNL A   1      48.030  26.020  32.455  1.00  0.00     0.010 A 
ATOM     84  C   UNL A   1      50.227  26.207  30.730  1.00  0.00     0.020 A 
ATOM     85  C   UNL A   1      49.271  25.522  32.857  1.00  0.00     0.020 A 
ATOM     86  C   UNL A   1      50.356  25.596  31.981  1.00  0.00     0.054 A 
BRANCH  86  87
ATOM     87  S   UNL A   1      51.969  24.923  32.466  1.00  0.00     0.124 S 
ATOM     88  O   UNL A   1      52.865  25.567  31.510  1.00  0.00    -0.237 OA
ATOM     89  O   UNL A   1      52.103  25.367  33.852  1.00  0.00    -0.237 OA
ATOM     90  O   UNL A   1      51.805  23.481  32.294  1.00  0.00    -0.744 OA
ENDBRANCH  86  87
ENDBRANCH  60  81
ENDBRANCH  34  35
ENDBRANCH  26  29
ENDBRANCH  24  25
ENDBRANCH   1  24
TORSDOF 15
ENDMDL
MODEL 2
REMARK VINA RESULT:     -11.4      4.856     10.296
REMARK SMILES O=C(NCCCCNC(=O)c1ccc(-c2c3nc(c(-c4ccc(S(=O)(=O)[O-])cc4)c4ccc([nH]4)c(-c4ccc(S(=O)(=O)[O-])cc4)c4nc(c(-c5ccc(S(=O)(=O)[O-])cc5)c5ccc2[nH]5)C=C4)C=C3)cc1)C1=Cc2cc(Cl)c(Cl)cc2O[C@@H]1C(F)(F)F
REMARK SMILES IDX 6 1 5 2 4 3 3 4 1 5 2 6 71 8 72 9 82 10 73 11 81 12 74 13
REMARK SMILES IDX 80 14 75 15 79 16 76 17 77 18 78 19 83 20 84 21 85 22 86 23
REMARK SMILES IDX 7 24 8 25 9 26 10 28 11 29 12 30 70 31 13 32 69 33 14 34
REMARK SMILES IDX 15 35 16 36 63 37 17 38 68 39 62 40 64 41 18 42 67 43 61 44
REMARK SMILES IDX 60 45 19 47 49 48 30 49 48 50 31 51 34 52 47 53 65 54 32 55
REMARK SMILES IDX 33 56 46 58 66 59 35 60 20 61 21 62 29 63 22 64 28 65 23 66
REMARK SMILES IDX 24 67 25 68 26 69 27 70 50 71 51 72 59 73 52 74 58 75 53 76
REMARK SMILES IDX 54 77 55 78 56 79 57 80 36 81 37 82 45 83 38 84 44 85 39 86
REMARK SMILES IDX 40 87 41 88 42 89 43 90
REMARK H PARENT 3 7 8 27 64 46 34 57
REMARK Flexibility Score: inf
ROOT
ATOM      1  C   UNL A   1      39.247  22.683  26.521  1.00  0.00     0.023 C 
ENDROOT
BRANCH   1   2
ATOM      2  C   UNL A   1      38.087  23.633  26.253  1.00  0.00     0.023 C 
BRANCH   2   3
ATOM      3  C   UNL A   1      36.827  23.003  25.670  1.00  0.00     0.116 C 
BRANCH   3   4
ATOM      4  N   UNL A   1      35.782  22.697  26.637  1.00  0.00    -0.352 N 
ATOM      5  O   UNL A   1      33.994  21.636  27.498  1.00  0.00    -0.270 OA
ATOM      6  C   UNL A   1      34.663  21.918  26.505  1.00  0.00     0.251 C 
ATOM      7  H   UNL A   1      35.899  23.112  27.523  1.00  0.00     0.163 HD
BRANCH   6   8
ATOM      8  C   UNL A   1      34.272  21.311  25.198  1.00  0.00     0.067 C 
ATOM      9  C   UNL A   1      34.989  20.307  24.669  1.00  0.00     0.025 C 
ATOM     10  C   UNL A   1      32.790  21.397  24.919  1.00  0.00     0.314 C 
ATOM     11  C   UNL A   1      34.253  19.031  24.622  1.00  0.00     0.019 A 
ATOM     12  O   UNL A   1      32.122  20.120  25.106  1.00  0.00    -0.475 OA
ATOM     13  C   UNL A   1      34.992  17.844  24.571  1.00  0.00     0.034 A 
ATOM     14  C   UNL A   1      32.891  18.996  24.954  1.00  0.00     0.129 A 
ATOM     15  C   UNL A   1      34.390  16.635  24.933  1.00  0.00     0.060 A 
ATOM     16  C   UNL A   1      32.284  17.785  25.277  1.00  0.00     0.069 A 
ATOM     17  Cl  UNL A   1      35.400  15.236  25.004  1.00  0.00    -0.083 Cl
ATOM     18  C   UNL A   1      33.039  16.608  25.297  1.00  0.00     0.063 A 
ATOM     19  Cl  UNL A   1      32.259  15.169  25.847  1.00  0.00    -0.083 Cl
BRANCH  10  20
ATOM     20  C   UNL A   1      32.523  21.960  23.511  1.00  0.00     0.429 C 
ATOM     21  F   UNL A   1      33.609  22.601  23.019  1.00  0.00    -0.167 F 
ATOM     22  F   UNL A   1      32.211  20.980  22.627  1.00  0.00    -0.167 F 
ATOM     23  F   UNL A   1      31.496  22.845  23.495  1.00  0.00    -0.167 F 
ENDBRANCH  10  20
ENDBRANCH   6   8
ENDBRANCH   3   4
ENDBRANCH   2   3
ENDBRANCH   1   2
BRANCH   1  24
ATOM     24  C   UNL A   1      40.610  23.321  26.792  1.00  0.00     0.116 C 
BRANCH  24  25
ATOM     25  N   UNL A   1      41.025  24.322  25.818  1.00  0.00    -0.352 N 
ATOM     26  C   UNL A   1      41.345  25.650  26.006  1.00  0.00     0.251 C 
ATOM     27  H   UNL A   1      41.086  24.003  24.889  1.00  0.00     0.163 HD
ATOM     28  O   UNL A   1      41.636  26.347  25.037  1.00  0.00    -0.269 OA
BRANCH  26  29
ATOM     29  C   UNL A   1      41.276  26.254  27.357  1.00  0.00     0.039 A 
ATOM     30  C   UNL A   1      42.292  27.131  27.749  1.00  0.00     0.014 A 
ATOM     31  C   UNL A   1      40.198  26.011  28.210  1.00  0.00     0.014 A 
ATOM     32  C   UNL A   1      42.164  27.849  28.940  1.00  0.00     0.010 A 
ATOM     33  C   UNL A   1      40.029  26.792  29.352  1.00  0.00     0.010 A 
ATOM     34  C   UNL A   1      41.001  27.734  29.720  1.00  0.00    -0.014 A 
BRANCH  34  35
ATOM     35  C   UNL A   1      40.771  28.644  30.874  1.00  0.00     0.031 A 
ATOM     36  C   UNL A   1      41.605  28.542  32.123  1.00  0.00     0.074 A 
ATOM     37  C   UNL A   1      39.762  29.537  30.814  1.00  0.00     0.049 A 
ATOM     38  N   UNL A   1      41.572  29.292  33.196  1.00  0.00    -0.248 NA
ATOM     39  C   UNL A   1      42.578  27.442  32.189  1.00  0.00     0.031 C 
ATOM     40  C   UNL A   1      38.826  29.685  29.694  1.00  0.00     0.029 A 
ATOM     41  N   UNL A   1      39.360  30.500  31.705  1.00  0.00    -0.354 N 
ATOM     42  C   UNL A   1      42.507  28.747  34.068  1.00  0.00     0.074 A 
ATOM     43  C   UNL A   1      43.053  27.575  33.419  1.00  0.00     0.031 C 
ATOM     44  C   UNL A   1      38.002  30.715  29.941  1.00  0.00     0.029 A 
ATOM     45  C   UNL A   1      38.328  31.283  31.244  1.00  0.00     0.049 A 
ATOM     46  H   UNL A   1      39.771  30.619  32.592  1.00  0.00     0.167 HD
ATOM     47  C   UNL A   1      42.893  29.192  35.289  1.00  0.00     0.031 A 
ATOM     48  C   UNL A   1      37.724  32.354  31.794  1.00  0.00     0.031 A 
ATOM     49  C   UNL A   1      42.358  30.366  35.927  1.00  0.00     0.049 A 
ATOM     50  C   UNL A   1      38.200  32.858  33.127  1.00  0.00     0.074 A 
ATOM     51  C   UNL A   1      42.736  30.944  37.127  1.00  0.00     0.029 A 
ATOM     52  N   UNL A   1      41.325  31.141  35.420  1.00  0.00    -0.354 N 
ATOM     53  N   UNL A   1      39.153  32.386  33.893  1.00  0.00    -0.248 NA
ATOM     54  C   UNL A   1      37.530  34.053  33.657  1.00  0.00     0.031 C 
ATOM     55  C   UNL A   1      41.903  32.044  37.366  1.00  0.00     0.029 A 
ATOM     56  C   UNL A   1      41.039  32.180  36.291  1.00  0.00     0.049 A 
ATOM     57  H   UNL A   1      40.863  30.977  34.566  1.00  0.00     0.167 HD
ATOM     58  C   UNL A   1      39.215  33.240  34.987  1.00  0.00     0.074 A 
ATOM     59  C   UNL A   1      38.215  34.268  34.771  1.00  0.00     0.031 C 
ATOM     60  C   UNL A   1      40.029  33.184  36.071  1.00  0.00     0.031 A 
BRANCH  47  61
ATOM     61  C   UNL A   1      43.944  28.392  36.013  1.00  0.00    -0.014 A 
ATOM     62  C   UNL A   1      45.313  28.680  35.857  1.00  0.00     0.010 A 
ATOM     63  C   UNL A   1      43.560  27.346  36.870  1.00  0.00     0.010 A 
ATOM     64  C   UNL A   1      46.279  27.900  36.499  1.00  0.00     0.020 A 
ATOM     65  C   UNL A   1      44.522  26.580  37.536  1.00  0.00     0.020 A 
ATOM     66  C   UNL A   1      45.877  26.848  37.326  1.00  0.00     0.054 A 
BRANCH  66  67
ATOM     67  S   UNL A   1      47.149  25.846  38.145  1.00  0.00     0.124 S 
ATOM     68  O   UNL A   1      46.830  24.505  37.660  1.00  0.00    -0.237 OA
ATOM     69  O   UNL A   1      48.391  26.420  37.632  1.00  0.00    -0.237 OA
ATOM     70  O   UNL A   1      46.904  26.070  39.567  1.00  0.00    -0.744 OA
ENDBRANCH  66  67
ENDBRANCH  47  61
BRANCH  48  71
ATOM     71  C   UNL A   1      36.649  33.065  31.048  1.00  0.00    -0.014 A 
ATOM     72  C   UNL A   1      35.305  32.918  31.435  1.00  0.00     0.010 A 
ATOM     73  C   UNL A   1      36.962  33.907  29.967  1.00  0.00     0.010 A 
ATOM     74  C   UNL A   1      34.292  33.589  30.746  1.00  0.00     0.020 A 
ATOM     75  C   UNL A   1      35.954  34.599  29.290  1.00  0.00     0.020 A 
ATOM     76  C   UNL A   1      34.622  34.428  29.679  1.00  0.00     0.054 A 
BRANCH  76  77
ATOM     77  S   UNL A   1      33.297  35.342  28.841  1.00  0.00     0.124 S 
ATOM     78  O   UNL A   1      34.051  36.249  27.983  1.00  0.00    -0.237 OA
ATOM     79  O   UNL A   1      32.566  34.280  28.154  1.00  0.00    -0.237 OA
ATOM     80  O   UNL A   1      32.571  35.974  29.941  1.00  0.00    -0.744 OA
ENDBRANCH  76  77
ENDBRANCH  48  71
BRANCH  60  81
ATOM     81  C   UNL A   1      39.880  34.280  37.091  1.00  0.00    -0.014 A 
ATOM     82  C   UNL A   1      39.050  34.119  38.217  1.00  0.00     0.010 A 
ATOM     83  C   UNL A   1      40.581  35.487  36.922  1.00  0.00     0.010 A 
ATOM     84  C   UNL A   1      38.882  35.168  39.124  1.00  0.00     0.020 A 
ATOM     85  C   UNL A   1      40.436  36.528  37.841  1.00  0.00     0.020 A 
ATOM     86  C   UNL A   1      39.568  36.370  38.924  1.00  0.00     0.054 A 
BRANCH  86  87
ATOM     87  S   UNL A   1      39.335  37.721  40.111  1.00  0.00     0.124 S 
ATOM     88  O   UNL A   1      38.167  38.406  39.564  1.00  0.00    -0.237 OA
ATOM     89  O   UNL A   1      39.115  37.013  41.371  1.00  0.00    -0.237 OA
ATOM     90  O   UNL A   1      40.589  38.467  40.035  1.00  0.00    -0.744 OA
ENDBRANCH  86  87
ENDBRANCH  60  81
ENDBRANCH  34  35
ENDBRANCH  26  29
ENDBRANCH  24  25
ENDBRANCH   1  24
TORSDOF 15
ENDMDL
MODEL 3
REMARK VINA RESULT:     -11.1      1.483      1.987
REMARK SMILES O=C(NCCCCNC(=O)c1ccc(-c2c3nc(c(-c4ccc(S(=O)(=O)[O-])cc4)c4ccc([nH]4)c(-c4ccc(S(=O)(=O)[O-])cc4)c4nc(c(-c5ccc(S(=O)(=O)[O-])cc5)c5ccc2[nH]5)C=C4)C=C3)cc1)C1=Cc2cc(Cl)c(Cl)cc2O[C@@H]1C(F)(F)F
REMARK SMILES IDX 6 1 5 2 4 3 3 4 1 5 2 6 71 8 72 9 82 10 73 11 81 12 74 13
REMARK SMILES IDX 80 14 75 15 79 16 76 17 77 18 78 19 83 20 84 21 85 22 86 23
REMARK SMILES IDX 7 24 8 25 9 26 10 28 11 29 12 30 70 31 13 32 69 33 14 34
REMARK SMILES IDX 15 35 16 36 63 37 17 38 68 39 62 40 64 41 18 42 67 43 61 44
REMARK SMILES IDX 60 45 19 47 49 48 30 49 48 50 31 51 34 52 47 53 65 54 32 55
REMARK SMILES IDX 33 56 46 58 66 59 35 60 20 61 21 62 29 63 22 64 28 65 23 66
REMARK SMILES IDX 24 67 25 68 26 69 27 70 50 71 51 72 59 73 52 74 58 75 53 76
REMARK SMILES IDX 54 77 55 78 56 79 57 80 36 81 37 82 45 83 38 84 44 85 39 86
REMARK SMILES IDX 40 87 41 88 42 89 43 90
REMARK H PARENT 3 7 8 27 64 46 34 57
REMARK Flexibility Score: inf
ROOT
ATOM      1  C   UNL A   1      32.197  28.689  26.477  1.00  0.00     0.023 C 
ENDROOT
BRANCH   1   2
ATOM      2  C   UNL A   1      31.397  27.500  26.991  1.00  0.00     0.023 C 
BRANCH   2   3
ATOM      3  C   UNL A   1      30.863  26.542  25.931  1.00  0.00     0.116 C 
BRANCH   3   4
ATOM      4  N   UNL A   1      30.233  25.335  26.446  1.00  0.00    -0.352 N 
ATOM      5  O   UNL A   1      30.109  23.234  27.244  1.00  0.00    -0.270 OA
ATOM      6  C   UNL A   1      30.752  24.079  26.624  1.00  0.00     0.251 C 
ATOM      7  H   UNL A   1      29.290  25.437  26.708  1.00  0.00     0.163 HD
BRANCH   6   8
ATOM      8  C   UNL A   1      32.129  23.722  26.171  1.00  0.00     0.067 C 
ATOM      9  C   UNL A   1      32.735  22.616  26.632  1.00  0.00     0.025 C 
ATOM     10  C   UNL A   1      32.452  24.226  24.784  1.00  0.00     0.314 C 
ATOM     11  C   UNL A   1      32.942  21.593  25.591  1.00  0.00     0.019 A 
ATOM     12  O   UNL A   1      32.424  23.162  23.794  1.00  0.00    -0.475 OA
ATOM     13  C   UNL A   1      33.092  20.260  25.994  1.00  0.00     0.034 A 
ATOM     14  C   UNL A   1      32.666  21.892  24.250  1.00  0.00     0.129 A 
ATOM     15  C   UNL A   1      32.881  19.229  25.075  1.00  0.00     0.060 A 
ATOM     16  C   UNL A   1      32.494  20.864  23.327  1.00  0.00     0.069 A 
ATOM     17  Cl  UNL A   1      32.921  17.610  25.676  1.00  0.00    -0.083 Cl
ATOM     18  C   UNL A   1      32.571  19.531  23.744  1.00  0.00     0.063 A 
ATOM     19  Cl  UNL A   1      32.205  18.308  22.581  1.00  0.00    -0.083 Cl
BRANCH  10  20
ATOM     20  C   UNL A   1      33.802  24.966  24.763  1.00  0.00     0.429 C 
ATOM     21  F   UNL A   1      34.147  25.402  25.998  1.00  0.00    -0.167 F 
ATOM     22  F   UNL A   1      34.808  24.167  24.332  1.00  0.00    -0.167 F 
ATOM     23  F   UNL A   1      33.783  26.050  23.949  1.00  0.00    -0.167 F 
ENDBRANCH  10  20
ENDBRANCH   6   8
ENDBRANCH   3   4
ENDBRANCH   2   3
ENDBRANCH   1   2
BRANCH   1  24
ATOM     24  C   UNL A   1      33.519  28.987  27.186  1.00  0.00     0.116 C 
BRANCH  24  25
ATOM     25  N   UNL A   1      33.629  30.328  27.744  1.00  0.00    -0.352 N 
ATOM     26  C   UNL A   1      34.706  30.945  28.342  1.00  0.00     0.251 C 
ATOM     27  H   UNL A   1      32.813  30.875  27.684  1.00  0.00     0.163 HD
ATOM     28  O   UNL A   1      34.585  32.082  28.789  1.00  0.00    -0.269 OA
BRANCH  26  29
ATOM     29  C   UNL A   1      35.989  30.220  28.506  1.00  0.00     0.039 A 
ATOM     30  C   UNL A   1      36.907  30.241  27.452  1.00  0.00     0.014 A 
ATOM     31  C   UNL A   1      36.315  29.576  29.700  1.00  0.00     0.014 A 
ATOM     32  C   UNL A   1      38.189  29.720  27.641  1.00  0.00     0.010 A 
ATOM     33  C   UNL A   1      37.620  29.137  29.917  1.00  0.00     0.010 A 
ATOM     34  C   UNL A   1      38.578  29.222  28.897  1.00  0.00    -0.014 A 
BRANCH  34  35
ATOM     35  C   UNL A   1      39.995  28.857  29.160  1.00  0.00     0.031 A 
ATOM     36  C   UNL A   1      40.931  29.815  29.845  1.00  0.00     0.074 A 
ATOM     37  C   UNL A   1      40.456  27.665  28.727  1.00  0.00     0.049 A 
ATOM     38  N   UNL A   1      42.178  29.634  30.200  1.00  0.00    -0.248 NA
ATOM     39  C   UNL A   1      40.411  31.158  30.145  1.00  0.00     0.031 C 
ATOM     40  C   UNL A   1      39.675  26.675  27.978  1.00  0.00     0.029 A 
ATOM     41  N   UNL A   1      41.687  27.074  28.866  1.00  0.00    -0.354 N 
ATOM     42  C   UNL A   1      42.596  30.841  30.750  1.00  0.00     0.074 A 
ATOM     43  C   UNL A   1      41.485  31.761  30.635  1.00  0.00     0.031 C 
ATOM     44  C   UNL A   1      40.426  25.581  27.776  1.00  0.00     0.029 A 
ATOM     45  C   UNL A   1      41.747  25.799  28.354  1.00  0.00     0.049 A 
ATOM     46  H   UNL A   1      42.455  27.521  29.290  1.00  0.00     0.167 HD
ATOM     47  C   UNL A   1      43.787  31.150  31.318  1.00  0.00     0.031 A 
ATOM     48  C   UNL A   1      42.745  24.894  28.368  1.00  0.00     0.031 A 
ATOM     49  C   UNL A   1      44.886  30.229  31.442  1.00  0.00     0.049 A 
ATOM     50  C   UNL A   1      44.040  25.242  29.044  1.00  0.00     0.074 A 
ATOM     51  C   UNL A   1      46.106  30.421  32.070  1.00  0.00     0.029 A 
ATOM     52  N   UNL A   1      44.902  28.942  30.926  1.00  0.00    -0.354 N 
ATOM     53  N   UNL A   1      44.382  26.356  29.644  1.00  0.00    -0.248 NA
ATOM     54  C   UNL A   1      45.076  24.200  29.062  1.00  0.00     0.031 C 
ATOM     55  C   UNL A   1      46.876  29.264  31.895  1.00  0.00     0.029 A 
ATOM     56  C   UNL A   1      46.117  28.335  31.202  1.00  0.00     0.049 A 
ATOM     57  H   UNL A   1      44.159  28.521  30.435  1.00  0.00     0.167 HD
ATOM     58  C   UNL A   1      45.665  26.142  30.134  1.00  0.00     0.074 A 
ATOM     59  C   UNL A   1      46.028  24.786  29.774  1.00  0.00     0.031 C 
ATOM     60  C   UNL A   1      46.470  26.990  30.822  1.00  0.00     0.031 A 
BRANCH  47  61
ATOM     61  C   UNL A   1      43.958  32.553  31.840  1.00  0.00    -0.014 A 
ATOM     62  C   UNL A   1      44.521  33.564  31.038  1.00  0.00     0.010 A 
ATOM     63  C   UNL A   1      43.541  32.869  33.144  1.00  0.00     0.010 A 
ATOM     64  C   UNL A   1      44.716  34.849  31.550  1.00  0.00     0.020 A 
ATOM     65  C   UNL A   1      43.710  34.162  33.653  1.00  0.00     0.020 A 
ATOM     66  C   UNL A   1      44.318  35.136  32.859  1.00  0.00     0.054 A 
BRANCH  66  67
ATOM     67  S   UNL A   1      44.587  36.811  33.505  1.00  0.00     0.124 S 
ATOM     68  O   UNL A   1      43.714  37.606  32.643  1.00  0.00    -0.237 OA
ATOM     69  O   UNL A   1      44.157  36.693  34.896  1.00  0.00    -0.237 OA
ATOM     70  O   UNL A   1      46.018  37.030  33.314  1.00  0.00    -0.744 OA
ENDBRANCH  66  67
ENDBRANCH  47  61
BRANCH  48  71
ATOM     71  C   UNL A   1      42.529  23.543  27.781  1.00  0.00    -0.014 A 
ATOM     72  C   UNL A   1      42.957  23.265  26.470  1.00  0.00     0.010 A 
ATOM     73  C   UNL A   1      41.919  22.523  28.532  1.00  0.00     0.010 A 
ATOM     74  C   UNL A   1      42.767  21.997  25.916  1.00  0.00     0.020 A 
ATOM     75  C   UNL A   1      41.749  21.246  27.989  1.00  0.00     0.020 A 
ATOM     76  C   UNL A   1      42.166  20.994  26.679  1.00  0.00     0.054 A 
BRANCH  76  77
ATOM     77  S   UNL A   1      41.988  19.336  25.963  1.00  0.00     0.124 S 
ATOM     78  O   UNL A   1      42.830  19.427  24.775  1.00  0.00    -0.237 OA
ATOM     79  O   UNL A   1      42.489  18.474  27.032  1.00  0.00    -0.237 OA
ATOM     80  O   UNL A   1      40.553  19.227  25.710  1.00  0.00    -0.744 OA
ENDBRANCH  76  77
ENDBRANCH  48  71
BRANCH  60  81
ATOM     81  C   UNL A   1      47.812  26.459  31.247  1.00  0.00    -0.014 A 
ATOM     82  C   UNL A   1      48.948  26.614  30.431  1.00  0.00     0.010 A 
ATOM     83  C   UNL A   1      47.938  25.797  32.481  1.00  0.00     0.010 A 
ATOM     84  C   UNL A   1      50.174  26.066  30.818  1.00  0.00     0.020 A 
ATOM     85  C   UNL A   1      49.168  25.272  32.883  1.00  0.00     0.020 A 
ATOM     86  C   UNL A   1      50.273  25.389  32.037  1.00  0.00     0.054 A 
BRANCH  86  87
ATOM     87  S   UNL A   1      51.872  24.682  32.520  1.00  0.00     0.124 S 
ATOM     88  O   UNL A   1      51.634  23.251  32.350  1.00  0.00    -0.237 OA
ATOM     89  O   UNL A   1      52.796  25.284  31.561  1.00  0.00    -0.237 OA
ATOM     90  O   UNL A   1      52.042  25.128  33.902  1.00  0.00    -0.744 OA
ENDBRANCH  86  87
ENDBRANCH  60  81
ENDBRANCH  34  35
ENDBRANCH  26  29
ENDBRANCH  24  25
ENDBRANCH   1  24
TORSDOF 15
ENDMDL
