MODEL 1
REMARK VINA RESULT:     -10.5      0.000      0.000
REMARK SMILES CCC[NH2+][C@@]1(C(=O)NCCCCNC(=O)c2ccc(-c3c4nc(c(-c5ccc(S(=O)(=O)[O-])cc5)c5ccc([nH]5)c(-c5ccc(S(=O)(=O)[O-])cc5)c5nc(c(-c6ccc(S(=O)(=O)[O-])cc6)c6ccc3[nH]6)C=C5)C=C4)cc2)CC[C@@H](Sc2ccc(Cl)cc2)C1
REMARK SMILES IDX 10 1 9 2 8 3 6 4 7 5 5 7 76 8 87 9 77 10 78 11 4 12 3 15
REMARK SMILES IDX 2 16 1 17 79 18 80 19 81 20 86 21 82 22 85 23 83 24 84 25
REMARK SMILES IDX 11 26 12 27 13 28 14 29 15 31 16 32 17 33 75 34 18 35 74 36
REMARK SMILES IDX 19 37 20 38 21 39 68 40 22 41 73 42 67 43 69 44 23 45 72 46
REMARK SMILES IDX 66 47 65 48 24 50 54 51 35 52 53 53 36 54 39 55 52 56 70 57
REMARK SMILES IDX 37 58 38 59 51 61 71 62 40 63 25 64 26 65 34 66 27 67 33 68
REMARK SMILES IDX 28 69 29 70 30 71 31 72 32 73 55 74 56 75 64 76 57 77 63 78
REMARK SMILES IDX 58 79 59 80 60 81 61 82 62 83 41 84 42 85 50 86 43 87 49 88
REMARK SMILES IDX 44 89 45 90 46 91 47 92 48 93
REMARK H PARENT 8 6 4 13 4 14 13 30 69 49 39 60
REMARK Flexibility Score: inf
ROOT
ATOM      1  C   UNL A   1      37.354  20.222  24.861  1.00  0.00     0.023 C 
ENDROOT
BRANCH   1   2
ATOM      2  C   UNL A   1      35.847  20.259  25.101  1.00  0.00     0.116 C 
BRANCH   2   3
ATOM      3  N   UNL A   1      35.479  21.142  26.182  1.00  0.00    -0.351 N 
ATOM      4  C   UNL A   1      34.487  22.056  26.319  1.00  0.00     0.281 C 
ATOM      5  O   UNL A   1      34.311  22.457  27.479  1.00  0.00    -0.268 OA
ATOM      6  H   UNL A   1      36.062  21.067  26.972  1.00  0.00     0.163 HD
BRANCH   4   7
ATOM      7  C   UNL A   1      33.546  22.558  25.148  1.00  0.00     0.176 C 
ATOM      8  C   UNL A   1      34.329  23.480  24.192  1.00  0.00     0.080 C 
ATOM      9  C   UNL A   1      32.292  23.347  25.558  1.00  0.00     0.094 C 
ATOM     10  C   UNL A   1      33.688  24.867  24.214  1.00  0.00     0.022 C 
ATOM     11  C   UNL A   1      32.530  24.812  25.204  1.00  0.00     0.058 C 
BRANCH   7  12
ATOM     12  N   UNL A   1      33.161  21.347  24.342  1.00  0.00    -0.334 N 
ATOM     13  H   UNL A   1      32.785  21.667  23.449  1.00  0.00     0.347 HD
ATOM     14  H   UNL A   1      34.007  20.786  24.246  1.00  0.00     0.347 HD
BRANCH  12  15
ATOM     15  C   UNL A   1      32.155  20.478  24.975  1.00  0.00     0.261 C 
BRANCH  15  16
ATOM     16  C   UNL A   1      32.586  19.007  24.929  1.00  0.00     0.058 C 
ATOM     17  C   UNL A   1      32.728  18.451  23.519  1.00  0.00     0.010 C 
ENDBRANCH  15  16
ENDBRANCH  12  15
ENDBRANCH   7  12
BRANCH  11  18
ATOM     18  S   UNL A   1      30.999  25.725  24.744  1.00  0.00    -0.122 SA
BRANCH  18  19
ATOM     19  C   UNL A   1      31.307  27.356  25.387  1.00  0.00     0.008 A 
ATOM     20  C   UNL A   1      31.232  28.450  24.514  1.00  0.00     0.016 A 
ATOM     21  C   UNL A   1      31.632  27.573  26.728  1.00  0.00     0.016 A 
ATOM     22  C   UNL A   1      31.443  29.747  24.988  1.00  0.00     0.021 A 
ATOM     23  C   UNL A   1      31.843  28.870  27.203  1.00  0.00     0.021 A 
ATOM     24  C   UNL A   1      31.744  29.952  26.331  1.00  0.00     0.041 A 
ATOM     25  Cl  UNL A   1      32.000  31.549  26.917  1.00  0.00    -0.084 Cl
ENDBRANCH  18  19
ENDBRANCH  11  18
ENDBRANCH   4   7
ENDBRANCH   2   3
ENDBRANCH   1   2
BRANCH   1  26
ATOM     26  C   UNL A   1      38.097  21.499  25.248  1.00  0.00     0.023 C 
BRANCH  26  27
ATOM     27  C   UNL A   1      39.216  21.321  26.269  1.00  0.00     0.116 C 
BRANCH  27  28
ATOM     28  N   UNL A   1      39.989  20.098  26.096  1.00  0.00    -0.352 N 
ATOM     29  C   UNL A   1      41.357  19.957  26.123  1.00  0.00     0.251 C 
ATOM     30  H   UNL A   1      39.471  19.275  25.941  1.00  0.00     0.163 HD
ATOM     31  O   UNL A   1      41.878  18.870  25.892  1.00  0.00    -0.269 OA
BRANCH  29  32
ATOM     32  C   UNL A   1      42.187  21.150  26.383  1.00  0.00     0.039 A 
ATOM     33  C   UNL A   1      42.543  21.968  25.309  1.00  0.00     0.014 A 
ATOM     34  C   UNL A   1      42.531  21.498  27.691  1.00  0.00     0.014 A 
ATOM     35  C   UNL A   1      43.175  23.188  25.558  1.00  0.00     0.010 A 
ATOM     36  C   UNL A   1      43.102  22.742  27.940  1.00  0.00     0.010 A 
ATOM     37  C   UNL A   1      43.418  23.602  26.878  1.00  0.00    -0.014 A 
BRANCH  37  38
ATOM     38  C   UNL A   1      43.983  24.943  27.173  1.00  0.00     0.031 A 
ATOM     39  C   UNL A   1      43.088  26.041  27.676  1.00  0.00     0.074 A 
ATOM     40  C   UNL A   1      45.280  25.193  26.904  1.00  0.00     0.049 A 
ATOM     41  N   UNL A   1      43.375  27.297  27.902  1.00  0.00    -0.248 NA
ATOM     42  C   UNL A   1      41.680  25.691  27.929  1.00  0.00     0.031 C 
ATOM     43  C   UNL A   1      46.238  24.227  26.358  1.00  0.00     0.029 A 
ATOM     44  N   UNL A   1      46.016  26.344  27.041  1.00  0.00    -0.354 N 
ATOM     45  C   UNL A   1      42.183  27.890  28.298  1.00  0.00     0.074 A 
ATOM     46  C   UNL A   1      41.161  26.868  28.246  1.00  0.00     0.031 C 
ATOM     47  C   UNL A   1      47.436  24.821  26.226  1.00  0.00     0.029 A 
ATOM     48  C   UNL A   1      47.326  26.214  26.644  1.00  0.00     0.049 A 
ATOM     49  H   UNL A   1      45.640  27.184  27.390  1.00  0.00     0.167 HD
ATOM     50  C   UNL A   1      41.961  29.169  28.687  1.00  0.00     0.031 A 
ATOM     51  C   UNL A   1      48.325  27.117  26.614  1.00  0.00     0.031 A 
ATOM     52  C   UNL A   1      42.985  30.175  28.772  1.00  0.00     0.049 A 
ATOM     53  C   UNL A   1      48.060  28.521  27.085  1.00  0.00     0.074 A 
ATOM     54  C   UNL A   1      42.872  31.478  29.224  1.00  0.00     0.029 A 
ATOM     55  N   UNL A   1      44.308  29.990  28.408  1.00  0.00    -0.354 N 
ATOM     56  N   UNL A   1      46.939  29.043  27.521  1.00  0.00    -0.248 NA
ATOM     57  C   UNL A   1      49.197  29.452  27.072  1.00  0.00     0.031 C 
ATOM     58  C   UNL A   1      44.124  32.091  29.103  1.00  0.00     0.029 A 
ATOM     59  C   UNL A   1      45.022  31.158  28.613  1.00  0.00     0.049 A 
ATOM     60  H   UNL A   1      44.685  29.151  28.054  1.00  0.00     0.167 HD
ATOM     61  C   UNL A   1      47.243  30.356  27.860  1.00  0.00     0.074 A 
ATOM     62  C   UNL A   1      48.653  30.545  27.589  1.00  0.00     0.031 C 
ATOM     63  C   UNL A   1      46.427  31.322  28.349  1.00  0.00     0.031 A 
BRANCH  50  64
ATOM     64  C   UNL A   1      40.556  29.551  29.057  1.00  0.00    -0.014 A 
ATOM     65  C   UNL A   1      40.208  29.814  30.394  1.00  0.00     0.010 A 
ATOM     66  C   UNL A   1      39.583  29.702  28.053  1.00  0.00     0.010 A 
ATOM     67  C   UNL A   1      38.904  30.191  30.724  1.00  0.00     0.020 A 
ATOM     68  C   UNL A   1      38.283  30.101  28.376  1.00  0.00     0.020 A 
ATOM     69  C   UNL A   1      37.949  30.331  29.713  1.00  0.00     0.054 A 
BRANCH  69  70
ATOM     70  S   UNL A   1      36.274  30.859  30.164  1.00  0.00     0.124 S 
ATOM     71  O   UNL A   1      36.489  32.256  30.534  1.00  0.00    -0.237 OA
ATOM     72  O   UNL A   1      35.525  30.646  28.928  1.00  0.00    -0.237 OA
ATOM     73  O   UNL A   1      35.915  29.970  31.267  1.00  0.00    -0.744 OA
ENDBRANCH  69  70
ENDBRANCH  50  64
BRANCH  51  74
ATOM     74  C   UNL A   1      49.676  26.724  26.132  1.00  0.00    -0.014 A 
ATOM     75  C   UNL A   1      50.630  26.212  27.029  1.00  0.00     0.010 A 
ATOM     76  C   UNL A   1      50.021  26.873  24.777  1.00  0.00     0.010 A 
ATOM     77  C   UNL A   1      51.914  25.884  26.586  1.00  0.00     0.020 A 
ATOM     78  C   UNL A   1      51.297  26.524  24.326  1.00  0.00     0.020 A 
ATOM     79  C   UNL A   1      52.241  26.047  25.237  1.00  0.00     0.054 A 
BRANCH  79  80
ATOM     80  S   UNL A   1      53.905  25.589  24.673  1.00  0.00     0.124 S 
ATOM     81  O   UNL A   1      53.924  26.132  23.318  1.00  0.00    -0.237 OA
ATOM     82  O   UNL A   1      54.767  26.264  25.640  1.00  0.00    -0.237 OA
ATOM     83  O   UNL A   1      53.902  24.130  24.766  1.00  0.00    -0.744 OA
ENDBRANCH  79  80
ENDBRANCH  51  74
BRANCH  63  84
ATOM     84  C   UNL A   1      47.045  32.656  28.659  1.00  0.00    -0.014 A 
ATOM     85  C   UNL A   1      46.881  33.751  27.793  1.00  0.00     0.010 A 
ATOM     86  C   UNL A   1      47.750  32.829  29.864  1.00  0.00     0.010 A 
ATOM     87  C   UNL A   1      47.434  34.993  28.116  1.00  0.00     0.020 A 
ATOM     88  C   UNL A   1      48.285  34.075  30.200  1.00  0.00     0.020 A 
ATOM     89  C   UNL A   1      48.135  35.145  29.317  1.00  0.00     0.054 A 
BRANCH  89  90
ATOM     90  S   UNL A   1      48.802  36.779  29.739  1.00  0.00     0.124 S 
ATOM     91  O   UNL A   1      50.061  36.792  28.998  1.00  0.00    -0.237 OA
ATOM     92  O   UNL A   1      47.771  37.688  29.244  1.00  0.00    -0.237 OA
ATOM     93  O   UNL A   1      48.934  36.731  31.193  1.00  0.00    -0.744 OA
ENDBRANCH  89  90
ENDBRANCH  63  84
ENDBRANCH  37  38
ENDBRANCH  29  32
ENDBRANCH  27  28
ENDBRANCH  26  27
ENDBRANCH   1  26
TORSDOF 19
ENDMDL
MODEL 2
REMARK VINA RESULT:     -10.4      1.107      8.233
REMARK SMILES CCC[NH2+][C@@]1(C(=O)NCCCCNC(=O)c2ccc(-c3c4nc(c(-c5ccc(S(=O)(=O)[O-])cc5)c5ccc([nH]5)c(-c5ccc(S(=O)(=O)[O-])cc5)c5nc(c(-c6ccc(S(=O)(=O)[O-])cc6)c6ccc3[nH]6)C=C5)C=C4)cc2)CC[C@@H](Sc2ccc(Cl)cc2)C1
REMARK SMILES IDX 10 1 9 2 8 3 6 4 7 5 5 7 76 8 87 9 77 10 78 11 4 12 3 15
REMARK SMILES IDX 2 16 1 17 79 18 80 19 81 20 86 21 82 22 85 23 83 24 84 25
REMARK SMILES IDX 11 26 12 27 13 28 14 29 15 31 16 32 17 33 75 34 18 35 74 36
REMARK SMILES IDX 19 37 20 38 21 39 68 40 22 41 73 42 67 43 69 44 23 45 72 46
REMARK SMILES IDX 66 47 65 48 24 50 54 51 35 52 53 53 36 54 39 55 52 56 70 57
REMARK SMILES IDX 37 58 38 59 51 61 71 62 40 63 25 64 26 65 34 66 27 67 33 68
REMARK SMILES IDX 28 69 29 70 30 71 31 72 32 73 55 74 56 75 64 76 57 77 63 78
REMARK SMILES IDX 58 79 59 80 60 81 61 82 62 83 41 84 42 85 50 86 43 87 49 88
REMARK SMILES IDX 44 89 45 90 46 91 47 92 48 93
REMARK H PARENT 8 6 4 13 4 14 13 30 69 49 39 60
REMARK Flexibility Score: inf
ROOT
ATOM      1  C   UNL A   1      37.372  20.561  25.071  1.00  0.00     0.023 C 
ENDROOT
BRANCH   1   2
ATOM      2  C   UNL A   1      35.884  20.867  25.212  1.00  0.00     0.116 C 
BRANCH   2   3
ATOM      3  N   UNL A   1      35.569  21.522  26.460  1.00  0.00    -0.351 N 
ATOM      4  C   UNL A   1      34.618  22.426  26.804  1.00  0.00     0.281 C 
ATOM      5  O   UNL A   1      34.474  22.584  28.025  1.00  0.00    -0.268 OA
ATOM      6  H   UNL A   1      36.158  21.262  27.205  1.00  0.00     0.163 HD
BRANCH   4   7
ATOM      7  C   UNL A   1      33.683  23.195  25.782  1.00  0.00     0.176 C 
ATOM      8  C   UNL A   1      34.536  24.001  24.782  1.00  0.00     0.080 C 
ATOM      9  C   UNL A   1      32.680  24.195  26.379  1.00  0.00     0.094 C 
ATOM     10  C   UNL A   1      34.213  25.485  24.949  1.00  0.00     0.022 C 
ATOM     11  C   UNL A   1      33.186  25.600  26.069  1.00  0.00     0.058 C 
BRANCH   7  12
ATOM     12  N   UNL A   1      32.962  22.152  24.972  1.00  0.00    -0.334 N 
ATOM     13  H   UNL A   1      33.466  22.027  24.094  1.00  0.00     0.347 HD
ATOM     14  H   UNL A   1      32.938  21.309  25.546  1.00  0.00     0.347 HD
BRANCH  12  15
ATOM     15  C   UNL A   1      31.562  22.477  24.654  1.00  0.00     0.261 C 
BRANCH  15  16
ATOM     16  C   UNL A   1      31.433  23.044  23.234  1.00  0.00     0.058 C 
ATOM     17  C   UNL A   1      30.731  24.394  23.174  1.00  0.00     0.010 C 
ENDBRANCH  15  16
ENDBRANCH  12  15
ENDBRANCH   7  12
BRANCH  11  18
ATOM     18  S   UNL A   1      31.845  26.841  25.844  1.00  0.00    -0.122 SA
BRANCH  18  19
ATOM     19  C   UNL A   1      32.602  28.346  26.420  1.00  0.00     0.008 A 
ATOM     20  C   UNL A   1      33.934  28.309  26.850  1.00  0.00     0.016 A 
ATOM     21  C   UNL A   1      31.901  29.554  26.468  1.00  0.00     0.016 A 
ATOM     22  C   UNL A   1      34.568  29.475  27.286  1.00  0.00     0.021 A 
ATOM     23  C   UNL A   1      32.534  30.721  26.904  1.00  0.00     0.021 A 
ATOM     24  C   UNL A   1      33.866  30.676  27.308  1.00  0.00     0.041 A 
ATOM     25  Cl  UNL A   1      34.647  32.114  27.840  1.00  0.00    -0.084 Cl
ENDBRANCH  18  19
ENDBRANCH  11  18
ENDBRANCH   4   7
ENDBRANCH   2   3
ENDBRANCH   1   2
BRANCH   1  26
ATOM     26  C   UNL A   1      38.301  21.735  25.377  1.00  0.00     0.023 C 
BRANCH  26  27
ATOM     27  C   UNL A   1      39.360  21.470  26.443  1.00  0.00     0.116 C 
BRANCH  27  28
ATOM     28  N   UNL A   1      40.196  20.308  26.175  1.00  0.00    -0.352 N 
ATOM     29  C   UNL A   1      41.569  20.257  26.111  1.00  0.00     0.251 C 
ATOM     30  H   UNL A   1      39.723  19.459  26.019  1.00  0.00     0.163 HD
ATOM     31  O   UNL A   1      42.143  19.215  25.805  1.00  0.00    -0.269 OA
BRANCH  29  32
ATOM     32  C   UNL A   1      42.337  21.492  26.365  1.00  0.00     0.039 A 
ATOM     33  C   UNL A   1      42.616  22.343  25.295  1.00  0.00     0.014 A 
ATOM     34  C   UNL A   1      42.696  21.843  27.669  1.00  0.00     0.014 A 
ATOM     35  C   UNL A   1      43.184  23.594  25.544  1.00  0.00     0.010 A 
ATOM     36  C   UNL A   1      43.201  23.114  27.921  1.00  0.00     0.010 A 
ATOM     37  C   UNL A   1      43.439  24.005  26.862  1.00  0.00    -0.014 A 
BRANCH  37  38
ATOM     38  C   UNL A   1      43.934  25.372  27.162  1.00  0.00     0.031 A 
ATOM     39  C   UNL A   1      45.358  25.741  26.854  1.00  0.00     0.074 A 
ATOM     40  C   UNL A   1      43.125  26.249  27.790  1.00  0.00     0.049 A 
ATOM     41  N   UNL A   1      45.998  26.849  27.124  1.00  0.00    -0.248 NA
ATOM     42  C   UNL A   1      46.180  24.720  26.181  1.00  0.00     0.031 C 
ATOM     43  C   UNL A   1      41.740  25.992  28.194  1.00  0.00     0.029 A 
ATOM     44  N   UNL A   1      43.358  27.535  28.211  1.00  0.00    -0.354 N 
ATOM     45  C   UNL A   1      47.300  26.650  26.680  1.00  0.00     0.074 A 
ATOM     46  C   UNL A   1      47.370  25.304  26.157  1.00  0.00     0.031 C 
ATOM     47  C   UNL A   1      41.243  27.091  28.787  1.00  0.00     0.029 A 
ATOM     48  C   UNL A   1      42.279  28.116  28.835  1.00  0.00     0.049 A 
ATOM     49  H   UNL A   1      44.217  27.998  28.079  1.00  0.00     0.167 HD
ATOM     50  C   UNL A   1      48.339  27.518  26.691  1.00  0.00     0.031 A 
ATOM     51  C   UNL A   1      42.142  29.336  29.389  1.00  0.00     0.031 A 
ATOM     52  C   UNL A   1      48.259  28.868  27.179  1.00  0.00     0.049 A 
ATOM     53  C   UNL A   1      43.302  30.293  29.355  1.00  0.00     0.074 A 
ATOM     54  C   UNL A   1      49.238  29.846  27.166  1.00  0.00     0.029 A 
ATOM     55  N   UNL A   1      47.135  29.434  27.758  1.00  0.00    -0.354 N 
ATOM     56  N   UNL A   1      44.505  30.109  28.868  1.00  0.00    -0.248 NA
ATOM     57  C   UNL A   1      43.082  31.626  29.935  1.00  0.00     0.031 C 
ATOM     58  C   UNL A   1      48.715  30.996  27.767  1.00  0.00     0.029 A 
ATOM     59  C   UNL A   1      47.398  30.744  28.117  1.00  0.00     0.049 A 
ATOM     60  H   UNL A   1      46.276  28.972  27.894  1.00  0.00     0.167 HD
ATOM     61  C   UNL A   1      45.177  31.310  29.058  1.00  0.00     0.074 A 
ATOM     62  C   UNL A   1      44.244  32.218  29.694  1.00  0.00     0.031 C 
ATOM     63  C   UNL A   1      46.453  31.634  28.738  1.00  0.00     0.031 A 
BRANCH  50  64
ATOM     64  C   UNL A   1      49.656  27.034  26.152  1.00  0.00    -0.014 A 
ATOM     65  C   UNL A   1      50.589  26.397  26.989  1.00  0.00     0.010 A 
ATOM     66  C   UNL A   1      49.943  27.168  24.781  1.00  0.00     0.010 A 
ATOM     67  C   UNL A   1      51.799  25.930  26.472  1.00  0.00     0.020 A 
ATOM     68  C   UNL A   1      51.145  26.681  24.256  1.00  0.00     0.020 A 
ATOM     69  C   UNL A   1      52.070  26.077  25.109  1.00  0.00     0.054 A 
BRANCH  69  70
ATOM     70  S   UNL A   1      53.633  25.427  24.456  1.00  0.00     0.124 S 
ATOM     71  O   UNL A   1      53.561  25.828  23.053  1.00  0.00    -0.237 OA
ATOM     72  O   UNL A   1      54.633  26.128  25.258  1.00  0.00    -0.237 OA
ATOM     73  O   UNL A   1      53.540  23.990  24.700  1.00  0.00    -0.744 OA
ENDBRANCH  69  70
ENDBRANCH  50  64
BRANCH  51  74
ATOM     74  C   UNL A   1      40.852  29.735  30.014  1.00  0.00    -0.014 A 
ATOM     75  C   UNL A   1      39.868  30.396  29.257  1.00  0.00     0.010 A 
ATOM     76  C   UNL A   1      40.606  29.468  31.373  1.00  0.00     0.010 A 
ATOM     77  C   UNL A   1      38.675  30.811  29.854  1.00  0.00     0.020 A 
ATOM     78  C   UNL A   1      39.403  29.860  31.967  1.00  0.00     0.020 A 
ATOM     79  C   UNL A   1      38.452  30.544  31.207  1.00  0.00     0.054 A 
BRANCH  79  80
ATOM     80  S   UNL A   1      36.883  31.063  31.960  1.00  0.00     0.124 S 
ATOM     81  O   UNL A   1      36.142  31.554  30.803  1.00  0.00    -0.237 OA
ATOM     82  O   UNL A   1      36.388  29.823  32.552  1.00  0.00    -0.237 OA
ATOM     83  O   UNL A   1      37.293  32.083  32.923  1.00  0.00    -0.744 OA
ENDBRANCH  79  80
ENDBRANCH  51  74
BRANCH  63  84
ATOM     84  C   UNL A   1      46.905  33.037  29.033  1.00  0.00    -0.014 A 
ATOM     85  C   UNL A   1      46.721  34.071  28.098  1.00  0.00     0.010 A 
ATOM     86  C   UNL A   1      47.468  33.333  30.287  1.00  0.00     0.010 A 
ATOM     87  C   UNL A   1      47.117  35.375  28.404  1.00  0.00     0.020 A 
ATOM     88  C   UNL A   1      47.845  34.641  30.604  1.00  0.00     0.020 A 
ATOM     89  C   UNL A   1      47.679  35.650  29.655  1.00  0.00     0.054 A 
BRANCH  89  90
ATOM     90  S   UNL A   1      48.140  37.360  30.050  1.00  0.00     0.124 S 
ATOM     91  O   UNL A   1      47.104  37.740  31.007  1.00  0.00    -0.237 OA
ATOM     92  O   UNL A   1      49.483  37.213  30.604  1.00  0.00    -0.237 OA
ATOM     93  O   UNL A   1      48.077  38.040  28.759  1.00  0.00    -0.744 OA
ENDBRANCH  89  90
ENDBRANCH  63  84
ENDBRANCH  37  38
ENDBRANCH  29  32
ENDBRANCH  27  28
ENDBRANCH  26  27
ENDBRANCH   1  26
TORSDOF 19
ENDMDL
MODEL 3
REMARK VINA RESULT:     -10.4      1.209      8.349
REMARK SMILES CCC[NH2+][C@@]1(C(=O)NCCCCNC(=O)c2ccc(-c3c4nc(c(-c5ccc(S(=O)(=O)[O-])cc5)c5ccc([nH]5)c(-c5ccc(S(=O)(=O)[O-])cc5)c5nc(c(-c6ccc(S(=O)(=O)[O-])cc6)c6ccc3[nH]6)C=C5)C=C4)cc2)CC[C@@H](Sc2ccc(Cl)cc2)C1
REMARK SMILES IDX 10 1 9 2 8 3 6 4 7 5 5 7 76 8 87 9 77 10 78 11 4 12 3 15
REMARK SMILES IDX 2 16 1 17 79 18 80 19 81 20 86 21 82 22 85 23 83 24 84 25
REMARK SMILES IDX 11 26 12 27 13 28 14 29 15 31 16 32 17 33 75 34 18 35 74 36
REMARK SMILES IDX 19 37 20 38 21 39 68 40 22 41 73 42 67 43 69 44 23 45 72 46
REMARK SMILES IDX 66 47 65 48 24 50 54 51 35 52 53 53 36 54 39 55 52 56 70 57
REMARK SMILES IDX 37 58 38 59 51 61 71 62 40 63 25 64 26 65 34 66 27 67 33 68
REMARK SMILES IDX 28 69 29 70 30 71 31 72 32 73 55 74 56 75 64 76 57 77 63 78
REMARK SMILES IDX 58 79 59 80 60 81 61 82 62 83 41 84 42 85 50 86 43 87 49 88
REMARK SMILES IDX 44 89 45 90 46 91 47 92 48 93
REMARK H PARENT 8 6 4 13 4 14 13 30 69 49 39 60
REMARK Flexibility Score: inf
ROOT
ATOM      1  C   UNL A   1      37.490  21.613  25.341  1.00  0.00     0.023 C 
ENDROOT
BRANCH   1   2
ATOM      2  C   UNL A   1      36.379  21.594  24.295  1.00  0.00     0.116 C 
BRANCH   2   3
ATOM      3  N   UNL A   1      35.283  20.730  24.666  1.00  0.00    -0.351 N 
ATOM      4  C   UNL A   1      33.951  20.949  24.799  1.00  0.00     0.281 C 
ATOM      5  O   UNL A   1      33.265  19.919  24.887  1.00  0.00    -0.268 OA
ATOM      6  H   UNL A   1      35.555  19.804  24.861  1.00  0.00     0.163 HD
BRANCH   4   7
ATOM      7  C   UNL A   1      33.257  22.372  24.778  1.00  0.00     0.176 C 
ATOM      8  C   UNL A   1      33.885  23.288  25.848  1.00  0.00     0.080 C 
ATOM      9  C   UNL A   1      31.742  22.407  25.033  1.00  0.00     0.094 C 
ATOM     10  C   UNL A   1      32.805  23.670  26.860  1.00  0.00     0.022 C 
ATOM     11  C   UNL A   1      31.520  22.969  26.434  1.00  0.00     0.058 C 
BRANCH   7  12
ATOM     12  N   UNL A   1      33.578  23.000  23.449  1.00  0.00    -0.334 N 
ATOM     13  H   UNL A   1      34.439  22.578  23.099  1.00  0.00     0.347 HD
ATOM     14  H   UNL A   1      32.772  22.829  22.848  1.00  0.00     0.347 HD
BRANCH  12  15
ATOM     15  C   UNL A   1      33.766  24.459  23.485  1.00  0.00     0.261 C 
BRANCH  15  16
ATOM     16  C   UNL A   1      32.859  25.161  22.466  1.00  0.00     0.058 C 
ATOM     17  C   UNL A   1      33.314  26.568  22.105  1.00  0.00     0.010 C 
ENDBRANCH  15  16
ENDBRANCH  12  15
ENDBRANCH   7  12
BRANCH  11  18
ATOM     18  S   UNL A   1      29.954  23.922  26.614  1.00  0.00    -0.122 SA
BRANCH  18  19
ATOM     19  C   UNL A   1      30.319  25.442  25.762  1.00  0.00     0.008 A 
ATOM     20  C   UNL A   1      29.690  25.697  24.537  1.00  0.00     0.016 A 
ATOM     21  C   UNL A   1      31.223  26.377  26.275  1.00  0.00     0.016 A 
ATOM     22  C   UNL A   1      29.933  26.889  23.853  1.00  0.00     0.021 A 
ATOM     23  C   UNL A   1      31.467  27.571  25.591  1.00  0.00     0.021 A 
ATOM     24  C   UNL A   1      30.818  27.823  24.384  1.00  0.00     0.041 A 
ATOM     25  Cl  UNL A   1      31.115  29.295  23.545  1.00  0.00    -0.084 Cl
ENDBRANCH  18  19
ENDBRANCH  11  18
ENDBRANCH   4   7
ENDBRANCH   2   3
ENDBRANCH   1   2
BRANCH   1  26
ATOM     26  C   UNL A   1      38.413  20.395  25.320  1.00  0.00     0.023 C 
BRANCH  26  27
ATOM     27  C   UNL A   1      39.664  20.508  26.187  1.00  0.00     0.116 C 
BRANCH  27  28
ATOM     28  N   UNL A   1      40.561  19.366  26.087  1.00  0.00    -0.352 N 
ATOM     29  C   UNL A   1      41.935  19.367  26.154  1.00  0.00     0.251 C 
ATOM     30  H   UNL A   1      40.134  18.488  25.956  1.00  0.00     0.163 HD
ATOM     31  O   UNL A   1      42.570  18.330  25.984  1.00  0.00    -0.269 OA
BRANCH  29  32
ATOM     32  C   UNL A   1      42.631  20.649  26.381  1.00  0.00     0.039 A 
ATOM     33  C   UNL A   1      43.172  21.324  25.285  1.00  0.00     0.014 A 
ATOM     34  C   UNL A   1      42.667  21.215  27.657  1.00  0.00     0.014 A 
ATOM     35  C   UNL A   1      43.677  22.614  25.457  1.00  0.00     0.010 A 
ATOM     36  C   UNL A   1      43.111  22.524  27.813  1.00  0.00     0.010 A 
ATOM     37  C   UNL A   1      43.609  23.239  26.713  1.00  0.00    -0.014 A 
BRANCH  37  38
ATOM     38  C   UNL A   1      44.032  24.651  26.895  1.00  0.00     0.031 A 
ATOM     39  C   UNL A   1      45.471  25.035  26.700  1.00  0.00     0.074 A 
ATOM     40  C   UNL A   1      43.136  25.563  27.321  1.00  0.00     0.049 A 
ATOM     41  N   UNL A   1      46.048  26.191  26.901  1.00  0.00    -0.248 NA
ATOM     42  C   UNL A   1      46.390  23.975  26.249  1.00  0.00     0.031 C 
ATOM     43  C   UNL A   1      41.721  25.302  27.602  1.00  0.00     0.029 A 
ATOM     44  N   UNL A   1      43.286  26.898  27.606  1.00  0.00    -0.354 N 
ATOM     45  C   UNL A   1      47.396  25.993  26.627  1.00  0.00     0.074 A 
ATOM     46  C   UNL A   1      47.559  24.599  26.282  1.00  0.00     0.031 C 
ATOM     47  C   UNL A   1      41.132  26.443  28.000  1.00  0.00     0.029 A 
ATOM     48  C   UNL A   1      42.130  27.506  28.035  1.00  0.00     0.049 A 
ATOM     49  H   UNL A   1      44.143  27.375  27.512  1.00  0.00     0.167 HD
ATOM     50  C   UNL A   1      48.405  26.896  26.645  1.00  0.00     0.031 A 
ATOM     51  C   UNL A   1      41.900  28.777  28.419  1.00  0.00     0.031 A 
ATOM     52  C   UNL A   1      48.236  28.290  26.954  1.00  0.00     0.049 A 
ATOM     53  C   UNL A   1      43.032  29.767  28.394  1.00  0.00     0.074 A 
ATOM     54  C   UNL A   1      49.185  29.297  26.928  1.00  0.00     0.029 A 
ATOM     55  N   UNL A   1      47.040  28.876  27.336  1.00  0.00    -0.354 N 
ATOM     56  N   UNL A   1      44.286  29.574  28.066  1.00  0.00    -0.248 NA
ATOM     57  C   UNL A   1      42.715  31.150  28.781  1.00  0.00     0.031 C 
ATOM     58  C   UNL A   1      48.568  30.488  27.325  1.00  0.00     0.029 A 
ATOM     59  C   UNL A   1      47.228  30.228  27.559  1.00  0.00     0.049 A 
ATOM     60  H   UNL A   1      46.183  28.400  27.433  1.00  0.00     0.167 HD
ATOM     61  C   UNL A   1      44.902  30.815  28.179  1.00  0.00     0.074 A 
ATOM     62  C   UNL A   1      43.880  31.753  28.596  1.00  0.00     0.031 C 
ATOM     63  C   UNL A   1      46.197  31.148  27.962  1.00  0.00     0.031 A 
BRANCH  50  64
ATOM     64  C   UNL A   1      49.786  26.403  26.314  1.00  0.00    -0.014 A 
ATOM     65  C   UNL A   1      50.290  26.495  25.004  1.00  0.00     0.010 A 
ATOM     66  C   UNL A   1      50.611  25.893  27.332  1.00  0.00     0.010 A 
ATOM     67  C   UNL A   1      51.583  26.056  24.712  1.00  0.00     0.020 A 
ATOM     68  C   UNL A   1      51.914  25.473  27.048  1.00  0.00     0.020 A 
ATOM     69  C   UNL A   1      52.387  25.546  25.736  1.00  0.00     0.054 A 
BRANCH  69  70
ATOM     70  S   UNL A   1      54.076  25.019  25.338  1.00  0.00     0.124 S 
ATOM     71  O   UNL A   1      54.769  25.254  26.602  1.00  0.00    -0.237 OA
ATOM     72  O   UNL A   1      53.898  23.616  24.972  1.00  0.00    -0.237 OA
ATOM     73  O   UNL A   1      54.465  25.901  24.240  1.00  0.00    -0.744 OA
ENDBRANCH  69  70
ENDBRANCH  50  64
BRANCH  51  74
ATOM     74  C   UNL A   1      40.539  29.196  28.848  1.00  0.00    -0.014 A 
ATOM     75  C   UNL A   1      39.537  29.446  27.893  1.00  0.00     0.010 A 
ATOM     76  C   UNL A   1      40.241  29.359  30.212  1.00  0.00     0.010 A 
ATOM     77  C   UNL A   1      38.272  29.883  28.293  1.00  0.00     0.020 A 
ATOM     78  C   UNL A   1      38.968  29.773  30.617  1.00  0.00     0.020 A 
ATOM     79  C   UNL A   1      37.996  30.048  29.653  1.00  0.00     0.054 A 
BRANCH  79  80
ATOM     80  S   UNL A   1      36.338  30.586  30.157  1.00  0.00     0.124 S 
ATOM     81  O   UNL A   1      35.567  30.373  28.936  1.00  0.00    -0.237 OA
ATOM     82  O   UNL A   1      36.032  29.686  31.265  1.00  0.00    -0.237 OA
ATOM     83  O   UNL A   1      36.538  31.983  30.537  1.00  0.00    -0.744 OA
ENDBRANCH  79  80
ENDBRANCH  51  74
BRANCH  63  84
ATOM     84  C   UNL A   1      46.576  32.592  28.131  1.00  0.00    -0.014 A 
ATOM     85  C   UNL A   1      47.093  33.069  29.349  1.00  0.00     0.010 A 
ATOM     86  C   UNL A   1      46.468  33.470  27.037  1.00  0.00     0.010 A 
ATOM     87  C   UNL A   1      47.472  34.407  29.476  1.00  0.00     0.020 A 
ATOM     88  C   UNL A   1      46.866  34.803  27.156  1.00  0.00     0.020 A 
ATOM     89  C   UNL A   1      47.354  35.266  28.378  1.00  0.00     0.054 A 
BRANCH  89  90
ATOM     90  S   UNL A   1      47.898  36.988  28.552  1.00  0.00     0.124 S 
ATOM     91  O   UNL A   1      49.340  36.834  28.730  1.00  0.00    -0.237 OA
ATOM     92  O   UNL A   1      47.483  37.588  27.287  1.00  0.00    -0.237 OA
ATOM     93  O   UNL A   1      47.171  37.462  29.726  1.00  0.00    -0.744 OA
ENDBRANCH  89  90
ENDBRANCH  63  84
ENDBRANCH  37  38
ENDBRANCH  29  32
ENDBRANCH  27  28
ENDBRANCH  26  27
ENDBRANCH   1  26
TORSDOF 19
ENDMDL
