MODEL 1
REMARK VINA RESULT:     -11.6      0.000      0.000
REMARK SMILES Cc1[nH]c2ccccc2c1/N=N\c1ccccc1C(=O)NCCCCNC(=O)c1ccc(-c2c3nc(c(-c4ccc(S(=O)(=O)[O-])cc4)c4ccc([nH]4)c(-c4ccc(S(=O)(=O)[O-])cc4)c4nc(c(-c5ccc(S(=O)(=O)[O-])cc5)c5ccc2[nH]5)C=C4)C=C3)cc1
REMARK SMILES IDX 24 1 23 2 22 3 21 4 19 5 20 6 18 8 13 9 14 10 15 11 17 12
REMARK SMILES IDX 16 13 12 14 11 15 10 16 1 17 2 18 3 19 4 20 9 22 5 23 8 24
REMARK SMILES IDX 6 25 7 26 25 27 26 28 27 29 28 31 29 32 30 33 88 34 31 35
REMARK SMILES IDX 87 36 32 37 33 38 34 39 81 40 35 41 86 42 80 43 82 44 36 45
REMARK SMILES IDX 85 46 79 47 78 48 37 50 67 51 48 52 66 53 49 54 52 55 65 56
REMARK SMILES IDX 83 57 50 58 51 59 64 61 84 62 53 63 38 64 39 65 47 66 40 67
REMARK SMILES IDX 46 68 41 69 42 70 43 71 44 72 45 73 68 74 69 75 77 76 70 77
REMARK SMILES IDX 76 78 71 79 72 80 73 81 74 82 75 83 54 84 55 85 63 86 56 87
REMARK SMILES IDX 62 88 57 89 58 90 59 91 60 92 61 93
REMARK H PARENT 21 7 3 21 26 30 82 49 52 60
REMARK Flexibility Score: inf
ROOT
ATOM      1  C   UNL A   1      33.936  28.313  25.848  1.00  0.00     0.023 C 
ENDROOT
BRANCH   1   2
ATOM      2  C   UNL A   1      33.236  29.089  24.734  1.00  0.00     0.023 C 
BRANCH   2   3
ATOM      3  C   UNL A   1      31.930  28.490  24.229  1.00  0.00     0.116 C 
BRANCH   3   4
ATOM      4  N   UNL A   1      32.094  27.569  23.120  1.00  0.00    -0.352 N 
ATOM      5  C   UNL A   1      32.056  26.196  23.125  1.00  0.00     0.253 C 
ATOM      6  O   UNL A   1      32.247  25.579  22.077  1.00  0.00    -0.269 OA
ATOM      7  H   UNL A   1      32.254  27.986  22.243  1.00  0.00     0.163 HD
BRANCH   5   8
ATOM      8  C   UNL A   1      31.885  25.427  24.380  1.00  0.00     0.067 A 
ATOM      9  C   UNL A   1      32.954  24.916  25.136  1.00  0.00     0.098 A 
ATOM     10  C   UNL A   1      32.658  24.176  26.295  1.00  0.00     0.031 A 
ATOM     11  C   UNL A   1      31.342  24.023  26.740  1.00  0.00     0.002 A 
ATOM     12  C   UNL A   1      30.566  25.303  24.854  1.00  0.00     0.016 A 
ATOM     13  C   UNL A   1      30.297  24.607  26.031  1.00  0.00     0.001 A 
BRANCH   9  14
ATOM     14  N   UNL A   1      34.307  25.111  24.768  1.00  0.00    -0.150 NA
ATOM     15  N   UNL A   1      34.711  24.324  23.878  1.00  0.00    -0.148 NA
BRANCH  15  16
ATOM     16  C   UNL A   1      34.987  23.024  24.336  1.00  0.00     0.114 A 
ATOM     17  C   UNL A   1      37.209  23.503  25.615  1.00  0.00     0.067 C 
ATOM     18  C   UNL A   1      36.091  22.688  25.090  1.00  0.00     0.041 A 
ATOM     19  N   UNL A   1      36.030  21.331  25.283  1.00  0.00    -0.357 N 
ATOM     20  C   UNL A   1      34.848  20.822  24.790  1.00  0.00     0.048 A 
ATOM     21  H   UNL A   1      36.733  20.794  25.715  1.00  0.00     0.166 HD
ATOM     22  C   UNL A   1      34.167  21.874  24.171  1.00  0.00     0.027 A 
ATOM     23  C   UNL A   1      34.343  19.519  24.851  1.00  0.00     0.027 A 
ATOM     24  C   UNL A   1      32.915  21.603  23.580  1.00  0.00     0.012 A 
ATOM     25  C   UNL A   1      33.092  19.281  24.278  1.00  0.00     0.002 A 
ATOM     26  C   UNL A   1      32.388  20.305  23.650  1.00  0.00     0.001 A 
ENDBRANCH  15  16
ENDBRANCH   9  14
ENDBRANCH   5   8
ENDBRANCH   3   4
ENDBRANCH   2   3
ENDBRANCH   1   2
BRANCH   1  27
ATOM     27  C   UNL A   1      33.431  28.561  27.267  1.00  0.00     0.116 C 
BRANCH  27  28
ATOM     28  N   UNL A   1      33.443  29.965  27.656  1.00  0.00    -0.352 N 
ATOM     29  C   UNL A   1      34.459  30.723  28.198  1.00  0.00     0.251 C 
ATOM     30  H   UNL A   1      32.597  30.445  27.509  1.00  0.00     0.163 HD
ATOM     31  O   UNL A   1      34.251  31.874  28.541  1.00  0.00    -0.269 OA
BRANCH  29  32
ATOM     32  C   UNL A   1      35.795  30.115  28.398  1.00  0.00     0.039 A 
ATOM     33  C   UNL A   1      36.719  30.170  27.352  1.00  0.00     0.014 A 
ATOM     34  C   UNL A   1      36.146  29.531  29.616  1.00  0.00     0.014 A 
ATOM     35  C   UNL A   1      38.028  29.727  27.562  1.00  0.00     0.010 A 
ATOM     36  C   UNL A   1      37.466  29.155  29.847  1.00  0.00     0.010 A 
ATOM     37  C   UNL A   1      38.425  29.262  28.827  1.00  0.00    -0.014 A 
BRANCH  37  38
ATOM     38  C   UNL A   1      39.843  28.919  29.108  1.00  0.00     0.031 A 
ATOM     39  C   UNL A   1      40.771  29.942  29.704  1.00  0.00     0.074 A 
ATOM     40  C   UNL A   1      40.315  27.704  28.761  1.00  0.00     0.049 A 
ATOM     41  N   UNL A   1      42.049  29.841  29.965  1.00  0.00    -0.248 NA
ATOM     42  C   UNL A   1      40.193  31.257  30.026  1.00  0.00     0.031 C 
ATOM     43  C   UNL A   1      39.532  26.638  28.128  1.00  0.00     0.029 A 
ATOM     44  N   UNL A   1      41.571  27.162  28.882  1.00  0.00    -0.354 N 
ATOM     45  C   UNL A   1      42.432  31.080  30.464  1.00  0.00     0.074 A 
ATOM     46  C   UNL A   1      41.262  31.930  30.426  1.00  0.00     0.031 C 
ATOM     47  C   UNL A   1      40.319  25.564  27.943  1.00  0.00     0.029 A 
ATOM     48  C   UNL A   1      41.667  25.875  28.408  1.00  0.00     0.049 A 
ATOM     49  H   UNL A   1      42.332  27.650  29.272  1.00  0.00     0.167 HD
ATOM     50  C   UNL A   1      43.643  31.471  30.928  1.00  0.00     0.031 A 
ATOM     51  C   UNL A   1      42.720  25.036  28.351  1.00  0.00     0.031 A 
ATOM     52  C   UNL A   1      44.804  30.622  30.979  1.00  0.00     0.049 A 
ATOM     53  C   UNL A   1      44.051  25.489  28.884  1.00  0.00     0.074 A 
ATOM     54  C   UNL A   1      46.061  30.912  31.483  1.00  0.00     0.029 A 
ATOM     55  N   UNL A   1      44.851  29.317  30.514  1.00  0.00    -0.354 N 
ATOM     56  N   UNL A   1      44.376  26.646  29.410  1.00  0.00    -0.248 NA
ATOM     57  C   UNL A   1      45.153  24.519  28.829  1.00  0.00     0.031 C 
ATOM     58  C   UNL A   1      46.878  29.794  31.288  1.00  0.00     0.029 A 
ATOM     59  C   UNL A   1      46.118  28.793  30.707  1.00  0.00     0.049 A 
ATOM     60  H   UNL A   1      44.096  28.834  30.107  1.00  0.00     0.167 HD
ATOM     61  C   UNL A   1      45.713  26.532  29.774  1.00  0.00     0.074 A 
ATOM     62  C   UNL A   1      46.132  25.192  29.418  1.00  0.00     0.031 C 
ATOM     63  C   UNL A   1      46.520  27.455  30.351  1.00  0.00     0.031 A 
BRANCH  50  64
ATOM     64  C   UNL A   1      43.770  32.888  31.420  1.00  0.00    -0.014 A 
ATOM     65  C   UNL A   1      43.518  33.211  32.765  1.00  0.00     0.010 A 
ATOM     66  C   UNL A   1      44.177  33.904  30.536  1.00  0.00     0.010 A 
ATOM     67  C   UNL A   1      43.628  34.532  33.208  1.00  0.00     0.020 A 
ATOM     68  C   UNL A   1      44.314  35.221  30.981  1.00  0.00     0.020 A 
ATOM     69  C   UNL A   1      44.020  35.530  32.311  1.00  0.00     0.054 A 
BRANCH  69  70
ATOM     70  S   UNL A   1      44.170  37.233  32.916  1.00  0.00     0.124 S 
ATOM     71  O   UNL A   1      45.459  37.195  33.604  1.00  0.00    -0.237 OA
ATOM     72  O   UNL A   1      44.141  38.017  31.684  1.00  0.00    -0.237 OA
ATOM     73  O   UNL A   1      43.006  37.398  33.783  1.00  0.00    -0.744 OA
ENDBRANCH  69  70
ENDBRANCH  50  64
BRANCH  51  74
ATOM     74  C   UNL A   1      42.553  23.669  27.788  1.00  0.00    -0.014 A 
ATOM     75  C   UNL A   1      42.847  23.416  26.436  1.00  0.00     0.010 A 
ATOM     76  C   UNL A   1      42.106  22.611  28.600  1.00  0.00     0.010 A 
ATOM     77  C   UNL A   1      42.677  22.137  25.901  1.00  0.00     0.020 A 
ATOM     78  C   UNL A   1      41.958  21.324  28.074  1.00  0.00     0.020 A 
ATOM     79  C   UNL A   1      42.233  21.098  26.723  1.00  0.00     0.054 A 
BRANCH  79  80
ATOM     80  S   UNL A   1      42.065  19.433  26.021  1.00  0.00     0.124 S 
ATOM     81  O   UNL A   1      40.623  19.334  25.820  1.00  0.00    -0.237 OA
ATOM     82  O   UNL A   1      42.869  19.519  24.803  1.00  0.00    -0.237 OA
ATOM     83  O   UNL A   1      42.616  18.567  27.061  1.00  0.00    -0.744 OA
ENDBRANCH  79  80
ENDBRANCH  51  74
BRANCH  63  84
ATOM     84  C   UNL A   1      47.929  27.038  30.673  1.00  0.00    -0.014 A 
ATOM     85  C   UNL A   1      48.979  27.255  29.764  1.00  0.00     0.010 A 
ATOM     86  C   UNL A   1      48.213  26.465  31.927  1.00  0.00     0.010 A 
ATOM     87  C   UNL A   1      50.285  26.878  30.092  1.00  0.00     0.020 A 
ATOM     88  C   UNL A   1      49.521  26.110  32.267  1.00  0.00     0.020 A 
ATOM     89  C   UNL A   1      50.547  26.306  31.340  1.00  0.00     0.054 A 
BRANCH  89  90
ATOM     90  S   UNL A   1      52.255  25.866  31.761  1.00  0.00     0.124 S 
ATOM     91  O   UNL A   1      52.560  26.819  32.825  1.00  0.00    -0.237 OA
ATOM     92  O   UNL A   1      52.136  24.471  32.181  1.00  0.00    -0.237 OA
ATOM     93  O   UNL A   1      52.983  26.074  30.511  1.00  0.00    -0.744 OA
ENDBRANCH  89  90
ENDBRANCH  63  84
ENDBRANCH  37  38
ENDBRANCH  29  32
ENDBRANCH  27  28
ENDBRANCH   1  27
TORSDOF 16
ENDMDL
MODEL 2
REMARK VINA RESULT:     -11.6      1.004      2.133
REMARK SMILES Cc1[nH]c2ccccc2c1/N=N\c1ccccc1C(=O)NCCCCNC(=O)c1ccc(-c2c3nc(c(-c4ccc(S(=O)(=O)[O-])cc4)c4ccc([nH]4)c(-c4ccc(S(=O)(=O)[O-])cc4)c4nc(c(-c5ccc(S(=O)(=O)[O-])cc5)c5ccc2[nH]5)C=C4)C=C3)cc1
REMARK SMILES IDX 24 1 23 2 22 3 21 4 19 5 20 6 18 8 13 9 14 10 15 11 17 12
REMARK SMILES IDX 16 13 12 14 11 15 10 16 1 17 2 18 3 19 4 20 9 22 5 23 8 24
REMARK SMILES IDX 6 25 7 26 25 27 26 28 27 29 28 31 29 32 30 33 88 34 31 35
REMARK SMILES IDX 87 36 32 37 33 38 34 39 81 40 35 41 86 42 80 43 82 44 36 45
REMARK SMILES IDX 85 46 79 47 78 48 37 50 67 51 48 52 66 53 49 54 52 55 65 56
REMARK SMILES IDX 83 57 50 58 51 59 64 61 84 62 53 63 38 64 39 65 47 66 40 67
REMARK SMILES IDX 46 68 41 69 42 70 43 71 44 72 45 73 68 74 69 75 77 76 70 77
REMARK SMILES IDX 76 78 71 79 72 80 73 81 74 82 75 83 54 84 55 85 63 86 56 87
REMARK SMILES IDX 62 88 57 89 58 90 59 91 60 92 61 93
REMARK H PARENT 21 7 3 21 26 30 82 49 52 60
REMARK Flexibility Score: inf
ROOT
ATOM      1  C   UNL A   1      33.459  28.307  25.817  1.00  0.00     0.023 C 
ENDROOT
BRANCH   1   2
ATOM      2  C   UNL A   1      33.918  26.896  25.450  1.00  0.00     0.023 C 
BRANCH   2   3
ATOM      3  C   UNL A   1      33.169  25.759  26.131  1.00  0.00     0.116 C 
BRANCH   3   4
ATOM      4  N   UNL A   1      31.749  25.728  25.837  1.00  0.00    -0.352 N 
ATOM      5  C   UNL A   1      31.101  25.166  24.764  1.00  0.00     0.253 C 
ATOM      6  O   UNL A   1      29.877  25.266  24.672  1.00  0.00    -0.269 OA
ATOM      7  H   UNL A   1      31.170  26.170  26.499  1.00  0.00     0.163 HD
BRANCH   5   8
ATOM      8  C   UNL A   1      31.845  24.520  23.658  1.00  0.00     0.067 A 
ATOM      9  C   UNL A   1      32.153  23.148  23.620  1.00  0.00     0.098 A 
ATOM     10  C   UNL A   1      32.891  22.661  22.526  1.00  0.00     0.031 A 
ATOM     11  C   UNL A   1      33.237  23.492  21.457  1.00  0.00     0.002 A 
ATOM     12  C   UNL A   1      32.163  25.343  22.562  1.00  0.00     0.016 A 
ATOM     13  C   UNL A   1      32.853  24.830  21.465  1.00  0.00     0.001 A 
BRANCH   9  14
ATOM     14  N   UNL A   1      31.756  22.251  24.639  1.00  0.00    -0.150 NA
ATOM     15  N   UNL A   1      32.506  22.260  25.646  1.00  0.00    -0.148 NA
BRANCH  15  16
ATOM     16  C   UNL A   1      33.721  21.577  25.469  1.00  0.00     0.114 A 
ATOM     17  C   UNL A   1      32.783  19.204  24.931  1.00  0.00     0.067 C 
ATOM     18  C   UNL A   1      33.817  20.237  25.163  1.00  0.00     0.041 A 
ATOM     19  N   UNL A   1      35.157  19.941  25.132  1.00  0.00    -0.357 N 
ATOM     20  C   UNL A   1      35.911  21.085  25.275  1.00  0.00     0.048 A 
ATOM     21  H   UNL A   1      35.528  19.035  25.023  1.00  0.00     0.166 HD
ATOM     22  C   UNL A   1      35.026  22.143  25.503  1.00  0.00     0.027 A 
ATOM     23  C   UNL A   1      37.299  21.252  25.218  1.00  0.00     0.027 A 
ATOM     24  C   UNL A   1      35.562  23.435  25.685  1.00  0.00     0.012 A 
ATOM     25  C   UNL A   1      37.804  22.544  25.379  1.00  0.00     0.002 A 
ATOM     26  C   UNL A   1      36.951  23.620  25.611  1.00  0.00     0.001 A 
ENDBRANCH  15  16
ENDBRANCH   9  14
ENDBRANCH   5   8
ENDBRANCH   3   4
ENDBRANCH   2   3
ENDBRANCH   1   2
BRANCH   1  27
ATOM     27  C   UNL A   1      33.315  28.606  27.306  1.00  0.00     0.116 C 
BRANCH  27  28
ATOM     28  N   UNL A   1      33.346  30.027  27.625  1.00  0.00    -0.352 N 
ATOM     29  C   UNL A   1      34.374  30.797  28.127  1.00  0.00     0.251 C 
ATOM     30  H   UNL A   1      32.506  30.510  27.455  1.00  0.00     0.163 HD
ATOM     31  O   UNL A   1      34.182  31.966  28.413  1.00  0.00    -0.269 OA
BRANCH  29  32
ATOM     32  C   UNL A   1      35.702  30.182  28.356  1.00  0.00     0.039 A 
ATOM     33  C   UNL A   1      36.601  30.116  27.289  1.00  0.00     0.014 A 
ATOM     34  C   UNL A   1      36.069  29.708  29.616  1.00  0.00     0.014 A 
ATOM     35  C   UNL A   1      37.906  29.665  27.513  1.00  0.00     0.010 A 
ATOM     36  C   UNL A   1      37.387  29.327  29.853  1.00  0.00     0.010 A 
ATOM     37  C   UNL A   1      38.324  29.315  28.807  1.00  0.00    -0.014 A 
BRANCH  37  38
ATOM     38  C   UNL A   1      39.740  28.969  29.090  1.00  0.00     0.031 A 
ATOM     39  C   UNL A   1      40.672  29.992  29.679  1.00  0.00     0.074 A 
ATOM     40  C   UNL A   1      40.208  27.750  28.748  1.00  0.00     0.049 A 
ATOM     41  N   UNL A   1      41.950  29.889  29.939  1.00  0.00    -0.248 NA
ATOM     42  C   UNL A   1      40.099  31.311  29.994  1.00  0.00     0.031 C 
ATOM     43  C   UNL A   1      39.422  26.683  28.122  1.00  0.00     0.029 A 
ATOM     44  N   UNL A   1      41.463  27.205  28.872  1.00  0.00    -0.354 N 
ATOM     45  C   UNL A   1      42.337  31.129  30.431  1.00  0.00     0.074 A 
ATOM     46  C   UNL A   1      41.170  31.982  30.389  1.00  0.00     0.031 C 
ATOM     47  C   UNL A   1      40.205  25.606  27.942  1.00  0.00     0.029 A 
ATOM     48  C   UNL A   1      41.554  25.915  28.405  1.00  0.00     0.049 A 
ATOM     49  H   UNL A   1      42.225  27.693  29.259  1.00  0.00     0.167 HD
ATOM     50  C   UNL A   1      43.550  31.519  30.892  1.00  0.00     0.031 A 
ATOM     51  C   UNL A   1      42.604  25.072  28.352  1.00  0.00     0.031 A 
ATOM     52  C   UNL A   1      44.708  30.667  30.947  1.00  0.00     0.049 A 
ATOM     53  C   UNL A   1      43.937  25.525  28.882  1.00  0.00     0.074 A 
ATOM     54  C   UNL A   1      45.966  30.956  31.449  1.00  0.00     0.029 A 
ATOM     55  N   UNL A   1      44.751  29.359  30.490  1.00  0.00    -0.354 N 
ATOM     56  N   UNL A   1      44.266  26.683  29.400  1.00  0.00    -0.248 NA
ATOM     57  C   UNL A   1      45.036  24.551  28.831  1.00  0.00     0.031 C 
ATOM     58  C   UNL A   1      46.780  29.834  31.259  1.00  0.00     0.029 A 
ATOM     59  C   UNL A   1      46.016  28.832  30.684  1.00  0.00     0.049 A 
ATOM     60  H   UNL A   1      43.993  28.876  30.086  1.00  0.00     0.167 HD
ATOM     61  C   UNL A   1      45.603  26.567  29.764  1.00  0.00     0.074 A 
ATOM     62  C   UNL A   1      46.018  25.223  29.416  1.00  0.00     0.031 C 
ATOM     63  C   UNL A   1      46.414  27.491  30.336  1.00  0.00     0.031 A 
BRANCH  50  64
ATOM     64  C   UNL A   1      43.682  32.938  31.376  1.00  0.00    -0.014 A 
ATOM     65  C   UNL A   1      44.169  33.949  30.528  1.00  0.00     0.010 A 
ATOM     66  C   UNL A   1      43.286  33.273  32.683  1.00  0.00     0.010 A 
ATOM     67  C   UNL A   1      44.298  35.261  30.991  1.00  0.00     0.020 A 
ATOM     68  C   UNL A   1      43.388  34.589  33.143  1.00  0.00     0.020 A 
ATOM     69  C   UNL A   1      43.912  35.571  32.299  1.00  0.00     0.054 A 
BRANCH  69  70
ATOM     70  S   UNL A   1      44.075  37.285  32.870  1.00  0.00     0.124 S 
ATOM     71  O   UNL A   1      43.071  37.344  33.931  1.00  0.00    -0.237 OA
ATOM     72  O   UNL A   1      45.464  37.345  33.318  1.00  0.00    -0.237 OA
ATOM     73  O   UNL A   1      43.772  38.078  31.681  1.00  0.00    -0.744 OA
ENDBRANCH  69  70
ENDBRANCH  50  64
BRANCH  51  74
ATOM     74  C   UNL A   1      42.433  23.703  27.797  1.00  0.00    -0.014 A 
ATOM     75  C   UNL A   1      42.499  23.486  26.409  1.00  0.00     0.010 A 
ATOM     76  C   UNL A   1      42.209  22.608  28.650  1.00  0.00     0.010 A 
ATOM     77  C   UNL A   1      42.323  22.203  25.883  1.00  0.00     0.020 A 
ATOM     78  C   UNL A   1      42.057  21.320  28.130  1.00  0.00     0.020 A 
ATOM     79  C   UNL A   1      42.103  21.127  26.747  1.00  0.00     0.054 A 
BRANCH  79  80
ATOM     80  S   UNL A   1      41.926  19.462  26.048  1.00  0.00     0.124 S 
ATOM     81  O   UNL A   1      42.858  19.504  24.926  1.00  0.00    -0.237 OA
ATOM     82  O   UNL A   1      42.318  18.605  27.165  1.00  0.00    -0.237 OA
ATOM     83  O   UNL A   1      40.511  19.392  25.688  1.00  0.00    -0.744 OA
ENDBRANCH  79  80
ENDBRANCH  51  74
BRANCH  63  84
ATOM     84  C   UNL A   1      47.822  27.071  30.659  1.00  0.00    -0.014 A 
ATOM     85  C   UNL A   1      48.879  27.317  29.765  1.00  0.00     0.010 A 
ATOM     86  C   UNL A   1      48.097  26.465  31.899  1.00  0.00     0.010 A 
ATOM     87  C   UNL A   1      50.183  26.937  30.095  1.00  0.00     0.020 A 
ATOM     88  C   UNL A   1      49.403  26.107  32.242  1.00  0.00     0.020 A 
ATOM     89  C   UNL A   1      50.436  26.332  31.330  1.00  0.00     0.054 A 
BRANCH  89  90
ATOM     90  S   UNL A   1      52.143  25.888  31.754  1.00  0.00     0.124 S 
ATOM     91  O   UNL A   1      51.987  24.521  32.244  1.00  0.00    -0.237 OA
ATOM     92  O   UNL A   1      52.840  26.023  30.477  1.00  0.00    -0.237 OA
ATOM     93  O   UNL A   1      52.515  26.874  32.767  1.00  0.00    -0.744 OA
ENDBRANCH  89  90
ENDBRANCH  63  84
ENDBRANCH  37  38
ENDBRANCH  29  32
ENDBRANCH  27  28
ENDBRANCH   1  27
TORSDOF 16
ENDMDL
MODEL 3
REMARK VINA RESULT:     -11.6      1.139      2.075
REMARK SMILES Cc1[nH]c2ccccc2c1/N=N\c1ccccc1C(=O)NCCCCNC(=O)c1ccc(-c2c3nc(c(-c4ccc(S(=O)(=O)[O-])cc4)c4ccc([nH]4)c(-c4ccc(S(=O)(=O)[O-])cc4)c4nc(c(-c5ccc(S(=O)(=O)[O-])cc5)c5ccc2[nH]5)C=C4)C=C3)cc1
REMARK SMILES IDX 24 1 23 2 22 3 21 4 19 5 20 6 18 8 13 9 14 10 15 11 17 12
REMARK SMILES IDX 16 13 12 14 11 15 10 16 1 17 2 18 3 19 4 20 9 22 5 23 8 24
REMARK SMILES IDX 6 25 7 26 25 27 26 28 27 29 28 31 29 32 30 33 88 34 31 35
REMARK SMILES IDX 87 36 32 37 33 38 34 39 81 40 35 41 86 42 80 43 82 44 36 45
REMARK SMILES IDX 85 46 79 47 78 48 37 50 67 51 48 52 66 53 49 54 52 55 65 56
REMARK SMILES IDX 83 57 50 58 51 59 64 61 84 62 53 63 38 64 39 65 47 66 40 67
REMARK SMILES IDX 46 68 41 69 42 70 43 71 44 72 45 73 68 74 69 75 77 76 70 77
REMARK SMILES IDX 76 78 71 79 72 80 73 81 74 82 75 83 54 84 55 85 63 86 56 87
REMARK SMILES IDX 62 88 57 89 58 90 59 91 60 92 61 93
REMARK H PARENT 21 7 3 21 26 30 82 49 52 60
REMARK Flexibility Score: inf
ROOT
ATOM      1  C   UNL A   1      32.952  28.212  25.803  1.00  0.00     0.023 C 
ENDROOT
BRANCH   1   2
ATOM      2  C   UNL A   1      34.008  27.781  24.787  1.00  0.00     0.023 C 
BRANCH   2   3
ATOM      3  C   UNL A   1      33.886  28.403  23.402  1.00  0.00     0.116 C 
BRANCH   3   4
ATOM      4  N   UNL A   1      33.946  27.443  22.317  1.00  0.00    -0.352 N 
ATOM      5  C   UNL A   1      32.971  26.588  21.867  1.00  0.00     0.253 C 
ATOM      6  O   UNL A   1      33.218  25.817  20.939  1.00  0.00    -0.269 OA
ATOM      7  H   UNL A   1      34.803  27.400  21.836  1.00  0.00     0.163 HD
BRANCH   5   8
ATOM      8  C   UNL A   1      31.648  26.497  22.530  1.00  0.00     0.067 A 
ATOM      9  C   UNL A   1      31.044  25.284  22.905  1.00  0.00     0.098 A 
ATOM     10  C   UNL A   1      29.771  25.331  23.502  1.00  0.00     0.031 A 
ATOM     11  C   UNL A   1      29.154  26.549  23.800  1.00  0.00     0.002 A 
ATOM     12  C   UNL A   1      31.040  27.720  22.867  1.00  0.00     0.016 A 
ATOM     13  C   UNL A   1      29.800  27.745  23.502  1.00  0.00     0.001 A 
BRANCH   9  14
ATOM     14  N   UNL A   1      31.662  24.029  22.696  1.00  0.00    -0.150 NA
ATOM     15  N   UNL A   1      31.786  23.342  23.740  1.00  0.00    -0.148 NA
BRANCH  15  16
ATOM     16  C   UNL A   1      32.830  23.755  24.585  1.00  0.00     0.114 A 
ATOM     17  C   UNL A   1      31.412  24.675  26.571  1.00  0.00     0.067 C 
ATOM     18  C   UNL A   1      32.642  24.342  25.817  1.00  0.00     0.041 A 
ATOM     19  N   UNL A   1      33.891  24.647  26.297  1.00  0.00    -0.357 N 
ATOM     20  C   UNL A   1      34.867  24.146  25.464  1.00  0.00     0.048 A 
ATOM     21  H   UNL A   1      34.065  25.155  27.122  1.00  0.00     0.166 HD
ATOM     22  C   UNL A   1      34.224  23.581  24.359  1.00  0.00     0.027 A 
ATOM     23  C   UNL A   1      36.258  24.153  25.614  1.00  0.00     0.027 A 
ATOM     24  C   UNL A   1      35.018  22.996  23.350  1.00  0.00     0.012 A 
ATOM     25  C   UNL A   1      37.021  23.548  24.613  1.00  0.00     0.002 A 
ATOM     26  C   UNL A   1      36.413  22.979  23.496  1.00  0.00     0.001 A 
ENDBRANCH  15  16
ENDBRANCH   9  14
ENDBRANCH   5   8
ENDBRANCH   3   4
ENDBRANCH   2   3
ENDBRANCH   1   2
BRANCH   1  27
ATOM     27  C   UNL A   1      33.447  28.483  27.221  1.00  0.00     0.116 C 
BRANCH  27  28
ATOM     28  N   UNL A   1      33.444  29.894  27.584  1.00  0.00    -0.352 N 
ATOM     29  C   UNL A   1      34.448  30.667  28.128  1.00  0.00     0.251 C 
ATOM     30  H   UNL A   1      32.598  30.366  27.415  1.00  0.00     0.163 HD
ATOM     31  O   UNL A   1      34.228  31.823  28.446  1.00  0.00    -0.269 OA
BRANCH  29  32
ATOM     32  C   UNL A   1      35.784  30.071  28.360  1.00  0.00     0.039 A 
ATOM     33  C   UNL A   1      36.713  30.083  27.318  1.00  0.00     0.014 A 
ATOM     34  C   UNL A   1      36.129  29.540  29.604  1.00  0.00     0.014 A 
ATOM     35  C   UNL A   1      38.021  29.651  27.554  1.00  0.00     0.010 A 
ATOM     36  C   UNL A   1      37.449  29.176  29.857  1.00  0.00     0.010 A 
ATOM     37  C   UNL A   1      38.413  29.242  28.839  1.00  0.00    -0.014 A 
BRANCH  37  38
ATOM     38  C   UNL A   1      39.829  28.913  29.142  1.00  0.00     0.031 A 
ATOM     39  C   UNL A   1      40.735  29.943  29.760  1.00  0.00     0.074 A 
ATOM     40  C   UNL A   1      40.322  27.706  28.794  1.00  0.00     0.049 A 
ATOM     41  N   UNL A   1      42.010  29.855  30.042  1.00  0.00    -0.248 NA
ATOM     42  C   UNL A   1      40.136  31.249  30.081  1.00  0.00     0.031 C 
ATOM     43  C   UNL A   1      39.563  26.635  28.141  1.00  0.00     0.029 A 
ATOM     44  N   UNL A   1      41.582  27.178  28.934  1.00  0.00    -0.354 N 
ATOM     45  C   UNL A   1      42.369  31.095  30.556  1.00  0.00     0.074 A 
ATOM     46  C   UNL A   1      41.190  31.931  30.504  1.00  0.00     0.031 C 
ATOM     47  C   UNL A   1      40.365  25.573  27.962  1.00  0.00     0.029 A 
ATOM     48  C   UNL A   1      41.701  25.896  28.452  1.00  0.00     0.049 A 
ATOM     49  H   UNL A   1      42.330  27.672  29.340  1.00  0.00     0.167 HD
ATOM     50  C   UNL A   1      43.568  31.497  31.043  1.00  0.00     0.031 A 
ATOM     51  C   UNL A   1      42.765  25.070  28.408  1.00  0.00     0.031 A 
ATOM     52  C   UNL A   1      44.738  30.662  31.108  1.00  0.00     0.049 A 
ATOM     53  C   UNL A   1      44.081  25.535  28.967  1.00  0.00     0.074 A 
ATOM     54  C   UNL A   1      45.982  30.964  31.636  1.00  0.00     0.029 A 
ATOM     55  N   UNL A   1      44.808  29.361  30.636  1.00  0.00    -0.354 N 
ATOM     56  N   UNL A   1      44.383  26.692  29.505  1.00  0.00    -0.248 NA
ATOM     57  C   UNL A   1      45.196  24.578  28.924  1.00  0.00     0.031 C 
ATOM     58  C   UNL A   1      46.816  29.857  31.447  1.00  0.00     0.029 A 
ATOM     59  C   UNL A   1      46.078  28.850  30.846  1.00  0.00     0.049 A 
ATOM     60  H   UNL A   1      44.065  28.872  30.212  1.00  0.00     0.167 HD
ATOM     61  C   UNL A   1      45.716  26.591  29.891  1.00  0.00     0.074 A 
ATOM     62  C   UNL A   1      46.156  25.259  29.534  1.00  0.00     0.031 C 
ATOM     63  C   UNL A   1      46.502  27.520  30.489  1.00  0.00     0.031 A 
BRANCH  50  64
ATOM     64  C   UNL A   1      43.669  32.912  31.547  1.00  0.00    -0.014 A 
ATOM     65  C   UNL A   1      44.138  33.944  30.713  1.00  0.00     0.010 A 
ATOM     66  C   UNL A   1      43.263  33.221  32.857  1.00  0.00     0.010 A 
ATOM     67  C   UNL A   1      44.239  35.252  31.195  1.00  0.00     0.020 A 
ATOM     68  C   UNL A   1      43.338  34.533  33.335  1.00  0.00     0.020 A 
ATOM     69  C   UNL A   1      43.844  35.537  32.505  1.00  0.00     0.054 A 
BRANCH  69  70
ATOM     70  S   UNL A   1      43.970  37.245  33.101  1.00  0.00     0.124 S 
ATOM     71  O   UNL A   1      43.839  38.006  31.860  1.00  0.00    -0.237 OA
ATOM     72  O   UNL A   1      42.843  37.350  34.022  1.00  0.00    -0.237 OA
ATOM     73  O   UNL A   1      45.290  37.298  33.727  1.00  0.00    -0.744 OA
ENDBRANCH  69  70
ENDBRANCH  50  64
BRANCH  51  74
ATOM     74  C   UNL A   1      42.624  23.705  27.833  1.00  0.00    -0.014 A 
ATOM     75  C   UNL A   1      42.884  23.478  26.470  1.00  0.00     0.010 A 
ATOM     76  C   UNL A   1      42.236  22.624  28.644  1.00  0.00     0.010 A 
ATOM     77  C   UNL A   1      42.738  22.200  25.924  1.00  0.00     0.020 A 
ATOM     78  C   UNL A   1      42.112  21.340  28.107  1.00  0.00     0.020 A 
ATOM     79  C   UNL A   1      42.353  21.138  26.745  1.00  0.00     0.054 A 
BRANCH  79  80
ATOM     80  S   UNL A   1      42.215  19.477  26.028  1.00  0.00     0.124 S 
ATOM     81  O   UNL A   1      43.094  19.575  24.867  1.00  0.00    -0.237 OA
ATOM     82  O   UNL A   1      42.693  18.622  27.112  1.00  0.00    -0.237 OA
ATOM     83  O   UNL A   1      40.791  19.351  25.729  1.00  0.00    -0.744 OA
ENDBRANCH  79  80
ENDBRANCH  51  74
BRANCH  63  84
ATOM     84  C   UNL A   1      47.910  27.117  30.831  1.00  0.00    -0.014 A 
ATOM     85  C   UNL A   1      48.203  26.439  32.027  1.00  0.00     0.010 A 
ATOM     86  C   UNL A   1      48.948  27.377  29.917  1.00  0.00     0.010 A 
ATOM     87  C   UNL A   1      49.516  26.055  32.316  1.00  0.00     0.020 A 
ATOM     88  C   UNL A   1      50.256  26.972  30.191  1.00  0.00     0.020 A 
ATOM     89  C   UNL A   1      50.534  26.326  31.397  1.00  0.00     0.054 A 
BRANCH  89  90
ATOM     90  S   UNL A   1      52.222  25.779  31.774  1.00  0.00     0.124 S 
ATOM     91  O   UNL A   1      52.599  26.683  32.857  1.00  0.00    -0.237 OA
ATOM     92  O   UNL A   1      52.032  24.382  32.158  1.00  0.00    -0.237 OA
ATOM     93  O   UNL A   1      52.939  25.980  30.516  1.00  0.00    -0.744 OA
ENDBRANCH  89  90
ENDBRANCH  63  84
ENDBRANCH  37  38
ENDBRANCH  29  32
ENDBRANCH  27  28
ENDBRANCH   1  27
TORSDOF 16
ENDMDL
