MODEL 1
REMARK VINA RESULT:     -11.3      0.000      0.000
REMARK SMILES CC(C)c1ccc([C@]2(C(=O)NCCCCNC(=O)c3ccc(-c4c5nc(c(-c6ccc(S(=O)(=O)[O-])cc6)c6ccc([nH]6)c(-c6ccc(S(=O)(=O)[O-])cc6)c6nc(c(-c7ccc(S(=O)(=O)[O-])cc7)c7ccc4[nH]7)C=C6)C=C5)cc3)CCC[C@@H]2C)cc1
REMARK SMILES IDX 14 1 13 2 12 3 11 4 9 5 10 6 8 8 79 9 82 10 80 11 81 12
REMARK SMILES IDX 83 13 7 14 4 15 5 16 85 17 6 18 84 19 2 20 1 21 3 22 15 23
REMARK SMILES IDX 16 24 17 25 18 27 19 28 20 29 78 30 21 31 77 32 22 33 23 34
REMARK SMILES IDX 24 35 71 36 25 37 76 38 70 39 72 40 26 41 75 42 69 43 68 44
REMARK SMILES IDX 27 46 57 47 38 48 56 49 39 50 42 51 55 52 73 53 40 54 41 55
REMARK SMILES IDX 54 57 74 58 43 59 28 60 29 61 37 62 30 63 36 64 31 65 32 66
REMARK SMILES IDX 33 67 34 68 35 69 58 70 59 71 67 72 60 73 66 74 61 75 62 76
REMARK SMILES IDX 63 77 64 78 65 79 44 80 45 81 53 82 46 83 52 84 47 85 48 86
REMARK SMILES IDX 49 87 50 88 51 89
REMARK H PARENT 11 7 16 26 72 45 42 56
REMARK Flexibility Score: inf
ROOT
ATOM      1  C   UNL A   1      32.365  30.994  26.670  1.00  0.00     0.023 C 
ENDROOT
BRANCH   1   2
ATOM      2  C   UNL A   1      31.784  29.752  27.342  1.00  0.00     0.023 C 
BRANCH   2   3
ATOM      3  C   UNL A   1      32.513  28.452  27.034  1.00  0.00     0.116 C 
BRANCH   3   4
ATOM      4  N   UNL A   1      31.704  27.265  27.130  1.00  0.00    -0.355 N 
ATOM      5  C   UNL A   1      31.626  26.146  26.360  1.00  0.00     0.230 C 
ATOM      6  O   UNL A   1      31.285  25.145  27.008  1.00  0.00    -0.274 OA
ATOM      7  H   UNL A   1      31.089  27.263  27.898  1.00  0.00     0.163 HD
BRANCH   5   8
ATOM      8  C   UNL A   1      31.881  26.050  24.786  1.00  0.00     0.077 C 
ATOM      9  C   UNL A   1      33.319  26.472  24.388  1.00  0.00     0.022 C 
ATOM     10  C   UNL A   1      31.785  24.588  24.198  1.00  0.00     0.006 C 
ATOM     11  C   UNL A   1      34.136  25.209  24.100  1.00  0.00     0.002 C 
ATOM     12  C   UNL A   1      33.206  24.012  24.245  1.00  0.00     0.005 C 
ATOM     13  C   UNL A   1      31.369  24.425  22.718  1.00  0.00     0.009 C 
BRANCH   8  14
ATOM     14  C   UNL A   1      30.825  27.022  24.170  1.00  0.00    -0.032 A 
ATOM     15  C   UNL A   1      28.934  28.841  23.045  1.00  0.00    -0.045 A 
ATOM     16  C   UNL A   1      30.296  29.145  23.065  1.00  0.00     0.004 A 
ATOM     17  C   UNL A   1      28.536  27.584  23.521  1.00  0.00     0.004 A 
ATOM     18  C   UNL A   1      31.223  28.230  23.572  1.00  0.00     0.005 A 
ATOM     19  C   UNL A   1      29.465  26.688  24.070  1.00  0.00     0.005 A 
BRANCH  15  20
ATOM     20  C   UNL A   1      27.887  29.829  22.558  1.00  0.00     0.013 C 
ATOM     21  C   UNL A   1      27.691  30.929  23.607  1.00  0.00     0.012 C 
ATOM     22  C   UNL A   1      28.193  30.455  21.193  1.00  0.00     0.012 C 
ENDBRANCH  15  20
ENDBRANCH   8  14
ENDBRANCH   5   8
ENDBRANCH   3   4
ENDBRANCH   2   3
ENDBRANCH   1   2
BRANCH   1  23
ATOM     23  C   UNL A   1      33.329  31.821  27.516  1.00  0.00     0.116 C 
BRANCH  23  24
ATOM     24  N   UNL A   1      32.888  33.182  27.783  1.00  0.00    -0.352 N 
ATOM     25  C   UNL A   1      33.418  34.083  28.684  1.00  0.00     0.251 C 
ATOM     26  H   UNL A   1      32.119  33.498  27.256  1.00  0.00     0.163 HD
ATOM     27  O   UNL A   1      32.898  35.175  28.850  1.00  0.00    -0.269 OA
BRANCH  25  28
ATOM     28  C   UNL A   1      34.599  33.679  29.479  1.00  0.00     0.039 A 
ATOM     29  C   UNL A   1      34.428  32.791  30.542  1.00  0.00     0.014 A 
ATOM     30  C   UNL A   1      35.875  34.127  29.130  1.00  0.00     0.014 A 
ATOM     31  C   UNL A   1      35.549  32.300  31.214  1.00  0.00     0.010 A 
ATOM     32  C   UNL A   1      36.992  33.570  29.742  1.00  0.00     0.010 A 
ATOM     33  C   UNL A   1      36.842  32.659  30.798  1.00  0.00    -0.014 A 
BRANCH  33  34
ATOM     34  C   UNL A   1      38.046  32.114  31.473  1.00  0.00     0.031 A 
ATOM     35  C   UNL A   1      38.452  32.641  32.823  1.00  0.00     0.074 A 
ATOM     36  C   UNL A   1      38.805  31.188  30.851  1.00  0.00     0.049 A 
ATOM     37  N   UNL A   1      39.472  32.300  33.570  1.00  0.00    -0.248 NA
ATOM     38  C   UNL A   1      37.623  33.713  33.399  1.00  0.00     0.031 C 
ATOM     39  C   UNL A   1      38.553  30.641  29.515  1.00  0.00     0.029 A 
ATOM     40  N   UNL A   1      39.941  30.540  31.264  1.00  0.00    -0.354 N 
ATOM     41  C   UNL A   1      39.421  33.132  34.683  1.00  0.00     0.074 A 
ATOM     42  C   UNL A   1      38.304  34.030  34.488  1.00  0.00     0.031 C 
ATOM     43  C   UNL A   1      39.479  29.707  29.241  1.00  0.00     0.029 A 
ATOM     44  C   UNL A   1      40.406  29.611  30.363  1.00  0.00     0.049 A 
ATOM     45  H   UNL A   1      40.382  30.722  32.126  1.00  0.00     0.167 HD
ATOM     46  C   UNL A   1      40.212  33.134  35.781  1.00  0.00     0.031 A 
ATOM     47  C   UNL A   1      41.453  28.766  30.439  1.00  0.00     0.031 A 
ATOM     48  C   UNL A   1      41.302  32.218  35.986  1.00  0.00     0.049 A 
ATOM     49  C   UNL A   1      42.297  28.760  31.685  1.00  0.00     0.074 A 
ATOM     50  C   UNL A   1      42.117  32.084  37.094  1.00  0.00     0.029 A 
ATOM     51  N   UNL A   1      41.725  31.277  35.059  1.00  0.00    -0.354 N 
ATOM     52  N   UNL A   1      42.182  29.499  32.763  1.00  0.00    -0.248 NA
ATOM     53  C   UNL A   1      43.401  27.791  31.731  1.00  0.00     0.031 C 
ATOM     54  C   UNL A   1      43.062  31.088  36.822  1.00  0.00     0.029 A 
ATOM     55  C   UNL A   1      42.800  30.567  35.564  1.00  0.00     0.049 A 
ATOM     56  H   UNL A   1      41.319  31.134  34.173  1.00  0.00     0.167 HD
ATOM     57  C   UNL A   1      43.177  29.059  33.630  1.00  0.00     0.074 A 
ATOM     58  C   UNL A   1      43.874  27.984  32.954  1.00  0.00     0.031 C 
ATOM     59  C   UNL A   1      43.480  29.500  34.877  1.00  0.00     0.031 A 
BRANCH  46  60
ATOM     60  C   UNL A   1      39.922  34.163  36.842  1.00  0.00    -0.014 A 
ATOM     61  C   UNL A   1      40.437  35.470  36.749  1.00  0.00     0.010 A 
ATOM     62  C   UNL A   1      39.118  33.823  37.944  1.00  0.00     0.010 A 
ATOM     63  C   UNL A   1      40.199  36.399  37.764  1.00  0.00     0.020 A 
ATOM     64  C   UNL A   1      38.851  34.759  38.946  1.00  0.00     0.020 A 
ATOM     65  C   UNL A   1      39.412  36.036  38.861  1.00  0.00     0.054 A 
BRANCH  65  66
ATOM     66  S   UNL A   1      39.114  37.262  40.163  1.00  0.00     0.124 S 
ATOM     67  O   UNL A   1      38.347  38.279  39.448  1.00  0.00    -0.237 OA
ATOM     68  O   UNL A   1      38.366  36.498  41.159  1.00  0.00    -0.237 OA
ATOM     69  O   UNL A   1      40.456  37.668  40.572  1.00  0.00    -0.744 OA
ENDBRANCH  65  66
ENDBRANCH  46  60
BRANCH  47  70
ATOM     70  C   UNL A   1      41.726  27.813  29.329  1.00  0.00    -0.014 A 
ATOM     71  C   UNL A   1      42.641  28.150  28.316  1.00  0.00     0.010 A 
ATOM     72  C   UNL A   1      41.085  26.562  29.282  1.00  0.00     0.010 A 
ATOM     73  C   UNL A   1      42.895  27.265  27.265  1.00  0.00     0.020 A 
ATOM     74  C   UNL A   1      41.355  25.663  28.246  1.00  0.00     0.020 A 
ATOM     75  C   UNL A   1      42.251  26.025  27.236  1.00  0.00     0.054 A 
BRANCH  75  76
ATOM     76  S   UNL A   1      42.634  24.871  25.890  1.00  0.00     0.124 S 
ATOM     77  O   UNL A   1      41.561  23.891  26.015  1.00  0.00    -0.237 OA
ATOM     78  O   UNL A   1      42.574  25.730  24.709  1.00  0.00    -0.237 OA
ATOM     79  O   UNL A   1      43.970  24.385  26.227  1.00  0.00    -0.744 OA
ENDBRANCH  75  76
ENDBRANCH  47  70
BRANCH  59  80
ATOM     80  C   UNL A   1      44.587  28.789  35.607  1.00  0.00    -0.014 A 
ATOM     81  C   UNL A   1      44.332  27.657  36.402  1.00  0.00     0.010 A 
ATOM     82  C   UNL A   1      45.912  29.242  35.461  1.00  0.00     0.010 A 
ATOM     83  C   UNL A   1      45.378  27.018  37.072  1.00  0.00     0.020 A 
ATOM     84  C   UNL A   1      46.962  28.588  36.108  1.00  0.00     0.020 A 
ATOM     85  C   UNL A   1      46.685  27.490  36.925  1.00  0.00     0.054 A 
BRANCH  85  86
ATOM     86  S   UNL A   1      48.029  26.630  37.786  1.00  0.00     0.124 S 
ATOM     87  O   UNL A   1      47.946  25.288  37.213  1.00  0.00    -0.237 OA
ATOM     88  O   UNL A   1      49.207  27.404  37.402  1.00  0.00    -0.237 OA
ATOM     89  O   UNL A   1      47.658  26.730  39.196  1.00  0.00    -0.744 OA
ENDBRANCH  85  86
ENDBRANCH  59  80
ENDBRANCH  33  34
ENDBRANCH  25  28
ENDBRANCH  23  24
ENDBRANCH   1  23
TORSDOF 16
ENDMDL
MODEL 2
REMARK VINA RESULT:     -11.2      6.222     11.922
REMARK SMILES CC(C)c1ccc([C@]2(C(=O)NCCCCNC(=O)c3ccc(-c4c5nc(c(-c6ccc(S(=O)(=O)[O-])cc6)c6ccc([nH]6)c(-c6ccc(S(=O)(=O)[O-])cc6)c6nc(c(-c7ccc(S(=O)(=O)[O-])cc7)c7ccc4[nH]7)C=C6)C=C5)cc3)CCC[C@@H]2C)cc1
REMARK SMILES IDX 14 1 13 2 12 3 11 4 9 5 10 6 8 8 79 9 82 10 80 11 81 12
REMARK SMILES IDX 83 13 7 14 4 15 5 16 85 17 6 18 84 19 2 20 1 21 3 22 15 23
REMARK SMILES IDX 16 24 17 25 18 27 19 28 20 29 78 30 21 31 77 32 22 33 23 34
REMARK SMILES IDX 24 35 71 36 25 37 76 38 70 39 72 40 26 41 75 42 69 43 68 44
REMARK SMILES IDX 27 46 57 47 38 48 56 49 39 50 42 51 55 52 73 53 40 54 41 55
REMARK SMILES IDX 54 57 74 58 43 59 28 60 29 61 37 62 30 63 36 64 31 65 32 66
REMARK SMILES IDX 33 67 34 68 35 69 58 70 59 71 67 72 60 73 66 74 61 75 62 76
REMARK SMILES IDX 63 77 64 78 65 79 44 80 45 81 53 82 46 83 52 84 47 85 48 86
REMARK SMILES IDX 49 87 50 88 51 89
REMARK H PARENT 11 7 16 26 72 45 42 56
REMARK Flexibility Score: inf
ROOT
ATOM      1  C   UNL A   1      38.137  21.027  25.002  1.00  0.00     0.023 C 
ENDROOT
BRANCH   1   2
ATOM      2  C   UNL A   1      36.840  21.771  25.309  1.00  0.00     0.023 C 
BRANCH   2   3
ATOM      3  C   UNL A   1      36.776  23.199  24.786  1.00  0.00     0.116 C 
BRANCH   3   4
ATOM      4  N   UNL A   1      35.939  23.385  23.629  1.00  0.00    -0.355 N 
ATOM      5  C   UNL A   1      34.648  23.793  23.490  1.00  0.00     0.230 C 
ATOM      6  O   UNL A   1      34.445  24.368  22.410  1.00  0.00    -0.274 OA
ATOM      7  H   UNL A   1      36.386  23.178  22.777  1.00  0.00     0.163 HD
BRANCH   5   8
ATOM      8  C   UNL A   1      33.456  23.557  24.525  1.00  0.00     0.077 C 
ATOM      9  C   UNL A   1      33.825  23.986  25.968  1.00  0.00     0.022 C 
ATOM     10  C   UNL A   1      32.163  24.418  24.238  1.00  0.00     0.006 C 
ATOM     11  C   UNL A   1      33.158  25.333  26.263  1.00  0.00     0.002 C 
ATOM     12  C   UNL A   1      32.323  25.712  25.047  1.00  0.00     0.005 C 
ATOM     13  C   UNL A   1      30.799  23.858  24.701  1.00  0.00     0.009 C 
BRANCH   8  14
ATOM     14  C   UNL A   1      33.188  22.020  24.452  1.00  0.00    -0.032 A 
ATOM     15  C   UNL A   1      32.727  19.203  24.371  1.00  0.00    -0.045 A 
ATOM     16  C   UNL A   1      33.159  19.825  25.544  1.00  0.00     0.004 A 
ATOM     17  C   UNL A   1      32.452  20.015  23.262  1.00  0.00     0.004 A 
ATOM     18  C   UNL A   1      33.335  21.210  25.593  1.00  0.00     0.005 A 
ATOM     19  C   UNL A   1      32.674  21.400  23.303  1.00  0.00     0.005 A 
BRANCH  15  20
ATOM     20  C   UNL A   1      32.579  17.695  24.256  1.00  0.00     0.013 C 
ATOM     21  C   UNL A   1      33.710  17.132  23.389  1.00  0.00     0.012 C 
ATOM     22  C   UNL A   1      32.533  16.960  25.599  1.00  0.00     0.012 C 
ENDBRANCH  15  20
ENDBRANCH   8  14
ENDBRANCH   5   8
ENDBRANCH   3   4
ENDBRANCH   2   3
ENDBRANCH   1   2
BRANCH   1  23
ATOM     23  C   UNL A   1      39.196  21.053  26.101  1.00  0.00     0.116 C 
BRANCH  23  24
ATOM     24  N   UNL A   1      40.094  19.907  26.105  1.00  0.00    -0.352 N 
ATOM     25  C   UNL A   1      41.461  19.904  26.287  1.00  0.00     0.251 C 
ATOM     26  H   UNL A   1      39.674  19.029  25.959  1.00  0.00     0.163 HD
ATOM     27  O   UNL A   1      42.098  18.866  26.196  1.00  0.00    -0.269 OA
BRANCH  25  28
ATOM     28  C   UNL A   1      42.146  21.190  26.547  1.00  0.00     0.039 A 
ATOM     29  C   UNL A   1      42.342  22.079  25.489  1.00  0.00     0.014 A 
ATOM     30  C   UNL A   1      42.529  21.539  27.845  1.00  0.00     0.014 A 
ATOM     31  C   UNL A   1      42.863  23.348  25.746  1.00  0.00     0.010 A 
ATOM     32  C   UNL A   1      42.965  22.832  28.110  1.00  0.00     0.010 A 
ATOM     33  C   UNL A   1      43.148  23.748  27.062  1.00  0.00    -0.014 A 
BRANCH  33  34
ATOM     34  C   UNL A   1      43.664  25.107  27.359  1.00  0.00     0.031 A 
ATOM     35  C   UNL A   1      45.107  25.438  27.085  1.00  0.00     0.074 A 
ATOM     36  C   UNL A   1      42.854  26.025  27.924  1.00  0.00     0.049 A 
ATOM     37  N   UNL A   1      45.747  26.563  27.282  1.00  0.00    -0.248 NA
ATOM     38  C   UNL A   1      45.950  24.357  26.549  1.00  0.00     0.031 C 
ATOM     39  C   UNL A   1      41.453  25.809  28.295  1.00  0.00     0.029 A 
ATOM     40  N   UNL A   1      43.092  27.328  28.282  1.00  0.00    -0.354 N 
ATOM     41  C   UNL A   1      47.067  26.315  26.921  1.00  0.00     0.074 A 
ATOM     42  C   UNL A   1      47.148  24.920  26.548  1.00  0.00     0.031 C 
ATOM     43  C   UNL A   1      40.945  26.953  28.783  1.00  0.00     0.029 A 
ATOM     44  C   UNL A   1      41.988  27.973  28.789  1.00  0.00     0.049 A 
ATOM     45  H   UNL A   1      43.971  27.762  28.183  1.00  0.00     0.167 HD
ATOM     46  C   UNL A   1      48.113  27.173  26.878  1.00  0.00     0.031 A 
ATOM     47  C   UNL A   1      41.831  29.247  29.199  1.00  0.00     0.031 A 
ATOM     48  C   UNL A   1      48.022  28.566  27.220  1.00  0.00     0.049 A 
ATOM     49  C   UNL A   1      42.998  30.193  29.108  1.00  0.00     0.074 A 
ATOM     50  C   UNL A   1      49.001  29.539  27.138  1.00  0.00     0.029 A 
ATOM     51  N   UNL A   1      46.880  29.185  27.707  1.00  0.00    -0.354 N 
ATOM     52  N   UNL A   1      44.218  29.960  28.686  1.00  0.00    -0.248 NA
ATOM     53  C   UNL A   1      42.759  31.580  29.530  1.00  0.00     0.031 C 
ATOM     54  C   UNL A   1      48.463  30.740  27.615  1.00  0.00     0.029 A 
ATOM     55  C   UNL A   1      47.133  30.525  27.944  1.00  0.00     0.049 A 
ATOM     56  H   UNL A   1      46.016  28.737  27.860  1.00  0.00     0.167 HD
ATOM     57  C   UNL A   1      44.882  31.179  28.758  1.00  0.00     0.074 A 
ATOM     58  C   UNL A   1      43.926  32.147  29.254  1.00  0.00     0.031 C 
ATOM     59  C   UNL A   1      46.168  31.473  28.436  1.00  0.00     0.031 A 
BRANCH  46  60
ATOM     60  C   UNL A   1      49.446  26.619  26.446  1.00  0.00    -0.014 A 
ATOM     61  C   UNL A   1      50.294  25.966  27.359  1.00  0.00     0.010 A 
ATOM     62  C   UNL A   1      49.853  26.746  25.106  1.00  0.00     0.010 A 
ATOM     63  C   UNL A   1      51.547  25.500  26.954  1.00  0.00     0.020 A 
ATOM     64  C   UNL A   1      51.093  26.253  24.689  1.00  0.00     0.020 A 
ATOM     65  C   UNL A   1      51.942  25.653  25.622  1.00  0.00     0.054 A 
BRANCH  65  66
ATOM     66  S   UNL A   1      53.571  25.035  25.120  1.00  0.00     0.124 S 
ATOM     67  O   UNL A   1      53.405  23.592  25.276  1.00  0.00    -0.237 OA
ATOM     68  O   UNL A   1      53.684  25.508  23.742  1.00  0.00    -0.237 OA
ATOM     69  O   UNL A   1      54.487  25.662  26.069  1.00  0.00    -0.744 OA
ENDBRANCH  65  66
ENDBRANCH  46  60
BRANCH  47  70
ATOM     70  C   UNL A   1      40.503  29.720  29.676  1.00  0.00    -0.014 A 
ATOM     71  C   UNL A   1      39.507  30.082  28.752  1.00  0.00     0.010 A 
ATOM     72  C   UNL A   1      40.220  29.800  31.051  1.00  0.00     0.010 A 
ATOM     73  C   UNL A   1      38.261  30.537  29.192  1.00  0.00     0.020 A 
ATOM     74  C   UNL A   1      38.966  30.231  31.496  1.00  0.00     0.020 A 
ATOM     75  C   UNL A   1      37.998  30.608  30.563  1.00  0.00     0.054 A 
BRANCH  75  76
ATOM     76  S   UNL A   1      36.356  31.152  31.111  1.00  0.00     0.124 S 
ATOM     77  O   UNL A   1      35.600  31.144  29.864  1.00  0.00    -0.237 OA
ATOM     78  O   UNL A   1      35.989  30.123  32.082  1.00  0.00    -0.237 OA
ATOM     79  O   UNL A   1      36.608  32.473  31.683  1.00  0.00    -0.744 OA
ENDBRANCH  75  76
ENDBRANCH  47  70
BRANCH  59  80
ATOM     80  C   UNL A   1      46.598  32.908  28.568  1.00  0.00    -0.014 A 
ATOM     81  C   UNL A   1      46.362  33.842  27.544  1.00  0.00     0.010 A 
ATOM     82  C   UNL A   1      47.216  33.336  29.758  1.00  0.00     0.010 A 
ATOM     83  C   UNL A   1      46.776  35.168  27.690  1.00  0.00     0.020 A 
ATOM     84  C   UNL A   1      47.605  34.668  29.918  1.00  0.00     0.020 A 
ATOM     85  C   UNL A   1      47.399  35.571  28.874  1.00  0.00     0.054 A 
BRANCH  85  86
ATOM     86  S   UNL A   1      47.906  37.303  29.052  1.00  0.00     0.124 S 
ATOM     87  O   UNL A   1      47.639  37.554  30.466  1.00  0.00    -0.237 OA
ATOM     88  O   UNL A   1      49.317  37.268  28.675  1.00  0.00    -0.237 OA
ATOM     89  O   UNL A   1      47.036  38.016  28.117  1.00  0.00    -0.744 OA
ENDBRANCH  85  86
ENDBRANCH  59  80
ENDBRANCH  33  34
ENDBRANCH  25  28
ENDBRANCH  23  24
ENDBRANCH   1  23
TORSDOF 16
ENDMDL
MODEL 3
REMARK VINA RESULT:     -11.2      2.887      9.373
REMARK SMILES CC(C)c1ccc([C@]2(C(=O)NCCCCNC(=O)c3ccc(-c4c5nc(c(-c6ccc(S(=O)(=O)[O-])cc6)c6ccc([nH]6)c(-c6ccc(S(=O)(=O)[O-])cc6)c6nc(c(-c7ccc(S(=O)(=O)[O-])cc7)c7ccc4[nH]7)C=C6)C=C5)cc3)CCC[C@@H]2C)cc1
REMARK SMILES IDX 14 1 13 2 12 3 11 4 9 5 10 6 8 8 79 9 82 10 80 11 81 12
REMARK SMILES IDX 83 13 7 14 4 15 5 16 85 17 6 18 84 19 2 20 1 21 3 22 15 23
REMARK SMILES IDX 16 24 17 25 18 27 19 28 20 29 78 30 21 31 77 32 22 33 23 34
REMARK SMILES IDX 24 35 71 36 25 37 76 38 70 39 72 40 26 41 75 42 69 43 68 44
REMARK SMILES IDX 27 46 57 47 38 48 56 49 39 50 42 51 55 52 73 53 40 54 41 55
REMARK SMILES IDX 54 57 74 58 43 59 28 60 29 61 37 62 30 63 36 64 31 65 32 66
REMARK SMILES IDX 33 67 34 68 35 69 58 70 59 71 67 72 60 73 66 74 61 75 62 76
REMARK SMILES IDX 63 77 64 78 65 79 44 80 45 81 53 82 46 83 52 84 47 85 48 86
REMARK SMILES IDX 49 87 50 88 51 89
REMARK H PARENT 11 7 16 26 72 45 42 56
REMARK Flexibility Score: inf
ROOT
ATOM      1  C   UNL A   1      39.298  22.302  26.574  1.00  0.00     0.023 C 
ENDROOT
BRANCH   1   2
ATOM      2  C   UNL A   1      38.077  22.206  25.663  1.00  0.00     0.023 C 
BRANCH   2   3
ATOM      3  C   UNL A   1      37.168  23.427  25.673  1.00  0.00     0.116 C 
BRANCH   3   4
ATOM      4  N   UNL A   1      36.101  23.383  26.638  1.00  0.00    -0.355 N 
ATOM      5  C   UNL A   1      34.819  22.932  26.566  1.00  0.00     0.230 C 
ATOM      6  O   UNL A   1      34.394  22.527  27.659  1.00  0.00    -0.274 OA
ATOM      7  H   UNL A   1      36.344  23.750  27.519  1.00  0.00     0.163 HD
BRANCH   5   8
ATOM      8  C   UNL A   1      33.880  22.930  25.274  1.00  0.00     0.077 C 
ATOM      9  C   UNL A   1      32.508  23.604  25.533  1.00  0.00     0.022 C 
ATOM     10  C   UNL A   1      34.442  23.769  24.059  1.00  0.00     0.006 C 
ATOM     11  C   UNL A   1      32.526  25.004  24.914  1.00  0.00     0.002 C 
ATOM     12  C   UNL A   1      33.866  25.183  24.211  1.00  0.00     0.005 C 
ATOM     13  C   UNL A   1      34.022  23.350  22.631  1.00  0.00     0.009 C 
BRANCH   8  14
ATOM     14  C   UNL A   1      33.702  21.416  24.935  1.00  0.00    -0.032 A 
ATOM     15  C   UNL A   1      33.319  18.655  24.317  1.00  0.00    -0.045 A 
ATOM     16  C   UNL A   1      32.264  19.564  24.220  1.00  0.00     0.004 A 
ATOM     17  C   UNL A   1      34.586  19.155  24.649  1.00  0.00     0.004 A 
ATOM     18  C   UNL A   1      32.468  20.923  24.475  1.00  0.00     0.005 A 
ATOM     19  C   UNL A   1      34.776  20.512  24.948  1.00  0.00     0.005 A 
BRANCH  15  20
ATOM     20  C   UNL A   1      33.129  17.163  24.106  1.00  0.00     0.013 C 
ATOM     21  C   UNL A   1      34.207  16.636  23.153  1.00  0.00     0.012 C 
ATOM     22  C   UNL A   1      33.122  16.337  25.397  1.00  0.00     0.012 C 
ENDBRANCH  15  20
ENDBRANCH   8  14
ENDBRANCH   5   8
ENDBRANCH   3   4
ENDBRANCH   2   3
ENDBRANCH   1   2
BRANCH   1  23
ATOM     23  C   UNL A   1      39.809  23.711  26.859  1.00  0.00     0.116 C 
BRANCH  23  24
ATOM     24  N   UNL A   1      40.995  24.091  26.105  1.00  0.00    -0.352 N 
ATOM     25  C   UNL A   1      41.754  25.235  26.240  1.00  0.00     0.251 C 
ATOM     26  H   UNL A   1      41.291  23.453  25.416  1.00  0.00     0.163 HD
ATOM     27  O   UNL A   1      42.689  25.453  25.486  1.00  0.00    -0.269 OA
BRANCH  25  28
ATOM     28  C   UNL A   1      41.380  26.215  27.284  1.00  0.00     0.039 A 
ATOM     29  C   UNL A   1      40.469  25.837  28.272  1.00  0.00     0.014 A 
ATOM     30  C   UNL A   1      41.981  27.476  27.320  1.00  0.00     0.014 A 
ATOM     31  C   UNL A   1      40.212  26.704  29.336  1.00  0.00     0.010 A 
ATOM     32  C   UNL A   1      41.790  28.298  28.425  1.00  0.00     0.010 A 
ATOM     33  C   UNL A   1      40.895  27.927  29.439  1.00  0.00    -0.014 A 
BRANCH  33  34
ATOM     34  C   UNL A   1      40.666  28.842  30.585  1.00  0.00     0.031 A 
ATOM     35  C   UNL A   1      41.514  28.722  31.823  1.00  0.00     0.074 A 
ATOM     36  C   UNL A   1      39.664  29.743  30.536  1.00  0.00     0.049 A 
ATOM     37  N   UNL A   1      41.464  29.421  32.929  1.00  0.00    -0.248 NA
ATOM     38  C   UNL A   1      42.530  27.657  31.835  1.00  0.00     0.031 C 
ATOM     39  C   UNL A   1      38.732  29.919  29.417  1.00  0.00     0.029 A 
ATOM     40  N   UNL A   1      39.264  30.686  31.448  1.00  0.00    -0.354 N 
ATOM     41  C   UNL A   1      42.419  28.863  33.772  1.00  0.00     0.074 A 
ATOM     42  C   UNL A   1      42.992  27.735  33.073  1.00  0.00     0.031 C 
ATOM     43  C   UNL A   1      37.902  30.939  29.692  1.00  0.00     0.029 A 
ATOM     44  C   UNL A   1      38.219  31.468  31.014  1.00  0.00     0.049 A 
ATOM     45  H   UNL A   1      39.685  30.793  32.332  1.00  0.00     0.167 HD
ATOM     46  C   UNL A   1      42.805  29.267  35.004  1.00  0.00     0.031 A 
ATOM     47  C   UNL A   1      37.597  32.506  31.608  1.00  0.00     0.031 A 
ATOM     48  C   UNL A   1      42.255  30.408  35.684  1.00  0.00     0.049 A 
ATOM     49  C   UNL A   1      38.067  32.960  32.963  1.00  0.00     0.074 A 
ATOM     50  C   UNL A   1      42.627  30.949  36.901  1.00  0.00     0.029 A 
ATOM     51  N   UNL A   1      41.215  31.188  35.199  1.00  0.00    -0.354 N 
ATOM     52  N   UNL A   1      39.028  32.470  33.711  1.00  0.00    -0.248 NA
ATOM     53  C   UNL A   1      37.380  34.121  33.546  1.00  0.00     0.031 C 
ATOM     54  C   UNL A   1      41.784  32.032  37.172  1.00  0.00     0.029 A 
ATOM     55  C   UNL A   1      40.921  32.197  36.100  1.00  0.00     0.049 A 
ATOM     56  H   UNL A   1      40.754  31.045  34.340  1.00  0.00     0.167 HD
ATOM     57  C   UNL A   1      39.084  33.285  34.836  1.00  0.00     0.074 A 
ATOM     58  C   UNL A   1      38.069  34.304  34.665  1.00  0.00     0.031 C 
ATOM     59  C   UNL A   1      39.908  33.202  35.911  1.00  0.00     0.031 A 
BRANCH  46  60
ATOM     60  C   UNL A   1      43.874  28.460  35.694  1.00  0.00    -0.014 A 
ATOM     61  C   UNL A   1      43.544  27.379  36.532  1.00  0.00     0.010 A 
ATOM     62  C   UNL A   1      45.228  28.782  35.496  1.00  0.00     0.010 A 
ATOM     63  C   UNL A   1      44.544  26.670  37.202  1.00  0.00     0.020 A 
ATOM     64  C   UNL A   1      46.234  28.055  36.140  1.00  0.00     0.020 A 
ATOM     65  C   UNL A   1      45.884  27.018  37.007  1.00  0.00     0.054 A 
BRANCH  65  66
ATOM     66  S   UNL A   1      47.164  26.079  37.884  1.00  0.00     0.124 S 
ATOM     67  O   UNL A   1      48.105  27.132  38.258  1.00  0.00    -0.237 OA
ATOM     68  O   UNL A   1      46.422  25.480  38.991  1.00  0.00    -0.237 OA
ATOM     69  O   UNL A   1      47.651  25.136  36.881  1.00  0.00    -0.744 OA
ENDBRANCH  65  66
ENDBRANCH  46  60
BRANCH  47  70
ATOM     70  C   UNL A   1      36.503  33.225  30.900  1.00  0.00    -0.014 A 
ATOM     71  C   UNL A   1      35.224  33.311  31.477  1.00  0.00     0.010 A 
ATOM     72  C   UNL A   1      36.733  33.836  29.655  1.00  0.00     0.010 A 
ATOM     73  C   UNL A   1      34.189  33.976  30.814  1.00  0.00     0.020 A 
ATOM     74  C   UNL A   1      35.707  34.524  28.999  1.00  0.00     0.020 A 
ATOM     75  C   UNL A   1      34.437  34.580  29.579  1.00  0.00     0.054 A 
BRANCH  75  76
ATOM     76  S   UNL A   1      33.092  35.481  28.759  1.00  0.00     0.124 S 
ATOM     77  O   UNL A   1      33.822  36.479  27.986  1.00  0.00    -0.237 OA
ATOM     78  O   UNL A   1      32.436  34.432  27.982  1.00  0.00    -0.237 OA
ATOM     79  O   UNL A   1      32.304  36.004  29.873  1.00  0.00    -0.744 OA
ENDBRANCH  75  76
ENDBRANCH  47  70
BRANCH  59  80
ATOM     80  C   UNL A   1      39.773  34.269  36.963  1.00  0.00    -0.014 A 
ATOM     81  C   UNL A   1      38.948  34.090  38.087  1.00  0.00     0.010 A 
ATOM     82  C   UNL A   1      40.520  35.456  36.841  1.00  0.00     0.010 A 
ATOM     83  C   UNL A   1      38.838  35.098  39.048  1.00  0.00     0.020 A 
ATOM     84  C   UNL A   1      40.433  36.454  37.815  1.00  0.00     0.020 A 
ATOM     85  C   UNL A   1      39.578  36.276  38.903  1.00  0.00     0.054 A 
BRANCH  85  86
ATOM     86  S   UNL A   1      39.438  37.560  40.175  1.00  0.00     0.124 S 
ATOM     87  O   UNL A   1      38.328  38.366  39.672  1.00  0.00    -0.237 OA
ATOM     88  O   UNL A   1      39.157  36.789  41.383  1.00  0.00    -0.237 OA
ATOM     89  O   UNL A   1      40.744  38.215  40.151  1.00  0.00    -0.744 OA
ENDBRANCH  85  86
ENDBRANCH  59  80
ENDBRANCH  33  34
ENDBRANCH  25  28
ENDBRANCH  23  24
ENDBRANCH   1  23
TORSDOF 16
ENDMDL
