MODEL 1
REMARK VINA RESULT:     -10.0      0.000      0.000
REMARK SMILES C[C@H](Nc1ccc(N(C)C)cc1)[C@@H](C)C(=O)NCCCCNC(=O)c1ccc(-c2c3nc(c(-c4ccc(S(=O)(=O)[O-])cc4)c4ccc([nH]4)c(-c4ccc(S(=O)(=O)[O-])cc4)c4nc(c(-c5ccc(S(=O)(=O)[O-])cc5)c5ccc2[nH]5)C=C4)C=C3)cc1
REMARK SMILES IDX 19 1 18 2 17 3 15 4 16 5 13 7 14 8 2 9 1 10 3 11 4 13 5 14
REMARK SMILES IDX 12 15 6 16 11 17 7 18 8 19 9 20 10 21 20 22 21 23 22 24
REMARK SMILES IDX 23 25 24 27 25 28 26 29 84 30 27 31 83 32 28 33 29 34 30 35
REMARK SMILES IDX 77 36 31 37 82 38 76 39 78 40 32 41 81 42 75 43 74 44 33 46
REMARK SMILES IDX 63 47 44 48 62 49 45 50 48 51 61 52 79 53 46 54 47 55 60 57
REMARK SMILES IDX 80 58 49 59 34 60 35 61 43 62 36 63 42 64 37 65 38 66 39 67
REMARK SMILES IDX 40 68 41 69 64 70 65 71 73 72 66 73 72 74 67 75 68 76 69 77
REMARK SMILES IDX 70 78 71 79 50 80 51 81 59 82 52 83 58 84 53 85 54 86 55 87
REMARK SMILES IDX 56 88 57 89
REMARK H PARENT 17 6 3 12 22 26 78 45 48 56
REMARK Flexibility Score: inf
ROOT
ATOM      1  C   UNL A   1      35.144  24.220  24.204  1.00  0.00     0.023 C 
ENDROOT
BRANCH   1   2
ATOM      2  C   UNL A   1      34.309  23.536  23.118  1.00  0.00     0.116 C 
BRANCH   2   3
ATOM      3  N   UNL A   1      33.603  24.509  22.300  1.00  0.00    -0.356 N 
ATOM      4  C   UNL A   1      32.400  25.125  22.469  1.00  0.00     0.224 C 
ATOM      5  O   UNL A   1      32.010  25.865  21.561  1.00  0.00    -0.275 OA
ATOM      6  H   UNL A   1      34.079  24.770  21.480  1.00  0.00     0.163 HD
BRANCH   4   7
ATOM      7  C   UNL A   1      31.564  24.963  23.736  1.00  0.00     0.097 C 
ATOM      8  C   UNL A   1      30.619  23.777  23.552  1.00  0.00     0.020 C 
BRANCH   7   9
ATOM      9  C   UNL A   1      30.953  26.303  24.200  1.00  0.00     0.088 C 
ATOM     10  C   UNL A   1      30.832  26.320  25.735  1.00  0.00     0.031 C 
BRANCH   9  11
ATOM     11  N   UNL A   1      29.620  26.553  23.630  1.00  0.00    -0.382 N 
ATOM     12  H   UNL A   1      28.944  25.840  23.570  1.00  0.00     0.160 HD
BRANCH  11  13
ATOM     13  C   UNL A   1      29.357  27.847  23.178  1.00  0.00     0.034 A 
ATOM     14  C   UNL A   1      30.357  28.624  22.600  1.00  0.00     0.028 A 
ATOM     15  C   UNL A   1      28.072  28.372  23.177  1.00  0.00     0.028 A 
ATOM     16  C   UNL A   1      30.076  29.901  22.070  1.00  0.00     0.028 A 
ATOM     17  C   UNL A   1      27.798  29.647  22.659  1.00  0.00     0.028 A 
ATOM     18  C   UNL A   1      28.788  30.462  22.093  1.00  0.00     0.036 A 
BRANCH  18  19
ATOM     19  N   UNL A   1      28.495  31.732  21.615  1.00  0.00    -0.378 N 
ATOM     20  C   UNL A   1      27.932  32.003  20.300  1.00  0.00     0.143 C 
ATOM     21  C   UNL A   1      28.629  32.898  22.489  1.00  0.00     0.143 C 
ENDBRANCH  18  19
ENDBRANCH  11  13
ENDBRANCH   9  11
ENDBRANCH   7   9
ENDBRANCH   4   7
ENDBRANCH   2   3
ENDBRANCH   1   2
BRANCH   1  22
ATOM     22  C   UNL A   1      34.971  23.632  25.605  1.00  0.00     0.023 C 
BRANCH  22  23
ATOM     23  C   UNL A   1      36.204  23.717  26.495  1.00  0.00     0.116 C 
BRANCH  23  24
ATOM     24  N   UNL A   1      37.245  22.772  26.119  1.00  0.00    -0.352 N 
ATOM     25  C   UNL A   1      38.606  22.913  26.230  1.00  0.00     0.251 C 
ATOM     26  H   UNL A   1      36.933  21.921  25.734  1.00  0.00     0.163 HD
ATOM     27  O   UNL A   1      39.355  22.067  25.751  1.00  0.00    -0.269 OA
BRANCH  25  28
ATOM     28  C   UNL A   1      39.160  24.108  26.901  1.00  0.00     0.039 A 
ATOM     29  C   UNL A   1      39.894  25.027  26.148  1.00  0.00     0.014 A 
ATOM     30  C   UNL A   1      38.933  24.331  28.262  1.00  0.00     0.014 A 
ATOM     31  C   UNL A   1      40.357  26.198  26.751  1.00  0.00     0.010 A 
ATOM     32  C   UNL A   1      39.328  25.532  28.840  1.00  0.00     0.010 A 
ATOM     33  C   UNL A   1      40.054  26.473  28.094  1.00  0.00    -0.014 A 
BRANCH  33  34
ATOM     34  C   UNL A   1      40.513  27.724  28.750  1.00  0.00     0.031 A 
ATOM     35  C   UNL A   1      41.899  27.795  29.335  1.00  0.00     0.074 A 
ATOM     36  C   UNL A   1      39.671  28.768  28.873  1.00  0.00     0.049 A 
ATOM     37  N   UNL A   1      42.463  28.767  30.003  1.00  0.00    -0.248 NA
ATOM     38  C   UNL A   1      42.752  26.606  29.171  1.00  0.00     0.031 C 
ATOM     39  C   UNL A   1      38.291  28.808  28.384  1.00  0.00     0.029 A 
ATOM     40  N   UNL A   1      39.851  29.998  29.455  1.00  0.00    -0.354 N 
ATOM     41  C   UNL A   1      43.724  28.301  30.358  1.00  0.00     0.074 A 
ATOM     42  C   UNL A   1      43.823  26.940  29.876  1.00  0.00     0.031 C 
ATOM     43  C   UNL A   1      37.761  30.011  28.664  1.00  0.00     0.029 A 
ATOM     44  C   UNL A   1      38.745  30.812  29.383  1.00  0.00     0.049 A 
ATOM     45  H   UNL A   1      40.695  30.272  29.883  1.00  0.00     0.167 HD
ATOM     46  C   UNL A   1      44.719  28.951  31.006  1.00  0.00     0.031 A 
ATOM     47  C   UNL A   1      38.546  32.060  29.847  1.00  0.00     0.031 A 
ATOM     48  C   UNL A   1      44.625  30.310  31.465  1.00  0.00     0.049 A 
ATOM     49  C   UNL A   1      39.669  32.765  30.560  1.00  0.00     0.074 A 
ATOM     50  C   UNL A   1      45.596  31.079  32.083  1.00  0.00     0.029 A 
ATOM     51  N   UNL A   1      43.496  31.107  31.353  1.00  0.00    -0.354 N 
ATOM     52  N   UNL A   1      40.875  32.328  30.831  1.00  0.00    -0.248 NA
ATOM     53  C   UNL A   1      39.408  34.138  31.013  1.00  0.00     0.031 C 
ATOM     54  C   UNL A   1      45.039  32.326  32.384  1.00  0.00     0.029 A 
ATOM     55  C   UNL A   1      43.739  32.352  31.903  1.00  0.00     0.049 A 
ATOM     56  H   UNL A   1      42.646  30.827  30.941  1.00  0.00     0.167 HD
ATOM     57  C   UNL A   1      41.527  33.383  31.460  1.00  0.00     0.074 A 
ATOM     58  C   UNL A   1      40.585  34.483  31.517  1.00  0.00     0.031 C 
ATOM     59  C   UNL A   1      42.793  33.438  31.945  1.00  0.00     0.031 A 
BRANCH  46  60
ATOM     60  C   UNL A   1      45.997  28.194  31.254  1.00  0.00    -0.014 A 
ATOM     61  C   UNL A   1      47.063  28.245  30.337  1.00  0.00     0.010 A 
ATOM     62  C   UNL A   1      46.148  27.443  32.435  1.00  0.00     0.010 A 
ATOM     63  C   UNL A   1      48.235  27.525  30.573  1.00  0.00     0.020 A 
ATOM     64  C   UNL A   1      47.332  26.745  32.689  1.00  0.00     0.020 A 
ATOM     65  C   UNL A   1      48.361  26.776  31.746  1.00  0.00     0.054 A 
BRANCH  65  66
ATOM     66  S   UNL A   1      49.903  25.865  32.034  1.00  0.00     0.124 S 
ATOM     67  O   UNL A   1      50.020  25.077  30.810  1.00  0.00    -0.237 OA
ATOM     68  O   UNL A   1      50.884  26.935  32.189  1.00  0.00    -0.237 OA
ATOM     69  O   UNL A   1      49.629  25.095  33.245  1.00  0.00    -0.744 OA
ENDBRANCH  65  66
ENDBRANCH  46  60
BRANCH  47  70
ATOM     70  C   UNL A   1      37.237  32.735  29.632  1.00  0.00    -0.014 A 
ATOM     71  C   UNL A   1      36.275  32.767  30.657  1.00  0.00     0.010 A 
ATOM     72  C   UNL A   1      36.946  33.355  28.404  1.00  0.00     0.010 A 
ATOM     73  C   UNL A   1      35.039  33.387  30.451  1.00  0.00     0.020 A 
ATOM     74  C   UNL A   1      35.722  34.001  28.203  1.00  0.00     0.020 A 
ATOM     75  C   UNL A   1      34.771  34.002  29.225  1.00  0.00     0.054 A 
BRANCH  75  76
ATOM     76  S   UNL A   1      33.179  34.841  28.996  1.00  0.00     0.124 S 
ATOM     77  O   UNL A   1      32.637  34.840  30.351  1.00  0.00    -0.237 OA
ATOM     78  O   UNL A   1      33.581  36.145  28.476  1.00  0.00    -0.237 OA
ATOM     79  O   UNL A   1      32.478  33.988  28.039  1.00  0.00    -0.744 OA
ENDBRANCH  75  76
ENDBRANCH  47  70
BRANCH  59  80
ATOM     80  C   UNL A   1      43.252  34.742  32.540  1.00  0.00    -0.014 A 
ATOM     81  C   UNL A   1      43.126  35.003  33.915  1.00  0.00     0.010 A 
ATOM     82  C   UNL A   1      43.874  35.696  31.713  1.00  0.00     0.010 A 
ATOM     83  C   UNL A   1      43.586  36.210  34.449  1.00  0.00     0.020 A 
ATOM     84  C   UNL A   1      44.361  36.892  32.248  1.00  0.00     0.020 A 
ATOM     85  C   UNL A   1      44.200  37.147  33.611  1.00  0.00     0.054 A 
BRANCH  85  86
ATOM     86  S   UNL A   1      44.830  38.685  34.335  1.00  0.00     0.124 S 
ATOM     87  O   UNL A   1      44.146  39.700  33.537  1.00  0.00    -0.237 OA
ATOM     88  O   UNL A   1      44.401  38.586  35.727  1.00  0.00    -0.237 OA
ATOM     89  O   UNL A   1      46.275  38.600  34.127  1.00  0.00    -0.744 OA
ENDBRANCH  85  86
ENDBRANCH  59  80
ENDBRANCH  33  34
ENDBRANCH  25  28
ENDBRANCH  23  24
ENDBRANCH  22  23
ENDBRANCH   1  22
TORSDOF 18
ENDMDL
MODEL 2
REMARK VINA RESULT:     -10.0      2.702      9.525
REMARK SMILES C[C@H](Nc1ccc(N(C)C)cc1)[C@@H](C)C(=O)NCCCCNC(=O)c1ccc(-c2c3nc(c(-c4ccc(S(=O)(=O)[O-])cc4)c4ccc([nH]4)c(-c4ccc(S(=O)(=O)[O-])cc4)c4nc(c(-c5ccc(S(=O)(=O)[O-])cc5)c5ccc2[nH]5)C=C4)C=C3)cc1
REMARK SMILES IDX 19 1 18 2 17 3 15 4 16 5 13 7 14 8 2 9 1 10 3 11 4 13 5 14
REMARK SMILES IDX 12 15 6 16 11 17 7 18 8 19 9 20 10 21 20 22 21 23 22 24
REMARK SMILES IDX 23 25 24 27 25 28 26 29 84 30 27 31 83 32 28 33 29 34 30 35
REMARK SMILES IDX 77 36 31 37 82 38 76 39 78 40 32 41 81 42 75 43 74 44 33 46
REMARK SMILES IDX 63 47 44 48 62 49 45 50 48 51 61 52 79 53 46 54 47 55 60 57
REMARK SMILES IDX 80 58 49 59 34 60 35 61 43 62 36 63 42 64 37 65 38 66 39 67
REMARK SMILES IDX 40 68 41 69 64 70 65 71 73 72 66 73 72 74 67 75 68 76 69 77
REMARK SMILES IDX 70 78 71 79 50 80 51 81 59 82 52 83 58 84 53 85 54 86 55 87
REMARK SMILES IDX 56 88 57 89
REMARK H PARENT 17 6 3 12 22 26 78 45 48 56
REMARK Flexibility Score: inf
ROOT
ATOM      1  C   UNL A   1      31.517  28.544  26.262  1.00  0.00     0.023 C 
ENDROOT
BRANCH   1   2
ATOM      2  C   UNL A   1      31.918  29.479  25.118  1.00  0.00     0.116 C 
BRANCH   2   3
ATOM      3  N   UNL A   1      31.047  29.312  23.965  1.00  0.00    -0.356 N 
ATOM      4  C   UNL A   1      31.092  28.440  22.921  1.00  0.00     0.224 C 
ATOM      5  O   UNL A   1      30.247  28.578  22.031  1.00  0.00    -0.275 OA
ATOM      6  H   UNL A   1      30.290  29.941  23.936  1.00  0.00     0.163 HD
BRANCH   4   7
ATOM      7  C   UNL A   1      32.105  27.301  22.842  1.00  0.00     0.097 C 
ATOM      8  C   UNL A   1      33.397  27.834  22.225  1.00  0.00     0.020 C 
BRANCH   7   9
ATOM      9  C   UNL A   1      31.491  26.023  22.233  1.00  0.00     0.088 C 
ATOM     10  C   UNL A   1      30.717  25.247  23.315  1.00  0.00     0.031 C 
BRANCH   9  11
ATOM     11  N   UNL A   1      32.500  25.122  21.655  1.00  0.00    -0.382 N 
ATOM     12  H   UNL A   1      32.768  25.188  20.710  1.00  0.00     0.160 HD
BRANCH  11  13
ATOM     13  C   UNL A   1      33.061  24.169  22.507  1.00  0.00     0.034 A 
ATOM     14  C   UNL A   1      32.609  22.852  22.509  1.00  0.00     0.028 A 
ATOM     15  C   UNL A   1      34.162  24.458  23.301  1.00  0.00     0.028 A 
ATOM     16  C   UNL A   1      33.227  21.870  23.311  1.00  0.00     0.028 A 
ATOM     17  C   UNL A   1      34.767  23.481  24.105  1.00  0.00     0.028 A 
ATOM     18  C   UNL A   1      34.320  22.153  24.147  1.00  0.00     0.036 A 
BRANCH  18  19
ATOM     19  N   UNL A   1      34.918  21.213  24.975  1.00  0.00    -0.378 N 
ATOM     20  C   UNL A   1      35.976  21.516  25.928  1.00  0.00     0.143 C 
ATOM     21  C   UNL A   1      34.412  19.841  25.020  1.00  0.00     0.143 C 
ENDBRANCH  18  19
ENDBRANCH  11  13
ENDBRANCH   9  11
ENDBRANCH   7   9
ENDBRANCH   4   7
ENDBRANCH   2   3
ENDBRANCH   1   2
BRANCH   1  22
ATOM     22  C   UNL A   1      32.683  27.805  26.919  1.00  0.00     0.023 C 
BRANCH  22  23
ATOM     23  C   UNL A   1      33.985  28.593  26.990  1.00  0.00     0.116 C 
BRANCH  23  24
ATOM     24  N   UNL A   1      33.808  29.943  27.503  1.00  0.00    -0.352 N 
ATOM     25  C   UNL A   1      34.690  30.701  28.234  1.00  0.00     0.251 C 
ATOM     26  H   UNL A   1      32.943  30.368  27.301  1.00  0.00     0.163 HD
ATOM     27  O   UNL A   1      34.337  31.782  28.697  1.00  0.00    -0.269 OA
BRANCH  25  28
ATOM     28  C   UNL A   1      36.053  30.187  28.485  1.00  0.00     0.039 A 
ATOM     29  C   UNL A   1      37.003  30.264  27.464  1.00  0.00     0.014 A 
ATOM     30  C   UNL A   1      36.396  29.655  29.730  1.00  0.00     0.014 A 
ATOM     31  C   UNL A   1      38.314  29.855  27.711  1.00  0.00     0.010 A 
ATOM     32  C   UNL A   1      37.719  29.319  29.997  1.00  0.00     0.010 A 
ATOM     33  C   UNL A   1      38.690  29.404  28.987  1.00  0.00    -0.014 A 
BRANCH  33  34
ATOM     34  C   UNL A   1      40.084  28.987  29.281  1.00  0.00     0.031 A 
ATOM     35  C   UNL A   1      41.031  29.957  29.934  1.00  0.00     0.074 A 
ATOM     36  C   UNL A   1      40.513  27.765  28.910  1.00  0.00     0.049 A 
ATOM     37  N   UNL A   1      42.301  29.809  30.213  1.00  0.00    -0.248 NA
ATOM     38  C   UNL A   1      40.487  31.277  30.295  1.00  0.00     0.031 C 
ATOM     39  C   UNL A   1      39.703  26.749  28.234  1.00  0.00     0.029 A 
ATOM     40  N   UNL A   1      41.743  27.172  29.044  1.00  0.00    -0.354 N 
ATOM     41  C   UNL A   1      42.711  31.020  30.759  1.00  0.00     0.074 A 
ATOM     42  C   UNL A   1      41.570  31.909  30.725  1.00  0.00     0.031 C 
ATOM     43  C   UNL A   1      40.451  25.650  28.037  1.00  0.00     0.029 A 
ATOM     44  C   UNL A   1      41.800  25.895  28.536  1.00  0.00     0.049 A 
ATOM     45  H   UNL A   1      42.513  27.619  29.465  1.00  0.00     0.167 HD
ATOM     46  C   UNL A   1      43.921  31.357  31.265  1.00  0.00     0.031 A 
ATOM     47  C   UNL A   1      42.824  25.022  28.476  1.00  0.00     0.031 A 
ATOM     48  C   UNL A   1      45.047  30.465  31.317  1.00  0.00     0.049 A 
ATOM     49  C   UNL A   1      44.159  25.417  29.050  1.00  0.00     0.074 A 
ATOM     50  C   UNL A   1      46.300  30.691  31.860  1.00  0.00     0.029 A 
ATOM     51  N   UNL A   1      45.057  29.173  30.813  1.00  0.00    -0.354 N 
ATOM     52  N   UNL A   1      44.510  26.546  29.617  1.00  0.00    -0.248 NA
ATOM     53  C   UNL A   1      45.230  24.413  28.990  1.00  0.00     0.031 C 
ATOM     54  C   UNL A   1      47.081  29.551  31.643  1.00  0.00     0.029 A 
ATOM     55  C   UNL A   1      46.297  28.595  31.016  1.00  0.00     0.049 A 
ATOM     56  H   UNL A   1      44.293  28.732  30.375  1.00  0.00     0.167 HD
ATOM     57  C   UNL A   1      45.833  26.377  30.009  1.00  0.00     0.074 A 
ATOM     58  C   UNL A   1      46.215  25.033  29.625  1.00  0.00     0.031 C 
ATOM     59  C   UNL A   1      46.658  27.254  30.634  1.00  0.00     0.031 A 
BRANCH  46  60
ATOM     60  C   UNL A   1      44.084  32.754  31.803  1.00  0.00    -0.014 A 
ATOM     61  C   UNL A   1      43.834  33.046  33.157  1.00  0.00     0.010 A 
ATOM     62  C   UNL A   1      44.522  33.786  30.952  1.00  0.00     0.010 A 
ATOM     63  C   UNL A   1      43.973  34.349  33.638  1.00  0.00     0.020 A 
ATOM     64  C   UNL A   1      44.692  35.086  31.437  1.00  0.00     0.020 A 
ATOM     65  C   UNL A   1      44.398  35.362  32.774  1.00  0.00     0.054 A 
BRANCH  65  66
ATOM     66  S   UNL A   1      44.588  37.042  33.431  1.00  0.00     0.124 S 
ATOM     67  O   UNL A   1      43.204  37.416  33.705  1.00  0.00    -0.237 OA
ATOM     68  O   UNL A   1      45.428  36.833  34.607  1.00  0.00    -0.237 OA
ATOM     69  O   UNL A   1      45.224  37.772  32.337  1.00  0.00    -0.744 OA
ENDBRANCH  65  66
ENDBRANCH  46  60
BRANCH  47  70
ATOM     70  C   UNL A   1      42.622  23.678  27.870  1.00  0.00    -0.014 A 
ATOM     71  C   UNL A   1      42.227  22.588  28.666  1.00  0.00     0.010 A 
ATOM     72  C   UNL A   1      42.817  23.480  26.491  1.00  0.00     0.010 A 
ATOM     73  C   UNL A   1      42.052  21.323  28.100  1.00  0.00     0.020 A 
ATOM     74  C   UNL A   1      42.615  22.222  25.916  1.00  0.00     0.020 A 
ATOM     75  C   UNL A   1      42.246  21.147  26.728  1.00  0.00     0.054 A 
BRANCH  75  76
ATOM     76  S   UNL A   1      41.967  19.506  26.006  1.00  0.00     0.124 S 
ATOM     77  O   UNL A   1      42.844  19.534  24.839  1.00  0.00    -0.237 OA
ATOM     78  O   UNL A   1      42.379  18.612  27.085  1.00  0.00    -0.237 OA
ATOM     79  O   UNL A   1      40.535  19.500  25.715  1.00  0.00    -0.744 OA
ENDBRANCH  75  76
ENDBRANCH  47  70
BRANCH  59  80
ATOM     80  C   UNL A   1      48.042  26.778  30.982  1.00  0.00    -0.014 A 
ATOM     81  C   UNL A   1      49.120  26.949  30.097  1.00  0.00     0.010 A 
ATOM     82  C   UNL A   1      48.275  26.200  32.245  1.00  0.00     0.010 A 
ATOM     83  C   UNL A   1      50.402  26.524  30.455  1.00  0.00     0.020 A 
ATOM     84  C   UNL A   1      49.561  25.799  32.618  1.00  0.00     0.020 A 
ATOM     85  C   UNL A   1      50.614  25.951  31.714  1.00  0.00     0.054 A 
BRANCH  85  86
ATOM     86  S   UNL A   1      52.294  25.449  32.173  1.00  0.00     0.124 S 
ATOM     87  O   UNL A   1      53.051  25.777  30.967  1.00  0.00    -0.237 OA
ATOM     88  O   UNL A   1      52.574  26.287  33.337  1.00  0.00    -0.237 OA
ATOM     89  O   UNL A   1      52.164  24.022  32.459  1.00  0.00    -0.744 OA
ENDBRANCH  85  86
ENDBRANCH  59  80
ENDBRANCH  33  34
ENDBRANCH  25  28
ENDBRANCH  23  24
ENDBRANCH  22  23
ENDBRANCH   1  22
TORSDOF 18
ENDMDL
MODEL 3
REMARK VINA RESULT:      -9.9      3.879      4.959
REMARK SMILES C[C@H](Nc1ccc(N(C)C)cc1)[C@@H](C)C(=O)NCCCCNC(=O)c1ccc(-c2c3nc(c(-c4ccc(S(=O)(=O)[O-])cc4)c4ccc([nH]4)c(-c4ccc(S(=O)(=O)[O-])cc4)c4nc(c(-c5ccc(S(=O)(=O)[O-])cc5)c5ccc2[nH]5)C=C4)C=C3)cc1
REMARK SMILES IDX 19 1 18 2 17 3 15 4 16 5 13 7 14 8 2 9 1 10 3 11 4 13 5 14
REMARK SMILES IDX 12 15 6 16 11 17 7 18 8 19 9 20 10 21 20 22 21 23 22 24
REMARK SMILES IDX 23 25 24 27 25 28 26 29 84 30 27 31 83 32 28 33 29 34 30 35
REMARK SMILES IDX 77 36 31 37 82 38 76 39 78 40 32 41 81 42 75 43 74 44 33 46
REMARK SMILES IDX 63 47 44 48 62 49 45 50 48 51 61 52 79 53 46 54 47 55 60 57
REMARK SMILES IDX 80 58 49 59 34 60 35 61 43 62 36 63 42 64 37 65 38 66 39 67
REMARK SMILES IDX 40 68 41 69 64 70 65 71 73 72 66 73 72 74 67 75 68 76 69 77
REMARK SMILES IDX 70 78 71 79 50 80 51 81 59 82 52 83 58 84 53 85 54 86 55 87
REMARK SMILES IDX 56 88 57 89
REMARK H PARENT 17 6 3 12 22 26 78 45 48 56
REMARK Flexibility Score: inf
ROOT
ATOM      1  C   UNL A   1      39.459  22.167  26.187  1.00  0.00     0.023 C 
ENDROOT
BRANCH   1   2
ATOM      2  C   UNL A   1      37.941  22.273  26.015  1.00  0.00     0.116 C 
BRANCH   2   3
ATOM      3  N   UNL A   1      37.586  22.650  24.657  1.00  0.00    -0.356 N 
ATOM      4  C   UNL A   1      36.386  22.676  24.014  1.00  0.00     0.224 C 
ATOM      5  O   UNL A   1      36.392  22.975  22.815  1.00  0.00    -0.275 OA
ATOM      6  H   UNL A   1      38.347  22.939  24.105  1.00  0.00     0.163 HD
BRANCH   4   7
ATOM      7  C   UNL A   1      35.065  22.393  24.724  1.00  0.00     0.097 C 
ATOM      8  C   UNL A   1      34.772  20.896  24.639  1.00  0.00     0.020 C 
BRANCH   7   9
ATOM      9  C   UNL A   1      33.953  23.370  24.285  1.00  0.00     0.088 C 
ATOM     10  C   UNL A   1      33.026  22.684  23.264  1.00  0.00     0.031 C 
BRANCH   9  11
ATOM     11  N   UNL A   1      34.480  24.600  23.675  1.00  0.00    -0.382 N 
ATOM     12  H   UNL A   1      35.052  24.574  22.875  1.00  0.00     0.160 HD
BRANCH  11  13
ATOM     13  C   UNL A   1      34.131  25.808  24.283  1.00  0.00     0.034 A 
ATOM     14  C   UNL A   1      34.046  26.985  23.546  1.00  0.00     0.028 A 
ATOM     15  C   UNL A   1      33.744  25.869  25.614  1.00  0.00     0.028 A 
ATOM     16  C   UNL A   1      33.618  28.190  24.141  1.00  0.00     0.028 A 
ATOM     17  C   UNL A   1      33.329  27.071  26.206  1.00  0.00     0.028 A 
ATOM     18  C   UNL A   1      33.256  28.278  25.495  1.00  0.00     0.036 A 
BRANCH  18  19
ATOM     19  N   UNL A   1      32.871  29.460  26.113  1.00  0.00    -0.378 N 
ATOM     20  C   UNL A   1      33.686  30.185  27.077  1.00  0.00     0.143 C 
ATOM     21  C   UNL A   1      31.629  30.127  25.721  1.00  0.00     0.143 C 
ENDBRANCH  18  19
ENDBRANCH  11  13
ENDBRANCH   9  11
ENDBRANCH   7   9
ENDBRANCH   4   7
ENDBRANCH   2   3
ENDBRANCH   1   2
BRANCH   1  22
ATOM     22  C   UNL A   1      40.008  22.849  27.440  1.00  0.00     0.023 C 
BRANCH  22  23
ATOM     23  C   UNL A   1      41.426  23.389  27.309  1.00  0.00     0.116 C 
BRANCH  23  24
ATOM     24  N   UNL A   1      41.621  24.197  26.115  1.00  0.00    -0.352 N 
ATOM     25  C   UNL A   1      41.582  25.564  25.993  1.00  0.00     0.251 C 
ATOM     26  H   UNL A   1      41.805  23.698  25.286  1.00  0.00     0.163 HD
ATOM     27  O   UNL A   1      41.647  26.086  24.884  1.00  0.00    -0.269 OA
BRANCH  25  28
ATOM     28  C   UNL A   1      41.426  26.396  27.205  1.00  0.00     0.039 A 
ATOM     29  C   UNL A   1      42.345  27.420  27.445  1.00  0.00     0.014 A 
ATOM     30  C   UNL A   1      40.363  26.181  28.085  1.00  0.00     0.014 A 
ATOM     31  C   UNL A   1      42.166  28.263  28.543  1.00  0.00     0.010 A 
ATOM     32  C   UNL A   1      40.143  27.067  29.134  1.00  0.00     0.010 A 
ATOM     33  C   UNL A   1      41.050  28.111  29.381  1.00  0.00    -0.014 A 
BRANCH  33  34
ATOM     34  C   UNL A   1      40.824  29.010  30.540  1.00  0.00     0.031 A 
ATOM     35  C   UNL A   1      41.654  28.847  31.785  1.00  0.00     0.074 A 
ATOM     36  C   UNL A   1      39.840  29.930  30.497  1.00  0.00     0.049 A 
ATOM     37  N   UNL A   1      41.569  29.485  32.924  1.00  0.00    -0.248 NA
ATOM     38  C   UNL A   1      42.700  27.810  31.756  1.00  0.00     0.031 C 
ATOM     39  C   UNL A   1      38.940  30.160  29.364  1.00  0.00     0.029 A 
ATOM     40  N   UNL A   1      39.426  30.840  31.437  1.00  0.00    -0.354 N 
ATOM     41  C   UNL A   1      42.529  28.913  33.751  1.00  0.00     0.074 A 
ATOM     42  C   UNL A   1      43.151  27.843  33.001  1.00  0.00     0.031 C 
ATOM     43  C   UNL A   1      38.100  31.164  29.667  1.00  0.00     0.029 A 
ATOM     44  C   UNL A   1      38.373  31.622  31.024  1.00  0.00     0.049 A 
ATOM     45  H   UNL A   1      39.845  30.925  32.325  1.00  0.00     0.167 HD
ATOM     46  C   UNL A   1      42.880  29.261  35.012  1.00  0.00     0.031 A 
ATOM     47  C   UNL A   1      37.702  32.597  31.668  1.00  0.00     0.031 A 
ATOM     48  C   UNL A   1      42.275  30.339  35.746  1.00  0.00     0.049 A 
ATOM     49  C   UNL A   1      38.113  32.969  33.067  1.00  0.00     0.074 A 
ATOM     50  C   UNL A   1      42.596  30.807  37.008  1.00  0.00     0.029 A 
ATOM     51  N   UNL A   1      41.228  31.121  35.283  1.00  0.00    -0.354 N 
ATOM     52  N   UNL A   1      39.066  32.457  33.810  1.00  0.00    -0.248 NA
ATOM     53  C   UNL A   1      37.370  34.063  33.708  1.00  0.00     0.031 C 
ATOM     54  C   UNL A   1      41.712  31.844  37.326  1.00  0.00     0.029 A 
ATOM     55  C   UNL A   1      40.879  32.057  36.239  1.00  0.00     0.049 A 
ATOM     56  H   UNL A   1      40.796  31.024  34.403  1.00  0.00     0.167 HD
ATOM     57  C   UNL A   1      39.055  33.186  34.994  1.00  0.00     0.074 A 
ATOM     58  C   UNL A   1      38.011  34.182  34.863  1.00  0.00     0.031 C 
ATOM     59  C   UNL A   1      39.842  33.046  36.090  1.00  0.00     0.031 A 
BRANCH  46  60
ATOM     60  C   UNL A   1      43.972  28.462  35.673  1.00  0.00    -0.014 A 
ATOM     61  C   UNL A   1      45.315  28.601  35.280  1.00  0.00     0.010 A 
ATOM     62  C   UNL A   1      43.656  27.581  36.724  1.00  0.00     0.010 A 
ATOM     63  C   UNL A   1      46.315  27.842  35.891  1.00  0.00     0.020 A 
ATOM     64  C   UNL A   1      44.657  26.842  37.360  1.00  0.00     0.020 A 
ATOM     65  C   UNL A   1      45.979  26.964  36.925  1.00  0.00     0.054 A 
BRANCH  65  66
ATOM     66  S   UNL A   1      47.301  26.004  37.714  1.00  0.00     0.124 S 
ATOM     67  O   UNL A   1      47.423  24.863  36.811  1.00  0.00    -0.237 OA
ATOM     68  O   UNL A   1      48.425  26.937  37.704  1.00  0.00    -0.237 OA
ATOM     69  O   UNL A   1      46.763  25.696  39.037  1.00  0.00    -0.744 OA
ENDBRANCH  65  66
ENDBRANCH  46  60
BRANCH  47  70
ATOM     70  C   UNL A   1      36.585  33.306  30.987  1.00  0.00    -0.014 A 
ATOM     71  C   UNL A   1      36.790  33.936  29.747  1.00  0.00     0.010 A 
ATOM     72  C   UNL A   1      35.306  33.350  31.571  1.00  0.00     0.010 A 
ATOM     73  C   UNL A   1      35.746  34.615  29.114  1.00  0.00     0.020 A 
ATOM     74  C   UNL A   1      34.251  34.004  30.928  1.00  0.00     0.020 A 
ATOM     75  C   UNL A   1      34.481  34.644  29.708  1.00  0.00     0.054 A 
BRANCH  75  76
ATOM     76  S   UNL A   1      33.128  35.491  28.847  1.00  0.00     0.124 S 
ATOM     77  O   UNL A   1      32.356  36.039  29.958  1.00  0.00    -0.237 OA
ATOM     78  O   UNL A   1      33.838  36.468  28.026  1.00  0.00    -0.237 OA
ATOM     79  O   UNL A   1      32.475  34.419  28.099  1.00  0.00    -0.744 OA
ENDBRANCH  75  76
ENDBRANCH  47  70
BRANCH  59  80
ATOM     80  C   UNL A   1      39.636  34.019  37.220  1.00  0.00    -0.014 A 
ATOM     81  C   UNL A   1      38.873  33.677  38.350  1.00  0.00     0.010 A 
ATOM     82  C   UNL A   1      40.269  35.275  37.172  1.00  0.00     0.010 A 
ATOM     83  C   UNL A   1      38.720  34.587  39.400  1.00  0.00     0.020 A 
ATOM     84  C   UNL A   1      40.142  36.177  38.232  1.00  0.00     0.020 A 
ATOM     85  C   UNL A   1      39.357  35.832  39.333  1.00  0.00     0.054 A 
BRANCH  85  86
ATOM     86  S   UNL A   1      39.181  36.977  40.728  1.00  0.00     0.124 S 
ATOM     87  O   UNL A   1      38.401  36.185  41.676  1.00  0.00    -0.237 OA
ATOM     88  O   UNL A   1      40.567  37.232  41.112  1.00  0.00    -0.237 OA
ATOM     89  O   UNL A   1      38.482  38.123  40.149  1.00  0.00    -0.744 OA
ENDBRANCH  85  86
ENDBRANCH  59  80
ENDBRANCH  33  34
ENDBRANCH  25  28
ENDBRANCH  23  24
ENDBRANCH  22  23
ENDBRANCH   1  22
TORSDOF 18
ENDMDL
