MODEL 1
REMARK VINA RESULT:     -10.1      0.000      0.000
REMARK SMILES C[C@@H](C(=O)NCCCCNC(=O)c1ccc(-c2c3nc(c(-c4ccc(S(=O)(=O)[O-])cc4)c4ccc([nH]4)c(-c4ccc(S(=O)(=O)[O-])cc4)c4nc(c(-c5ccc(S(=O)(=O)[O-])cc5)c5ccc2[nH]5)C=C4)C=C3)cc1)[C@@H](C)C(=O)c1ccc(Br)cc1
REMARK SMILES IDX 7 1 6 2 5 3 3 4 4 5 2 7 1 8 73 9 74 10 75 11 76 12 77 13
REMARK SMILES IDX 78 14 83 15 79 16 82 17 80 18 81 19 8 20 9 21 10 22 11 23
REMARK SMILES IDX 12 25 13 26 14 27 72 28 15 29 71 30 16 31 17 32 18 33 65 34
REMARK SMILES IDX 19 35 70 36 64 37 66 38 20 39 69 40 63 41 62 42 21 44 51 45
REMARK SMILES IDX 32 46 50 47 33 48 36 49 49 50 67 51 34 52 35 53 48 55 68 56
REMARK SMILES IDX 37 57 22 58 23 59 31 60 24 61 30 62 25 63 26 64 27 65 28 66
REMARK SMILES IDX 29 67 52 68 53 69 61 70 54 71 60 72 55 73 56 74 57 75 58 76
REMARK SMILES IDX 59 77 38 78 39 79 47 80 40 81 46 82 41 83 42 84 43 85 44 86
REMARK SMILES IDX 45 87
REMARK H PARENT 5 6 10 24 66 43 36 54
REMARK Flexibility Score: inf
ROOT
ATOM      1  C   UNL A   1      31.847  27.699  26.554  1.00  0.00     0.023 C 
ENDROOT
BRANCH   1   2
ATOM      2  C   UNL A   1      31.019  26.424  26.381  1.00  0.00     0.116 C 
BRANCH   2   3
ATOM      3  N   UNL A   1      31.781  25.247  26.753  1.00  0.00    -0.356 N 
ATOM      4  C   UNL A   1      32.220  24.206  25.993  1.00  0.00     0.223 C 
ATOM      5  O   UNL A   1      32.720  23.247  26.575  1.00  0.00    -0.275 OA
ATOM      6  H   UNL A   1      32.017  25.192  27.706  1.00  0.00     0.163 HD
BRANCH   4   7
ATOM      7  C   UNL A   1      32.093  24.265  24.471  1.00  0.00     0.086 C 
ATOM      8  C   UNL A   1      31.737  22.871  23.940  1.00  0.00     0.019 C 
BRANCH   7   9
ATOM      9  C   UNL A   1      33.394  24.793  23.822  1.00  0.00     0.070 C 
ATOM     10  C   UNL A   1      34.289  23.669  23.288  1.00  0.00     0.017 C 
BRANCH   9  11
ATOM     11  C   UNL A   1      33.244  25.854  22.719  1.00  0.00     0.166 C 
ATOM     12  O   UNL A   1      33.841  25.744  21.647  1.00  0.00    -0.294 OA
BRANCH  11  13
ATOM     13  C   UNL A   1      32.192  26.904  22.803  1.00  0.00     0.018 A 
ATOM     14  C   UNL A   1      32.626  28.237  22.862  1.00  0.00     0.013 A 
ATOM     15  C   UNL A   1      30.824  26.626  22.842  1.00  0.00     0.013 A 
ATOM     16  C   UNL A   1      31.703  29.283  22.911  1.00  0.00     0.016 A 
ATOM     17  C   UNL A   1      29.896  27.674  22.886  1.00  0.00     0.016 A 
ATOM     18  C   UNL A   1      30.340  28.995  22.911  1.00  0.00     0.018 A 
ATOM     19  Br  UNL A   1      29.084  30.406  22.959  1.00  0.00    -0.051 Br
ENDBRANCH  11  13
ENDBRANCH   9  11
ENDBRANCH   7   9
ENDBRANCH   4   7
ENDBRANCH   2   3
ENDBRANCH   1   2
BRANCH   1  20
ATOM     20  C   UNL A   1      33.362  27.500  26.470  1.00  0.00     0.023 C 
BRANCH  20  21
ATOM     21  C   UNL A   1      34.154  28.707  25.982  1.00  0.00     0.116 C 
BRANCH  21  22
ATOM     22  N   UNL A   1      33.865  29.914  26.740  1.00  0.00    -0.352 N 
ATOM     23  C   UNL A   1      34.589  30.516  27.736  1.00  0.00     0.251 C 
ATOM     24  H   UNL A   1      33.023  30.365  26.502  1.00  0.00     0.163 HD
ATOM     25  O   UNL A   1      34.090  31.458  28.353  1.00  0.00    -0.269 OA
BRANCH  23  26
ATOM     26  C   UNL A   1      35.939  30.028  28.091  1.00  0.00     0.039 A 
ATOM     27  C   UNL A   1      36.956  30.136  27.140  1.00  0.00     0.014 A 
ATOM     28  C   UNL A   1      36.209  29.455  29.339  1.00  0.00     0.014 A 
ATOM     29  C   UNL A   1      38.250  29.718  27.458  1.00  0.00     0.010 A 
ATOM     30  C   UNL A   1      37.517  29.113  29.681  1.00  0.00     0.010 A 
ATOM     31  C   UNL A   1      38.550  29.234  28.743  1.00  0.00    -0.014 A 
BRANCH  31  32
ATOM     32  C   UNL A   1      39.947  28.871  29.101  1.00  0.00     0.031 A 
ATOM     33  C   UNL A   1      40.836  29.844  29.829  1.00  0.00     0.074 A 
ATOM     34  C   UNL A   1      40.419  27.655  28.755  1.00  0.00     0.049 A 
ATOM     35  N   UNL A   1      42.059  29.673  30.263  1.00  0.00    -0.248 NA
ATOM     36  C   UNL A   1      40.294  31.188  30.085  1.00  0.00     0.031 C 
ATOM     37  C   UNL A   1      39.679  26.647  27.992  1.00  0.00     0.029 A 
ATOM     38  N   UNL A   1      41.628  27.057  29.008  1.00  0.00    -0.354 N 
ATOM     39  C   UNL A   1      42.428  30.878  30.849  1.00  0.00     0.074 A 
ATOM     40  C   UNL A   1      41.326  31.794  30.652  1.00  0.00     0.031 C 
ATOM     41  C   UNL A   1      40.433  25.543  27.874  1.00  0.00     0.029 A 
ATOM     42  C   UNL A   1      41.720  25.774  28.521  1.00  0.00     0.049 A 
ATOM     43  H   UNL A   1      42.359  27.505  29.492  1.00  0.00     0.167 HD
ATOM     44  C   UNL A   1      43.567  31.187  31.514  1.00  0.00     0.031 A 
ATOM     45  C   UNL A   1      42.725  24.880  28.592  1.00  0.00     0.031 A 
ATOM     46  C   UNL A   1      44.666  30.276  31.702  1.00  0.00     0.049 A 
ATOM     47  C   UNL A   1      43.978  25.246  29.337  1.00  0.00     0.074 A 
ATOM     48  C   UNL A   1      45.849  30.484  32.390  1.00  0.00     0.029 A 
ATOM     49  N   UNL A   1      44.719  28.985  31.200  1.00  0.00    -0.354 N 
ATOM     50  N   UNL A   1      44.277  26.370  29.947  1.00  0.00    -0.248 NA
ATOM     51  C   UNL A   1      45.021  24.216  29.425  1.00  0.00     0.031 C 
ATOM     52  C   UNL A   1      46.639  29.336  32.261  1.00  0.00     0.029 A 
ATOM     53  C   UNL A   1      45.922  28.390  31.547  1.00  0.00     0.049 A 
ATOM     54  H   UNL A   1      44.008  28.554  30.673  1.00  0.00     0.167 HD
ATOM     55  C   UNL A   1      45.535  26.174  30.505  1.00  0.00     0.074 A 
ATOM     56  C   UNL A   1      45.924  24.814  30.188  1.00  0.00     0.031 C 
ATOM     57  C   UNL A   1      46.303  27.041  31.210  1.00  0.00     0.031 A 
BRANCH  44  58
ATOM     58  C   UNL A   1      43.675  32.573  32.101  1.00  0.00    -0.014 A 
ATOM     59  C   UNL A   1      43.342  32.812  33.448  1.00  0.00     0.010 A 
ATOM     60  C   UNL A   1      44.161  33.636  31.319  1.00  0.00     0.010 A 
ATOM     61  C   UNL A   1      43.459  34.094  33.990  1.00  0.00     0.020 A 
ATOM     62  C   UNL A   1      44.308  34.915  31.867  1.00  0.00     0.020 A 
ATOM     63  C   UNL A   1      43.941  35.138  33.197  1.00  0.00     0.054 A 
BRANCH  63  64
ATOM     64  S   UNL A   1      44.112  36.785  33.940  1.00  0.00     0.124 S 
ATOM     65  O   UNL A   1      43.691  36.538  35.317  1.00  0.00    -0.237 OA
ATOM     66  O   UNL A   1      45.533  37.069  33.760  1.00  0.00    -0.237 OA
ATOM     67  O   UNL A   1      43.208  37.618  33.152  1.00  0.00    -0.744 OA
ENDBRANCH  63  64
ENDBRANCH  44  58
BRANCH  45  68
ATOM     68  C   UNL A   1      42.580  23.546  27.945  1.00  0.00    -0.014 A 
ATOM     69  C   UNL A   1      43.247  23.247  26.745  1.00  0.00     0.010 A 
ATOM     70  C   UNL A   1      41.768  22.560  28.538  1.00  0.00     0.010 A 
ATOM     71  C   UNL A   1      43.083  21.999  26.134  1.00  0.00     0.020 A 
ATOM     72  C   UNL A   1      41.629  21.301  27.949  1.00  0.00     0.020 A 
ATOM     73  C   UNL A   1      42.275  21.034  26.741  1.00  0.00     0.054 A 
BRANCH  73  74
ATOM     74  S   UNL A   1      42.108  19.408  25.954  1.00  0.00     0.124 S 
ATOM     75  O   UNL A   1      42.942  19.559  24.766  1.00  0.00    -0.237 OA
ATOM     76  O   UNL A   1      42.624  18.506  26.980  1.00  0.00    -0.237 OA
ATOM     77  O   UNL A   1      40.674  19.297  25.701  1.00  0.00    -0.744 OA
ENDBRANCH  73  74
ENDBRANCH  45  68
BRANCH  57  78
ATOM     78  C   UNL A   1      47.632  26.533  31.706  1.00  0.00    -0.014 A 
ATOM     79  C   UNL A   1      48.796  26.653  30.924  1.00  0.00     0.010 A 
ATOM     80  C   UNL A   1      47.719  25.932  32.974  1.00  0.00     0.010 A 
ATOM     81  C   UNL A   1      50.010  26.128  31.379  1.00  0.00     0.020 A 
ATOM     82  C   UNL A   1      48.938  25.439  33.447  1.00  0.00     0.020 A 
ATOM     83  C   UNL A   1      50.071  25.518  32.635  1.00  0.00     0.054 A 
BRANCH  83  84
ATOM     84  S   UNL A   1      51.655  24.844  33.203  1.00  0.00     0.124 S 
ATOM     85  O   UNL A   1      52.518  25.086  32.049  1.00  0.00    -0.237 OA
ATOM     86  O   UNL A   1      51.944  25.655  34.383  1.00  0.00    -0.237 OA
ATOM     87  O   UNL A   1      51.358  23.440  33.476  1.00  0.00    -0.744 OA
ENDBRANCH  83  84
ENDBRANCH  57  78
ENDBRANCH  31  32
ENDBRANCH  23  26
ENDBRANCH  21  22
ENDBRANCH  20  21
ENDBRANCH   1  20
TORSDOF 17
ENDMDL
MODEL 2
REMARK VINA RESULT:     -10.0      2.166      8.903
REMARK SMILES C[C@@H](C(=O)NCCCCNC(=O)c1ccc(-c2c3nc(c(-c4ccc(S(=O)(=O)[O-])cc4)c4ccc([nH]4)c(-c4ccc(S(=O)(=O)[O-])cc4)c4nc(c(-c5ccc(S(=O)(=O)[O-])cc5)c5ccc2[nH]5)C=C4)C=C3)cc1)[C@@H](C)C(=O)c1ccc(Br)cc1
REMARK SMILES IDX 7 1 6 2 5 3 3 4 4 5 2 7 1 8 73 9 74 10 75 11 76 12 77 13
REMARK SMILES IDX 78 14 83 15 79 16 82 17 80 18 81 19 8 20 9 21 10 22 11 23
REMARK SMILES IDX 12 25 13 26 14 27 72 28 15 29 71 30 16 31 17 32 18 33 65 34
REMARK SMILES IDX 19 35 70 36 64 37 66 38 20 39 69 40 63 41 62 42 21 44 51 45
REMARK SMILES IDX 32 46 50 47 33 48 36 49 49 50 67 51 34 52 35 53 48 55 68 56
REMARK SMILES IDX 37 57 22 58 23 59 31 60 24 61 30 62 25 63 26 64 27 65 28 66
REMARK SMILES IDX 29 67 52 68 53 69 61 70 54 71 60 72 55 73 56 74 57 75 58 76
REMARK SMILES IDX 59 77 38 78 39 79 47 80 40 81 46 82 41 83 42 84 43 85 44 86
REMARK SMILES IDX 45 87
REMARK H PARENT 5 6 10 24 66 43 36 54
REMARK Flexibility Score: inf
ROOT
ATOM      1  C   UNL A   1      33.137  29.392  25.016  1.00  0.00     0.023 C 
ENDROOT
BRANCH   1   2
ATOM      2  C   UNL A   1      31.635  29.653  25.145  1.00  0.00     0.116 C 
BRANCH   2   3
ATOM      3  N   UNL A   1      30.976  29.583  23.855  1.00  0.00    -0.356 N 
ATOM      4  C   UNL A   1      30.685  28.507  23.073  1.00  0.00     0.223 C 
ATOM      5  O   UNL A   1      30.251  28.725  21.944  1.00  0.00    -0.275 OA
ATOM      6  H   UNL A   1      30.694  30.451  23.487  1.00  0.00     0.163 HD
BRANCH   4   7
ATOM      7  C   UNL A   1      30.888  27.092  23.614  1.00  0.00     0.086 C 
ATOM      8  C   UNL A   1      30.948  26.106  22.440  1.00  0.00     0.019 C 
BRANCH   7   9
ATOM      9  C   UNL A   1      29.765  26.707  24.606  1.00  0.00     0.070 C 
ATOM     10  C   UNL A   1      28.446  26.363  23.906  1.00  0.00     0.017 C 
BRANCH   9  11
ATOM     11  C   UNL A   1      30.079  25.590  25.616  1.00  0.00     0.166 C 
ATOM     12  O   UNL A   1      29.304  25.334  26.539  1.00  0.00    -0.294 OA
BRANCH  11  13
ATOM     13  C   UNL A   1      31.185  24.623  25.372  1.00  0.00     0.018 A 
ATOM     14  C   UNL A   1      32.420  24.904  25.976  1.00  0.00     0.013 A 
ATOM     15  C   UNL A   1      31.055  23.486  24.573  1.00  0.00     0.013 A 
ATOM     16  C   UNL A   1      33.499  24.032  25.822  1.00  0.00     0.016 A 
ATOM     17  C   UNL A   1      32.134  22.608  24.423  1.00  0.00     0.016 A 
ATOM     18  C   UNL A   1      33.347  22.881  25.054  1.00  0.00     0.018 A 
ATOM     19  Br  UNL A   1      34.798  21.687  24.857  1.00  0.00    -0.051 Br
ENDBRANCH  11  13
ENDBRANCH   9  11
ENDBRANCH   7   9
ENDBRANCH   4   7
ENDBRANCH   2   3
ENDBRANCH   1   2
BRANCH   1  20
ATOM     20  C   UNL A   1      33.629  28.108  25.689  1.00  0.00     0.023 C 
BRANCH  20  21
ATOM     21  C   UNL A   1      34.099  28.264  27.131  1.00  0.00     0.116 C 
BRANCH  21  22
ATOM     22  N   UNL A   1      33.929  29.617  27.635  1.00  0.00    -0.352 N 
ATOM     23  C   UNL A   1      34.816  30.418  28.307  1.00  0.00     0.251 C 
ATOM     24  H   UNL A   1      33.045  30.017  27.470  1.00  0.00     0.163 HD
ATOM     25  O   UNL A   1      34.421  31.485  28.778  1.00  0.00    -0.269 OA
BRANCH  23  26
ATOM     26  C   UNL A   1      36.223  30.000  28.493  1.00  0.00     0.039 A 
ATOM     27  C   UNL A   1      37.075  30.022  27.386  1.00  0.00     0.014 A 
ATOM     28  C   UNL A   1      36.705  29.576  29.735  1.00  0.00     0.014 A 
ATOM     29  C   UNL A   1      38.417  29.669  27.537  1.00  0.00     0.010 A 
ATOM     30  C   UNL A   1      38.062  29.300  29.900  1.00  0.00     0.010 A 
ATOM     31  C   UNL A   1      38.932  29.337  28.802  1.00  0.00    -0.014 A 
BRANCH  31  32
ATOM     32  C   UNL A   1      40.380  29.044  28.969  1.00  0.00     0.031 A 
ATOM     33  C   UNL A   1      40.939  27.688  28.628  1.00  0.00     0.074 A 
ATOM     34  C   UNL A   1      41.195  30.009  29.443  1.00  0.00     0.049 A 
ATOM     35  N   UNL A   1      42.182  27.279  28.663  1.00  0.00    -0.248 NA
ATOM     36  C   UNL A   1      39.980  26.651  28.214  1.00  0.00     0.031 C 
ATOM     37  C   UNL A   1      40.765  31.344  29.870  1.00  0.00     0.029 A 
ATOM     38  N   UNL A   1      42.553  30.021  29.636  1.00  0.00    -0.354 N 
ATOM     39  C   UNL A   1      42.155  25.946  28.271  1.00  0.00     0.074 A 
ATOM     40  C   UNL A   1      40.767  25.595  28.070  1.00  0.00     0.031 C 
ATOM     41  C   UNL A   1      41.842  32.056  30.236  1.00  0.00     0.029 A 
ATOM     42  C   UNL A   1      43.033  31.223  30.102  1.00  0.00     0.049 A 
ATOM     43  H   UNL A   1      43.129  29.243  29.457  1.00  0.00     0.167 HD
ATOM     44  C   UNL A   1      43.193  25.099  28.068  1.00  0.00     0.031 A 
ATOM     45  C   UNL A   1      44.290  31.614  30.386  1.00  0.00     0.031 A 
ATOM     46  C   UNL A   1      44.574  25.448  28.277  1.00  0.00     0.049 A 
ATOM     47  C   UNL A   1      45.424  30.657  30.151  1.00  0.00     0.074 A 
ATOM     48  C   UNL A   1      45.701  24.671  28.067  1.00  0.00     0.029 A 
ATOM     49  N   UNL A   1      45.020  26.675  28.744  1.00  0.00    -0.354 N 
ATOM     50  N   UNL A   1      45.382  29.421  29.709  1.00  0.00    -0.248 NA
ATOM     51  C   UNL A   1      46.778  31.153  30.431  1.00  0.00     0.031 C 
ATOM     52  C   UNL A   1      46.823  25.410  28.455  1.00  0.00     0.029 A 
ATOM     53  C   UNL A   1      46.402  26.671  28.846  1.00  0.00     0.049 A 
ATOM     54  H   UNL A   1      44.439  27.438  28.970  1.00  0.00     0.167 HD
ATOM     55  C   UNL A   1      46.706  28.999  29.642  1.00  0.00     0.074 A 
ATOM     56  C   UNL A   1      47.523  30.123  30.057  1.00  0.00     0.031 C 
ATOM     57  C   UNL A   1      47.201  27.791  29.276  1.00  0.00     0.031 A 
BRANCH  44  58
ATOM     58  C   UNL A   1      42.870  23.708  27.582  1.00  0.00    -0.014 A 
ATOM     59  C   UNL A   1      42.887  23.403  26.208  1.00  0.00     0.010 A 
ATOM     60  C   UNL A   1      42.598  22.682  28.505  1.00  0.00     0.010 A 
ATOM     61  C   UNL A   1      42.601  22.110  25.765  1.00  0.00     0.020 A 
ATOM     62  C   UNL A   1      42.341  21.378  28.067  1.00  0.00     0.020 A 
ATOM     63  C   UNL A   1      42.330  21.104  26.697  1.00  0.00     0.054 A 
BRANCH  63  64
ATOM     64  S   UNL A   1      41.997  19.427  26.091  1.00  0.00     0.124 S 
ATOM     65  O   UNL A   1      42.872  19.349  24.924  1.00  0.00    -0.237 OA
ATOM     66  O   UNL A   1      42.388  18.595  27.226  1.00  0.00    -0.237 OA
ATOM     67  O   UNL A   1      40.566  19.441  25.797  1.00  0.00    -0.744 OA
ENDBRANCH  63  64
ENDBRANCH  44  58
BRANCH  45  68
ATOM     68  C   UNL A   1      44.541  32.985  30.915  1.00  0.00    -0.014 A 
ATOM     69  C   UNL A   1      44.553  33.236  32.297  1.00  0.00     0.010 A 
ATOM     70  C   UNL A   1      44.774  34.051  30.026  1.00  0.00     0.010 A 
ATOM     71  C   UNL A   1      44.764  34.531  32.782  1.00  0.00     0.020 A 
ATOM     72  C   UNL A   1      45.019  35.340  30.506  1.00  0.00     0.020 A 
ATOM     73  C   UNL A   1      44.997  35.575  31.882  1.00  0.00     0.054 A 
BRANCH  73  74
ATOM     74  S   UNL A   1      45.310  37.239  32.531  1.00  0.00     0.124 S 
ATOM     75  O   UNL A   1      45.484  36.981  33.957  1.00  0.00    -0.237 OA
ATOM     76  O   UNL A   1      46.514  37.639  31.808  1.00  0.00    -0.237 OA
ATOM     77  O   UNL A   1      44.102  37.978  32.172  1.00  0.00    -0.744 OA
ENDBRANCH  73  74
ENDBRANCH  45  68
BRANCH  57  78
ATOM     78  C   UNL A   1      48.700  27.633  29.288  1.00  0.00    -0.014 A 
ATOM     79  C   UNL A   1      49.488  28.074  28.209  1.00  0.00     0.010 A 
ATOM     80  C   UNL A   1      49.329  27.041  30.398  1.00  0.00     0.010 A 
ATOM     81  C   UNL A   1      50.871  27.872  28.216  1.00  0.00     0.020 A 
ATOM     82  C   UNL A   1      50.715  26.869  30.423  1.00  0.00     0.020 A 
ATOM     83  C   UNL A   1      51.475  27.263  29.320  1.00  0.00     0.054 A 
BRANCH  83  84
ATOM     84  S   UNL A   1      53.270  27.011  29.305  1.00  0.00     0.124 S 
ATOM     85  O   UNL A   1      53.533  26.618  30.688  1.00  0.00    -0.237 OA
ATOM     86  O   UNL A   1      53.437  25.955  28.310  1.00  0.00    -0.237 OA
ATOM     87  O   UNL A   1      53.801  28.315  28.916  1.00  0.00    -0.744 OA
ENDBRANCH  83  84
ENDBRANCH  57  78
ENDBRANCH  31  32
ENDBRANCH  23  26
ENDBRANCH  21  22
ENDBRANCH  20  21
ENDBRANCH   1  20
TORSDOF 17
ENDMDL
MODEL 3
REMARK VINA RESULT:      -9.9      2.508      3.182
REMARK SMILES C[C@@H](C(=O)NCCCCNC(=O)c1ccc(-c2c3nc(c(-c4ccc(S(=O)(=O)[O-])cc4)c4ccc([nH]4)c(-c4ccc(S(=O)(=O)[O-])cc4)c4nc(c(-c5ccc(S(=O)(=O)[O-])cc5)c5ccc2[nH]5)C=C4)C=C3)cc1)[C@@H](C)C(=O)c1ccc(Br)cc1
REMARK SMILES IDX 7 1 6 2 5 3 3 4 4 5 2 7 1 8 73 9 74 10 75 11 76 12 77 13
REMARK SMILES IDX 78 14 83 15 79 16 82 17 80 18 81 19 8 20 9 21 10 22 11 23
REMARK SMILES IDX 12 25 13 26 14 27 72 28 15 29 71 30 16 31 17 32 18 33 65 34
REMARK SMILES IDX 19 35 70 36 64 37 66 38 20 39 69 40 63 41 62 42 21 44 51 45
REMARK SMILES IDX 32 46 50 47 33 48 36 49 49 50 67 51 34 52 35 53 48 55 68 56
REMARK SMILES IDX 37 57 22 58 23 59 31 60 24 61 30 62 25 63 26 64 27 65 28 66
REMARK SMILES IDX 29 67 52 68 53 69 61 70 54 71 60 72 55 73 56 74 57 75 58 76
REMARK SMILES IDX 59 77 38 78 39 79 47 80 40 81 46 82 41 83 42 84 43 85 44 86
REMARK SMILES IDX 45 87
REMARK H PARENT 5 6 10 24 66 43 36 54
REMARK Flexibility Score: inf
ROOT
ATOM      1  C   UNL A   1      32.004  27.573  26.530  1.00  0.00     0.023 C 
ENDROOT
BRANCH   1   2
ATOM      2  C   UNL A   1      32.437  26.109  26.450  1.00  0.00     0.116 C 
BRANCH   2   3
ATOM      3  N   UNL A   1      31.412  25.227  26.974  1.00  0.00    -0.356 N 
ATOM      4  C   UNL A   1      31.169  23.911  26.721  1.00  0.00     0.223 C 
ATOM      5  O   UNL A   1      30.140  23.423  27.180  1.00  0.00    -0.275 OA
ATOM      6  H   UNL A   1      30.794  25.645  27.615  1.00  0.00     0.163 HD
BRANCH   4   7
ATOM      7  C   UNL A   1      32.169  23.094  25.902  1.00  0.00     0.086 C 
ATOM      8  C   UNL A   1      33.440  22.872  26.732  1.00  0.00     0.019 C 
BRANCH   7   9
ATOM      9  C   UNL A   1      32.494  23.791  24.561  1.00  0.00     0.070 C 
ATOM     10  C   UNL A   1      33.589  23.070  23.767  1.00  0.00     0.017 C 
BRANCH   9  11
ATOM     11  C   UNL A   1      31.315  24.067  23.613  1.00  0.00     0.166 C 
ATOM     12  O   UNL A   1      30.563  23.159  23.255  1.00  0.00    -0.294 OA
BRANCH  11  13
ATOM     13  C   UNL A   1      30.891  25.460  23.301  1.00  0.00     0.018 A 
ATOM     14  C   UNL A   1      29.658  25.882  23.823  1.00  0.00     0.013 A 
ATOM     15  C   UNL A   1      31.639  26.338  22.515  1.00  0.00     0.013 A 
ATOM     16  C   UNL A   1      29.202  27.183  23.602  1.00  0.00     0.016 A 
ATOM     17  C   UNL A   1      31.186  27.645  22.298  1.00  0.00     0.016 A 
ATOM     18  C   UNL A   1      29.976  28.062  22.849  1.00  0.00     0.018 A 
ATOM     19  Br  UNL A   1      29.373  29.831  22.562  1.00  0.00    -0.051 Br
ENDBRANCH  11  13
ENDBRANCH   9  11
ENDBRANCH   7   9
ENDBRANCH   4   7
ENDBRANCH   2   3
ENDBRANCH   1   2
BRANCH   1  20
ATOM     20  C   UNL A   1      32.715  28.510  25.550  1.00  0.00     0.023 C 
BRANCH  20  21
ATOM     21  C   UNL A   1      33.943  29.225  26.102  1.00  0.00     0.116 C 
BRANCH  21  22
ATOM     22  N   UNL A   1      33.643  30.558  26.596  1.00  0.00    -0.352 N 
ATOM     23  C   UNL A   1      34.273  31.293  27.567  1.00  0.00     0.251 C 
ATOM     24  H   UNL A   1      32.872  30.999  26.171  1.00  0.00     0.163 HD
ATOM     25  O   UNL A   1      33.766  32.352  27.939  1.00  0.00    -0.269 OA
BRANCH  23  26
ATOM     26  C   UNL A   1      35.529  30.814  28.183  1.00  0.00     0.039 A 
ATOM     27  C   UNL A   1      36.694  31.560  27.984  1.00  0.00     0.014 A 
ATOM     28  C   UNL A   1      35.575  29.638  28.939  1.00  0.00     0.014 A 
ATOM     29  C   UNL A   1      37.888  31.154  28.583  1.00  0.00     0.010 A 
ATOM     30  C   UNL A   1      36.749  29.279  29.600  1.00  0.00     0.010 A 
ATOM     31  C   UNL A   1      37.920  30.028  29.425  1.00  0.00    -0.014 A 
BRANCH  31  32
ATOM     32  C   UNL A   1      39.175  29.651  30.126  1.00  0.00     0.031 A 
ATOM     33  C   UNL A   1      39.601  30.362  31.384  1.00  0.00     0.074 A 
ATOM     34  C   UNL A   1      39.942  28.666  29.617  1.00  0.00     0.049 A 
ATOM     35  N   UNL A   1      40.636  30.127  32.150  1.00  0.00    -0.248 NA
ATOM     36  C   UNL A   1      38.773  31.495  31.828  1.00  0.00     0.031 C 
ATOM     37  C   UNL A   1      39.673  27.944  28.370  1.00  0.00     0.029 A 
ATOM     38  N   UNL A   1      41.098  28.095  30.087  1.00  0.00    -0.354 N 
ATOM     39  C   UNL A   1      40.579  31.072  33.167  1.00  0.00     0.074 A 
ATOM     40  C   UNL A   1      39.449  31.928  32.883  1.00  0.00     0.031 C 
ATOM     41  C   UNL A   1      40.612  27.001  28.196  1.00  0.00     0.029 A 
ATOM     42  C   UNL A   1      41.568  27.071  29.297  1.00  0.00     0.049 A 
ATOM     43  H   UNL A   1      41.548  28.389  30.911  1.00  0.00     0.167 HD
ATOM     44  C   UNL A   1      41.377  31.200  34.255  1.00  0.00     0.031 A 
ATOM     45  C   UNL A   1      42.643  26.274  29.443  1.00  0.00     0.031 A 
ATOM     46  C   UNL A   1      42.507  30.352  34.533  1.00  0.00     0.049 A 
ATOM     47  C   UNL A   1      43.512  26.434  30.659  1.00  0.00     0.074 A 
ATOM     48  C   UNL A   1      43.357  30.379  35.625  1.00  0.00     0.029 A 
ATOM     49  N   UNL A   1      42.946  29.324  33.713  1.00  0.00    -0.354 N 
ATOM     50  N   UNL A   1      43.397  27.290  31.648  1.00  0.00    -0.248 NA
ATOM     51  C   UNL A   1      44.643  25.506  30.792  1.00  0.00     0.031 C 
ATOM     52  C   UNL A   1      44.340  29.401  35.441  1.00  0.00     0.029 A 
ATOM     53  C   UNL A   1      44.066  28.722  34.265  1.00  0.00     0.049 A 
ATOM     54  H   UNL A   1      42.526  29.061  32.862  1.00  0.00     0.167 HD
ATOM     55  C   UNL A   1      44.431  26.991  32.528  1.00  0.00     0.074 A 
ATOM     56  C   UNL A   1      45.138  25.855  31.970  1.00  0.00     0.031 C 
ATOM     57  C   UNL A   1      44.769  27.603  33.690  1.00  0.00     0.031 A 
BRANCH  44  58
ATOM     58  C   UNL A   1      41.044  32.296  35.236  1.00  0.00    -0.014 A 
ATOM     59  C   UNL A   1      40.249  32.034  36.368  1.00  0.00     0.010 A 
ATOM     60  C   UNL A   1      41.570  33.589  35.058  1.00  0.00     0.010 A 
ATOM     61  C   UNL A   1      39.957  33.049  37.281  1.00  0.00     0.020 A 
ATOM     62  C   UNL A   1      41.305  34.601  35.987  1.00  0.00     0.020 A 
ATOM     63  C   UNL A   1      40.486  34.327  37.085  1.00  0.00     0.054 A 
BRANCH  63  64
ATOM     64  S   UNL A   1      40.116  35.616  38.307  1.00  0.00     0.124 S 
ATOM     65  O   UNL A   1      38.960  35.051  39.000  1.00  0.00    -0.237 OA
ATOM     66  O   UNL A   1      41.347  35.678  39.089  1.00  0.00    -0.237 OA
ATOM     67  O   UNL A   1      39.838  36.797  37.494  1.00  0.00    -0.744 OA
ENDBRANCH  63  64
ENDBRANCH  44  58
BRANCH  45  68
ATOM     68  C   UNL A   1      42.951  25.244  28.411  1.00  0.00    -0.014 A 
ATOM     69  C   UNL A   1      43.829  25.522  27.350  1.00  0.00     0.010 A 
ATOM     70  C   UNL A   1      42.362  23.968  28.493  1.00  0.00     0.010 A 
ATOM     71  C   UNL A   1      44.091  24.555  26.374  1.00  0.00     0.020 A 
ATOM     72  C   UNL A   1      42.647  22.988  27.539  1.00  0.00     0.020 A 
ATOM     73  C   UNL A   1      43.498  23.293  26.475  1.00  0.00     0.054 A 
BRANCH  73  74
ATOM     74  S   UNL A   1      43.882  22.040  25.221  1.00  0.00     0.124 S 
ATOM     75  O   UNL A   1      42.843  21.044  25.459  1.00  0.00    -0.237 OA
ATOM     76  O   UNL A   1      43.766  22.793  23.976  1.00  0.00    -0.237 OA
ATOM     77  O   UNL A   1      45.240  21.622  25.562  1.00  0.00    -0.744 OA
ENDBRANCH  73  74
ENDBRANCH  45  68
BRANCH  57  78
ATOM     78  C   UNL A   1      45.945  27.038  34.445  1.00  0.00    -0.014 A 
ATOM     79  C   UNL A   1      45.777  26.018  35.400  1.00  0.00     0.010 A 
ATOM     80  C   UNL A   1      47.238  27.529  34.190  1.00  0.00     0.010 A 
ATOM     81  C   UNL A   1      46.872  25.543  36.127  1.00  0.00     0.020 A 
ATOM     82  C   UNL A   1      48.340  27.032  34.889  1.00  0.00     0.020 A 
ATOM     83  C   UNL A   1      48.146  26.059  35.872  1.00  0.00     0.054 A 
BRANCH  83  84
ATOM     84  S   UNL A   1      49.551  25.428  36.828  1.00  0.00     0.124 S 
ATOM     85  O   UNL A   1      49.327  26.039  38.136  1.00  0.00    -0.237 OA
ATOM     86  O   UNL A   1      49.356  23.981  36.769  1.00  0.00    -0.237 OA
ATOM     87  O   UNL A   1      50.717  25.923  36.100  1.00  0.00    -0.744 OA
ENDBRANCH  83  84
ENDBRANCH  57  78
ENDBRANCH  31  32
ENDBRANCH  23  26
ENDBRANCH  21  22
ENDBRANCH  20  21
ENDBRANCH   1  20
TORSDOF 17
ENDMDL
