MODEL 1
REMARK VINA RESULT:     -12.5      0.000      0.000
REMARK SMILES Cc1ccc(C(=O)NCCCCNC(=O)c2ccc(-c3c4nc(c(-c5ccc(S(=O)(=O)[O-])cc5)c5ccc([nH]5)c(-c5ccc(S(=O)(=O)[O-])cc5)c5nc(c(-c6ccc(S(=O)(=O)[O-])cc6)c6ccc3[nH]6)C=C5)C=C4)cc2)cc1O[C@@H](C)C(=O)N[C@@H]1CCS(=O)(=O)C1
REMARK SMILES IDX 10 1 9 2 8 3 6 4 7 5 5 7 1 8 2 9 3 10 77 11 4 12 76 13 78 14
REMARK SMILES IDX 79 15 80 16 81 17 82 18 83 19 84 21 85 22 90 23 86 24 87 25
REMARK SMILES IDX 88 26 89 27 11 28 12 29 13 30 14 31 15 33 16 34 17 35 75 36
REMARK SMILES IDX 18 37 74 38 19 39 20 40 21 41 68 42 22 43 73 44 67 45 69 46
REMARK SMILES IDX 23 47 72 48 66 49 65 50 24 52 54 53 35 54 53 55 36 56 39 57
REMARK SMILES IDX 52 58 70 59 37 60 38 61 51 63 71 64 40 65 25 66 26 67 34 68
REMARK SMILES IDX 27 69 33 70 28 71 29 72 30 73 31 74 32 75 55 76 56 77 64 78
REMARK SMILES IDX 57 79 63 80 58 81 59 82 60 83 61 84 62 85 41 86 42 87 50 88
REMARK SMILES IDX 43 89 49 90 44 91 45 92 46 93 47 94 48 95
REMARK H PARENT 8 6 83 20 13 32 69 51 39 62
REMARK Flexibility Score: inf
ROOT
ATOM      1  C   UNL A   1      35.068  22.865  26.523  1.00  0.00     0.023 C 
ENDROOT
BRANCH   1   2
ATOM      2  C   UNL A   1      33.958  21.843  26.821  1.00  0.00     0.116 C 
BRANCH   2   3
ATOM      3  N   UNL A   1      32.682  22.392  27.270  1.00  0.00    -0.352 N 
ATOM      4  C   UNL A   1      31.728  23.210  26.704  1.00  0.00     0.251 C 
ATOM      5  O   UNL A   1      30.713  23.425  27.374  1.00  0.00    -0.269 OA
ATOM      6  H   UNL A   1      32.451  22.116  28.185  1.00  0.00     0.163 HD
BRANCH   4   7
ATOM      7  C   UNL A   1      31.864  23.946  25.403  1.00  0.00     0.043 A 
ATOM      8  C   UNL A   1      31.526  26.166  21.667  1.00  0.00     0.048 C 
ATOM      9  C   UNL A   1      31.668  25.449  22.977  1.00  0.00    -0.009 A 
ATOM     10  C   UNL A   1      30.995  24.224  23.136  1.00  0.00     0.008 A 
ATOM     11  C   UNL A   1      32.428  25.913  24.052  1.00  0.00     0.124 A 
ATOM     12  C   UNL A   1      31.051  23.514  24.343  1.00  0.00     0.014 A 
ATOM     13  C   UNL A   1      32.634  25.088  25.186  1.00  0.00     0.060 A 
BRANCH  11  14
ATOM     14  O   UNL A   1      33.002  27.131  24.199  1.00  0.00    -0.481 OA
BRANCH  14  15
ATOM     15  C   UNL A   1      32.625  28.167  25.085  1.00  0.00     0.258 C 
ATOM     16  C   UNL A   1      33.785  28.231  26.102  1.00  0.00     0.064 C 
BRANCH  15  17
ATOM     17  C   UNL A   1      31.908  29.602  25.041  1.00  0.00     0.261 C 
ATOM     18  O   UNL A   1      32.301  30.516  25.782  1.00  0.00    -0.271 OA
ATOM     19  N   UNL A   1      30.789  29.913  24.330  1.00  0.00    -0.349 N 
ATOM     20  H   UNL A   1      30.353  30.757  24.591  1.00  0.00     0.163 HD
BRANCH  19  21
ATOM     21  C   UNL A   1      30.138  29.201  23.252  1.00  0.00     0.098 C 
ATOM     22  C   UNL A   1      29.961  30.029  21.964  1.00  0.00     0.042 C 
ATOM     23  C   UNL A   1      28.811  28.597  23.663  1.00  0.00     0.161 C 
ATOM     24  C   UNL A   1      28.488  30.121  21.592  1.00  0.00     0.139 C 
ATOM     25  S   UNL A   1      27.563  29.642  23.011  1.00  0.00     0.152 S 
ATOM     26  O   UNL A   1      27.411  30.793  23.884  1.00  0.00    -0.229 OA
ATOM     27  O   UNL A   1      26.451  28.845  22.563  1.00  0.00    -0.229 OA
ENDBRANCH  19  21
ENDBRANCH  15  17
ENDBRANCH  14  15
ENDBRANCH  11  14
ENDBRANCH   4   7
ENDBRANCH   2   3
ENDBRANCH   1   2
BRANCH   1  28
ATOM     28  C   UNL A   1      35.632  22.950  25.111  1.00  0.00     0.023 C 
BRANCH  28  29
ATOM     29  C   UNL A   1      37.140  22.894  25.035  1.00  0.00     0.116 C 
BRANCH  29  30
ATOM     30  N   UNL A   1      37.837  22.289  26.162  1.00  0.00    -0.352 N 
ATOM     31  C   UNL A   1      39.140  22.641  26.524  1.00  0.00     0.251 C 
ATOM     32  H   UNL A   1      37.370  21.602  26.690  1.00  0.00     0.163 HD
ATOM     33  O   UNL A   1      40.019  21.824  26.763  1.00  0.00    -0.269 OA
BRANCH  31  34
ATOM     34  C   UNL A   1      39.364  24.089  26.758  1.00  0.00     0.039 A 
ATOM     35  C   UNL A   1      40.006  24.862  25.784  1.00  0.00     0.014 A 
ATOM     36  C   UNL A   1      39.201  24.578  28.045  1.00  0.00     0.014 A 
ATOM     37  C   UNL A   1      40.680  26.016  26.171  1.00  0.00     0.010 A 
ATOM     38  C   UNL A   1      40.036  25.564  28.471  1.00  0.00     0.010 A 
ATOM     39  C   UNL A   1      40.781  26.276  27.531  1.00  0.00    -0.014 A 
BRANCH  39  40
ATOM     40  C   UNL A   1      41.424  27.413  28.144  1.00  0.00     0.031 A 
ATOM     41  C   UNL A   1      40.531  28.552  28.428  1.00  0.00     0.074 A 
ATOM     42  C   UNL A   1      42.600  27.164  28.757  1.00  0.00     0.049 A 
ATOM     43  N   UNL A   1      40.905  29.664  28.939  1.00  0.00    -0.248 NA
ATOM     44  C   UNL A   1      39.089  28.519  28.139  1.00  0.00     0.031 C 
ATOM     45  C   UNL A   1      43.235  27.856  29.870  1.00  0.00     0.029 A 
ATOM     46  N   UNL A   1      43.588  26.299  28.298  1.00  0.00    -0.354 N 
ATOM     47  C   UNL A   1      39.767  30.315  29.363  1.00  0.00     0.074 A 
ATOM     48  C   UNL A   1      38.667  29.638  28.731  1.00  0.00     0.031 C 
ATOM     49  C   UNL A   1      44.561  27.614  29.832  1.00  0.00     0.029 A 
ATOM     50  C   UNL A   1      44.825  26.892  28.592  1.00  0.00     0.049 A 
ATOM     51  H   UNL A   1      43.446  25.434  27.851  1.00  0.00     0.167 HD
ATOM     52  C   UNL A   1      39.897  31.245  30.345  1.00  0.00     0.031 A 
ATOM     53  C   UNL A   1      45.557  27.404  27.549  1.00  0.00     0.031 A 
ATOM     54  C   UNL A   1      41.314  31.501  30.590  1.00  0.00     0.049 A 
ATOM     55  C   UNL A   1      45.608  28.918  27.598  1.00  0.00     0.074 A 
ATOM     56  C   UNL A   1      42.191  31.025  31.549  1.00  0.00     0.029 A 
ATOM     57  N   UNL A   1      42.088  31.995  29.545  1.00  0.00    -0.354 N 
ATOM     58  N   UNL A   1      44.677  29.673  28.122  1.00  0.00    -0.248 NA
ATOM     59  C   UNL A   1      46.761  29.685  27.138  1.00  0.00     0.031 C 
ATOM     60  C   UNL A   1      43.500  31.095  30.993  1.00  0.00     0.029 A 
ATOM     61  C   UNL A   1      43.414  31.648  29.725  1.00  0.00     0.049 A 
ATOM     62  H   UNL A   1      41.741  32.515  28.786  1.00  0.00     0.167 HD
ATOM     63  C   UNL A   1      45.106  30.973  28.143  1.00  0.00     0.074 A 
ATOM     64  C   UNL A   1      46.408  30.932  27.499  1.00  0.00     0.031 C 
ATOM     65  C   UNL A   1      44.403  31.997  28.714  1.00  0.00     0.031 A 
BRANCH  52  66
ATOM     66  C   UNL A   1      38.796  31.737  31.253  1.00  0.00    -0.014 A 
ATOM     67  C   UNL A   1      38.413  33.090  31.158  1.00  0.00     0.010 A 
ATOM     68  C   UNL A   1      38.174  30.985  32.272  1.00  0.00     0.010 A 
ATOM     69  C   UNL A   1      37.490  33.670  32.039  1.00  0.00     0.020 A 
ATOM     70  C   UNL A   1      37.234  31.548  33.152  1.00  0.00     0.020 A 
ATOM     71  C   UNL A   1      36.906  32.893  33.036  1.00  0.00     0.054 A 
BRANCH  71  72
ATOM     72  S   UNL A   1      35.727  33.669  34.170  1.00  0.00     0.124 S 
ATOM     73  O   UNL A   1      35.856  35.085  33.835  1.00  0.00    -0.237 OA
ATOM     74  O   UNL A   1      34.464  33.044  33.788  1.00  0.00    -0.237 OA
ATOM     75  O   UNL A   1      36.224  33.300  35.495  1.00  0.00    -0.744 OA
ENDBRANCH  71  72
ENDBRANCH  52  66
BRANCH  53  76
ATOM     76  C   UNL A   1      45.435  26.555  26.312  1.00  0.00    -0.014 A 
ATOM     77  C   UNL A   1      46.324  25.457  26.223  1.00  0.00     0.010 A 
ATOM     78  C   UNL A   1      44.221  26.492  25.603  1.00  0.00     0.010 A 
ATOM     79  C   UNL A   1      45.903  24.243  25.673  1.00  0.00     0.020 A 
ATOM     80  C   UNL A   1      43.814  25.281  25.013  1.00  0.00     0.020 A 
ATOM     81  C   UNL A   1      44.617  24.143  25.144  1.00  0.00     0.054 A 
BRANCH  81  82
ATOM     82  S   UNL A   1      43.954  22.475  24.829  1.00  0.00     0.124 S 
ATOM     83  O   UNL A   1      44.212  22.302  23.402  1.00  0.00    -0.237 OA
ATOM     84  O   UNL A   1      44.771  21.643  25.717  1.00  0.00    -0.237 OA
ATOM     85  O   UNL A   1      42.547  22.594  25.197  1.00  0.00    -0.744 OA
ENDBRANCH  81  82
ENDBRANCH  53  76
BRANCH  65  86
ATOM     86  C   UNL A   1      44.656  33.457  28.435  1.00  0.00    -0.014 A 
ATOM     87  C   UNL A   1      45.712  34.179  29.010  1.00  0.00     0.010 A 
ATOM     88  C   UNL A   1      43.889  34.119  27.446  1.00  0.00     0.010 A 
ATOM     89  C   UNL A   1      45.921  35.527  28.703  1.00  0.00     0.020 A 
ATOM     90  C   UNL A   1      44.133  35.443  27.080  1.00  0.00     0.020 A 
ATOM     91  C   UNL A   1      45.122  36.152  27.749  1.00  0.00     0.054 A 
BRANCH  91  92
ATOM     92  S   UNL A   1      45.409  37.895  27.375  1.00  0.00     0.124 S 
ATOM     93  O   UNL A   1      45.705  38.436  28.699  1.00  0.00    -0.237 OA
ATOM     94  O   UNL A   1      46.541  37.844  26.452  1.00  0.00    -0.237 OA
ATOM     95  O   UNL A   1      44.149  38.336  26.784  1.00  0.00    -0.744 OA
ENDBRANCH  91  92
ENDBRANCH  65  86
ENDBRANCH  39  40
ENDBRANCH  31  34
ENDBRANCH  29  30
ENDBRANCH  28  29
ENDBRANCH   1  28
TORSDOF 18
ENDMDL
MODEL 2
REMARK VINA RESULT:     -12.5      3.870     10.050
REMARK SMILES Cc1ccc(C(=O)NCCCCNC(=O)c2ccc(-c3c4nc(c(-c5ccc(S(=O)(=O)[O-])cc5)c5ccc([nH]5)c(-c5ccc(S(=O)(=O)[O-])cc5)c5nc(c(-c6ccc(S(=O)(=O)[O-])cc6)c6ccc3[nH]6)C=C5)C=C4)cc2)cc1O[C@@H](C)C(=O)N[C@@H]1CCS(=O)(=O)C1
REMARK SMILES IDX 10 1 9 2 8 3 6 4 7 5 5 7 1 8 2 9 3 10 77 11 4 12 76 13 78 14
REMARK SMILES IDX 79 15 80 16 81 17 82 18 83 19 84 21 85 22 90 23 86 24 87 25
REMARK SMILES IDX 88 26 89 27 11 28 12 29 13 30 14 31 15 33 16 34 17 35 75 36
REMARK SMILES IDX 18 37 74 38 19 39 20 40 21 41 68 42 22 43 73 44 67 45 69 46
REMARK SMILES IDX 23 47 72 48 66 49 65 50 24 52 54 53 35 54 53 55 36 56 39 57
REMARK SMILES IDX 52 58 70 59 37 60 38 61 51 63 71 64 40 65 25 66 26 67 34 68
REMARK SMILES IDX 27 69 33 70 28 71 29 72 30 73 31 74 32 75 55 76 56 77 64 78
REMARK SMILES IDX 57 79 63 80 58 81 59 82 60 83 61 84 62 85 41 86 42 87 50 88
REMARK SMILES IDX 43 89 49 90 44 91 45 92 46 93 47 94 48 95
REMARK H PARENT 8 6 83 20 13 32 69 51 39 62
REMARK Flexibility Score: inf
ROOT
ATOM      1  C   UNL A   1      31.488  30.076  25.446  1.00  0.00     0.023 C 
ENDROOT
BRANCH   1   2
ATOM      2  C   UNL A   1      31.687  29.308  24.128  1.00  0.00     0.116 C 
BRANCH   2   3
ATOM      3  N   UNL A   1      30.564  28.484  23.690  1.00  0.00    -0.352 N 
ATOM      4  C   UNL A   1      30.059  27.257  24.064  1.00  0.00     0.251 C 
ATOM      5  O   UNL A   1      29.026  26.886  23.498  1.00  0.00    -0.269 OA
ATOM      6  H   UNL A   1      30.051  28.898  22.959  1.00  0.00     0.163 HD
BRANCH   4   7
ATOM      7  C   UNL A   1      30.713  26.292  25.009  1.00  0.00     0.043 A 
ATOM      8  C   UNL A   1      32.193  22.977  27.421  1.00  0.00     0.048 C 
ATOM      9  C   UNL A   1      31.736  24.120  26.564  1.00  0.00    -0.009 A 
ATOM     10  C   UNL A   1      30.367  24.443  26.570  1.00  0.00     0.008 A 
ATOM     11  C   UNL A   1      32.579  24.891  25.761  1.00  0.00     0.124 A 
ATOM     12  C   UNL A   1      29.860  25.475  25.769  1.00  0.00     0.014 A 
ATOM     13  C   UNL A   1      32.081  26.051  25.116  1.00  0.00     0.060 A 
BRANCH  11  14
ATOM     14  O   UNL A   1      33.877  24.657  25.454  1.00  0.00    -0.481 OA
BRANCH  14  15
ATOM     15  C   UNL A   1      34.403  24.132  24.251  1.00  0.00     0.258 C 
ATOM     16  C   UNL A   1      35.918  24.014  24.524  1.00  0.00     0.064 C 
BRANCH  15  17
ATOM     17  C   UNL A   1      34.008  23.070  23.114  1.00  0.00     0.261 C 
ATOM     18  O   UNL A   1      34.027  23.402  21.919  1.00  0.00    -0.271 OA
ATOM     19  N   UNL A   1      33.520  21.816  23.328  1.00  0.00    -0.349 N 
ATOM     20  H   UNL A   1      33.117  21.388  22.539  1.00  0.00     0.163 HD
BRANCH  19  21
ATOM     21  C   UNL A   1      33.500  21.014  24.532  1.00  0.00     0.098 C 
ATOM     22  C   UNL A   1      34.717  20.081  24.689  1.00  0.00     0.042 C 
ATOM     23  C   UNL A   1      32.220  20.222  24.690  1.00  0.00     0.161 C 
ATOM     24  C   UNL A   1      34.263  18.632  24.791  1.00  0.00     0.139 C 
ATOM     25  S   UNL A   1      32.593  18.570  24.236  1.00  0.00     0.152 S 
ATOM     26  O   UNL A   1      32.583  18.467  22.787  1.00  0.00    -0.229 OA
ATOM     27  O   UNL A   1      31.879  17.660  25.092  1.00  0.00    -0.229 OA
ENDBRANCH  19  21
ENDBRANCH  15  17
ENDBRANCH  14  15
ENDBRANCH  11  14
ENDBRANCH   4   7
ENDBRANCH   2   3
ENDBRANCH   1   2
BRANCH   1  28
ATOM     28  C   UNL A   1      31.748  29.358  26.763  1.00  0.00     0.023 C 
BRANCH  28  29
ATOM     29  C   UNL A   1      33.176  29.441  27.251  1.00  0.00     0.116 C 
BRANCH  29  30
ATOM     30  N   UNL A   1      33.963  30.580  26.797  1.00  0.00    -0.352 N 
ATOM     31  C   UNL A   1      34.962  31.168  27.579  1.00  0.00     0.251 C 
ATOM     32  H   UNL A   1      33.784  30.950  25.903  1.00  0.00     0.163 HD
ATOM     33  O   UNL A   1      35.063  32.375  27.749  1.00  0.00    -0.269 OA
BRANCH  31  34
ATOM     34  C   UNL A   1      36.008  30.240  28.075  1.00  0.00     0.039 A 
ATOM     35  C   UNL A   1      35.965  29.784  29.397  1.00  0.00     0.014 A 
ATOM     36  C   UNL A   1      37.158  30.082  27.316  1.00  0.00     0.014 A 
ATOM     37  C   UNL A   1      37.146  29.384  30.014  1.00  0.00     0.010 A 
ATOM     38  C   UNL A   1      38.342  29.916  27.966  1.00  0.00     0.010 A 
ATOM     39  C   UNL A   1      38.332  29.576  29.318  1.00  0.00    -0.014 A 
BRANCH  39  40
ATOM     40  C   UNL A   1      39.659  29.227  29.766  1.00  0.00     0.031 A 
ATOM     41  C   UNL A   1      40.110  27.878  29.376  1.00  0.00     0.074 A 
ATOM     42  C   UNL A   1      40.461  30.261  30.090  1.00  0.00     0.049 A 
ATOM     43  N   UNL A   1      41.237  27.364  29.697  1.00  0.00    -0.248 NA
ATOM     44  C   UNL A   1      39.284  26.970  28.565  1.00  0.00     0.031 C 
ATOM     45  C   UNL A   1      41.915  30.359  30.056  1.00  0.00     0.029 A 
ATOM     46  N   UNL A   1      40.067  31.418  30.753  1.00  0.00    -0.354 N 
ATOM     47  C   UNL A   1      41.429  26.272  28.878  1.00  0.00     0.074 A 
ATOM     48  C   UNL A   1      40.147  25.989  28.292  1.00  0.00     0.031 C 
ATOM     49  C   UNL A   1      42.303  31.335  30.901  1.00  0.00     0.029 A 
ATOM     50  C   UNL A   1      41.112  31.774  31.620  1.00  0.00     0.049 A 
ATOM     51  H   UNL A   1      39.216  31.898  30.637  1.00  0.00     0.167 HD
ATOM     52  C   UNL A   1      42.704  25.854  28.667  1.00  0.00     0.031 A 
ATOM     53  C   UNL A   1      40.921  31.592  32.967  1.00  0.00     0.031 A 
ATOM     54  C   UNL A   1      43.607  26.565  29.568  1.00  0.00     0.049 A 
ATOM     55  C   UNL A   1      41.790  30.472  33.504  1.00  0.00     0.074 A 
ATOM     56  C   UNL A   1      44.419  27.670  29.386  1.00  0.00     0.029 A 
ATOM     57  N   UNL A   1      43.422  26.423  30.939  1.00  0.00    -0.354 N 
ATOM     58  N   UNL A   1      42.197  29.449  32.800  1.00  0.00    -0.248 NA
ATOM     59  C   UNL A   1      42.339  30.477  34.857  1.00  0.00     0.031 C 
ATOM     60  C   UNL A   1      44.587  28.284  30.660  1.00  0.00     0.029 A 
ATOM     61  C   UNL A   1      43.915  27.527  31.608  1.00  0.00     0.049 A 
ATOM     62  H   UNL A   1      42.998  25.647  31.371  1.00  0.00     0.167 HD
ATOM     63  C   UNL A   1      43.087  28.715  33.537  1.00  0.00     0.074 A 
ATOM     64  C   UNL A   1      43.127  29.389  34.825  1.00  0.00     0.031 C 
ATOM     65  C   UNL A   1      43.765  27.632  33.053  1.00  0.00     0.031 A 
BRANCH  52  66
ATOM     66  C   UNL A   1      43.182  25.014  27.507  1.00  0.00    -0.014 A 
ATOM     67  C   UNL A   1      43.999  23.900  27.787  1.00  0.00     0.010 A 
ATOM     68  C   UNL A   1      42.969  25.300  26.142  1.00  0.00     0.010 A 
ATOM     69  C   UNL A   1      44.592  23.133  26.775  1.00  0.00     0.020 A 
ATOM     70  C   UNL A   1      43.543  24.530  25.116  1.00  0.00     0.020 A 
ATOM     71  C   UNL A   1      44.361  23.455  25.441  1.00  0.00     0.054 A 
BRANCH  71  72
ATOM     72  S   UNL A   1      45.150  22.458  24.152  1.00  0.00     0.124 S 
ATOM     73  O   UNL A   1      45.398  21.194  24.842  1.00  0.00    -0.237 OA
ATOM     74  O   UNL A   1      44.125  22.418  23.113  1.00  0.00    -0.237 OA
ATOM     75  O   UNL A   1      46.350  23.220  23.807  1.00  0.00    -0.744 OA
ENDBRANCH  71  72
ENDBRANCH  52  66
BRANCH  53  76
ATOM     76  C   UNL A   1      39.504  31.897  33.376  1.00  0.00    -0.014 A 
ATOM     77  C   UNL A   1      39.180  33.268  33.514  1.00  0.00     0.010 A 
ATOM     78  C   UNL A   1      38.467  30.988  33.095  1.00  0.00     0.010 A 
ATOM     79  C   UNL A   1      37.925  33.745  33.124  1.00  0.00     0.020 A 
ATOM     80  C   UNL A   1      37.191  31.466  32.741  1.00  0.00     0.020 A 
ATOM     81  C   UNL A   1      36.966  32.845  32.662  1.00  0.00     0.054 A 
BRANCH  81  82
ATOM     82  S   UNL A   1      35.524  33.519  31.776  1.00  0.00     0.124 S 
ATOM     83  O   UNL A   1      36.058  33.743  30.436  1.00  0.00    -0.237 OA
ATOM     84  O   UNL A   1      34.553  32.427  31.888  1.00  0.00    -0.237 OA
ATOM     85  O   UNL A   1      35.199  34.728  32.526  1.00  0.00    -0.744 OA
ENDBRANCH  81  82
ENDBRANCH  53  76
BRANCH  65  86
ATOM     86  C   UNL A   1      44.448  26.603  33.918  1.00  0.00    -0.014 A 
ATOM     87  C   UNL A   1      45.768  26.732  34.374  1.00  0.00     0.010 A 
ATOM     88  C   UNL A   1      43.699  25.512  34.423  1.00  0.00     0.010 A 
ATOM     89  C   UNL A   1      46.351  25.763  35.194  1.00  0.00     0.020 A 
ATOM     90  C   UNL A   1      44.249  24.577  35.299  1.00  0.00     0.020 A 
ATOM     91  C   UNL A   1      45.590  24.685  35.642  1.00  0.00     0.054 A 
BRANCH  91  92
ATOM     92  S   UNL A   1      46.369  23.444  36.697  1.00  0.00     0.124 S 
ATOM     93  O   UNL A   1      46.459  24.154  37.970  1.00  0.00    -0.237 OA
ATOM     94  O   UNL A   1      45.408  22.343  36.660  1.00  0.00    -0.237 OA
ATOM     95  O   UNL A   1      47.643  23.175  36.035  1.00  0.00    -0.744 OA
ENDBRANCH  91  92
ENDBRANCH  65  86
ENDBRANCH  39  40
ENDBRANCH  31  34
ENDBRANCH  29  30
ENDBRANCH  28  29
ENDBRANCH   1  28
TORSDOF 18
ENDMDL
MODEL 3
REMARK VINA RESULT:     -12.0      1.830      2.240
REMARK SMILES Cc1ccc(C(=O)NCCCCNC(=O)c2ccc(-c3c4nc(c(-c5ccc(S(=O)(=O)[O-])cc5)c5ccc([nH]5)c(-c5ccc(S(=O)(=O)[O-])cc5)c5nc(c(-c6ccc(S(=O)(=O)[O-])cc6)c6ccc3[nH]6)C=C5)C=C4)cc2)cc1O[C@@H](C)C(=O)N[C@@H]1CCS(=O)(=O)C1
REMARK SMILES IDX 10 1 9 2 8 3 6 4 7 5 5 7 1 8 2 9 3 10 77 11 4 12 76 13 78 14
REMARK SMILES IDX 79 15 80 16 81 17 82 18 83 19 84 21 85 22 90 23 86 24 87 25
REMARK SMILES IDX 88 26 89 27 11 28 12 29 13 30 14 31 15 33 16 34 17 35 75 36
REMARK SMILES IDX 18 37 74 38 19 39 20 40 21 41 68 42 22 43 73 44 67 45 69 46
REMARK SMILES IDX 23 47 72 48 66 49 65 50 24 52 54 53 35 54 53 55 36 56 39 57
REMARK SMILES IDX 52 58 70 59 37 60 38 61 51 63 71 64 40 65 25 66 26 67 34 68
REMARK SMILES IDX 27 69 33 70 28 71 29 72 30 73 31 74 32 75 55 76 56 77 64 78
REMARK SMILES IDX 57 79 63 80 58 81 59 82 60 83 61 84 62 85 41 86 42 87 50 88
REMARK SMILES IDX 43 89 49 90 44 91 45 92 46 93 47 94 48 95
REMARK H PARENT 8 6 83 20 13 32 69 51 39 62
REMARK Flexibility Score: inf
ROOT
ATOM      1  C   UNL A   1      35.045  22.050  25.030  1.00  0.00     0.023 C 
ENDROOT
BRANCH   1   2
ATOM      2  C   UNL A   1      33.982  21.421  24.113  1.00  0.00     0.116 C 
BRANCH   2   3
ATOM      3  N   UNL A   1      32.606  21.856  24.331  1.00  0.00    -0.352 N 
ATOM      4  C   UNL A   1      31.937  23.053  24.194  1.00  0.00     0.251 C 
ATOM      5  O   UNL A   1      30.722  23.038  24.417  1.00  0.00    -0.269 OA
ATOM      6  H   UNL A   1      32.023  21.130  24.649  1.00  0.00     0.163 HD
BRANCH   4   7
ATOM      7  C   UNL A   1      32.569  24.385  23.911  1.00  0.00     0.043 A 
ATOM      8  C   UNL A   1      33.812  28.373  22.667  1.00  0.00     0.048 C 
ATOM      9  C   UNL A   1      33.374  27.021  23.149  1.00  0.00    -0.009 A 
ATOM     10  C   UNL A   1      33.171  26.013  22.190  1.00  0.00     0.008 A 
ATOM     11  C   UNL A   1      33.158  26.694  24.489  1.00  0.00     0.124 A 
ATOM     12  C   UNL A   1      32.727  24.736  22.561  1.00  0.00     0.014 A 
ATOM     13  C   UNL A   1      32.905  25.349  24.860  1.00  0.00     0.060 A 
BRANCH  11  14
ATOM     14  O   UNL A   1      33.110  27.531  25.552  1.00  0.00    -0.481 OA
BRANCH  14  15
ATOM     15  C   UNL A   1      32.110  28.479  25.865  1.00  0.00     0.258 C 
ATOM     16  C   UNL A   1      31.946  28.360  27.396  1.00  0.00     0.064 C 
BRANCH  15  17
ATOM     17  C   UNL A   1      31.649  29.950  25.420  1.00  0.00     0.261 C 
ATOM     18  O   UNL A   1      32.051  30.944  26.043  1.00  0.00    -0.271 OA
ATOM     19  N   UNL A   1      30.729  30.241  24.458  1.00  0.00    -0.349 N 
ATOM     20  H   UNL A   1      30.395  31.167  24.469  1.00  0.00     0.163 HD
BRANCH  19  21
ATOM     21  C   UNL A   1      30.163  29.404  23.422  1.00  0.00     0.098 C 
ATOM     22  C   UNL A   1      30.036  30.096  22.050  1.00  0.00     0.042 C 
ATOM     23  C   UNL A   1      28.834  28.796  23.818  1.00  0.00     0.161 C 
ATOM     24  C   UNL A   1      28.585  30.098  21.591  1.00  0.00     0.139 C 
ATOM     25  S   UNL A   1      27.594  29.726  22.998  1.00  0.00     0.152 S 
ATOM     26  O   UNL A   1      27.357  30.951  23.743  1.00  0.00    -0.229 OA
ATOM     27  O   UNL A   1      26.535  28.851  22.571  1.00  0.00    -0.229 OA
ENDBRANCH  19  21
ENDBRANCH  15  17
ENDBRANCH  14  15
ENDBRANCH  11  14
ENDBRANCH   4   7
ENDBRANCH   2   3
ENDBRANCH   1   2
BRANCH   1  28
ATOM     28  C   UNL A   1      36.478  22.161  24.529  1.00  0.00     0.023 C 
BRANCH  28  29
ATOM     29  C   UNL A   1      37.340  23.127  25.307  1.00  0.00     0.116 C 
BRANCH  29  30
ATOM     30  N   UNL A   1      38.130  22.576  26.399  1.00  0.00    -0.352 N 
ATOM     31  C   UNL A   1      39.414  23.033  26.710  1.00  0.00     0.251 C 
ATOM     32  H   UNL A   1      37.744  21.850  26.941  1.00  0.00     0.163 HD
ATOM     33  O   UNL A   1      40.366  22.290  26.907  1.00  0.00    -0.269 OA
BRANCH  31  34
ATOM     34  C   UNL A   1      39.528  24.493  26.947  1.00  0.00     0.039 A 
ATOM     35  C   UNL A   1      40.362  25.269  26.134  1.00  0.00     0.014 A 
ATOM     36  C   UNL A   1      39.041  25.004  28.141  1.00  0.00     0.014 A 
ATOM     37  C   UNL A   1      40.884  26.456  26.636  1.00  0.00     0.010 A 
ATOM     38  C   UNL A   1      39.715  26.031  28.725  1.00  0.00     0.010 A 
ATOM     39  C   UNL A   1      40.643  26.750  27.971  1.00  0.00    -0.014 A 
BRANCH  39  40
ATOM     40  C   UNL A   1      41.081  27.924  28.687  1.00  0.00     0.031 A 
ATOM     41  C   UNL A   1      40.130  29.053  28.668  1.00  0.00     0.074 A 
ATOM     42  C   UNL A   1      42.048  27.727  29.606  1.00  0.00     0.049 A 
ATOM     43  N   UNL A   1      40.338  30.191  29.213  1.00  0.00    -0.248 NA
ATOM     44  C   UNL A   1      38.823  28.974  27.999  1.00  0.00     0.031 C 
ATOM     45  C   UNL A   1      42.347  28.476  30.819  1.00  0.00     0.029 A 
ATOM     46  N   UNL A   1      43.134  26.869  29.471  1.00  0.00    -0.354 N 
ATOM     47  C   UNL A   1      39.119  30.832  29.283  1.00  0.00     0.074 A 
ATOM     48  C   UNL A   1      38.241  30.105  28.405  1.00  0.00     0.031 C 
ATOM     49  C   UNL A   1      43.636  28.264  31.153  1.00  0.00     0.029 A 
ATOM     50  C   UNL A   1      44.237  27.501  30.064  1.00  0.00     0.049 A 
ATOM     51  H   UNL A   1      43.129  25.984  29.040  1.00  0.00     0.167 HD
ATOM     52  C   UNL A   1      38.965  31.802  30.221  1.00  0.00     0.031 A 
ATOM     53  C   UNL A   1      45.219  27.990  29.239  1.00  0.00     0.031 A 
ATOM     54  C   UNL A   1      40.258  32.100  30.832  1.00  0.00     0.049 A 
ATOM     55  C   UNL A   1      45.236  29.506  29.234  1.00  0.00     0.074 A 
ATOM     56  C   UNL A   1      40.846  31.682  32.012  1.00  0.00     0.029 A 
ATOM     57  N   UNL A   1      41.282  32.571  30.016  1.00  0.00    -0.354 N 
ATOM     58  N   UNL A   1      44.189  30.258  29.452  1.00  0.00    -0.248 NA
ATOM     59  C   UNL A   1      46.461  30.282  29.072  1.00  0.00     0.031 C 
ATOM     60  C   UNL A   1      42.257  31.761  31.831  1.00  0.00     0.029 A 
ATOM     61  C   UNL A   1      42.513  32.263  30.564  1.00  0.00     0.049 A 
ATOM     62  H   UNL A   1      41.149  33.053  29.169  1.00  0.00     0.167 HD
ATOM     63  C   UNL A   1      44.580  31.568  29.533  1.00  0.00     0.074 A 
ATOM     64  C   UNL A   1      46.009  31.532  29.269  1.00  0.00     0.031 C 
ATOM     65  C   UNL A   1      43.735  32.595  29.846  1.00  0.00     0.031 A 
BRANCH  52  66
ATOM     66  C   UNL A   1      37.652  32.301  30.774  1.00  0.00    -0.014 A 
ATOM     67  C   UNL A   1      37.504  33.688  30.978  1.00  0.00     0.010 A 
ATOM     68  C   UNL A   1      36.581  31.492  31.206  1.00  0.00     0.010 A 
ATOM     69  C   UNL A   1      36.374  34.236  31.599  1.00  0.00     0.020 A 
ATOM     70  C   UNL A   1      35.433  32.029  31.815  1.00  0.00     0.020 A 
ATOM     71  C   UNL A   1      35.342  33.400  32.017  1.00  0.00     0.054 A 
BRANCH  71  72
ATOM     72  S   UNL A   1      33.899  34.132  32.829  1.00  0.00     0.124 S 
ATOM     73  O   UNL A   1      33.173  32.954  33.297  1.00  0.00    -0.237 OA
ATOM     74  O   UNL A   1      34.507  34.953  33.873  1.00  0.00    -0.237 OA
ATOM     75  O   UNL A   1      33.240  34.880  31.760  1.00  0.00    -0.744 OA
ENDBRANCH  71  72
ENDBRANCH  52  66
BRANCH  53  76
ATOM     76  C   UNL A   1      45.449  27.091  28.053  1.00  0.00    -0.014 A 
ATOM     77  C   UNL A   1      45.184  27.658  26.784  1.00  0.00     0.010 A 
ATOM     78  C   UNL A   1      46.363  26.023  28.131  1.00  0.00     0.010 A 
ATOM     79  C   UNL A   1      45.993  27.354  25.685  1.00  0.00     0.020 A 
ATOM     80  C   UNL A   1      47.149  25.689  27.013  1.00  0.00     0.020 A 
ATOM     81  C   UNL A   1      47.024  26.428  25.832  1.00  0.00     0.054 A 
BRANCH  81  82
ATOM     82  S   UNL A   1      48.304  26.367  24.537  1.00  0.00     0.124 S 
ATOM     83  O   UNL A   1      47.801  25.320  23.651  1.00  0.00    -0.237 OA
ATOM     84  O   UNL A   1      48.257  27.725  23.989  1.00  0.00    -0.237 OA
ATOM     85  O   UNL A   1      49.517  26.028  25.274  1.00  0.00    -0.744 OA
ENDBRANCH  81  82
ENDBRANCH  53  76
BRANCH  65  86
ATOM     86  C   UNL A   1      44.037  34.050  29.583  1.00  0.00    -0.014 A 
ATOM     87  C   UNL A   1      44.264  34.986  30.604  1.00  0.00     0.010 A 
ATOM     88  C   UNL A   1      44.241  34.488  28.253  1.00  0.00     0.010 A 
ATOM     89  C   UNL A   1      44.563  36.319  30.311  1.00  0.00     0.020 A 
ATOM     90  C   UNL A   1      44.609  35.799  27.952  1.00  0.00     0.020 A 
ATOM     91  C   UNL A   1      44.722  36.719  28.986  1.00  0.00     0.054 A 
BRANCH  91  92
ATOM     92  S   UNL A   1      45.103  38.449  28.635  1.00  0.00     0.124 S 
ATOM     93  O   UNL A   1      46.370  38.620  29.342  1.00  0.00    -0.237 OA
ATOM     94  O   UNL A   1      45.192  38.468  27.176  1.00  0.00    -0.237 OA
ATOM     95  O   UNL A   1      43.968  39.176  29.196  1.00  0.00    -0.744 OA
ENDBRANCH  91  92
ENDBRANCH  65  86
ENDBRANCH  39  40
ENDBRANCH  31  34
ENDBRANCH  29  30
ENDBRANCH  28  29
ENDBRANCH   1  28
TORSDOF 18
ENDMDL
