MODEL 1
REMARK VINA RESULT:     -11.0      0.000      0.000
REMARK SMILES COc1cc(OC)cc(-c2ccc(C(=O)NCCCCNC(=O)c3ccc(-c4c5nc(c(-c6ccc(S(=O)(=O)[O-])cc6)c6ccc([nH]6)c(-c6ccc(S(=O)(=O)[O-])cc6)c6nc(c(-c7ccc(S(=O)(=O)[O-])cc7)c7ccc4[nH]7)C=C6)C=C5)cc3)o2)c1
REMARK SMILES IDX 19 1 18 2 17 3 16 4 14 5 15 6 13 8 10 9 11 10 84 11 12 12
REMARK SMILES IDX 9 13 3 14 4 15 85 16 5 17 8 18 2 19 1 20 6 21 7 22 20 23
REMARK SMILES IDX 21 24 22 25 23 27 24 28 25 29 83 30 26 31 82 32 27 33 28 34
REMARK SMILES IDX 29 35 76 36 30 37 81 38 75 39 77 40 31 41 80 42 74 43 73 44
REMARK SMILES IDX 32 46 62 47 43 48 61 49 44 50 47 51 60 52 78 53 45 54 46 55
REMARK SMILES IDX 59 57 79 58 48 59 33 60 34 61 42 62 35 63 41 64 36 65 37 66
REMARK SMILES IDX 38 67 39 68 40 69 63 70 64 71 72 72 65 73 71 74 66 75 67 76
REMARK SMILES IDX 68 77 69 78 70 79 49 80 50 81 58 82 51 83 57 84 52 85 53 86
REMARK SMILES IDX 54 87 55 88 56 89
REMARK H PARENT 16 7 21 26 77 45 47 56
REMARK Flexibility Score: inf
ROOT
ATOM      1  C   UNL A   1      33.485  28.103  25.727  1.00  0.00     0.023 C 
ENDROOT
BRANCH   1   2
ATOM      2  C   UNL A   1      33.064  29.260  24.813  1.00  0.00     0.023 C 
BRANCH   2   3
ATOM      3  C   UNL A   1      33.295  28.984  23.328  1.00  0.00     0.116 C 
BRANCH   3   4
ATOM      4  N   UNL A   1      32.143  29.368  22.540  1.00  0.00    -0.349 N 
ATOM      5  C   UNL A   1      30.899  28.789  22.415  1.00  0.00     0.287 C 
ATOM      6  O   UNL A   1      30.097  29.393  21.700  1.00  0.00    -0.266 OA
ATOM      7  H   UNL A   1      32.270  30.181  22.001  1.00  0.00     0.163 HD
BRANCH   5   8
ATOM      8  C   UNL A   1      30.568  27.555  23.107  1.00  0.00     0.192 A 
ATOM      9  C   UNL A   1      31.018  25.499  23.782  1.00  0.00     0.135 A 
ATOM     10  C   UNL A   1      29.735  25.762  24.195  1.00  0.00     0.052 A 
ATOM     11  O   UNL A   1      31.536  26.571  23.131  1.00  0.00    -0.451 OA
ATOM     12  C   UNL A   1      29.469  27.095  23.818  1.00  0.00     0.057 A 
BRANCH   9  13
ATOM     13  C   UNL A   1      31.877  24.353  23.986  1.00  0.00     0.025 A 
ATOM     14  C   UNL A   1      32.313  22.001  23.613  1.00  0.00     0.123 A 
ATOM     15  C   UNL A   1      33.181  22.009  24.708  1.00  0.00     0.092 A 
ATOM     16  C   UNL A   1      31.656  23.177  23.257  1.00  0.00     0.058 A 
ATOM     17  C   UNL A   1      33.425  23.182  25.429  1.00  0.00     0.123 A 
ATOM     18  C   UNL A   1      32.794  24.363  25.044  1.00  0.00     0.058 A 
BRANCH  14  19
ATOM     19  O   UNL A   1      32.131  20.780  23.022  1.00  0.00    -0.497 OA
ATOM     20  C   UNL A   1      32.594  19.648  23.750  1.00  0.00     0.278 C 
ENDBRANCH  14  19
BRANCH  17  21
ATOM     21  O   UNL A   1      34.263  23.043  26.502  1.00  0.00    -0.497 OA
ATOM     22  C   UNL A   1      33.975  21.969  27.391  1.00  0.00     0.278 C 
ENDBRANCH  17  21
ENDBRANCH   9  13
ENDBRANCH   5   8
ENDBRANCH   3   4
ENDBRANCH   2   3
ENDBRANCH   1   2
BRANCH   1  23
ATOM     23  C   UNL A   1      33.441  28.414  27.222  1.00  0.00     0.116 C 
BRANCH  23  24
ATOM     24  N   UNL A   1      33.379  29.838  27.510  1.00  0.00    -0.352 N 
ATOM     25  C   UNL A   1      34.351  30.646  28.051  1.00  0.00     0.251 C 
ATOM     26  H   UNL A   1      32.530  30.283  27.288  1.00  0.00     0.163 HD
ATOM     27  O   UNL A   1      34.088  31.808  28.344  1.00  0.00    -0.269 OA
BRANCH  25  28
ATOM     28  C   UNL A   1      35.695  30.091  28.309  1.00  0.00     0.039 A 
ATOM     29  C   UNL A   1      36.630  30.087  27.272  1.00  0.00     0.014 A 
ATOM     30  C   UNL A   1      36.041  29.607  29.574  1.00  0.00     0.014 A 
ATOM     31  C   UNL A   1      37.933  29.658  27.524  1.00  0.00     0.010 A 
ATOM     32  C   UNL A   1      37.361  29.253  29.842  1.00  0.00     0.010 A 
ATOM     33  C   UNL A   1      38.321  29.275  28.820  1.00  0.00    -0.014 A 
BRANCH  33  34
ATOM     34  C   UNL A   1      39.731  28.909  29.114  1.00  0.00     0.031 A 
ATOM     35  C   UNL A   1      40.656  29.902  29.764  1.00  0.00     0.074 A 
ATOM     36  C   UNL A   1      40.184  27.688  28.766  1.00  0.00     0.049 A 
ATOM     37  N   UNL A   1      41.916  29.762  30.088  1.00  0.00    -0.248 NA
ATOM     38  C   UNL A   1      40.104  31.232  30.076  1.00  0.00     0.031 C 
ATOM     39  C   UNL A   1      39.399  26.655  28.085  1.00  0.00     0.029 A 
ATOM     40  N   UNL A   1      41.414  27.104  28.939  1.00  0.00    -0.354 N 
ATOM     41  C   UNL A   1      42.302  30.975  30.645  1.00  0.00     0.074 A 
ATOM     42  C   UNL A   1      41.165  31.863  30.553  1.00  0.00     0.031 C 
ATOM     43  C   UNL A   1      40.155  25.556  27.928  1.00  0.00     0.029 A 
ATOM     44  C   UNL A   1      41.489  25.817  28.460  1.00  0.00     0.049 A 
ATOM     45  H   UNL A   1      42.171  27.564  29.367  1.00  0.00     0.167 HD
ATOM     46  C   UNL A   1      43.486  31.310  31.213  1.00  0.00     0.031 A 
ATOM     47  C   UNL A   1      42.516  24.945  28.444  1.00  0.00     0.031 A 
ATOM     48  C   UNL A   1      44.617  30.425  31.303  1.00  0.00     0.049 A 
ATOM     49  C   UNL A   1      43.829  25.356  29.056  1.00  0.00     0.074 A 
ATOM     50  C   UNL A   1      45.852  30.664  31.880  1.00  0.00     0.029 A 
ATOM     51  N   UNL A   1      44.652  29.130  30.808  1.00  0.00    -0.354 N 
ATOM     52  N   UNL A   1      44.152  26.490  29.634  1.00  0.00    -0.248 NA
ATOM     53  C   UNL A   1      44.912  24.363  29.030  1.00  0.00     0.031 C 
ATOM     54  C   UNL A   1      46.650  29.532  31.692  1.00  0.00     0.029 A 
ATOM     55  C   UNL A   1      45.891  28.564  31.054  1.00  0.00     0.049 A 
ATOM     56  H   UNL A   1      43.906  28.680  30.350  1.00  0.00     0.167 HD
ATOM     57  C   UNL A   1      45.466  26.332  30.064  1.00  0.00     0.074 A 
ATOM     58  C   UNL A   1      45.865  24.987  29.706  1.00  0.00     0.031 C 
ATOM     59  C   UNL A   1      46.272  27.222  30.695  1.00  0.00     0.031 A 
BRANCH  46  60
ATOM     60  C   UNL A   1      43.612  32.689  31.805  1.00  0.00    -0.014 A 
ATOM     61  C   UNL A   1      43.992  33.781  31.005  1.00  0.00     0.010 A 
ATOM     62  C   UNL A   1      43.277  32.914  33.154  1.00  0.00     0.010 A 
ATOM     63  C   UNL A   1      44.059  35.068  31.544  1.00  0.00     0.020 A 
ATOM     64  C   UNL A   1      43.314  34.204  33.690  1.00  0.00     0.020 A 
ATOM     65  C   UNL A   1      43.713  35.273  32.883  1.00  0.00     0.054 A 
BRANCH  65  66
ATOM     66  S   UNL A   1      43.754  36.963  33.538  1.00  0.00     0.124 S 
ATOM     67  O   UNL A   1      43.817  37.758  32.314  1.00  0.00    -0.237 OA
ATOM     68  O   UNL A   1      42.497  37.048  34.277  1.00  0.00    -0.237 OA
ATOM     69  O   UNL A   1      44.961  36.989  34.360  1.00  0.00    -0.744 OA
ENDBRANCH  65  66
ENDBRANCH  46  60
BRANCH  47  70
ATOM     70  C   UNL A   1      42.356  23.601  27.822  1.00  0.00    -0.014 A 
ATOM     71  C   UNL A   1      41.831  22.522  28.556  1.00  0.00     0.010 A 
ATOM     72  C   UNL A   1      42.767  23.384  26.494  1.00  0.00     0.010 A 
ATOM     73  C   UNL A   1      41.766  21.244  27.993  1.00  0.00     0.020 A 
ATOM     74  C   UNL A   1      42.671  22.116  25.914  1.00  0.00     0.020 A 
ATOM     75  C   UNL A   1      42.192  21.049  26.676  1.00  0.00     0.054 A 
BRANCH  75  76
ATOM     76  S   UNL A   1      42.101  19.383  25.962  1.00  0.00     0.124 S 
ATOM     77  O   UNL A   1      40.674  19.248  25.691  1.00  0.00    -0.237 OA
ATOM     78  O   UNL A   1      42.962  19.495  24.787  1.00  0.00    -0.237 OA
ATOM     79  O   UNL A   1      42.621  18.528  27.027  1.00  0.00    -0.744 OA
ENDBRANCH  75  76
ENDBRANCH  47  70
BRANCH  59  80
ATOM     80  C   UNL A   1      47.652  26.753  31.076  1.00  0.00    -0.014 A 
ATOM     81  C   UNL A   1      48.772  27.051  30.279  1.00  0.00     0.010 A 
ATOM     82  C   UNL A   1      47.834  26.031  32.270  1.00  0.00     0.010 A 
ATOM     83  C   UNL A   1      50.041  26.594  30.644  1.00  0.00     0.020 A 
ATOM     84  C   UNL A   1      49.106  25.602  32.656  1.00  0.00     0.020 A 
ATOM     85  C   UNL A   1      50.199  25.870  31.830  1.00  0.00     0.054 A 
BRANCH  85  86
ATOM     86  S   UNL A   1      51.859  25.307  32.293  1.00  0.00     0.124 S 
ATOM     87  O   UNL A   1      51.656  23.873  32.471  1.00  0.00    -0.237 OA
ATOM     88  O   UNL A   1      52.661  25.689  31.132  1.00  0.00    -0.237 OA
ATOM     89  O   UNL A   1      52.149  26.052  33.516  1.00  0.00    -0.744 OA
ENDBRANCH  85  86
ENDBRANCH  59  80
ENDBRANCH  33  34
ENDBRANCH  25  28
ENDBRANCH  23  24
ENDBRANCH   1  23
TORSDOF 17
ENDMDL
MODEL 2
REMARK VINA RESULT:     -10.8      1.046      2.061
REMARK SMILES COc1cc(OC)cc(-c2ccc(C(=O)NCCCCNC(=O)c3ccc(-c4c5nc(c(-c6ccc(S(=O)(=O)[O-])cc6)c6ccc([nH]6)c(-c6ccc(S(=O)(=O)[O-])cc6)c6nc(c(-c7ccc(S(=O)(=O)[O-])cc7)c7ccc4[nH]7)C=C6)C=C5)cc3)o2)c1
REMARK SMILES IDX 19 1 18 2 17 3 16 4 14 5 15 6 13 8 10 9 11 10 84 11 12 12
REMARK SMILES IDX 9 13 3 14 4 15 85 16 5 17 8 18 2 19 1 20 6 21 7 22 20 23
REMARK SMILES IDX 21 24 22 25 23 27 24 28 25 29 83 30 26 31 82 32 27 33 28 34
REMARK SMILES IDX 29 35 76 36 30 37 81 38 75 39 77 40 31 41 80 42 74 43 73 44
REMARK SMILES IDX 32 46 62 47 43 48 61 49 44 50 47 51 60 52 78 53 45 54 46 55
REMARK SMILES IDX 59 57 79 58 48 59 33 60 34 61 42 62 35 63 41 64 36 65 37 66
REMARK SMILES IDX 38 67 39 68 40 69 63 70 64 71 72 72 65 73 71 74 66 75 67 76
REMARK SMILES IDX 68 77 69 78 70 79 49 80 50 81 58 82 51 83 57 84 52 85 53 86
REMARK SMILES IDX 54 87 55 88 56 89
REMARK H PARENT 16 7 21 26 77 45 47 56
REMARK Flexibility Score: inf
ROOT
ATOM      1  C   UNL A   1      32.294  27.979  26.381  1.00  0.00     0.023 C 
ENDROOT
BRANCH   1   2
ATOM      2  C   UNL A   1      31.597  29.005  25.480  1.00  0.00     0.023 C 
BRANCH   2   3
ATOM      3  C   UNL A   1      31.212  28.454  24.107  1.00  0.00     0.116 C 
BRANCH   3   4
ATOM      4  N   UNL A   1      32.353  28.422  23.218  1.00  0.00    -0.349 N 
ATOM      5  C   UNL A   1      33.014  27.364  22.632  1.00  0.00     0.287 C 
ATOM      6  O   UNL A   1      33.931  27.665  21.864  1.00  0.00    -0.266 OA
ATOM      7  H   UNL A   1      32.722  29.307  22.995  1.00  0.00     0.163 HD
BRANCH   5   8
ATOM      8  C   UNL A   1      32.625  25.990  22.900  1.00  0.00     0.192 A 
ATOM      9  C   UNL A   1      33.021  23.944  23.635  1.00  0.00     0.135 A 
ATOM     10  C   UNL A   1      31.748  23.923  23.122  1.00  0.00     0.052 A 
ATOM     11  O   UNL A   1      33.562  25.183  23.515  1.00  0.00    -0.451 OA
ATOM     12  C   UNL A   1      31.473  25.243  22.708  1.00  0.00     0.057 A 
BRANCH   9  13
ATOM     13  C   UNL A   1      33.802  22.929  24.310  1.00  0.00     0.025 A 
ATOM     14  C   UNL A   1      35.931  22.220  25.218  1.00  0.00     0.123 A 
ATOM     15  C   UNL A   1      35.494  20.894  25.153  1.00  0.00     0.092 A 
ATOM     16  C   UNL A   1      35.082  23.238  24.789  1.00  0.00     0.058 A 
ATOM     17  C   UNL A   1      34.211  20.577  24.697  1.00  0.00     0.123 A 
ATOM     18  C   UNL A   1      33.354  21.603  24.306  1.00  0.00     0.058 A 
BRANCH  14  19
ATOM     19  O   UNL A   1      37.221  22.388  25.643  1.00  0.00    -0.497 OA
ATOM     20  C   UNL A   1      37.625  23.721  25.935  1.00  0.00     0.278 C 
ENDBRANCH  14  19
BRANCH  17  21
ATOM     21  O   UNL A   1      33.925  19.240  24.645  1.00  0.00    -0.497 OA
ATOM     22  C   UNL A   1      32.753  18.874  23.924  1.00  0.00     0.278 C 
ENDBRANCH  17  21
ENDBRANCH   9  13
ENDBRANCH   5   8
ENDBRANCH   3   4
ENDBRANCH   2   3
ENDBRANCH   1   2
BRANCH   1  23
ATOM     23  C   UNL A   1      33.555  28.485  27.078  1.00  0.00     0.116 C 
BRANCH  23  24
ATOM     24  N   UNL A   1      33.474  29.885  27.465  1.00  0.00    -0.352 N 
ATOM     25  C   UNL A   1      34.424  30.659  28.088  1.00  0.00     0.251 C 
ATOM     26  H   UNL A   1      32.627  30.339  27.253  1.00  0.00     0.163 HD
ATOM     27  O   UNL A   1      34.144  31.794  28.457  1.00  0.00    -0.269 OA
BRANCH  25  28
ATOM     28  C   UNL A   1      35.766  30.095  28.343  1.00  0.00     0.039 A 
ATOM     29  C   UNL A   1      36.716  30.138  27.321  1.00  0.00     0.014 A 
ATOM     30  C   UNL A   1      36.094  29.556  29.590  1.00  0.00     0.014 A 
ATOM     31  C   UNL A   1      38.016  29.701  27.574  1.00  0.00     0.010 A 
ATOM     32  C   UNL A   1      37.409  29.192  29.862  1.00  0.00     0.010 A 
ATOM     33  C   UNL A   1      38.386  29.261  28.858  1.00  0.00    -0.014 A 
BRANCH  33  34
ATOM     34  C   UNL A   1      39.791  28.885  29.156  1.00  0.00     0.031 A 
ATOM     35  C   UNL A   1      40.719  29.869  29.817  1.00  0.00     0.074 A 
ATOM     36  C   UNL A   1      40.239  27.663  28.804  1.00  0.00     0.049 A 
ATOM     37  N   UNL A   1      41.976  29.719  30.146  1.00  0.00    -0.248 NA
ATOM     38  C   UNL A   1      40.173  31.200  30.133  1.00  0.00     0.031 C 
ATOM     39  C   UNL A   1      39.451  26.638  28.113  1.00  0.00     0.029 A 
ATOM     40  N   UNL A   1      41.464  27.071  28.980  1.00  0.00    -0.354 N 
ATOM     41  C   UNL A   1      42.368  30.927  30.713  1.00  0.00     0.074 A 
ATOM     42  C   UNL A   1      41.236  31.823  30.620  1.00  0.00     0.031 C 
ATOM     43  C   UNL A   1      40.202  25.536  27.954  1.00  0.00     0.029 A 
ATOM     44  C   UNL A   1      41.534  25.786  28.494  1.00  0.00     0.049 A 
ATOM     45  H   UNL A   1      42.222  27.524  29.415  1.00  0.00     0.167 HD
ATOM     46  C   UNL A   1      43.550  31.252  31.288  1.00  0.00     0.031 A 
ATOM     47  C   UNL A   1      42.556  24.908  28.479  1.00  0.00     0.031 A 
ATOM     48  C   UNL A   1      44.676  30.359  31.379  1.00  0.00     0.049 A 
ATOM     49  C   UNL A   1      43.868  25.308  29.100  1.00  0.00     0.074 A 
ATOM     50  C   UNL A   1      45.909  30.588  31.963  1.00  0.00     0.029 A 
ATOM     51  N   UNL A   1      44.705  29.067  30.877  1.00  0.00    -0.354 N 
ATOM     52  N   UNL A   1      44.195  26.436  29.685  1.00  0.00    -0.248 NA
ATOM     53  C   UNL A   1      44.945  24.308  29.074  1.00  0.00     0.031 C 
ATOM     54  C   UNL A   1      46.700  29.452  31.774  1.00  0.00     0.029 A 
ATOM     55  C   UNL A   1      45.939  28.492  31.126  1.00  0.00     0.049 A 
ATOM     56  H   UNL A   1      43.958  28.624  30.412  1.00  0.00     0.167 HD
ATOM     57  C   UNL A   1      45.505  26.268  30.121  1.00  0.00     0.074 A 
ATOM     58  C   UNL A   1      45.899  24.923  29.758  1.00  0.00     0.031 C 
ATOM     59  C   UNL A   1      46.314  27.149  30.762  1.00  0.00     0.031 A 
BRANCH  46  60
ATOM     60  C   UNL A   1      43.681  32.626  31.889  1.00  0.00    -0.014 A 
ATOM     61  C   UNL A   1      43.378  32.848  33.244  1.00  0.00     0.010 A 
ATOM     62  C   UNL A   1      44.181  33.692  31.117  1.00  0.00     0.010 A 
ATOM     63  C   UNL A   1      43.549  34.112  33.813  1.00  0.00     0.020 A 
ATOM     64  C   UNL A   1      44.381  34.952  31.690  1.00  0.00     0.020 A 
ATOM     65  C   UNL A   1      44.056  35.156  33.033  1.00  0.00     0.054 A 
BRANCH  65  66
ATOM     66  S   UNL A   1      44.321  36.770  33.815  1.00  0.00     0.124 S 
ATOM     67  O   UNL A   1      44.996  36.396  35.056  1.00  0.00    -0.237 OA
ATOM     68  O   UNL A   1      45.152  37.465  32.835  1.00  0.00    -0.237 OA
ATOM     69  O   UNL A   1      42.972  37.304  33.977  1.00  0.00    -0.744 OA
ENDBRANCH  65  66
ENDBRANCH  46  60
BRANCH  47  70
ATOM     70  C   UNL A   1      42.391  23.569  27.848  1.00  0.00    -0.014 A 
ATOM     71  C   UNL A   1      41.850  22.490  28.572  1.00  0.00     0.010 A 
ATOM     72  C   UNL A   1      42.813  23.354  26.524  1.00  0.00     0.010 A 
ATOM     73  C   UNL A   1      41.780  21.215  28.002  1.00  0.00     0.020 A 
ATOM     74  C   UNL A   1      42.712  22.090  25.936  1.00  0.00     0.020 A 
ATOM     75  C   UNL A   1      42.217  21.024  26.688  1.00  0.00     0.054 A 
BRANCH  75  76
ATOM     76  S   UNL A   1      42.119  19.362  25.965  1.00  0.00     0.124 S 
ATOM     77  O   UNL A   1      42.957  19.498  24.778  1.00  0.00    -0.237 OA
ATOM     78  O   UNL A   1      42.659  18.522  27.031  1.00  0.00    -0.237 OA
ATOM     79  O   UNL A   1      40.691  19.187  25.707  1.00  0.00    -0.744 OA
ENDBRANCH  75  76
ENDBRANCH  47  70
BRANCH  59  80
ATOM     80  C   UNL A   1      47.689  26.670  31.147  1.00  0.00    -0.014 A 
ATOM     81  C   UNL A   1      47.939  26.099  32.408  1.00  0.00     0.010 A 
ATOM     82  C   UNL A   1      48.741  26.765  30.218  1.00  0.00     0.010 A 
ATOM     83  C   UNL A   1      49.225  25.676  32.749  1.00  0.00     0.020 A 
ATOM     84  C   UNL A   1      50.022  26.311  30.543  1.00  0.00     0.020 A 
ATOM     85  C   UNL A   1      50.260  25.786  31.814  1.00  0.00     0.054 A 
BRANCH  85  86
ATOM     86  S   UNL A   1      51.916  25.208  32.274  1.00  0.00     0.124 S 
ATOM     87  O   UNL A   1      52.068  25.758  33.618  1.00  0.00    -0.237 OA
ATOM     88  O   UNL A   1      51.777  23.754  32.202  1.00  0.00    -0.237 OA
ATOM     89  O   UNL A   1      52.783  25.796  31.258  1.00  0.00    -0.744 OA
ENDBRANCH  85  86
ENDBRANCH  59  80
ENDBRANCH  33  34
ENDBRANCH  25  28
ENDBRANCH  23  24
ENDBRANCH   1  23
TORSDOF 17
ENDMDL
MODEL 3
REMARK VINA RESULT:     -10.7      2.530      3.271
REMARK SMILES COc1cc(OC)cc(-c2ccc(C(=O)NCCCCNC(=O)c3ccc(-c4c5nc(c(-c6ccc(S(=O)(=O)[O-])cc6)c6ccc([nH]6)c(-c6ccc(S(=O)(=O)[O-])cc6)c6nc(c(-c7ccc(S(=O)(=O)[O-])cc7)c7ccc4[nH]7)C=C6)C=C5)cc3)o2)c1
REMARK SMILES IDX 19 1 18 2 17 3 16 4 14 5 15 6 13 8 10 9 11 10 84 11 12 12
REMARK SMILES IDX 9 13 3 14 4 15 85 16 5 17 8 18 2 19 1 20 6 21 7 22 20 23
REMARK SMILES IDX 21 24 22 25 23 27 24 28 25 29 83 30 26 31 82 32 27 33 28 34
REMARK SMILES IDX 29 35 76 36 30 37 81 38 75 39 77 40 31 41 80 42 74 43 73 44
REMARK SMILES IDX 32 46 62 47 43 48 61 49 44 50 47 51 60 52 78 53 45 54 46 55
REMARK SMILES IDX 59 57 79 58 48 59 33 60 34 61 42 62 35 63 41 64 36 65 37 66
REMARK SMILES IDX 38 67 39 68 40 69 63 70 64 71 72 72 65 73 71 74 66 75 67 76
REMARK SMILES IDX 68 77 69 78 70 79 49 80 50 81 58 82 51 83 57 84 52 85 53 86
REMARK SMILES IDX 54 87 55 88 56 89
REMARK H PARENT 16 7 21 26 77 45 47 56
REMARK Flexibility Score: inf
ROOT
ATOM      1  C   UNL A   1      33.709  27.027  25.161  1.00  0.00     0.023 C 
ENDROOT
BRANCH   1   2
ATOM      2  C   UNL A   1      33.905  27.876  23.899  1.00  0.00     0.023 C 
BRANCH   2   3
ATOM      3  C   UNL A   1      32.692  27.884  22.970  1.00  0.00     0.116 C 
BRANCH   3   4
ATOM      4  N   UNL A   1      32.981  27.201  21.727  1.00  0.00    -0.349 N 
ATOM      5  C   UNL A   1      32.787  25.890  21.348  1.00  0.00     0.287 C 
ATOM      6  O   UNL A   1      33.086  25.619  20.183  1.00  0.00    -0.266 OA
ATOM      7  H   UNL A   1      33.387  27.770  21.034  1.00  0.00     0.163 HD
BRANCH   5   8
ATOM      8  C   UNL A   1      32.243  24.910  22.273  1.00  0.00     0.192 A 
ATOM      9  C   UNL A   1      32.336  23.016  23.408  1.00  0.00     0.135 A 
ATOM     10  C   UNL A   1      31.104  23.558  23.675  1.00  0.00     0.052 A 
ATOM     11  O   UNL A   1      33.038  23.821  22.570  1.00  0.00    -0.451 OA
ATOM     12  C   UNL A   1      31.067  24.796  22.999  1.00  0.00     0.057 A 
BRANCH   9  13
ATOM     13  C   UNL A   1      32.993  21.828  23.910  1.00  0.00     0.025 A 
ATOM     14  C   UNL A   1      32.815  19.644  24.939  1.00  0.00     0.123 A 
ATOM     15  C   UNL A   1      34.156  19.739  25.323  1.00  0.00     0.092 A 
ATOM     16  C   UNL A   1      32.233  20.696  24.235  1.00  0.00     0.058 A 
ATOM     17  C   UNL A   1      34.928  20.854  24.985  1.00  0.00     0.123 A 
ATOM     18  C   UNL A   1      34.350  21.886  24.248  1.00  0.00     0.058 A 
BRANCH  14  19
ATOM     19  O   UNL A   1      32.164  18.520  25.370  1.00  0.00    -0.497 OA
ATOM     20  C   UNL A   1      32.546  17.292  24.761  1.00  0.00     0.278 C 
ENDBRANCH  14  19
BRANCH  17  21
ATOM     21  O   UNL A   1      36.213  20.839  25.457  1.00  0.00    -0.497 OA
ATOM     22  C   UNL A   1      36.932  22.064  25.365  1.00  0.00     0.278 C 
ENDBRANCH  17  21
ENDBRANCH   9  13
ENDBRANCH   5   8
ENDBRANCH   3   4
ENDBRANCH   2   3
ENDBRANCH   1   2
BRANCH   1  23
ATOM     23  C   UNL A   1      34.026  27.741  26.473  1.00  0.00     0.116 C 
BRANCH  23  24
ATOM     24  N   UNL A   1      33.511  29.100  26.526  1.00  0.00    -0.352 N 
ATOM     25  C   UNL A   1      34.021  30.184  27.199  1.00  0.00     0.251 C 
ATOM     26  H   UNL A   1      32.689  29.266  26.011  1.00  0.00     0.163 HD
ATOM     27  O   UNL A   1      33.389  31.234  27.238  1.00  0.00    -0.269 OA
BRANCH  25  28
ATOM     28  C   UNL A   1      35.313  30.058  27.905  1.00  0.00     0.039 A 
ATOM     29  C   UNL A   1      35.311  29.640  29.237  1.00  0.00     0.014 A 
ATOM     30  C   UNL A   1      36.519  30.318  27.248  1.00  0.00     0.014 A 
ATOM     31  C   UNL A   1      36.524  29.421  29.889  1.00  0.00     0.010 A 
ATOM     32  C   UNL A   1      37.726  30.025  27.875  1.00  0.00     0.010 A 
ATOM     33  C   UNL A   1      37.742  29.572  29.203  1.00  0.00    -0.014 A 
BRANCH  33  34
ATOM     34  C   UNL A   1      39.032  29.247  29.864  1.00  0.00     0.031 A 
ATOM     35  C   UNL A   1      39.487  30.025  31.070  1.00  0.00     0.074 A 
ATOM     36  C   UNL A   1      39.809  28.268  29.356  1.00  0.00     0.049 A 
ATOM     37  N   UNL A   1      40.583  29.887  31.770  1.00  0.00    -0.248 NA
ATOM     38  C   UNL A   1      38.609  31.109  31.541  1.00  0.00     0.031 C 
ATOM     39  C   UNL A   1      39.502  27.477  28.162  1.00  0.00     0.029 A 
ATOM     40  N   UNL A   1      41.014  27.768  29.781  1.00  0.00    -0.354 N 
ATOM     41  C   UNL A   1      40.523  30.857  32.765  1.00  0.00     0.074 A 
ATOM     42  C   UNL A   1      39.317  31.621  32.536  1.00  0.00     0.031 C 
ATOM     43  C   UNL A   1      40.475  26.571  27.970  1.00  0.00     0.029 A 
ATOM     44  C   UNL A   1      41.493  26.742  29.001  1.00  0.00     0.049 A 
ATOM     45  H   UNL A   1      41.490  28.111  30.571  1.00  0.00     0.167 HD
ATOM     46  C   UNL A   1      41.375  31.071  33.795  1.00  0.00     0.031 A 
ATOM     47  C   UNL A   1      42.628  26.021  29.099  1.00  0.00     0.031 A 
ATOM     48  C   UNL A   1      42.576  30.310  34.021  1.00  0.00     0.049 A 
ATOM     49  C   UNL A   1      43.572  26.302  30.239  1.00  0.00     0.074 A 
ATOM     50  C   UNL A   1      43.493  30.436  35.049  1.00  0.00     0.029 A 
ATOM     51  N   UNL A   1      43.025  29.278  33.210  1.00  0.00    -0.354 N 
ATOM     52  N   UNL A   1      43.462  27.184  31.204  1.00  0.00    -0.248 NA
ATOM     53  C   UNL A   1      44.785  25.476  30.311  1.00  0.00     0.031 C 
ATOM     54  C   UNL A   1      44.521  29.513  34.835  1.00  0.00     0.029 A 
ATOM     55  C   UNL A   1      44.212  28.769  33.708  1.00  0.00     0.049 A 
ATOM     56  H   UNL A   1      42.566  28.955  32.400  1.00  0.00     0.167 HD
ATOM     57  C   UNL A   1      44.578  26.998  32.013  1.00  0.00     0.074 A 
ATOM     58  C   UNL A   1      45.333  25.902  31.441  1.00  0.00     0.031 C 
ATOM     59  C   UNL A   1      44.949  27.675  33.128  1.00  0.00     0.031 A 
BRANCH  46  60
ATOM     60  C   UNL A   1      41.028  32.160  34.775  1.00  0.00    -0.014 A 
ATOM     61  C   UNL A   1      40.324  31.864  35.956  1.00  0.00     0.010 A 
ATOM     62  C   UNL A   1      41.471  33.478  34.556  1.00  0.00     0.010 A 
ATOM     63  C   UNL A   1      40.048  32.866  36.889  1.00  0.00     0.020 A 
ATOM     64  C   UNL A   1      41.222  34.478  35.501  1.00  0.00     0.020 A 
ATOM     65  C   UNL A   1      40.504  34.167  36.658  1.00  0.00     0.054 A 
BRANCH  65  66
ATOM     66  S   UNL A   1      40.180  35.433  37.915  1.00  0.00     0.124 S 
ATOM     67  O   UNL A   1      38.994  34.899  38.581  1.00  0.00    -0.237 OA
ATOM     68  O   UNL A   1      41.406  35.415  38.708  1.00  0.00    -0.237 OA
ATOM     69  O   UNL A   1      39.962  36.649  37.136  1.00  0.00    -0.744 OA
ENDBRANCH  65  66
ENDBRANCH  46  60
BRANCH  47  70
ATOM     70  C   UNL A   1      42.945  24.972  28.091  1.00  0.00    -0.014 A 
ATOM     71  C   UNL A   1      42.527  23.641  28.275  1.00  0.00     0.010 A 
ATOM     72  C   UNL A   1      43.706  25.293  26.952  1.00  0.00     0.010 A 
ATOM     73  C   UNL A   1      42.904  22.645  27.369  1.00  0.00     0.020 A 
ATOM     74  C   UNL A   1      44.056  24.308  26.024  1.00  0.00     0.020 A 
ATOM     75  C   UNL A   1      43.672  22.986  26.251  1.00  0.00     0.054 A 
BRANCH  75  76
ATOM     76  S   UNL A   1      44.152  21.681  25.086  1.00  0.00     0.124 S 
ATOM     77  O   UNL A   1      45.517  21.386  25.508  1.00  0.00    -0.237 OA
ATOM     78  O   UNL A   1      43.165  20.638  25.356  1.00  0.00    -0.237 OA
ATOM     79  O   UNL A   1      44.025  22.326  23.781  1.00  0.00    -0.744 OA
ENDBRANCH  75  76
ENDBRANCH  47  70
BRANCH  59  80
ATOM     80  C   UNL A   1      46.205  27.222  33.825  1.00  0.00    -0.014 A 
ATOM     81  C   UNL A   1      47.457  27.785  33.517  1.00  0.00     0.010 A 
ATOM     82  C   UNL A   1      46.125  26.240  34.829  1.00  0.00     0.010 A 
ATOM     83  C   UNL A   1      48.611  27.338  34.165  1.00  0.00     0.020 A 
ATOM     84  C   UNL A   1      47.272  25.816  35.504  1.00  0.00     0.020 A 
ATOM     85  C   UNL A   1      48.511  26.354  35.154  1.00  0.00     0.054 A 
BRANCH  85  86
ATOM     86  S   UNL A   1      50.021  25.809  35.997  1.00  0.00     0.124 S 
ATOM     87  O   UNL A   1      50.296  26.934  36.885  1.00  0.00    -0.237 OA
ATOM     88  O   UNL A   1      49.590  24.578  36.658  1.00  0.00    -0.237 OA
ATOM     89  O   UNL A   1      50.978  25.624  34.910  1.00  0.00    -0.744 OA
ENDBRANCH  85  86
ENDBRANCH  59  80
ENDBRANCH  33  34
ENDBRANCH  25  28
ENDBRANCH  23  24
ENDBRANCH   1  23
TORSDOF 17
ENDMDL
