MODEL 1
REMARK VINA RESULT:     -14.1      0.000      0.000
REMARK SMILES Cc1ccc([C@H](C)NC(=O)[C@H]2[C@@H]3CC[C@@H](C3)[C@@H]2C(=O)NCCCCNC(=O)c2ccc(-c3c4nc(c(-c5ccc(S(=O)(=O)[O-])cc5)c5ccc([nH]5)c(-c5ccc(S(=O)(=O)[O-])cc5)c5nc(c(-c6ccc(S(=O)(=O)[O-])cc6)c6ccc3[nH]6)C=C5)C=C4)cc2)cc1
REMARK SMILES IDX 22 1 21 2 20 3 18 4 19 5 17 7 11 8 12 9 13 10 16 11 15 12
REMARK SMILES IDX 14 13 9 14 8 15 10 17 6 18 7 19 5 20 1 21 2 22 3 23 89 24
REMARK SMILES IDX 4 25 88 26 23 27 24 28 25 29 26 30 27 32 28 33 29 34 87 35
REMARK SMILES IDX 30 36 86 37 31 38 32 39 33 40 80 41 34 42 85 43 79 44 81 45
REMARK SMILES IDX 35 46 84 47 78 48 77 49 36 51 66 52 47 53 65 54 48 55 51 56
REMARK SMILES IDX 64 57 82 58 49 59 50 60 63 62 83 63 52 64 37 65 38 66 46 67
REMARK SMILES IDX 39 68 45 69 40 70 41 71 42 72 43 73 44 74 67 75 68 76 76 77
REMARK SMILES IDX 69 78 75 79 70 80 71 81 72 82 73 83 74 84 53 85 54 86 62 87
REMARK SMILES IDX 55 88 61 89 56 90 57 91 58 92 59 93 60 94
REMARK H PARENT 20 6 8 16 25 31 81 50 51 61
REMARK Flexibility Score: inf
ROOT
ATOM      1  C   UNL A   1      32.876  29.790  26.173  1.00  0.00     0.023 C 
ENDROOT
BRANCH   1   2
ATOM      2  C   UNL A   1      33.872  28.751  25.633  1.00  0.00     0.116 C 
BRANCH   2   3
ATOM      3  N   UNL A   1      34.151  28.946  24.218  1.00  0.00    -0.356 N 
ATOM      4  C   UNL A   1      33.886  28.214  23.110  1.00  0.00     0.224 C 
ATOM      5  O   UNL A   1      34.298  28.677  22.038  1.00  0.00    -0.275 OA
ATOM      6  H   UNL A   1      34.630  29.784  24.026  1.00  0.00     0.163 HD
BRANCH   4   7
ATOM      7  C   UNL A   1      32.994  26.971  23.107  1.00  0.00     0.094 C 
ATOM      8  C   UNL A   1      32.281  26.525  21.830  1.00  0.00     0.094 C 
ATOM      9  C   UNL A   1      30.787  26.447  22.229  1.00  0.00     0.002 C 
ATOM     10  C   UNL A   1      30.255  27.888  22.376  1.00  0.00     0.005 C 
ATOM     11  C   UNL A   1      30.840  26.010  23.686  1.00  0.00     0.009 C 
ATOM     12  C   UNL A   1      31.785  27.146  24.086  1.00  0.00     0.002 C 
ATOM     13  C   UNL A   1      30.922  28.363  23.676  1.00  0.00     0.005 C 
BRANCH   8  14
ATOM     14  C   UNL A   1      32.751  25.267  21.099  1.00  0.00     0.224 C 
ATOM     15  N   UNL A   1      32.988  24.049  21.631  1.00  0.00    -0.349 N 
ATOM     16  H   UNL A   1      33.403  23.438  20.981  1.00  0.00     0.164 HD
ATOM     17  O   UNL A   1      32.905  25.333  19.871  1.00  0.00    -0.275 OA
BRANCH  15  18
ATOM     18  C   UNL A   1      32.781  23.412  22.925  1.00  0.00     0.109 C 
ATOM     19  C   UNL A   1      32.338  21.962  22.711  1.00  0.00     0.036 C 
BRANCH  18  20
ATOM     20  C   UNL A   1      34.016  23.477  23.805  1.00  0.00    -0.026 A 
ATOM     21  C   UNL A   1      37.631  23.875  26.156  1.00  0.00     0.044 C 
ATOM     22  C   UNL A   1      36.371  23.724  25.355  1.00  0.00    -0.051 A 
ATOM     23  C   UNL A   1      36.436  23.274  24.034  1.00  0.00     0.004 A 
ATOM     24  C   UNL A   1      35.121  24.024  25.906  1.00  0.00     0.004 A 
ATOM     25  C   UNL A   1      35.274  23.159  23.268  1.00  0.00     0.006 A 
ATOM     26  C   UNL A   1      33.956  23.898  25.142  1.00  0.00     0.006 A 
ENDBRANCH  18  20
ENDBRANCH  15  18
ENDBRANCH   8  14
ENDBRANCH   4   7
ENDBRANCH   2   3
ENDBRANCH   1   2
BRANCH   1  27
ATOM     27  C   UNL A   1      33.397  30.636  27.339  1.00  0.00     0.023 C 
BRANCH  27  28
ATOM     28  C   UNL A   1      34.733  30.145  27.878  1.00  0.00     0.116 C 
BRANCH  28  29
ATOM     29  N   UNL A   1      35.330  31.019  28.881  1.00  0.00    -0.352 N 
ATOM     30  C   UNL A   1      36.466  30.776  29.648  1.00  0.00     0.251 C 
ATOM     31  H   UNL A   1      34.878  31.881  29.032  1.00  0.00     0.163 HD
ATOM     32  O   UNL A   1      36.839  31.486  30.546  1.00  0.00    -0.269 OA
BRANCH  30  33
ATOM     33  C   UNL A   1      37.302  29.638  29.201  1.00  0.00     0.039 A 
ATOM     34  C   UNL A   1      37.583  28.661  30.162  1.00  0.00     0.014 A 
ATOM     35  C   UNL A   1      38.058  29.758  28.039  1.00  0.00     0.014 A 
ATOM     36  C   UNL A   1      38.764  27.938  30.055  1.00  0.00     0.010 A 
ATOM     37  C   UNL A   1      39.281  29.118  27.992  1.00  0.00     0.010 A 
ATOM     38  C   UNL A   1      39.657  28.256  29.029  1.00  0.00    -0.014 A 
BRANCH  38  39
ATOM     39  C   UNL A   1      41.034  27.773  29.026  1.00  0.00     0.031 A 
ATOM     40  C   UNL A   1      41.299  26.390  28.577  1.00  0.00     0.074 A 
ATOM     41  C   UNL A   1      42.043  28.553  29.478  1.00  0.00     0.049 A 
ATOM     42  N   UNL A   1      42.223  25.626  29.058  1.00  0.00    -0.248 NA
ATOM     43  C   UNL A   1      40.475  25.736  27.561  1.00  0.00     0.031 C 
ATOM     44  C   UNL A   1      43.469  28.233  29.451  1.00  0.00     0.029 A 
ATOM     45  N   UNL A   1      41.970  29.696  30.280  1.00  0.00    -0.354 N 
ATOM     46  C   UNL A   1      42.291  24.517  28.247  1.00  0.00     0.074 A 
ATOM     47  C   UNL A   1      41.143  24.595  27.376  1.00  0.00     0.031 C 
ATOM     48  C   UNL A   1      44.073  28.917  30.436  1.00  0.00     0.029 A 
ATOM     49  C   UNL A   1      43.035  29.605  31.190  1.00  0.00     0.049 A 
ATOM     50  H   UNL A   1      41.306  30.420  30.219  1.00  0.00     0.167 HD
ATOM     51  C   UNL A   1      43.383  23.705  28.266  1.00  0.00     0.031 A 
ATOM     52  C   UNL A   1      42.866  29.534  32.542  1.00  0.00     0.031 A 
ATOM     53  C   UNL A   1      44.358  24.123  29.262  1.00  0.00     0.049 A 
ATOM     54  C   UNL A   1      43.417  28.249  33.135  1.00  0.00     0.074 A 
ATOM     55  C   UNL A   1      45.500  24.904  29.191  1.00  0.00     0.029 A 
ATOM     56  N   UNL A   1      44.028  24.033  30.610  1.00  0.00    -0.354 N 
ATOM     57  N   UNL A   1      43.769  27.207  32.428  1.00  0.00    -0.248 NA
ATOM     58  C   UNL A   1      43.585  28.023  34.569  1.00  0.00     0.031 C 
ATOM     59  C   UNL A   1      45.772  25.397  30.496  1.00  0.00     0.029 A 
ATOM     60  C   UNL A   1      44.829  24.872  31.362  1.00  0.00     0.049 A 
ATOM     61  H   UNL A   1      43.321  23.453  30.977  1.00  0.00     0.167 HD
ATOM     62  C   UNL A   1      44.198  26.205  33.260  1.00  0.00     0.074 A 
ATOM     63  C   UNL A   1      44.074  26.770  34.593  1.00  0.00     0.031 C 
ATOM     64  C   UNL A   1      44.623  24.992  32.800  1.00  0.00     0.031 A 
BRANCH  51  65
ATOM     65  C   UNL A   1      43.639  22.786  27.102  1.00  0.00    -0.014 A 
ATOM     66  C   UNL A   1      42.895  21.599  26.969  1.00  0.00     0.010 A 
ATOM     67  C   UNL A   1      44.691  22.987  26.187  1.00  0.00     0.010 A 
ATOM     68  C   UNL A   1      43.257  20.605  26.049  1.00  0.00     0.020 A 
ATOM     69  C   UNL A   1      45.089  21.983  25.290  1.00  0.00     0.020 A 
ATOM     70  C   UNL A   1      44.374  20.789  25.237  1.00  0.00     0.054 A 
BRANCH  70  71
ATOM     71  S   UNL A   1      44.921  19.425  24.172  1.00  0.00     0.124 S 
ATOM     72  O   UNL A   1      46.372  19.441  24.349  1.00  0.00    -0.237 OA
ATOM     73  O   UNL A   1      44.230  18.279  24.755  1.00  0.00    -0.237 OA
ATOM     74  O   UNL A   1      44.463  19.821  22.842  1.00  0.00    -0.744 OA
ENDBRANCH  70  71
ENDBRANCH  51  65
BRANCH  52  75
ATOM     75  C   UNL A   1      41.717  30.320  33.074  1.00  0.00    -0.014 A 
ATOM     76  C   UNL A   1      40.449  29.699  33.079  1.00  0.00     0.010 A 
ATOM     77  C   UNL A   1      41.908  31.459  33.874  1.00  0.00     0.010 A 
ATOM     78  C   UNL A   1      39.444  30.114  33.961  1.00  0.00     0.020 A 
ATOM     79  C   UNL A   1      40.902  31.876  34.762  1.00  0.00     0.020 A 
ATOM     80  C   UNL A   1      39.702  31.162  34.843  1.00  0.00     0.054 A 
BRANCH  80  81
ATOM     81  S   UNL A   1      38.486  31.529  36.147  1.00  0.00     0.124 S 
ATOM     82  O   UNL A   1      37.395  32.153  35.405  1.00  0.00    -0.237 OA
ATOM     83  O   UNL A   1      38.201  30.197  36.681  1.00  0.00    -0.237 OA
ATOM     84  O   UNL A   1      39.218  32.418  37.042  1.00  0.00    -0.744 OA
ENDBRANCH  80  81
ENDBRANCH  52  75
BRANCH  64  85
ATOM     85  C   UNL A   1      44.975  23.808  33.665  1.00  0.00    -0.014 A 
ATOM     86  C   UNL A   1      44.066  22.796  34.011  1.00  0.00     0.010 A 
ATOM     87  C   UNL A   1      46.325  23.622  34.045  1.00  0.00     0.010 A 
ATOM     88  C   UNL A   1      44.473  21.681  34.758  1.00  0.00     0.020 A 
ATOM     89  C   UNL A   1      46.749  22.496  34.754  1.00  0.00     0.020 A 
ATOM     90  C   UNL A   1      45.812  21.541  35.129  1.00  0.00     0.054 A 
BRANCH  90  91
ATOM     91  S   UNL A   1      46.350  20.069  36.040  1.00  0.00     0.124 S 
ATOM     92  O   UNL A   1      47.803  20.203  35.993  1.00  0.00    -0.237 OA
ATOM     93  O   UNL A   1      45.746  20.256  37.358  1.00  0.00    -0.237 OA
ATOM     94  O   UNL A   1      45.794  18.966  35.261  1.00  0.00    -0.744 OA
ENDBRANCH  90  91
ENDBRANCH  64  85
ENDBRANCH  38  39
ENDBRANCH  30  33
ENDBRANCH  28  29
ENDBRANCH  27  28
ENDBRANCH   1  27
TORSDOF 17
ENDMDL
MODEL 2
REMARK VINA RESULT:     -13.8      1.166      3.160
REMARK SMILES Cc1ccc([C@H](C)NC(=O)[C@H]2[C@@H]3CC[C@@H](C3)[C@@H]2C(=O)NCCCCNC(=O)c2ccc(-c3c4nc(c(-c5ccc(S(=O)(=O)[O-])cc5)c5ccc([nH]5)c(-c5ccc(S(=O)(=O)[O-])cc5)c5nc(c(-c6ccc(S(=O)(=O)[O-])cc6)c6ccc3[nH]6)C=C5)C=C4)cc2)cc1
REMARK SMILES IDX 22 1 21 2 20 3 18 4 19 5 17 7 11 8 12 9 13 10 16 11 15 12
REMARK SMILES IDX 14 13 9 14 8 15 10 17 6 18 7 19 5 20 1 21 2 22 3 23 89 24
REMARK SMILES IDX 4 25 88 26 23 27 24 28 25 29 26 30 27 32 28 33 29 34 87 35
REMARK SMILES IDX 30 36 86 37 31 38 32 39 33 40 80 41 34 42 85 43 79 44 81 45
REMARK SMILES IDX 35 46 84 47 78 48 77 49 36 51 66 52 47 53 65 54 48 55 51 56
REMARK SMILES IDX 64 57 82 58 49 59 50 60 63 62 83 63 52 64 37 65 38 66 46 67
REMARK SMILES IDX 39 68 45 69 40 70 41 71 42 72 43 73 44 74 67 75 68 76 76 77
REMARK SMILES IDX 69 78 75 79 70 80 71 81 72 82 73 83 74 84 53 85 54 86 62 87
REMARK SMILES IDX 55 88 61 89 56 90 57 91 58 92 59 93 60 94
REMARK H PARENT 20 6 8 16 25 31 81 50 51 61
REMARK Flexibility Score: inf
ROOT
ATOM      1  C   UNL A   1      32.402  28.592  27.261  1.00  0.00     0.023 C 
ENDROOT
BRANCH   1   2
ATOM      2  C   UNL A   1      33.117  27.480  26.477  1.00  0.00     0.116 C 
BRANCH   2   3
ATOM      3  N   UNL A   1      32.370  26.231  26.497  1.00  0.00    -0.356 N 
ATOM      4  C   UNL A   1      32.401  25.118  25.726  1.00  0.00     0.224 C 
ATOM      5  O   UNL A   1      31.589  24.230  26.016  1.00  0.00    -0.275 OA
ATOM      6  H   UNL A   1      31.706  26.184  27.221  1.00  0.00     0.163 HD
BRANCH   4   7
ATOM      7  C   UNL A   1      33.463  24.856  24.657  1.00  0.00     0.094 C 
ATOM      8  C   UNL A   1      33.101  24.137  23.357  1.00  0.00     0.094 C 
ATOM      9  C   UNL A   1      34.084  22.942  23.291  1.00  0.00     0.002 C 
ATOM     10  C   UNL A   1      33.642  21.899  24.339  1.00  0.00     0.005 C 
ATOM     11  C   UNL A   1      35.343  23.492  23.946  1.00  0.00     0.009 C 
ATOM     12  C   UNL A   1      34.601  23.933  25.210  1.00  0.00     0.002 C 
ATOM     13  C   UNL A   1      34.025  22.571  25.665  1.00  0.00     0.005 C 
BRANCH   8  14
ATOM     14  C   UNL A   1      33.053  24.919  22.044  1.00  0.00     0.224 C 
ATOM     15  N   UNL A   1      32.828  26.240  21.885  1.00  0.00    -0.349 N 
ATOM     16  H   UNL A   1      32.720  26.483  20.937  1.00  0.00     0.164 HD
ATOM     17  O   UNL A   1      33.279  24.303  20.993  1.00  0.00    -0.275 OA
BRANCH  15  18
ATOM     18  C   UNL A   1      32.706  27.397  22.763  1.00  0.00     0.109 C 
ATOM     19  C   UNL A   1      33.699  28.476  22.320  1.00  0.00     0.036 C 
BRANCH  18  20
ATOM     20  C   UNL A   1      31.292  27.946  22.804  1.00  0.00    -0.026 A 
ATOM     21  C   UNL A   1      27.277  29.518  23.203  1.00  0.00     0.044 C 
ATOM     22  C   UNL A   1      28.667  28.976  23.045  1.00  0.00    -0.051 A 
ATOM     23  C   UNL A   1      28.963  27.682  23.479  1.00  0.00     0.004 A 
ATOM     24  C   UNL A   1      29.683  29.743  22.464  1.00  0.00     0.004 A 
ATOM     25  C   UNL A   1      30.261  27.177  23.367  1.00  0.00     0.006 A 
ATOM     26  C   UNL A   1      30.980  29.233  22.341  1.00  0.00     0.006 A 
ENDBRANCH  18  20
ENDBRANCH  15  18
ENDBRANCH   8  14
ENDBRANCH   4   7
ENDBRANCH   2   3
ENDBRANCH   1   2
BRANCH   1  27
ATOM     27  C   UNL A   1      33.128  29.941  27.271  1.00  0.00     0.023 C 
BRANCH  27  28
ATOM     28  C   UNL A   1      34.634  29.803  27.435  1.00  0.00     0.116 C 
BRANCH  28  29
ATOM     29  N   UNL A   1      35.240  30.828  28.278  1.00  0.00    -0.352 N 
ATOM     30  C   UNL A   1      36.417  30.732  29.015  1.00  0.00     0.251 C 
ATOM     31  H   UNL A   1      34.761  31.686  28.332  1.00  0.00     0.163 HD
ATOM     32  O   UNL A   1      36.801  31.571  29.788  1.00  0.00    -0.269 OA
BRANCH  30  33
ATOM     33  C   UNL A   1      37.278  29.571  28.688  1.00  0.00     0.039 A 
ATOM     34  C   UNL A   1      37.554  28.688  29.738  1.00  0.00     0.014 A 
ATOM     35  C   UNL A   1      38.054  29.598  27.533  1.00  0.00     0.014 A 
ATOM     36  C   UNL A   1      38.746  27.977  29.717  1.00  0.00     0.010 A 
ATOM     37  C   UNL A   1      39.287  28.976  27.567  1.00  0.00     0.010 A 
ATOM     38  C   UNL A   1      39.654  28.216  28.683  1.00  0.00    -0.014 A 
BRANCH  38  39
ATOM     39  C   UNL A   1      41.038  27.757  28.748  1.00  0.00     0.031 A 
ATOM     40  C   UNL A   1      41.345  26.372  28.330  1.00  0.00     0.074 A 
ATOM     41  C   UNL A   1      42.012  28.559  29.236  1.00  0.00     0.049 A 
ATOM     42  N   UNL A   1      42.259  25.631  28.863  1.00  0.00    -0.248 NA
ATOM     43  C   UNL A   1      40.579  25.693  27.287  1.00  0.00     0.031 C 
ATOM     44  C   UNL A   1      43.443  28.262  29.277  1.00  0.00     0.029 A 
ATOM     45  N   UNL A   1      41.885  29.710  30.019  1.00  0.00    -0.354 N 
ATOM     46  C   UNL A   1      42.382  24.513  28.070  1.00  0.00     0.074 A 
ATOM     47  C   UNL A   1      41.273  24.561  27.147  1.00  0.00     0.031 C 
ATOM     48  C   UNL A   1      43.991  28.969  30.280  1.00  0.00     0.029 A 
ATOM     49  C   UNL A   1      42.909  29.649  30.977  1.00  0.00     0.049 A 
ATOM     50  H   UNL A   1      41.212  30.422  29.918  1.00  0.00     0.167 HD
ATOM     51  C   UNL A   1      43.485  23.720  28.149  1.00  0.00     0.031 A 
ATOM     52  C   UNL A   1      42.679  29.591  32.321  1.00  0.00     0.031 A 
ATOM     53  C   UNL A   1      44.407  24.166  29.182  1.00  0.00     0.049 A 
ATOM     54  C   UNL A   1      43.223  28.323  32.955  1.00  0.00     0.074 A 
ATOM     55  C   UNL A   1      45.538  24.965  29.153  1.00  0.00     0.029 A 
ATOM     56  N   UNL A   1      44.017  24.087  30.515  1.00  0.00    -0.354 N 
ATOM     57  N   UNL A   1      43.624  27.278  32.279  1.00  0.00    -0.248 NA
ATOM     58  C   UNL A   1      43.330  28.117  34.398  1.00  0.00     0.031 C 
ATOM     59  C   UNL A   1      45.743  25.478  30.463  1.00  0.00     0.029 A 
ATOM     60  C   UNL A   1      44.770  24.948  31.292  1.00  0.00     0.049 A 
ATOM     61  H   UNL A   1      43.304  23.500  30.858  1.00  0.00     0.167 HD
ATOM     62  C   UNL A   1      44.031  26.294  33.142  1.00  0.00     0.074 A 
ATOM     63  C   UNL A   1      43.838  26.873  34.460  1.00  0.00     0.031 C 
ATOM     64  C   UNL A   1      44.496  25.082  32.717  1.00  0.00     0.031 A 
BRANCH  51  65
ATOM     65  C   UNL A   1      43.808  22.790  27.009  1.00  0.00    -0.014 A 
ATOM     66  C   UNL A   1      42.975  21.687  26.747  1.00  0.00     0.010 A 
ATOM     67  C   UNL A   1      44.994  22.892  26.254  1.00  0.00     0.010 A 
ATOM     68  C   UNL A   1      43.361  20.671  25.862  1.00  0.00     0.020 A 
ATOM     69  C   UNL A   1      45.410  21.862  25.398  1.00  0.00     0.020 A 
ATOM     70  C   UNL A   1      44.594  20.747  25.217  1.00  0.00     0.054 A 
BRANCH  70  71
ATOM     71  S   UNL A   1      45.146  19.345  24.206  1.00  0.00     0.124 S 
ATOM     72  O   UNL A   1      44.559  19.641  22.900  1.00  0.00    -0.237 OA
ATOM     73  O   UNL A   1      46.599  19.460  24.282  1.00  0.00    -0.237 OA
ATOM     74  O   UNL A   1      44.574  18.184  24.885  1.00  0.00    -0.744 OA
ENDBRANCH  70  71
ENDBRANCH  51  65
BRANCH  52  75
ATOM     75  C   UNL A   1      41.495  30.364  32.790  1.00  0.00    -0.014 A 
ATOM     76  C   UNL A   1      40.260  29.682  32.868  1.00  0.00     0.010 A 
ATOM     77  C   UNL A   1      41.632  31.581  33.477  1.00  0.00     0.010 A 
ATOM     78  C   UNL A   1      39.242  30.127  33.719  1.00  0.00     0.020 A 
ATOM     79  C   UNL A   1      40.612  32.029  34.334  1.00  0.00     0.020 A 
ATOM     80  C   UNL A   1      39.450  31.265  34.495  1.00  0.00     0.054 A 
BRANCH  80  81
ATOM     81  S   UNL A   1      38.226  31.690  35.774  1.00  0.00     0.124 S 
ATOM     82  O   UNL A   1      38.149  30.466  36.565  1.00  0.00    -0.237 OA
ATOM     83  O   UNL A   1      38.862  32.827  36.439  1.00  0.00    -0.237 OA
ATOM     84  O   UNL A   1      37.032  32.005  34.998  1.00  0.00    -0.744 OA
ENDBRANCH  80  81
ENDBRANCH  52  75
BRANCH  64  85
ATOM     85  C   UNL A   1      44.828  23.915  33.613  1.00  0.00    -0.014 A 
ATOM     86  C   UNL A   1      43.904  22.923  33.976  1.00  0.00     0.010 A 
ATOM     87  C   UNL A   1      46.173  23.723  34.007  1.00  0.00     0.010 A 
ATOM     88  C   UNL A   1      44.292  21.821  34.752  1.00  0.00     0.020 A 
ATOM     89  C   UNL A   1      46.579  22.609  34.745  1.00  0.00     0.020 A 
ATOM     90  C   UNL A   1      45.627  21.674  35.137  1.00  0.00     0.054 A 
BRANCH  90  91
ATOM     91  S   UNL A   1      46.141  20.218  36.086  1.00  0.00     0.124 S 
ATOM     92  O   UNL A   1      47.590  20.241  35.909  1.00  0.00    -0.237 OA
ATOM     93  O   UNL A   1      45.670  20.520  37.437  1.00  0.00    -0.237 OA
ATOM     94  O   UNL A   1      45.444  19.118  35.424  1.00  0.00    -0.744 OA
ENDBRANCH  90  91
ENDBRANCH  64  85
ENDBRANCH  38  39
ENDBRANCH  30  33
ENDBRANCH  28  29
ENDBRANCH  27  28
ENDBRANCH   1  27
TORSDOF 17
ENDMDL
MODEL 3
REMARK VINA RESULT:     -13.8      2.049      2.708
REMARK SMILES Cc1ccc([C@H](C)NC(=O)[C@H]2[C@@H]3CC[C@@H](C3)[C@@H]2C(=O)NCCCCNC(=O)c2ccc(-c3c4nc(c(-c5ccc(S(=O)(=O)[O-])cc5)c5ccc([nH]5)c(-c5ccc(S(=O)(=O)[O-])cc5)c5nc(c(-c6ccc(S(=O)(=O)[O-])cc6)c6ccc3[nH]6)C=C5)C=C4)cc2)cc1
REMARK SMILES IDX 22 1 21 2 20 3 18 4 19 5 17 7 11 8 12 9 13 10 16 11 15 12
REMARK SMILES IDX 14 13 9 14 8 15 10 17 6 18 7 19 5 20 1 21 2 22 3 23 89 24
REMARK SMILES IDX 4 25 88 26 23 27 24 28 25 29 26 30 27 32 28 33 29 34 87 35
REMARK SMILES IDX 30 36 86 37 31 38 32 39 33 40 80 41 34 42 85 43 79 44 81 45
REMARK SMILES IDX 35 46 84 47 78 48 77 49 36 51 66 52 47 53 65 54 48 55 51 56
REMARK SMILES IDX 64 57 82 58 49 59 50 60 63 62 83 63 52 64 37 65 38 66 46 67
REMARK SMILES IDX 39 68 45 69 40 70 41 71 42 72 43 73 44 74 67 75 68 76 76 77
REMARK SMILES IDX 69 78 75 79 70 80 71 81 72 82 73 83 74 84 53 85 54 86 62 87
REMARK SMILES IDX 55 88 61 89 56 90 57 91 58 92 59 93 60 94
REMARK H PARENT 20 6 8 16 25 31 81 50 51 61
REMARK Flexibility Score: inf
ROOT
ATOM      1  C   UNL A   1      32.084  29.483  27.116  1.00  0.00     0.023 C 
ENDROOT
BRANCH   1   2
ATOM      2  C   UNL A   1      31.704  28.066  26.659  1.00  0.00     0.116 C 
BRANCH   2   3
ATOM      3  N   UNL A   1      32.666  27.522  25.710  1.00  0.00    -0.356 N 
ATOM      4  C   UNL A   1      33.130  26.272  25.471  1.00  0.00     0.224 C 
ATOM      5  O   UNL A   1      33.985  26.168  24.582  1.00  0.00    -0.275 OA
ATOM      6  H   UNL A   1      33.060  28.203  25.119  1.00  0.00     0.163 HD
BRANCH   4   7
ATOM      7  C   UNL A   1      32.547  25.014  26.116  1.00  0.00     0.094 C 
ATOM      8  C   UNL A   1      32.986  23.624  25.651  1.00  0.00     0.094 C 
ATOM      9  C   UNL A   1      31.665  22.909  25.275  1.00  0.00     0.002 C 
ATOM     10  C   UNL A   1      31.152  23.515  23.952  1.00  0.00     0.005 C 
ATOM     11  C   UNL A   1      30.663  23.488  26.264  1.00  0.00     0.009 C 
ATOM     12  C   UNL A   1      30.999  24.935  25.895  1.00  0.00     0.002 C 
ATOM     13  C   UNL A   1      30.665  24.905  24.385  1.00  0.00     0.005 C 
BRANCH   8  14
ATOM     14  C   UNL A   1      33.871  22.766  26.555  1.00  0.00     0.224 C 
ATOM     15  N   UNL A   1      34.545  21.646  26.220  1.00  0.00    -0.349 N 
ATOM     16  H   UNL A   1      34.940  21.205  27.006  1.00  0.00     0.164 HD
ATOM     17  O   UNL A   1      34.037  23.138  27.726  1.00  0.00    -0.275 OA
BRANCH  15  18
ATOM     18  C   UNL A   1      34.835  20.926  24.986  1.00  0.00     0.109 C 
ATOM     19  C   UNL A   1      36.350  20.898  24.761  1.00  0.00     0.036 C 
BRANCH  18  20
ATOM     20  C   UNL A   1      34.261  19.522  24.987  1.00  0.00    -0.026 A 
ATOM     21  C   UNL A   1      32.815  15.445  25.184  1.00  0.00     0.044 C 
ATOM     22  C   UNL A   1      33.300  16.862  25.105  1.00  0.00    -0.051 A 
ATOM     23  C   UNL A   1      34.562  17.137  24.573  1.00  0.00     0.004 A 
ATOM     24  C   UNL A   1      32.509  17.926  25.552  1.00  0.00     0.004 A 
ATOM     25  C   UNL A   1      35.039  18.449  24.522  1.00  0.00     0.006 A 
ATOM     26  C   UNL A   1      32.982  19.241  25.490  1.00  0.00     0.006 A 
ENDBRANCH  18  20
ENDBRANCH  15  18
ENDBRANCH   8  14
ENDBRANCH   4   7
ENDBRANCH   2   3
ENDBRANCH   1   2
BRANCH   1  27
ATOM     27  C   UNL A   1      33.524  29.898  26.797  1.00  0.00     0.023 C 
BRANCH  27  28
ATOM     28  C   UNL A   1      34.497  29.579  27.923  1.00  0.00     0.116 C 
BRANCH  28  29
ATOM     29  N   UNL A   1      35.192  30.743  28.460  1.00  0.00    -0.352 N 
ATOM     30  C   UNL A   1      36.475  30.791  28.996  1.00  0.00     0.251 C 
ATOM     31  H   UNL A   1      34.695  31.593  28.442  1.00  0.00     0.163 HD
ATOM     32  O   UNL A   1      36.948  31.759  29.534  1.00  0.00    -0.269 OA
BRANCH  30  33
ATOM     33  C   UNL A   1      37.315  29.598  28.739  1.00  0.00     0.039 A 
ATOM     34  C   UNL A   1      37.617  28.801  29.849  1.00  0.00     0.014 A 
ATOM     35  C   UNL A   1      38.055  29.521  27.562  1.00  0.00     0.014 A 
ATOM     36  C   UNL A   1      38.802  28.077  29.850  1.00  0.00     0.010 A 
ATOM     37  C   UNL A   1      39.282  28.890  27.609  1.00  0.00     0.010 A 
ATOM     38  C   UNL A   1      39.679  28.220  28.773  1.00  0.00    -0.014 A 
BRANCH  38  39
ATOM     39  C   UNL A   1      41.059  27.751  28.833  1.00  0.00     0.031 A 
ATOM     40  C   UNL A   1      41.358  26.368  28.404  1.00  0.00     0.074 A 
ATOM     41  C   UNL A   1      42.039  28.544  29.324  1.00  0.00     0.049 A 
ATOM     42  N   UNL A   1      42.268  25.617  28.930  1.00  0.00    -0.248 NA
ATOM     43  C   UNL A   1      40.586  25.701  27.357  1.00  0.00     0.031 C 
ATOM     44  C   UNL A   1      43.468  28.239  29.362  1.00  0.00     0.029 A 
ATOM     45  N   UNL A   1      41.920  29.691  30.116  1.00  0.00    -0.354 N 
ATOM     46  C   UNL A   1      42.383  24.504  28.129  1.00  0.00     0.074 A 
ATOM     47  C   UNL A   1      41.273  24.566  27.208  1.00  0.00     0.031 C 
ATOM     48  C   UNL A   1      44.022  28.935  30.369  1.00  0.00     0.029 A 
ATOM     49  C   UNL A   1      42.945  29.616  31.072  1.00  0.00     0.049 A 
ATOM     50  H   UNL A   1      41.252  30.408  30.021  1.00  0.00     0.167 HD
ATOM     51  C   UNL A   1      43.481  23.704  28.201  1.00  0.00     0.031 A 
ATOM     52  C   UNL A   1      42.716  29.551  32.415  1.00  0.00     0.031 A 
ATOM     53  C   UNL A   1      44.407  24.138  29.236  1.00  0.00     0.049 A 
ATOM     54  C   UNL A   1      43.254  28.274  33.040  1.00  0.00     0.074 A 
ATOM     55  C   UNL A   1      45.543  24.930  29.211  1.00  0.00     0.029 A 
ATOM     56  N   UNL A   1      44.019  24.051  30.569  1.00  0.00    -0.354 N 
ATOM     57  N   UNL A   1      43.647  27.232  32.356  1.00  0.00    -0.248 NA
ATOM     58  C   UNL A   1      43.361  28.058  34.482  1.00  0.00     0.031 C 
ATOM     59  C   UNL A   1      45.752  25.432  30.524  1.00  0.00     0.029 A 
ATOM     60  C   UNL A   1      44.778  24.902  31.351  1.00  0.00     0.049 A 
ATOM     61  H   UNL A   1      43.302  23.466  30.909  1.00  0.00     0.167 HD
ATOM     62  C   UNL A   1      44.049  26.240  33.211  1.00  0.00     0.074 A 
ATOM     63  C   UNL A   1      43.862  26.810  34.534  1.00  0.00     0.031 C 
ATOM     64  C   UNL A   1      44.507  25.028  32.777  1.00  0.00     0.031 A 
BRANCH  51  65
ATOM     65  C   UNL A   1      43.797  22.781  27.055  1.00  0.00    -0.014 A 
ATOM     66  C   UNL A   1      42.893  21.760  26.708  1.00  0.00     0.010 A 
ATOM     67  C   UNL A   1      45.032  22.802  26.376  1.00  0.00     0.010 A 
ATOM     68  C   UNL A   1      43.249  20.738  25.816  1.00  0.00     0.020 A 
ATOM     69  C   UNL A   1      45.415  21.763  25.514  1.00  0.00     0.020 A 
ATOM     70  C   UNL A   1      44.522  20.726  25.250  1.00  0.00     0.054 A 
BRANCH  70  71
ATOM     71  S   UNL A   1      45.019  19.310  24.230  1.00  0.00     0.124 S 
ATOM     72  O   UNL A   1      46.476  19.333  24.335  1.00  0.00    -0.237 OA
ATOM     73  O   UNL A   1      44.358  18.196  24.903  1.00  0.00    -0.237 OA
ATOM     74  O   UNL A   1      44.495  19.639  22.905  1.00  0.00    -0.744 OA
ENDBRANCH  70  71
ENDBRANCH  51  65
BRANCH  52  75
ATOM     75  C   UNL A   1      41.538  30.327  32.892  1.00  0.00    -0.014 A 
ATOM     76  C   UNL A   1      40.300  29.651  32.970  1.00  0.00     0.010 A 
ATOM     77  C   UNL A   1      41.683  31.541  33.584  1.00  0.00     0.010 A 
ATOM     78  C   UNL A   1      39.286  30.097  33.827  1.00  0.00     0.020 A 
ATOM     79  C   UNL A   1      40.668  31.989  34.447  1.00  0.00     0.020 A 
ATOM     80  C   UNL A   1      39.503  31.231  34.607  1.00  0.00     0.054 A 
BRANCH  80  81
ATOM     81  S   UNL A   1      38.285  31.657  35.892  1.00  0.00     0.124 S 
ATOM     82  O   UNL A   1      37.120  32.060  35.109  1.00  0.00    -0.237 OA
ATOM     83  O   UNL A   1      38.148  30.392  36.613  1.00  0.00    -0.237 OA
ATOM     84  O   UNL A   1      38.941  32.731  36.628  1.00  0.00    -0.744 OA
ENDBRANCH  80  81
ENDBRANCH  52  75
BRANCH  64  85
ATOM     85  C   UNL A   1      44.832  23.853  33.664  1.00  0.00    -0.014 A 
ATOM     86  C   UNL A   1      43.965  22.769  33.873  1.00  0.00     0.010 A 
ATOM     87  C   UNL A   1      46.132  23.758  34.216  1.00  0.00     0.010 A 
ATOM     88  C   UNL A   1      44.356  21.669  34.651  1.00  0.00     0.020 A 
ATOM     89  C   UNL A   1      46.545  22.649  34.958  1.00  0.00     0.020 A 
ATOM     90  C   UNL A   1      45.642  21.619  35.193  1.00  0.00     0.054 A 
BRANCH  90  91
ATOM     91  S   UNL A   1      46.167  20.169  36.146  1.00  0.00     0.124 S 
ATOM     92  O   UNL A   1      45.298  19.126  35.608  1.00  0.00    -0.237 OA
ATOM     93  O   UNL A   1      47.583  20.043  35.802  1.00  0.00    -0.237 OA
ATOM     94  O   UNL A   1      45.903  20.557  37.529  1.00  0.00    -0.744 OA
ENDBRANCH  90  91
ENDBRANCH  64  85
ENDBRANCH  38  39
ENDBRANCH  30  33
ENDBRANCH  28  29
ENDBRANCH  27  28
ENDBRANCH   1  27
TORSDOF 17
ENDMDL
