MODEL 1
REMARK VINA RESULT:     -11.0      0.000      0.000
REMARK SMILES COC(CNS(=O)(=O)c1ccc(Cl)c(C(=O)NCCCCNC(=O)c2ccc(-c3c4nc(c(-c5ccc(S(=O)(=O)[O-])cc5)c5ccc([nH]5)c(-c5ccc(S(=O)(=O)[O-])cc5)c5nc(c(-c6ccc(S(=O)(=O)[O-])cc6)c6ccc3[nH]6)C=C5)C=C4)cc2)c1Cl)OC
REMARK SMILES IDX 18 1 17 2 15 3 16 4 14 6 9 7 10 8 85 9 11 10 86 11 12 12
REMARK SMILES IDX 13 13 6 14 7 15 8 16 5 17 4 19 3 20 2 21 1 22 87 23 88 24
REMARK SMILES IDX 19 25 20 26 21 27 22 28 23 29 24 31 25 32 26 33 84 34 27 35
REMARK SMILES IDX 83 36 28 37 29 38 30 39 77 40 31 41 82 42 76 43 78 44 32 45
REMARK SMILES IDX 81 46 75 47 74 48 33 50 63 51 44 52 62 53 45 54 48 55 61 56
REMARK SMILES IDX 79 57 46 58 47 59 60 61 80 62 49 63 34 64 35 65 43 66 36 67
REMARK SMILES IDX 42 68 37 69 38 70 39 71 40 72 41 73 64 74 65 75 73 76 66 77
REMARK SMILES IDX 72 78 67 79 68 80 69 81 70 82 71 83 50 84 51 85 59 86 52 87
REMARK SMILES IDX 58 88 53 89 54 90 55 91 56 92 57 93
REMARK H PARENT 17 5 5 18 22 30 78 49 48 60
REMARK Flexibility Score: inf
ROOT
ATOM      1  C   UNL A   1      36.414  21.275  25.512  1.00  0.00     0.116 C 
ENDROOT
BRANCH   1   2
ATOM      2  N   UNL A   1      35.581  21.929  26.491  1.00  0.00    -0.352 N 
ATOM      3  C   UNL A   1      34.350  22.512  26.537  1.00  0.00     0.254 C 
ATOM      4  O   UNL A   1      33.933  22.620  27.699  1.00  0.00    -0.269 OA
ATOM      5  H   UNL A   1      36.024  21.963  27.370  1.00  0.00     0.163 HD
BRANCH   3   6
ATOM      6  C   UNL A   1      33.411  22.951  25.446  1.00  0.00     0.078 A 
ATOM      7  C   UNL A   1      31.727  24.721  25.147  1.00  0.00     0.101 A 
ATOM      8  C   UNL A   1      30.980  23.871  24.332  1.00  0.00     0.025 A 
ATOM      9  C   UNL A   1      32.988  24.311  25.582  1.00  0.00     0.075 A 
ATOM     10  C   UNL A   1      31.510  22.647  23.955  1.00  0.00     0.023 A 
ATOM     11  Cl  UNL A   1      34.228  25.505  25.880  1.00  0.00    -0.082 Cl
ATOM     12  C   UNL A   1      32.710  22.173  24.514  1.00  0.00     0.055 A 
ATOM     13  Cl  UNL A   1      33.214  20.696  23.801  1.00  0.00    -0.083 Cl
BRANCH   7  14
ATOM     14  S   UNL A   1      30.882  26.198  25.633  1.00  0.00     0.242 S 
ATOM     15  O   UNL A   1      31.216  26.428  27.024  1.00  0.00    -0.207 OA
ATOM     16  O   UNL A   1      29.506  26.021  25.223  1.00  0.00    -0.207 OA
BRANCH  14  17
ATOM     17  N   UNL A   1      31.414  27.511  24.767  1.00  0.00    -0.206 NA
ATOM     18  H   UNL A   1      30.587  28.056  24.522  1.00  0.00     0.141 HD
BRANCH  17  19
ATOM     19  C   UNL A   1      32.182  27.316  23.517  1.00  0.00     0.161 C 
BRANCH  19  20
ATOM     20  C   UNL A   1      31.326  27.475  22.222  1.00  0.00     0.263 C 
BRANCH  20  21
ATOM     21  O   UNL A   1      30.053  28.119  22.338  1.00  0.00    -0.355 OA
ATOM     22  C   UNL A   1      29.975  29.492  22.018  1.00  0.00     0.198 C 
ENDBRANCH  20  21
BRANCH  20  23
ATOM     23  O   UNL A   1      31.337  26.338  21.357  1.00  0.00    -0.355 OA
ATOM     24  C   UNL A   1      32.519  25.564  21.329  1.00  0.00     0.198 C 
ENDBRANCH  20  23
ENDBRANCH  19  20
ENDBRANCH  17  19
ENDBRANCH  14  17
ENDBRANCH   7  14
ENDBRANCH   3   6
ENDBRANCH   1   2
BRANCH   1  25
ATOM     25  C   UNL A   1      37.624  22.113  25.111  1.00  0.00     0.023 C 
BRANCH  25  26
ATOM     26  C   UNL A   1      37.486  23.604  25.434  1.00  0.00     0.023 C 
BRANCH  26  27
ATOM     27  C   UNL A   1      38.363  24.118  26.577  1.00  0.00     0.116 C 
BRANCH  27  28
ATOM     28  N   UNL A   1      39.788  23.878  26.394  1.00  0.00    -0.352 N 
ATOM     29  C   UNL A   1      40.837  24.618  26.886  1.00  0.00     0.251 C 
ATOM     30  H   UNL A   1      40.028  23.092  25.852  1.00  0.00     0.163 HD
ATOM     31  O   UNL A   1      41.997  24.332  26.609  1.00  0.00    -0.269 OA
BRANCH  29  32
ATOM     32  C   UNL A   1      40.532  25.798  27.716  1.00  0.00     0.039 A 
ATOM     33  C   UNL A   1      39.545  25.689  28.698  1.00  0.00     0.014 A 
ATOM     34  C   UNL A   1      41.300  26.958  27.596  1.00  0.00     0.014 A 
ATOM     35  C   UNL A   1      39.395  26.715  29.630  1.00  0.00     0.010 A 
ATOM     36  C   UNL A   1      41.181  27.957  28.557  1.00  0.00     0.010 A 
ATOM     37  C   UNL A   1      40.249  27.829  29.598  1.00  0.00    -0.014 A 
BRANCH  37  38
ATOM     38  C   UNL A   1      40.240  28.835  30.688  1.00  0.00     0.031 A 
ATOM     39  C   UNL A   1      41.131  28.668  31.883  1.00  0.00     0.074 A 
ATOM     40  C   UNL A   1      39.352  29.847  30.636  1.00  0.00     0.049 A 
ATOM     41  N   UNL A   1      41.190  29.394  32.969  1.00  0.00    -0.248 NA
ATOM     42  C   UNL A   1      42.057  27.526  31.866  1.00  0.00     0.031 C 
ATOM     43  C   UNL A   1      38.400  30.086  29.547  1.00  0.00     0.029 A 
ATOM     44  N   UNL A   1      39.092  30.855  31.529  1.00  0.00    -0.354 N 
ATOM     45  C   UNL A   1      42.149  28.790  33.773  1.00  0.00     0.074 A 
ATOM     46  C   UNL A   1      42.619  27.618  33.063  1.00  0.00     0.031 C 
ATOM     47  C   UNL A   1      37.672  31.179  29.830  1.00  0.00     0.029 A 
ATOM     48  C   UNL A   1      38.077  31.694  31.134  1.00  0.00     0.049 A 
ATOM     49  H   UNL A   1      39.585  30.967  32.374  1.00  0.00     0.167 HD
ATOM     50  C   UNL A   1      42.606  29.184  34.985  1.00  0.00     0.031 A 
ATOM     51  C   UNL A   1      37.523  32.752  31.755  1.00  0.00     0.031 A 
ATOM     52  C   UNL A   1      42.142  30.352  35.684  1.00  0.00     0.049 A 
ATOM     53  C   UNL A   1      38.036  33.160  33.107  1.00  0.00     0.074 A 
ATOM     54  C   UNL A   1      42.592  30.873  36.885  1.00  0.00     0.029 A 
ATOM     55  N   UNL A   1      41.115  31.178  35.249  1.00  0.00    -0.354 N 
ATOM     56  N   UNL A   1      38.993  32.617  33.820  1.00  0.00    -0.248 NA
ATOM     57  C   UNL A   1      37.394  34.321  33.738  1.00  0.00     0.031 C 
ATOM     58  C   UNL A   1      41.809  31.991  37.196  1.00  0.00     0.029 A 
ATOM     59  C   UNL A   1      40.898  32.188  36.170  1.00  0.00     0.049 A 
ATOM     60  H   UNL A   1      40.616  31.062  34.409  1.00  0.00     0.167 HD
ATOM     61  C   UNL A   1      39.075  33.375  34.981  1.00  0.00     0.074 A 
ATOM     62  C   UNL A   1      38.083  34.427  34.867  1.00  0.00     0.031 C 
ATOM     63  C   UNL A   1      39.897  33.215  36.047  1.00  0.00     0.031 A 
BRANCH  50  64
ATOM     64  C   UNL A   1      43.662  28.332  35.633  1.00  0.00    -0.014 A 
ATOM     65  C   UNL A   1      43.310  27.278  36.496  1.00  0.00     0.010 A 
ATOM     66  C   UNL A   1      45.020  28.567  35.356  1.00  0.00     0.010 A 
ATOM     67  C   UNL A   1      44.299  26.503  37.105  1.00  0.00     0.020 A 
ATOM     68  C   UNL A   1      46.013  27.779  35.947  1.00  0.00     0.020 A 
ATOM     69  C   UNL A   1      45.645  26.765  36.833  1.00  0.00     0.054 A 
BRANCH  69  70
ATOM     70  S   UNL A   1      46.912  25.737  37.629  1.00  0.00     0.124 S 
ATOM     71  O   UNL A   1      47.674  26.732  38.379  1.00  0.00    -0.237 OA
ATOM     72  O   UNL A   1      46.118  24.814  38.436  1.00  0.00    -0.237 OA
ATOM     73  O   UNL A   1      47.617  25.126  36.505  1.00  0.00    -0.744 OA
ENDBRANCH  69  70
ENDBRANCH  50  64
BRANCH  51  74
ATOM     74  C   UNL A   1      36.418  33.500  31.101  1.00  0.00    -0.014 A 
ATOM     75  C   UNL A   1      36.491  33.822  29.735  1.00  0.00     0.010 A 
ATOM     76  C   UNL A   1      35.275  33.871  31.833  1.00  0.00     0.010 A 
ATOM     77  C   UNL A   1      35.445  34.511  29.114  1.00  0.00     0.020 A 
ATOM     78  C   UNL A   1      34.219  34.542  31.210  1.00  0.00     0.020 A 
ATOM     79  C   UNL A   1      34.315  34.866  29.855  1.00  0.00     0.054 A 
BRANCH  79  80
ATOM     80  S   UNL A   1      32.939  35.701  29.016  1.00  0.00     0.124 S 
ATOM     81  O   UNL A   1      32.449  34.655  28.125  1.00  0.00    -0.237 OA
ATOM     82  O   UNL A   1      32.057  36.054  30.125  1.00  0.00    -0.237 OA
ATOM     83  O   UNL A   1      33.583  36.836  28.359  1.00  0.00    -0.744 OA
ENDBRANCH  79  80
ENDBRANCH  51  74
BRANCH  63  84
ATOM     84  C   UNL A   1      39.758  34.199  37.174  1.00  0.00    -0.014 A 
ATOM     85  C   UNL A   1      38.924  33.923  38.272  1.00  0.00     0.010 A 
ATOM     86  C   UNL A   1      40.510  35.388  37.162  1.00  0.00     0.010 A 
ATOM     87  C   UNL A   1      38.827  34.828  39.329  1.00  0.00     0.020 A 
ATOM     88  C   UNL A   1      40.431  36.287  38.228  1.00  0.00     0.020 A 
ATOM     89  C   UNL A   1      39.581  36.006  39.301  1.00  0.00     0.054 A 
BRANCH  89  90
ATOM     90  S   UNL A   1      39.481  37.144  40.710  1.00  0.00     0.124 S 
ATOM     91  O   UNL A   1      40.887  37.456  40.948  1.00  0.00    -0.237 OA
ATOM     92  O   UNL A   1      38.675  38.243  40.181  1.00  0.00    -0.237 OA
ATOM     93  O   UNL A   1      38.832  36.349  41.750  1.00  0.00    -0.744 OA
ENDBRANCH  89  90
ENDBRANCH  63  84
ENDBRANCH  37  38
ENDBRANCH  29  32
ENDBRANCH  27  28
ENDBRANCH  26  27
ENDBRANCH  25  26
ENDBRANCH   1  25
TORSDOF 20
ENDMDL
MODEL 2
REMARK VINA RESULT:     -10.7      1.163      1.991
REMARK SMILES COC(CNS(=O)(=O)c1ccc(Cl)c(C(=O)NCCCCNC(=O)c2ccc(-c3c4nc(c(-c5ccc(S(=O)(=O)[O-])cc5)c5ccc([nH]5)c(-c5ccc(S(=O)(=O)[O-])cc5)c5nc(c(-c6ccc(S(=O)(=O)[O-])cc6)c6ccc3[nH]6)C=C5)C=C4)cc2)c1Cl)OC
REMARK SMILES IDX 18 1 17 2 15 3 16 4 14 6 9 7 10 8 85 9 11 10 86 11 12 12
REMARK SMILES IDX 13 13 6 14 7 15 8 16 5 17 4 19 3 20 2 21 1 22 87 23 88 24
REMARK SMILES IDX 19 25 20 26 21 27 22 28 23 29 24 31 25 32 26 33 84 34 27 35
REMARK SMILES IDX 83 36 28 37 29 38 30 39 77 40 31 41 82 42 76 43 78 44 32 45
REMARK SMILES IDX 81 46 75 47 74 48 33 50 63 51 44 52 62 53 45 54 48 55 61 56
REMARK SMILES IDX 79 57 46 58 47 59 60 61 80 62 49 63 34 64 35 65 43 66 36 67
REMARK SMILES IDX 42 68 37 69 38 70 39 71 40 72 41 73 64 74 65 75 73 76 66 77
REMARK SMILES IDX 72 78 67 79 68 80 69 81 70 82 71 83 50 84 51 85 59 86 52 87
REMARK SMILES IDX 58 88 53 89 54 90 55 91 56 92 57 93
REMARK H PARENT 17 5 5 18 22 30 78 49 48 60
REMARK Flexibility Score: inf
ROOT
ATOM      1  C   UNL A   1      35.176  23.050  26.548  1.00  0.00     0.116 C 
ENDROOT
BRANCH   1   2
ATOM      2  N   UNL A   1      33.807  23.490  26.670  1.00  0.00    -0.352 N 
ATOM      3  C   UNL A   1      32.842  24.007  25.860  1.00  0.00     0.254 C 
ATOM      4  O   UNL A   1      31.712  23.894  26.359  1.00  0.00    -0.269 OA
ATOM      5  H   UNL A   1      33.482  23.387  27.593  1.00  0.00     0.163 HD
BRANCH   3   6
ATOM      6  C   UNL A   1      32.905  24.592  24.475  1.00  0.00     0.078 A 
ATOM      7  C   UNL A   1      32.201  26.685  23.388  1.00  0.00     0.101 A 
ATOM      8  C   UNL A   1      31.962  25.988  22.204  1.00  0.00     0.025 A 
ATOM      9  C   UNL A   1      32.793  26.018  24.462  1.00  0.00     0.075 A 
ATOM     10  C   UNL A   1      32.335  24.656  22.109  1.00  0.00     0.023 A 
ATOM     11  Cl  UNL A   1      33.798  26.907  25.581  1.00  0.00    -0.082 Cl
ATOM     12  C   UNL A   1      32.790  23.948  23.235  1.00  0.00     0.055 A 
ATOM     13  Cl  UNL A   1      33.297  22.358  22.836  1.00  0.00    -0.083 Cl
BRANCH   7  14
ATOM     14  S   UNL A   1      31.578  28.341  23.400  1.00  0.00     0.242 S 
ATOM     15  O   UNL A   1      32.720  29.214  23.221  1.00  0.00    -0.207 OA
ATOM     16  O   UNL A   1      30.747  28.444  24.579  1.00  0.00    -0.207 OA
BRANCH  14  17
ATOM     17  N   UNL A   1      30.542  28.606  22.130  1.00  0.00    -0.206 NA
ATOM     18  H   UNL A   1      30.884  28.044  21.350  1.00  0.00     0.141 HD
BRANCH  17  19
ATOM     19  C   UNL A   1      30.336  29.976  21.610  1.00  0.00     0.161 C 
BRANCH  19  20
ATOM     20  C   UNL A   1      28.920  30.557  21.910  1.00  0.00     0.263 C 
BRANCH  20  21
ATOM     21  O   UNL A   1      28.333  30.261  23.181  1.00  0.00    -0.355 OA
ATOM     22  C   UNL A   1      27.494  31.235  23.765  1.00  0.00     0.198 C 
ENDBRANCH  20  21
BRANCH  20  23
ATOM     23  O   UNL A   1      28.009  30.503  20.811  1.00  0.00    -0.355 OA
ATOM     24  C   UNL A   1      27.822  31.694  20.073  1.00  0.00     0.198 C 
ENDBRANCH  20  23
ENDBRANCH  19  20
ENDBRANCH  17  19
ENDBRANCH  14  17
ENDBRANCH   7  14
ENDBRANCH   3   6
ENDBRANCH   1   2
BRANCH   1  25
ATOM     25  C   UNL A   1      35.926  23.753  25.421  1.00  0.00     0.023 C 
BRANCH  25  26
ATOM     26  C   UNL A   1      37.421  23.422  25.362  1.00  0.00     0.023 C 
BRANCH  26  27
ATOM     27  C   UNL A   1      38.307  24.178  26.354  1.00  0.00     0.116 C 
BRANCH  27  28
ATOM     28  N   UNL A   1      39.730  23.897  26.219  1.00  0.00    -0.352 N 
ATOM     29  C   UNL A   1      40.782  24.603  26.755  1.00  0.00     0.251 C 
ATOM     30  H   UNL A   1      39.967  23.108  25.680  1.00  0.00     0.163 HD
ATOM     31  O   UNL A   1      41.942  24.285  26.517  1.00  0.00    -0.269 OA
BRANCH  29  32
ATOM     32  C   UNL A   1      40.481  25.785  27.583  1.00  0.00     0.039 A 
ATOM     33  C   UNL A   1      39.517  25.673  28.587  1.00  0.00     0.014 A 
ATOM     34  C   UNL A   1      41.233  26.954  27.438  1.00  0.00     0.014 A 
ATOM     35  C   UNL A   1      39.375  26.704  29.515  1.00  0.00     0.010 A 
ATOM     36  C   UNL A   1      41.123  27.958  28.394  1.00  0.00     0.010 A 
ATOM     37  C   UNL A   1      40.216  27.827  29.456  1.00  0.00    -0.014 A 
BRANCH  37  38
ATOM     38  C   UNL A   1      40.219  28.840  30.539  1.00  0.00     0.031 A 
ATOM     39  C   UNL A   1      41.128  28.686  31.722  1.00  0.00     0.074 A 
ATOM     40  C   UNL A   1      39.326  29.848  30.493  1.00  0.00     0.049 A 
ATOM     41  N   UNL A   1      41.201  29.420  32.801  1.00  0.00    -0.248 NA
ATOM     42  C   UNL A   1      42.059  27.547  31.699  1.00  0.00     0.031 C 
ATOM     43  C   UNL A   1      38.356  30.076  29.417  1.00  0.00     0.029 A 
ATOM     44  N   UNL A   1      39.075  30.862  31.383  1.00  0.00    -0.354 N 
ATOM     45  C   UNL A   1      42.175  28.825  33.595  1.00  0.00     0.074 A 
ATOM     46  C   UNL A   1      42.639  27.651  32.887  1.00  0.00     0.031 C 
ATOM     47  C   UNL A   1      37.629  31.168  29.704  1.00  0.00     0.029 A 
ATOM     48  C   UNL A   1      38.050  31.694  30.997  1.00  0.00     0.049 A 
ATOM     49  H   UNL A   1      39.581  30.982  32.219  1.00  0.00     0.167 HD
ATOM     50  C   UNL A   1      42.648  29.230  34.797  1.00  0.00     0.031 A 
ATOM     51  C   UNL A   1      37.502  32.754  31.620  1.00  0.00     0.031 A 
ATOM     52  C   UNL A   1      42.190  30.401  35.494  1.00  0.00     0.049 A 
ATOM     53  C   UNL A   1      38.033  33.174  32.961  1.00  0.00     0.074 A 
ATOM     54  C   UNL A   1      42.656  30.933  36.685  1.00  0.00     0.029 A 
ATOM     55  N   UNL A   1      41.153  31.220  35.069  1.00  0.00    -0.354 N 
ATOM     56  N   UNL A   1      39.004  32.640  33.662  1.00  0.00    -0.248 NA
ATOM     57  C   UNL A   1      37.396  34.337  33.593  1.00  0.00     0.031 C 
ATOM     58  C   UNL A   1      41.873  32.049  37.000  1.00  0.00     0.029 A 
ATOM     59  C   UNL A   1      40.946  32.236  35.986  1.00  0.00     0.049 A 
ATOM     60  H   UNL A   1      40.642  31.096  34.238  1.00  0.00     0.167 HD
ATOM     61  C   UNL A   1      39.100  33.407  34.817  1.00  0.00     0.074 A 
ATOM     62  C   UNL A   1      38.102  34.454  34.710  1.00  0.00     0.031 C 
ATOM     63  C   UNL A   1      39.938  33.258  35.871  1.00  0.00     0.031 A 
BRANCH  50  64
ATOM     64  C   UNL A   1      43.717  28.387  35.435  1.00  0.00    -0.014 A 
ATOM     65  C   UNL A   1      43.383  27.335  36.307  1.00  0.00     0.010 A 
ATOM     66  C   UNL A   1      45.071  28.629  35.139  1.00  0.00     0.010 A 
ATOM     67  C   UNL A   1      44.385  26.569  36.907  1.00  0.00     0.020 A 
ATOM     68  C   UNL A   1      46.075  27.850  35.721  1.00  0.00     0.020 A 
ATOM     69  C   UNL A   1      45.725  26.837  36.616  1.00  0.00     0.054 A 
BRANCH  69  70
ATOM     70  S   UNL A   1      47.008  25.821  37.400  1.00  0.00     0.124 S 
ATOM     71  O   UNL A   1      46.209  24.896  38.200  1.00  0.00    -0.237 OA
ATOM     72  O   UNL A   1      47.695  25.228  36.255  1.00  0.00    -0.237 OA
ATOM     73  O   UNL A   1      47.795  26.786  38.162  1.00  0.00    -0.744 OA
ENDBRANCH  69  70
ENDBRANCH  50  64
BRANCH  51  74
ATOM     74  C   UNL A   1      36.383  33.493  30.977  1.00  0.00    -0.014 A 
ATOM     75  C   UNL A   1      35.188  33.721  31.680  1.00  0.00     0.010 A 
ATOM     76  C   UNL A   1      36.517  33.993  29.669  1.00  0.00     0.010 A 
ATOM     77  C   UNL A   1      34.141  34.430  31.083  1.00  0.00     0.020 A 
ATOM     78  C   UNL A   1      35.480  34.720  29.077  1.00  0.00     0.020 A 
ATOM     79  C   UNL A   1      34.294  34.926  29.785  1.00  0.00     0.054 A 
BRANCH  79  80
ATOM     80  S   UNL A   1      32.950  35.900  29.052  1.00  0.00     0.124 S 
ATOM     81  O   UNL A   1      33.679  36.997  28.424  1.00  0.00    -0.237 OA
ATOM     82  O   UNL A   1      32.328  34.947  28.137  1.00  0.00    -0.237 OA
ATOM     83  O   UNL A   1      32.131  36.268  30.205  1.00  0.00    -0.744 OA
ENDBRANCH  79  80
ENDBRANCH  51  74
BRANCH  63  84
ATOM     84  C   UNL A   1      39.812  34.249  36.993  1.00  0.00    -0.014 A 
ATOM     85  C   UNL A   1      39.074  33.938  38.149  1.00  0.00     0.010 A 
ATOM     86  C   UNL A   1      40.483  35.483  36.916  1.00  0.00     0.010 A 
ATOM     87  C   UNL A   1      38.990  34.853  39.200  1.00  0.00     0.020 A 
ATOM     88  C   UNL A   1      40.418  36.392  37.974  1.00  0.00     0.020 A 
ATOM     89  C   UNL A   1      39.662  36.076  39.106  1.00  0.00     0.054 A 
BRANCH  89  90
ATOM     90  S   UNL A   1      39.584  37.228  40.504  1.00  0.00     0.124 S 
ATOM     91  O   UNL A   1      38.616  36.576  41.381  1.00  0.00    -0.237 OA
ATOM     92  O   UNL A   1      40.962  37.240  40.991  1.00  0.00    -0.237 OA
ATOM     93  O   UNL A   1      39.134  38.478  39.897  1.00  0.00    -0.744 OA
ENDBRANCH  89  90
ENDBRANCH  63  84
ENDBRANCH  37  38
ENDBRANCH  29  32
ENDBRANCH  27  28
ENDBRANCH  26  27
ENDBRANCH  25  26
ENDBRANCH   1  25
TORSDOF 20
ENDMDL
MODEL 3
REMARK VINA RESULT:     -10.5      2.479      8.986
REMARK SMILES COC(CNS(=O)(=O)c1ccc(Cl)c(C(=O)NCCCCNC(=O)c2ccc(-c3c4nc(c(-c5ccc(S(=O)(=O)[O-])cc5)c5ccc([nH]5)c(-c5ccc(S(=O)(=O)[O-])cc5)c5nc(c(-c6ccc(S(=O)(=O)[O-])cc6)c6ccc3[nH]6)C=C5)C=C4)cc2)c1Cl)OC
REMARK SMILES IDX 18 1 17 2 15 3 16 4 14 6 9 7 10 8 85 9 11 10 86 11 12 12
REMARK SMILES IDX 13 13 6 14 7 15 8 16 5 17 4 19 3 20 2 21 1 22 87 23 88 24
REMARK SMILES IDX 19 25 20 26 21 27 22 28 23 29 24 31 25 32 26 33 84 34 27 35
REMARK SMILES IDX 83 36 28 37 29 38 30 39 77 40 31 41 82 42 76 43 78 44 32 45
REMARK SMILES IDX 81 46 75 47 74 48 33 50 63 51 44 52 62 53 45 54 48 55 61 56
REMARK SMILES IDX 79 57 46 58 47 59 60 61 80 62 49 63 34 64 35 65 43 66 36 67
REMARK SMILES IDX 42 68 37 69 38 70 39 71 40 72 41 73 64 74 65 75 73 76 66 77
REMARK SMILES IDX 72 78 67 79 68 80 69 81 70 82 71 83 50 84 51 85 59 86 52 87
REMARK SMILES IDX 58 88 53 89 54 90 55 91 56 92 57 93
REMARK H PARENT 17 5 5 18 22 30 78 49 48 60
REMARK Flexibility Score: inf
ROOT
ATOM      1  C   UNL A   1      32.992  30.529  26.644  1.00  0.00     0.116 C 
ENDROOT
BRANCH   1   2
ATOM      2  N   UNL A   1      33.360  29.828  25.437  1.00  0.00    -0.352 N 
ATOM      3  C   UNL A   1      32.759  29.017  24.522  1.00  0.00     0.254 C 
ATOM      4  O   UNL A   1      33.408  28.951  23.467  1.00  0.00    -0.269 OA
ATOM      5  H   UNL A   1      34.307  29.977  25.215  1.00  0.00     0.163 HD
BRANCH   3   6
ATOM      6  C   UNL A   1      31.443  28.286  24.544  1.00  0.00     0.078 A 
ATOM      7  C   UNL A   1      30.694  25.973  24.927  1.00  0.00     0.101 A 
ATOM      8  C   UNL A   1      29.647  26.165  24.027  1.00  0.00     0.025 A 
ATOM      9  C   UNL A   1      31.495  27.061  25.281  1.00  0.00     0.075 A 
ATOM     10  C   UNL A   1      29.408  27.432  23.516  1.00  0.00     0.023 A 
ATOM     11  Cl  UNL A   1      32.227  27.114  26.867  1.00  0.00    -0.082 Cl
ATOM     12  C   UNL A   1      30.303  28.490  23.755  1.00  0.00     0.055 A 
ATOM     13  Cl  UNL A   1      29.728  29.976  23.119  1.00  0.00    -0.083 Cl
BRANCH   7  14
ATOM     14  S   UNL A   1      30.945  24.290  25.410  1.00  0.00     0.242 S 
ATOM     15  O   UNL A   1      30.669  23.478  24.242  1.00  0.00    -0.207 OA
ATOM     16  O   UNL A   1      30.189  24.109  26.630  1.00  0.00    -0.207 OA
BRANCH  14  17
ATOM     17  N   UNL A   1      32.523  24.016  25.848  1.00  0.00    -0.206 NA
ATOM     18  H   UNL A   1      32.803  24.797  26.441  1.00  0.00     0.141 HD
BRANCH  17  19
ATOM     19  C   UNL A   1      33.569  23.872  24.811  1.00  0.00     0.161 C 
BRANCH  19  20
ATOM     20  C   UNL A   1      34.177  22.438  24.724  1.00  0.00     0.263 C 
BRANCH  20  21
ATOM     21  O   UNL A   1      35.514  22.309  24.230  1.00  0.00    -0.355 OA
ATOM     22  C   UNL A   1      36.573  22.406  25.158  1.00  0.00     0.198 C 
ENDBRANCH  20  21
BRANCH  20  23
ATOM     23  O   UNL A   1      33.273  21.436  24.257  1.00  0.00    -0.355 OA
ATOM     24  C   UNL A   1      32.643  20.633  25.234  1.00  0.00     0.198 C 
ENDBRANCH  20  23
ENDBRANCH  19  20
ENDBRANCH  17  19
ENDBRANCH  14  17
ENDBRANCH   7  14
ENDBRANCH   3   6
ENDBRANCH   1   2
BRANCH   1  25
ATOM     25  C   UNL A   1      31.620  31.190  26.549  1.00  0.00     0.023 C 
BRANCH  25  26
ATOM     26  C   UNL A   1      31.612  32.672  26.935  1.00  0.00     0.023 C 
BRANCH  26  27
ATOM     27  C   UNL A   1      32.943  33.232  27.441  1.00  0.00     0.116 C 
BRANCH  27  28
ATOM     28  N   UNL A   1      32.816  34.436  28.252  1.00  0.00    -0.352 N 
ATOM     29  C   UNL A   1      33.604  34.824  29.311  1.00  0.00     0.251 C 
ATOM     30  H   UNL A   1      32.079  35.043  28.014  1.00  0.00     0.163 HD
ATOM     31  O   UNL A   1      33.351  35.843  29.945  1.00  0.00    -0.269 OA
BRANCH  29  32
ATOM     32  C   UNL A   1      34.731  33.957  29.700  1.00  0.00     0.039 A 
ATOM     33  C   UNL A   1      36.024  34.333  29.331  1.00  0.00     0.014 A 
ATOM     34  C   UNL A   1      34.513  32.848  30.521  1.00  0.00     0.014 A 
ATOM     35  C   UNL A   1      37.113  33.650  29.871  1.00  0.00     0.010 A 
ATOM     36  C   UNL A   1      35.601  32.201  31.096  1.00  0.00     0.010 A 
ATOM     37  C   UNL A   1      36.909  32.616  30.799  1.00  0.00    -0.014 A 
BRANCH  37  38
ATOM     38  C   UNL A   1      38.044  32.008  31.533  1.00  0.00     0.031 A 
ATOM     39  C   UNL A   1      38.451  32.536  32.877  1.00  0.00     0.074 A 
ATOM     40  C   UNL A   1      38.767  31.041  30.933  1.00  0.00     0.049 A 
ATOM     41  N   UNL A   1      39.470  32.190  33.619  1.00  0.00    -0.248 NA
ATOM     42  C   UNL A   1      37.618  33.604  33.450  1.00  0.00     0.031 C 
ATOM     43  C   UNL A   1      38.497  30.479  29.606  1.00  0.00     0.029 A 
ATOM     44  N   UNL A   1      39.887  30.370  31.355  1.00  0.00    -0.354 N 
ATOM     45  C   UNL A   1      39.413  33.008  34.741  1.00  0.00     0.074 A 
ATOM     46  C   UNL A   1      38.278  33.890  34.564  1.00  0.00     0.031 C 
ATOM     47  C   UNL A   1      39.418  29.540  29.331  1.00  0.00     0.029 A 
ATOM     48  C   UNL A   1      40.362  29.460  30.440  1.00  0.00     0.049 A 
ATOM     49  H   UNL A   1      40.311  30.526  32.229  1.00  0.00     0.167 HD
ATOM     50  C   UNL A   1      40.224  33.013  35.826  1.00  0.00     0.031 A 
ATOM     51  C   UNL A   1      41.444  28.660  30.482  1.00  0.00     0.031 A 
ATOM     52  C   UNL A   1      41.346  32.132  36.001  1.00  0.00     0.049 A 
ATOM     53  C   UNL A   1      42.337  28.696  31.689  1.00  0.00     0.074 A 
ATOM     54  C   UNL A   1      42.185  32.013  37.095  1.00  0.00     0.029 A 
ATOM     55  N   UNL A   1      41.792  31.222  35.054  1.00  0.00    -0.354 N 
ATOM     56  N   UNL A   1      42.224  29.426  32.772  1.00  0.00    -0.248 NA
ATOM     57  C   UNL A   1      43.502  27.801  31.679  1.00  0.00     0.031 C 
ATOM     58  C   UNL A   1      43.165  31.060  36.793  1.00  0.00     0.029 A 
ATOM     59  C   UNL A   1      42.911  30.558  35.526  1.00  0.00     0.049 A 
ATOM     60  H   UNL A   1      41.374  31.070  34.176  1.00  0.00     0.167 HD
ATOM     61  C   UNL A   1      43.300  29.074  33.578  1.00  0.00     0.074 A 
ATOM     62  C   UNL A   1      44.041  28.051  32.866  1.00  0.00     0.031 C 
ATOM     63  C   UNL A   1      43.644  29.555  34.797  1.00  0.00     0.031 A 
BRANCH  50  64
ATOM     64  C   UNL A   1      39.922  34.016  36.905  1.00  0.00    -0.014 A 
ATOM     65  C   UNL A   1      40.326  35.357  36.778  1.00  0.00     0.010 A 
ATOM     66  C   UNL A   1      39.202  33.621  38.047  1.00  0.00     0.010 A 
ATOM     67  C   UNL A   1      40.055  36.276  37.794  1.00  0.00     0.020 A 
ATOM     68  C   UNL A   1      38.910  34.543  39.056  1.00  0.00     0.020 A 
ATOM     69  C   UNL A   1      39.356  35.861  38.931  1.00  0.00     0.054 A 
BRANCH  69  70
ATOM     70  S   UNL A   1      39.007  37.076  40.233  1.00  0.00     0.124 S 
ATOM     71  O   UNL A   1      40.340  37.319  40.779  1.00  0.00    -0.237 OA
ATOM     72  O   UNL A   1      38.421  38.187  39.488  1.00  0.00    -0.237 OA
ATOM     73  O   UNL A   1      38.086  36.374  41.123  1.00  0.00    -0.744 OA
ENDBRANCH  69  70
ENDBRANCH  50  64
BRANCH  51  74
ATOM     74  C   UNL A   1      41.739  27.755  29.340  1.00  0.00    -0.014 A 
ATOM     75  C   UNL A   1      42.684  28.126  28.368  1.00  0.00     0.010 A 
ATOM     76  C   UNL A   1      41.097  26.508  29.233  1.00  0.00     0.010 A 
ATOM     77  C   UNL A   1      42.975  27.269  27.302  1.00  0.00     0.020 A 
ATOM     78  C   UNL A   1      41.402  25.640  28.181  1.00  0.00     0.020 A 
ATOM     79  C   UNL A   1      42.333  26.031  27.216  1.00  0.00     0.054 A 
BRANCH  79  80
ATOM     80  S   UNL A   1      42.773  24.904  25.862  1.00  0.00     0.124 S 
ATOM     81  O   UNL A   1      42.480  25.715  24.686  1.00  0.00    -0.237 OA
ATOM     82  O   UNL A   1      44.188  24.642  26.115  1.00  0.00    -0.237 OA
ATOM     83  O   UNL A   1      41.890  23.760  26.074  1.00  0.00    -0.744 OA
ENDBRANCH  79  80
ENDBRANCH  51  74
BRANCH  63  84
ATOM     84  C   UNL A   1      44.876  28.980  35.438  1.00  0.00    -0.014 A 
ATOM     85  C   UNL A   1      46.131  29.587  35.257  1.00  0.00     0.010 A 
ATOM     86  C   UNL A   1      44.769  27.854  36.275  1.00  0.00     0.010 A 
ATOM     87  C   UNL A   1      47.263  29.064  35.884  1.00  0.00     0.020 A 
ATOM     88  C   UNL A   1      45.896  27.341  36.919  1.00  0.00     0.020 A 
ATOM     89  C   UNL A   1      47.140  27.944  36.712  1.00  0.00     0.054 A 
BRANCH  89  90
ATOM     90  S   UNL A   1      48.614  27.313  37.558  1.00  0.00     0.124 S 
ATOM     91  O   UNL A   1      48.035  26.650  38.723  1.00  0.00    -0.237 OA
ATOM     92  O   UNL A   1      49.205  26.424  36.560  1.00  0.00    -0.237 OA
ATOM     93  O   UNL A   1      49.389  28.518  37.846  1.00  0.00    -0.744 OA
ENDBRANCH  89  90
ENDBRANCH  63  84
ENDBRANCH  37  38
ENDBRANCH  29  32
ENDBRANCH  27  28
ENDBRANCH  26  27
ENDBRANCH  25  26
ENDBRANCH   1  25
TORSDOF 20
ENDMDL
