MODEL 1
REMARK VINA RESULT:      -9.9      0.000      0.000
REMARK SMILES CCCCCC[C@@H](C)N1C[C@H](C(=O)NCCCCNC(=O)c2ccc(-c3c4nc(c(-c5ccc(S(=O)(=O)[O-])cc5)c5ccc([nH]5)c(-c5ccc(S(=O)(=O)[O-])cc5)c5nc(c(-c6ccc(S(=O)(=O)[O-])cc6)c6ccc3[nH]6)C=C5)C=C4)cc2)CC1=O
REMARK SMILES IDX 15 1 14 2 12 3 13 4 11 6 9 7 10 8 83 9 82 10 84 11 7 12 8 13
REMARK SMILES IDX 6 14 5 15 4 16 3 17 2 18 1 19 16 20 17 21 18 22 19 23 20 24
REMARK SMILES IDX 21 26 22 27 23 28 81 29 24 30 80 31 25 32 26 33 27 34 74 35
REMARK SMILES IDX 28 36 79 37 73 38 75 39 29 40 78 41 72 42 71 43 30 45 60 46
REMARK SMILES IDX 41 47 59 48 42 49 45 50 58 51 76 52 43 53 44 54 57 56 77 57
REMARK SMILES IDX 46 58 31 59 32 60 40 61 33 62 39 63 34 64 35 65 36 66 37 67
REMARK SMILES IDX 38 68 61 69 62 70 70 71 63 72 69 73 64 74 65 75 66 76 67 77
REMARK SMILES IDX 68 78 47 79 48 80 56 81 49 82 55 83 50 84 51 85 52 86 53 87
REMARK SMILES IDX 54 88
REMARK H PARENT 14 5 19 25 75 44 45 55
REMARK Flexibility Score: inf
ROOT
ATOM      1  C   UNL A   1      33.597  32.652  27.999  1.00  0.00     0.116 C 
ENDROOT
BRANCH   1   2
ATOM      2  N   UNL A   1      34.342  31.501  27.523  1.00  0.00    -0.356 N 
ATOM      3  C   UNL A   1      33.878  30.320  27.016  1.00  0.00     0.225 C 
ATOM      4  O   UNL A   1      34.681  29.414  26.808  1.00  0.00    -0.275 OA
ATOM      5  H   UNL A   1      35.322  31.583  27.571  1.00  0.00     0.163 HD
BRANCH   3   6
ATOM      6  C   UNL A   1      32.406  30.210  26.668  1.00  0.00     0.107 C 
ATOM      7  N   UNL A   1      32.077  28.233  25.440  1.00  0.00    -0.339 N 
ATOM      8  C   UNL A   1      32.277  29.654  25.262  1.00  0.00     0.133 C 
ATOM      9  C   UNL A   1      31.653  27.939  26.729  1.00  0.00     0.223 C 
ATOM     10  C   UNL A   1      31.655  29.211  27.538  1.00  0.00     0.115 C 
ATOM     11  O   UNL A   1      31.272  26.862  27.168  1.00  0.00    -0.275 OA
BRANCH   7  12
ATOM     12  C   UNL A   1      32.261  27.296  24.314  1.00  0.00     0.082 C 
ATOM     13  C   UNL A   1      33.198  27.897  23.264  1.00  0.00     0.031 C 
BRANCH  12  14
ATOM     14  C   UNL A   1      30.943  26.801  23.680  1.00  0.00     0.025 C 
BRANCH  14  15
ATOM     15  C   UNL A   1      29.847  27.864  23.511  1.00  0.00     0.002 C 
BRANCH  15  16
ATOM     16  C   UNL A   1      29.904  28.654  22.202  1.00  0.00     0.000 C 
BRANCH  16  17
ATOM     17  C   UNL A   1      29.914  30.179  22.361  1.00  0.00    -0.000 C 
BRANCH  17  18
ATOM     18  C   UNL A   1      29.158  30.713  23.581  1.00  0.00    -0.003 C 
ATOM     19  C   UNL A   1      27.668  30.900  23.334  1.00  0.00     0.004 C 
ENDBRANCH  17  18
ENDBRANCH  16  17
ENDBRANCH  15  16
ENDBRANCH  14  15
ENDBRANCH  12  14
ENDBRANCH   7  12
ENDBRANCH   3   6
ENDBRANCH   1   2
BRANCH   1  20
ATOM     20  C   UNL A   1      34.422  33.468  28.995  1.00  0.00     0.023 C 
BRANCH  20  21
ATOM     21  C   UNL A   1      35.925  33.498  28.695  1.00  0.00     0.023 C 
BRANCH  21  22
ATOM     22  C   UNL A   1      36.826  33.090  29.856  1.00  0.00     0.116 C 
BRANCH  22  23
ATOM     23  N   UNL A   1      36.282  31.983  30.626  1.00  0.00    -0.352 N 
ATOM     24  C   UNL A   1      36.771  30.710  30.783  1.00  0.00     0.251 C 
ATOM     25  H   UNL A   1      35.443  32.175  31.104  1.00  0.00     0.163 HD
ATOM     26  O   UNL A   1      36.084  29.865  31.350  1.00  0.00    -0.269 OA
BRANCH  24  27
ATOM     27  C   UNL A   1      38.104  30.350  30.250  1.00  0.00     0.039 A 
ATOM     28  C   UNL A   1      39.157  30.161  31.148  1.00  0.00     0.014 A 
ATOM     29  C   UNL A   1      38.324  30.212  28.876  1.00  0.00     0.014 A 
ATOM     30  C   UNL A   1      40.418  29.792  30.671  1.00  0.00     0.010 A 
ATOM     31  C   UNL A   1      39.557  29.762  28.410  1.00  0.00     0.010 A 
ATOM     32  C   UNL A   1      40.624  29.564  29.299  1.00  0.00    -0.014 A 
BRANCH  32  33
ATOM     33  C   UNL A   1      41.954  29.143  28.787  1.00  0.00     0.031 A 
ATOM     34  C   UNL A   1      43.085  30.134  28.698  1.00  0.00     0.074 A 
ATOM     35  C   UNL A   1      42.139  27.875  28.370  1.00  0.00     0.049 A 
ATOM     36  N   UNL A   1      44.314  29.950  28.287  1.00  0.00    -0.248 NA
ATOM     37  C   UNL A   1      42.791  31.521  29.098  1.00  0.00     0.031 C 
ATOM     38  C   UNL A   1      41.113  26.829  28.359  1.00  0.00     0.029 A 
ATOM     39  N   UNL A   1      43.257  27.247  27.878  1.00  0.00    -0.354 N 
ATOM     40  C   UNL A   1      44.932  31.194  28.367  1.00  0.00     0.074 A 
ATOM     41  C   UNL A   1      43.927  32.135  28.806  1.00  0.00     0.031 C 
ATOM     42  C   UNL A   1      41.658  25.683  27.921  1.00  0.00     0.029 A 
ATOM     43  C   UNL A   1      43.059  25.919  27.582  1.00  0.00     0.049 A 
ATOM     44  H   UNL A   1      44.118  27.706  27.749  1.00  0.00     0.167 HD
ATOM     45  C   UNL A   1      46.224  31.520  28.120  1.00  0.00     0.031 A 
ATOM     46  C   UNL A   1      43.907  24.992  27.097  1.00  0.00     0.031 A 
ATOM     47  C   UNL A   1      47.223  30.580  27.684  1.00  0.00     0.049 A 
ATOM     48  C   UNL A   1      45.337  25.377  26.829  1.00  0.00     0.074 A 
ATOM     49  C   UNL A   1      48.571  30.799  27.458  1.00  0.00     0.029 A 
ATOM     50  N   UNL A   1      46.983  29.243  27.400  1.00  0.00    -0.354 N 
ATOM     51  N   UNL A   1      45.921  26.542  26.981  1.00  0.00    -0.248 NA
ATOM     52  C   UNL A   1      46.227  24.314  26.345  1.00  0.00     0.031 C 
ATOM     53  C   UNL A   1      49.132  29.611  26.978  1.00  0.00     0.029 A 
ATOM     54  C   UNL A   1      48.152  28.632  26.976  1.00  0.00     0.049 A 
ATOM     55  H   UNL A   1      46.111  28.795  27.487  1.00  0.00     0.167 HD
ATOM     56  C   UNL A   1      47.255  26.344  26.640  1.00  0.00     0.074 A 
ATOM     57  C   UNL A   1      47.392  24.944  26.294  1.00  0.00     0.031 C 
ATOM     58  C   UNL A   1      48.274  27.239  26.620  1.00  0.00     0.031 A 
BRANCH  45  59
ATOM     59  C   UNL A   1      46.623  32.963  28.305  1.00  0.00    -0.014 A 
ATOM     60  C   UNL A   1      46.476  33.903  27.266  1.00  0.00     0.010 A 
ATOM     61  C   UNL A   1      47.135  33.394  29.543  1.00  0.00     0.010 A 
ATOM     62  C   UNL A   1      46.883  35.228  27.444  1.00  0.00     0.020 A 
ATOM     63  C   UNL A   1      47.511  34.726  29.736  1.00  0.00     0.020 A 
ATOM     64  C   UNL A   1      47.402  35.630  28.678  1.00  0.00     0.054 A 
BRANCH  64  65
ATOM     65  S   UNL A   1      47.918  37.357  28.881  1.00  0.00     0.124 S 
ATOM     66  O   UNL A   1      48.991  37.469  27.895  1.00  0.00    -0.237 OA
ATOM     67  O   UNL A   1      46.698  38.094  28.567  1.00  0.00    -0.237 OA
ATOM     68  O   UNL A   1      48.346  37.430  30.276  1.00  0.00    -0.744 OA
ENDBRANCH  64  65
ENDBRANCH  45  59
BRANCH  46  69
ATOM     69  C   UNL A   1      43.430  23.601  26.862  1.00  0.00    -0.014 A 
ATOM     70  C   UNL A   1      43.241  23.118  25.554  1.00  0.00     0.010 A 
ATOM     71  C   UNL A   1      43.183  22.742  27.949  1.00  0.00     0.010 A 
ATOM     72  C   UNL A   1      42.801  21.808  25.338  1.00  0.00     0.020 A 
ATOM     73  C   UNL A   1      42.773  21.423  27.736  1.00  0.00     0.020 A 
ATOM     74  C   UNL A   1      42.577  20.967  26.432  1.00  0.00     0.054 A 
BRANCH  74  75
ATOM     75  S   UNL A   1      42.069  19.252  26.124  1.00  0.00     0.124 S 
ATOM     76  O   UNL A   1      42.853  18.909  24.943  1.00  0.00    -0.237 OA
ATOM     77  O   UNL A   1      42.461  18.583  27.362  1.00  0.00    -0.237 OA
ATOM     78  O   UNL A   1      40.627  19.355  25.911  1.00  0.00    -0.744 OA
ENDBRANCH  74  75
ENDBRANCH  46  69
BRANCH  58  79
ATOM     79  C   UNL A   1      49.641  26.720  26.249  1.00  0.00    -0.014 A 
ATOM     80  C   UNL A   1      50.522  26.204  27.218  1.00  0.00     0.010 A 
ATOM     81  C   UNL A   1      50.042  26.734  24.900  1.00  0.00     0.010 A 
ATOM     82  C   UNL A   1      51.798  25.767  26.850  1.00  0.00     0.020 A 
ATOM     83  C   UNL A   1      51.302  26.264  24.524  1.00  0.00     0.020 A 
ATOM     84  C   UNL A   1      52.182  25.806  25.506  1.00  0.00     0.054 A 
BRANCH  84  85
ATOM     85  S   UNL A   1      53.842  25.231  25.054  1.00  0.00     0.124 S 
ATOM     86  O   UNL A   1      54.616  25.577  26.244  1.00  0.00    -0.237 OA
ATOM     87  O   UNL A   1      53.637  23.803  24.829  1.00  0.00    -0.237 OA
ATOM     88  O   UNL A   1      54.162  26.005  23.857  1.00  0.00    -0.744 OA
ENDBRANCH  84  85
ENDBRANCH  58  79
ENDBRANCH  32  33
ENDBRANCH  24  27
ENDBRANCH  22  23
ENDBRANCH  21  22
ENDBRANCH  20  21
ENDBRANCH   1  20
TORSDOF 20
ENDMDL
MODEL 2
REMARK VINA RESULT:      -9.6      6.153      8.851
REMARK SMILES CCCCCC[C@@H](C)N1C[C@H](C(=O)NCCCCNC(=O)c2ccc(-c3c4nc(c(-c5ccc(S(=O)(=O)[O-])cc5)c5ccc([nH]5)c(-c5ccc(S(=O)(=O)[O-])cc5)c5nc(c(-c6ccc(S(=O)(=O)[O-])cc6)c6ccc3[nH]6)C=C5)C=C4)cc2)CC1=O
REMARK SMILES IDX 15 1 14 2 12 3 13 4 11 6 9 7 10 8 83 9 82 10 84 11 7 12 8 13
REMARK SMILES IDX 6 14 5 15 4 16 3 17 2 18 1 19 16 20 17 21 18 22 19 23 20 24
REMARK SMILES IDX 21 26 22 27 23 28 81 29 24 30 80 31 25 32 26 33 27 34 74 35
REMARK SMILES IDX 28 36 79 37 73 38 75 39 29 40 78 41 72 42 71 43 30 45 60 46
REMARK SMILES IDX 41 47 59 48 42 49 45 50 58 51 76 52 43 53 44 54 57 56 77 57
REMARK SMILES IDX 46 58 31 59 32 60 40 61 33 62 39 63 34 64 35 65 36 66 37 67
REMARK SMILES IDX 38 68 61 69 62 70 70 71 63 72 69 73 64 74 65 75 66 76 67 77
REMARK SMILES IDX 68 78 47 79 48 80 56 81 49 82 55 83 50 84 51 85 52 86 53 87
REMARK SMILES IDX 54 88
REMARK H PARENT 14 5 19 25 75 44 45 55
REMARK Flexibility Score: inf
ROOT
ATOM      1  C   UNL A   1      32.595  29.944  25.734  1.00  0.00     0.116 C 
ENDROOT
BRANCH   1   2
ATOM      2  N   UNL A   1      31.725  29.558  24.639  1.00  0.00    -0.356 N 
ATOM      3  C   UNL A   1      31.979  28.731  23.582  1.00  0.00     0.225 C 
ATOM      4  O   UNL A   1      31.147  28.655  22.681  1.00  0.00    -0.275 OA
ATOM      5  H   UNL A   1      30.821  29.948  24.661  1.00  0.00     0.163 HD
BRANCH   3   6
ATOM      6  C   UNL A   1      33.243  27.893  23.607  1.00  0.00     0.107 C 
ATOM      7  N   UNL A   1      32.680  25.679  23.054  1.00  0.00    -0.339 N 
ATOM      8  C   UNL A   1      32.917  26.534  24.196  1.00  0.00     0.133 C 
ATOM      9  C   UNL A   1      33.224  26.218  21.897  1.00  0.00     0.223 C 
ATOM     10  C   UNL A   1      33.785  27.580  22.218  1.00  0.00     0.115 C 
ATOM     11  O   UNL A   1      33.316  25.695  20.794  1.00  0.00    -0.275 OA
BRANCH   7  12
ATOM     12  C   UNL A   1      31.994  24.381  23.210  1.00  0.00     0.082 C 
ATOM     13  C   UNL A   1      30.509  24.593  23.513  1.00  0.00     0.031 C 
BRANCH  12  14
ATOM     14  C   UNL A   1      32.653  23.436  24.238  1.00  0.00     0.025 C 
BRANCH  14  15
ATOM     15  C   UNL A   1      31.915  23.293  25.577  1.00  0.00     0.002 C 
BRANCH  15  16
ATOM     16  C   UNL A   1      32.805  23.365  26.821  1.00  0.00     0.000 C 
BRANCH  16  17
ATOM     17  C   UNL A   1      34.288  23.063  26.579  1.00  0.00    -0.000 C 
BRANCH  17  18
ATOM     18  C   UNL A   1      34.630  21.583  26.378  1.00  0.00    -0.003 C 
ATOM     19  C   UNL A   1      35.794  21.356  25.427  1.00  0.00     0.004 C 
ENDBRANCH  17  18
ENDBRANCH  16  17
ENDBRANCH  15  16
ENDBRANCH  14  15
ENDBRANCH  12  14
ENDBRANCH   7  12
ENDBRANCH   3   6
ENDBRANCH   1   2
BRANCH   1  20
ATOM     20  C   UNL A   1      31.795  30.558  26.884  1.00  0.00     0.023 C 
BRANCH  20  21
ATOM     21  C   UNL A   1      31.779  32.091  26.894  1.00  0.00     0.023 C 
BRANCH  21  22
ATOM     22  C   UNL A   1      33.055  32.750  27.406  1.00  0.00     0.116 C 
BRANCH  22  23
ATOM     23  N   UNL A   1      32.850  34.130  27.812  1.00  0.00    -0.352 N 
ATOM     24  C   UNL A   1      33.471  34.846  28.805  1.00  0.00     0.251 C 
ATOM     25  H   UNL A   1      32.166  34.623  27.302  1.00  0.00     0.163 HD
ATOM     26  O   UNL A   1      33.048  35.961  29.101  1.00  0.00    -0.269 OA
BRANCH  24  27
ATOM     27  C   UNL A   1      34.625  34.271  29.531  1.00  0.00     0.039 A 
ATOM     28  C   UNL A   1      34.383  33.463  30.645  1.00  0.00     0.014 A 
ATOM     29  C   UNL A   1      35.939  34.535  29.132  1.00  0.00     0.014 A 
ATOM     30  C   UNL A   1      35.456  32.886  31.329  1.00  0.00     0.010 A 
ATOM     31  C   UNL A   1      37.001  33.890  29.762  1.00  0.00     0.010 A 
ATOM     32  C   UNL A   1      36.774  33.073  30.880  1.00  0.00    -0.014 A 
BRANCH  32  33
ATOM     33  C   UNL A   1      37.919  32.438  31.584  1.00  0.00     0.031 A 
ATOM     34  C   UNL A   1      38.357  32.943  32.934  1.00  0.00     0.074 A 
ATOM     35  C   UNL A   1      38.587  31.426  30.997  1.00  0.00     0.049 A 
ATOM     36  N   UNL A   1      39.324  32.511  33.703  1.00  0.00    -0.248 NA
ATOM     37  C   UNL A   1      37.630  34.101  33.483  1.00  0.00     0.031 C 
ATOM     38  C   UNL A   1      38.295  30.874  29.671  1.00  0.00     0.029 A 
ATOM     39  N   UNL A   1      39.650  30.677  31.439  1.00  0.00    -0.354 N 
ATOM     40  C   UNL A   1      39.330  33.349  34.813  1.00  0.00     0.074 A 
ATOM     41  C   UNL A   1      38.312  34.350  34.590  1.00  0.00     0.031 C 
ATOM     42  C   UNL A   1      39.131  29.853  29.426  1.00  0.00     0.029 A 
ATOM     43  C   UNL A   1      40.043  29.700  30.556  1.00  0.00     0.049 A 
ATOM     44  H   UNL A   1      40.088  30.827  32.308  1.00  0.00     0.167 HD
ATOM     45  C   UNL A   1      40.097  33.279  35.929  1.00  0.00     0.031 A 
ATOM     46  C   UNL A   1      41.025  28.782  30.643  1.00  0.00     0.031 A 
ATOM     47  C   UNL A   1      41.109  32.279  36.149  1.00  0.00     0.049 A 
ATOM     48  C   UNL A   1      41.864  28.724  31.889  1.00  0.00     0.074 A 
ATOM     49  C   UNL A   1      41.903  32.090  37.267  1.00  0.00     0.029 A 
ATOM     50  N   UNL A   1      41.474  31.306  35.231  1.00  0.00    -0.354 N 
ATOM     51  N   UNL A   1      41.806  29.479  32.961  1.00  0.00    -0.248 NA
ATOM     52  C   UNL A   1      42.888  27.673  31.947  1.00  0.00     0.031 C 
ATOM     53  C   UNL A   1      42.790  31.041  37.001  1.00  0.00     0.029 A 
ATOM     54  C   UNL A   1      42.499  30.529  35.747  1.00  0.00     0.049 A 
ATOM     55  H   UNL A   1      41.066  31.184  34.344  1.00  0.00     0.167 HD
ATOM     56  C   UNL A   1      42.765  28.974  33.833  1.00  0.00     0.074 A 
ATOM     57  C   UNL A   1      43.373  27.838  33.170  1.00  0.00     0.031 C 
ATOM     58  C   UNL A   1      43.107  29.409  35.072  1.00  0.00     0.031 A 
BRANCH  45  59
ATOM     59  C   UNL A   1      39.874  34.327  36.991  1.00  0.00    -0.014 A 
ATOM     60  C   UNL A   1      39.071  34.068  38.118  1.00  0.00     0.010 A 
ATOM     61  C   UNL A   1      40.493  35.585  36.872  1.00  0.00     0.010 A 
ATOM     62  C   UNL A   1      38.847  35.063  39.075  1.00  0.00     0.020 A 
ATOM     63  C   UNL A   1      40.299  36.571  37.843  1.00  0.00     0.020 A 
ATOM     64  C   UNL A   1      39.460  36.310  38.928  1.00  0.00     0.054 A 
BRANCH  64  65
ATOM     65  S   UNL A   1      39.156  37.580  40.187  1.00  0.00     0.124 S 
ATOM     66  O   UNL A   1      40.481  38.177  40.339  1.00  0.00    -0.237 OA
ATOM     67  O   UNL A   1      38.154  38.429  39.550  1.00  0.00    -0.237 OA
ATOM     68  O   UNL A   1      38.682  36.819  41.341  1.00  0.00    -0.744 OA
ENDBRANCH  64  65
ENDBRANCH  45  59
BRANCH  46  69
ATOM     69  C   UNL A   1      41.245  27.825  29.523  1.00  0.00    -0.014 A 
ATOM     70  C   UNL A   1      42.379  27.934  28.697  1.00  0.00     0.010 A 
ATOM     71  C   UNL A   1      40.330  26.781  29.291  1.00  0.00     0.010 A 
ATOM     72  C   UNL A   1      42.586  27.027  27.653  1.00  0.00     0.020 A 
ATOM     73  C   UNL A   1      40.550  25.854  28.269  1.00  0.00     0.020 A 
ATOM     74  C   UNL A   1      41.673  25.988  27.450  1.00  0.00     0.054 A 
BRANCH  74  75
ATOM     75  S   UNL A   1      41.997  24.786  26.131  1.00  0.00     0.124 S 
ATOM     76  O   UNL A   1      40.944  23.801  26.351  1.00  0.00    -0.237 OA
ATOM     77  O   UNL A   1      41.863  25.599  24.925  1.00  0.00    -0.237 OA
ATOM     78  O   UNL A   1      43.355  24.324  26.414  1.00  0.00    -0.744 OA
ENDBRANCH  74  75
ENDBRANCH  46  69
BRANCH  58  79
ATOM     79  C   UNL A   1      44.164  28.625  35.810  1.00  0.00    -0.014 A 
ATOM     80  C   UNL A   1      45.519  29.000  35.776  1.00  0.00     0.010 A 
ATOM     81  C   UNL A   1      43.786  27.501  36.568  1.00  0.00     0.010 A 
ATOM     82  C   UNL A   1      46.482  28.232  36.437  1.00  0.00     0.020 A 
ATOM     83  C   UNL A   1      44.740  26.752  37.259  1.00  0.00     0.020 A 
ATOM     84  C   UNL A   1      46.087  27.108  37.170  1.00  0.00     0.054 A 
BRANCH  84  85
ATOM     85  S   UNL A   1      47.354  26.128  38.020  1.00  0.00     0.124 S 
ATOM     86  O   UNL A   1      46.762  24.794  38.009  1.00  0.00    -0.237 OA
ATOM     87  O   UNL A   1      48.524  26.306  37.163  1.00  0.00    -0.237 OA
ATOM     88  O   UNL A   1      47.452  26.756  39.336  1.00  0.00    -0.744 OA
ENDBRANCH  84  85
ENDBRANCH  58  79
ENDBRANCH  32  33
ENDBRANCH  24  27
ENDBRANCH  22  23
ENDBRANCH  21  22
ENDBRANCH  20  21
ENDBRANCH   1  20
TORSDOF 20
ENDMDL
MODEL 3
REMARK VINA RESULT:      -9.6      7.055     12.571
REMARK SMILES CCCCCC[C@@H](C)N1C[C@H](C(=O)NCCCCNC(=O)c2ccc(-c3c4nc(c(-c5ccc(S(=O)(=O)[O-])cc5)c5ccc([nH]5)c(-c5ccc(S(=O)(=O)[O-])cc5)c5nc(c(-c6ccc(S(=O)(=O)[O-])cc6)c6ccc3[nH]6)C=C5)C=C4)cc2)CC1=O
REMARK SMILES IDX 15 1 14 2 12 3 13 4 11 6 9 7 10 8 83 9 82 10 84 11 7 12 8 13
REMARK SMILES IDX 6 14 5 15 4 16 3 17 2 18 1 19 16 20 17 21 18 22 19 23 20 24
REMARK SMILES IDX 21 26 22 27 23 28 81 29 24 30 80 31 25 32 26 33 27 34 74 35
REMARK SMILES IDX 28 36 79 37 73 38 75 39 29 40 78 41 72 42 71 43 30 45 60 46
REMARK SMILES IDX 41 47 59 48 42 49 45 50 58 51 76 52 43 53 44 54 57 56 77 57
REMARK SMILES IDX 46 58 31 59 32 60 40 61 33 62 39 63 34 64 35 65 36 66 37 67
REMARK SMILES IDX 38 68 61 69 62 70 70 71 63 72 69 73 64 74 65 75 66 76 67 77
REMARK SMILES IDX 68 78 47 79 48 80 56 81 49 82 55 83 50 84 51 85 52 86 53 87
REMARK SMILES IDX 54 88
REMARK H PARENT 14 5 19 25 75 44 45 55
REMARK Flexibility Score: inf
ROOT
ATOM      1  C   UNL A   1      39.636  21.161  26.172  1.00  0.00     0.116 C 
ENDROOT
BRANCH   1   2
ATOM      2  N   UNL A   1      38.678  22.215  26.448  1.00  0.00    -0.356 N 
ATOM      3  C   UNL A   1      37.612  22.633  25.703  1.00  0.00     0.225 C 
ATOM      4  O   UNL A   1      37.012  23.647  26.052  1.00  0.00    -0.275 OA
ATOM      5  H   UNL A   1      38.815  22.698  27.295  1.00  0.00     0.163 HD
BRANCH   3   6
ATOM      6  C   UNL A   1      37.176  21.785  24.524  1.00  0.00     0.107 C 
ATOM      7  N   UNL A   1      34.828  21.757  24.452  1.00  0.00    -0.339 N 
ATOM      8  C   UNL A   1      35.953  20.982  24.924  1.00  0.00     0.133 C 
ATOM      9  C   UNL A   1      35.213  22.669  23.479  1.00  0.00     0.223 C 
ATOM     10  C   UNL A   1      36.712  22.607  23.330  1.00  0.00     0.115 C 
ATOM     11  O   UNL A   1      34.496  23.378  22.786  1.00  0.00    -0.275 OA
BRANCH   7  12
ATOM     12  C   UNL A   1      33.464  21.495  24.954  1.00  0.00     0.082 C 
ATOM     13  C   UNL A   1      33.117  22.457  26.093  1.00  0.00     0.031 C 
BRANCH  12  14
ATOM     14  C   UNL A   1      33.209  20.026  25.355  1.00  0.00     0.025 C 
BRANCH  14  15
ATOM     15  C   UNL A   1      32.929  19.059  24.195  1.00  0.00     0.002 C 
BRANCH  15  16
ATOM     16  C   UNL A   1      34.023  18.020  23.936  1.00  0.00     0.000 C 
BRANCH  16  17
ATOM     17  C   UNL A   1      33.535  16.570  23.840  1.00  0.00    -0.000 C 
BRANCH  17  18
ATOM     18  C   UNL A   1      33.631  15.761  25.137  1.00  0.00    -0.003 C 
ATOM     19  C   UNL A   1      32.285  15.254  25.634  1.00  0.00     0.004 C 
ENDBRANCH  17  18
ENDBRANCH  16  17
ENDBRANCH  15  16
ENDBRANCH  14  15
ENDBRANCH  12  14
ENDBRANCH   7  12
ENDBRANCH   3   6
ENDBRANCH   1   2
BRANCH   1  20
ATOM     20  C   UNL A   1      41.012  21.504  26.742  1.00  0.00     0.023 C 
BRANCH  20  21
ATOM     21  C   UNL A   1      41.033  22.749  27.637  1.00  0.00     0.023 C 
BRANCH  21  22
ATOM     22  C   UNL A   1      42.247  23.654  27.462  1.00  0.00     0.116 C 
BRANCH  22  23
ATOM     23  N   UNL A   1      42.194  24.433  26.236  1.00  0.00    -0.352 N 
ATOM     24  C   UNL A   1      41.860  25.753  26.058  1.00  0.00     0.251 C 
ATOM     25  H   UNL A   1      42.432  23.944  25.415  1.00  0.00     0.163 HD
ATOM     26  O   UNL A   1      41.722  26.192  24.919  1.00  0.00    -0.269 OA
BRANCH  24  27
ATOM     27  C   UNL A   1      41.643  26.634  27.227  1.00  0.00     0.039 A 
ATOM     28  C   UNL A   1      40.670  26.280  28.164  1.00  0.00     0.014 A 
ATOM     29  C   UNL A   1      42.382  27.809  27.397  1.00  0.00     0.014 A 
ATOM     30  C   UNL A   1      40.467  27.081  29.290  1.00  0.00     0.010 A 
ATOM     31  C   UNL A   1      42.238  28.559  28.562  1.00  0.00     0.010 A 
ATOM     32  C   UNL A   1      41.266  28.215  29.514  1.00  0.00    -0.014 A 
BRANCH  32  33
ATOM     33  C   UNL A   1      41.077  29.056  30.725  1.00  0.00     0.031 A 
ATOM     34  C   UNL A   1      39.963  30.067  30.783  1.00  0.00     0.074 A 
ATOM     35  C   UNL A   1      41.928  28.934  31.762  1.00  0.00     0.049 A 
ATOM     36  N   UNL A   1      39.636  30.881  31.755  1.00  0.00    -0.248 NA
ATOM     37  C   UNL A   1      39.118  30.201  29.584  1.00  0.00     0.031 C 
ATOM     38  C   UNL A   1      43.078  28.027  31.814  1.00  0.00     0.029 A 
ATOM     39  N   UNL A   1      41.958  29.573  32.978  1.00  0.00    -0.354 N 
ATOM     40  C   UNL A   1      38.563  31.629  31.281  1.00  0.00     0.074 A 
ATOM     41  C   UNL A   1      38.333  31.215  29.916  1.00  0.00     0.031 C 
ATOM     42  C   UNL A   1      43.675  28.140  33.011  1.00  0.00     0.029 A 
ATOM     43  C   UNL A   1      42.978  29.154  33.798  1.00  0.00     0.049 A 
ATOM     44  H   UNL A   1      41.309  30.267  33.236  1.00  0.00     0.167 HD
ATOM     45  C   UNL A   1      37.821  32.559  31.930  1.00  0.00     0.031 A 
ATOM     46  C   UNL A   1      43.316  29.537  35.044  1.00  0.00     0.031 A 
ATOM     47  C   UNL A   1      38.051  32.968  33.291  1.00  0.00     0.049 A 
ATOM     48  C   UNL A   1      42.479  30.572  35.744  1.00  0.00     0.074 A 
ATOM     49  C   UNL A   1      37.324  33.862  34.056  1.00  0.00     0.029 A 
ATOM     50  N   UNL A   1      39.093  32.516  34.088  1.00  0.00    -0.354 N 
ATOM     51  N   UNL A   1      41.422  31.215  35.305  1.00  0.00    -0.248 NA
ATOM     52  C   UNL A   1      42.868  30.917  37.118  1.00  0.00     0.031 C 
ATOM     53  C   UNL A   1      37.961  33.999  35.293  1.00  0.00     0.029 A 
ATOM     54  C   UNL A   1      39.042  33.133  35.328  1.00  0.00     0.049 A 
ATOM     55  H   UNL A   1      39.769  31.855  33.814  1.00  0.00     0.167 HD
ATOM     56  C   UNL A   1      41.002  32.017  36.361  1.00  0.00     0.074 A 
ATOM     57  C   UNL A   1      41.907  31.763  37.463  1.00  0.00     0.031 C 
ATOM     58  C   UNL A   1      39.958  32.883  36.414  1.00  0.00     0.031 A 
BRANCH  45  59
ATOM     59  C   UNL A   1      36.695  33.206  31.162  1.00  0.00    -0.014 A 
ATOM     60  C   UNL A   1      36.943  33.985  30.016  1.00  0.00     0.010 A 
ATOM     61  C   UNL A   1      35.365  33.017  31.581  1.00  0.00     0.010 A 
ATOM     62  C   UNL A   1      35.890  34.606  29.337  1.00  0.00     0.020 A 
ATOM     63  C   UNL A   1      34.306  33.609  30.886  1.00  0.00     0.020 A 
ATOM     64  C   UNL A   1      34.578  34.417  29.780  1.00  0.00     0.054 A 
BRANCH  64  65
ATOM     65  S   UNL A   1      33.231  35.231  28.877  1.00  0.00     0.124 S 
ATOM     66  O   UNL A   1      32.675  34.122  28.104  1.00  0.00    -0.237 OA
ATOM     67  O   UNL A   1      32.383  35.734  29.954  1.00  0.00    -0.237 OA
ATOM     68  O   UNL A   1      33.911  36.257  28.091  1.00  0.00    -0.744 OA
ENDBRANCH  64  65
ENDBRANCH  45  59
BRANCH  46  69
ATOM     69  C   UNL A   1      44.490  28.915  35.718  1.00  0.00    -0.014 A 
ATOM     70  C   UNL A   1      45.689  29.632  35.882  1.00  0.00     0.010 A 
ATOM     71  C   UNL A   1      44.404  27.603  36.223  1.00  0.00     0.010 A 
ATOM     72  C   UNL A   1      46.784  29.046  36.523  1.00  0.00     0.020 A 
ATOM     73  C   UNL A   1      45.487  27.026  36.893  1.00  0.00     0.020 A 
ATOM     74  C   UNL A   1      46.673  27.748  37.031  1.00  0.00     0.054 A 
BRANCH  74  75
ATOM     75  S   UNL A   1      48.086  27.034  37.917  1.00  0.00     0.124 S 
ATOM     76  O   UNL A   1      49.217  27.546  37.152  1.00  0.00    -0.237 OA
ATOM     77  O   UNL A   1      47.926  27.586  39.260  1.00  0.00    -0.237 OA
ATOM     78  O   UNL A   1      47.861  25.593  37.814  1.00  0.00    -0.744 OA
ENDBRANCH  74  75
ENDBRANCH  46  69
BRANCH  58  79
ATOM     79  C   UNL A   1      39.713  33.590  37.724  1.00  0.00    -0.014 A 
ATOM     80  C   UNL A   1      38.734  33.144  38.630  1.00  0.00     0.010 A 
ATOM     81  C   UNL A   1      40.495  34.711  38.059  1.00  0.00     0.010 A 
ATOM     82  C   UNL A   1      38.502  33.842  39.819  1.00  0.00     0.020 A 
ATOM     83  C   UNL A   1      40.291  35.389  39.262  1.00  0.00     0.020 A 
ATOM     84  C   UNL A   1      39.278  34.965  40.125  1.00  0.00     0.054 A 
BRANCH  84  85
ATOM     85  S   UNL A   1      38.959  35.853  41.674  1.00  0.00     0.124 S 
ATOM     86  O   UNL A   1      37.647  35.336  42.054  1.00  0.00    -0.237 OA
ATOM     87  O   UNL A   1      40.072  35.430  42.520  1.00  0.00    -0.237 OA
ATOM     88  O   UNL A   1      38.984  37.259  41.278  1.00  0.00    -0.744 OA
ENDBRANCH  84  85
ENDBRANCH  58  79
ENDBRANCH  32  33
ENDBRANCH  24  27
ENDBRANCH  22  23
ENDBRANCH  21  22
ENDBRANCH  20  21
ENDBRANCH   1  20
TORSDOF 20
ENDMDL
