MODEL 1
REMARK VINA RESULT:     -12.9      0.000      0.000
REMARK SMILES Cc1ccc(Nc2c(C)cccc2Cl)c(CC(=O)NCCCCNC(=O)c2ccc(-c3c4nc(c(-c5ccc(S(=O)(=O)[O-])cc5)c5ccc([nH]5)c(-c5ccc(S(=O)(=O)[O-])cc5)c5nc(c(-c6ccc(S(=O)(=O)[O-])cc6)c6ccc3[nH]6)C=C5)C=C4)cc2)c1
REMARK SMILES IDX 21 1 20 2 19 3 17 4 18 5 16 7 15 8 1 9 2 10 3 11 87 12 4 13
REMARK SMILES IDX 5 14 6 15 7 17 8 18 13 19 9 20 10 21 12 22 14 23 11 24 22 25
REMARK SMILES IDX 23 26 24 27 25 28 26 30 27 31 28 32 86 33 29 34 85 35 30 36
REMARK SMILES IDX 31 37 32 38 79 39 33 40 84 41 78 42 80 43 34 44 83 45 77 46
REMARK SMILES IDX 76 47 35 49 65 50 46 51 64 52 47 53 50 54 63 55 81 56 48 57
REMARK SMILES IDX 49 58 62 60 82 61 51 62 36 63 37 64 45 65 38 66 44 67 39 68
REMARK SMILES IDX 40 69 41 70 42 71 43 72 66 73 67 74 75 75 68 76 74 77 69 78
REMARK SMILES IDX 70 79 71 80 72 81 73 82 52 83 53 84 61 85 54 86 60 87 55 88
REMARK SMILES IDX 56 89 57 90 58 91 59 92
REMARK H PARENT 19 6 6 16 24 29 80 48 50 59
REMARK Flexibility Score: inf
ROOT
ATOM      1  C   UNL A   1      36.676  22.936  24.026  1.00  0.00     0.023 C 
ENDROOT
BRANCH   1   2
ATOM      2  C   UNL A   1      35.162  22.670  23.971  1.00  0.00     0.116 C 
BRANCH   2   3
ATOM      3  N   UNL A   1      34.480  23.406  22.915  1.00  0.00    -0.356 N 
ATOM      4  C   UNL A   1      33.921  24.648  22.935  1.00  0.00     0.224 C 
ATOM      5  O   UNL A   1      33.309  25.040  21.938  1.00  0.00    -0.275 OA
ATOM      6  H   UNL A   1      34.412  22.932  22.055  1.00  0.00     0.163 HD
BRANCH   4   7
ATOM      7  C   UNL A   1      34.013  25.533  24.164  1.00  0.00     0.137 C 
BRANCH   7   8
ATOM      8  C   UNL A   1      32.740  25.558  24.980  1.00  0.00    -0.015 A 
ATOM      9  C   UNL A   1      30.430  22.891  26.449  1.00  0.00     0.044 C 
ATOM     10  C   UNL A   1      31.000  24.225  26.070  1.00  0.00    -0.051 A 
ATOM     11  C   UNL A   1      30.260  25.389  26.270  1.00  0.00     0.005 A 
ATOM     12  C   UNL A   1      32.247  24.322  25.451  1.00  0.00     0.009 A 
ATOM     13  C   UNL A   1      30.765  26.626  25.859  1.00  0.00     0.026 A 
ATOM     14  C   UNL A   1      32.005  26.743  25.210  1.00  0.00     0.042 A 
BRANCH  14  15
ATOM     15  N   UNL A   1      32.515  28.008  24.836  1.00  0.00    -0.354 N 
ATOM     16  H   UNL A   1      32.971  28.038  23.962  1.00  0.00     0.167 HD
BRANCH  15  17
ATOM     17  C   UNL A   1      32.467  29.238  25.537  1.00  0.00     0.060 A 
ATOM     18  C   UNL A   1      33.381  29.550  26.569  1.00  0.00    -0.026 A 
ATOM     19  C   UNL A   1      31.427  30.155  25.264  1.00  0.00     0.064 A 
ATOM     20  C   UNL A   1      34.561  28.675  26.900  1.00  0.00     0.046 C 
ATOM     21  C   UNL A   1      33.198  30.721  27.328  1.00  0.00     0.005 A 
ATOM     22  C   UNL A   1      31.275  31.325  26.011  1.00  0.00     0.023 A 
ATOM     23  Cl  UNL A   1      30.277  29.853  24.005  1.00  0.00    -0.082 Cl
ATOM     24  C   UNL A   1      32.153  31.602  27.053  1.00  0.00     0.002 A 
ENDBRANCH  15  17
ENDBRANCH  14  15
ENDBRANCH   7   8
ENDBRANCH   4   7
ENDBRANCH   2   3
ENDBRANCH   1   2
BRANCH   1  25
ATOM     25  C   UNL A   1      37.403  22.392  25.255  1.00  0.00     0.023 C 
BRANCH  25  26
ATOM     26  C   UNL A   1      37.954  23.485  26.156  1.00  0.00     0.116 C 
BRANCH  26  27
ATOM     27  N   UNL A   1      39.104  23.084  26.952  1.00  0.00    -0.352 N 
ATOM     28  C   UNL A   1      40.022  23.918  27.569  1.00  0.00     0.251 C 
ATOM     29  H   UNL A   1      39.246  22.115  27.063  1.00  0.00     0.163 HD
ATOM     30  O   UNL A   1      41.097  23.526  27.987  1.00  0.00    -0.269 OA
BRANCH  28  31
ATOM     31  C   UNL A   1      39.572  25.302  27.834  1.00  0.00     0.039 A 
ATOM     32  C   UNL A   1      40.047  26.293  26.968  1.00  0.00     0.014 A 
ATOM     33  C   UNL A   1      38.996  25.629  29.059  1.00  0.00     0.014 A 
ATOM     34  C   UNL A   1      40.124  27.609  27.414  1.00  0.00     0.010 A 
ATOM     35  C   UNL A   1      39.161  26.915  29.534  1.00  0.00     0.010 A 
ATOM     36  C   UNL A   1      39.776  27.889  28.732  1.00  0.00    -0.014 A 
BRANCH  36  37
ATOM     37  C   UNL A   1      40.060  29.157  29.392  1.00  0.00     0.031 A 
ATOM     38  C   UNL A   1      39.102  30.277  29.251  1.00  0.00     0.074 A 
ATOM     39  C   UNL A   1      41.135  29.289  30.204  1.00  0.00     0.049 A 
ATOM     40  N   UNL A   1      39.366  31.502  29.562  1.00  0.00    -0.248 NA
ATOM     41  C   UNL A   1      37.775  30.114  28.654  1.00  0.00     0.031 C 
ATOM     42  C   UNL A   1      41.364  30.346  31.188  1.00  0.00     0.029 A 
ATOM     43  N   UNL A   1      42.364  28.626  30.141  1.00  0.00    -0.354 N 
ATOM     44  C   UNL A   1      38.174  32.185  29.555  1.00  0.00     0.074 A 
ATOM     45  C   UNL A   1      37.262  31.335  28.832  1.00  0.00     0.031 C 
ATOM     46  C   UNL A   1      42.684  30.461  31.394  1.00  0.00     0.029 A 
ATOM     47  C   UNL A   1      43.338  29.605  30.422  1.00  0.00     0.049 A 
ATOM     48  H   UNL A   1      42.517  27.674  29.941  1.00  0.00     0.167 HD
ATOM     49  C   UNL A   1      38.055  33.315  30.306  1.00  0.00     0.031 A 
ATOM     50  C   UNL A   1      44.279  30.019  29.521  1.00  0.00     0.031 A 
ATOM     51  C   UNL A   1      39.361  33.821  30.739  1.00  0.00     0.049 A 
ATOM     52  C   UNL A   1      44.234  31.511  29.220  1.00  0.00     0.074 A 
ATOM     53  C   UNL A   1      40.011  33.960  31.952  1.00  0.00     0.029 A 
ATOM     54  N   UNL A   1      40.320  34.068  29.765  1.00  0.00    -0.354 N 
ATOM     55  N   UNL A   1      43.365  32.346  29.722  1.00  0.00    -0.248 NA
ATOM     56  C   UNL A   1      45.113  32.159  28.246  1.00  0.00     0.031 C 
ATOM     57  C   UNL A   1      41.385  34.256  31.689  1.00  0.00     0.029 A 
ATOM     58  C   UNL A   1      41.557  34.332  30.319  1.00  0.00     0.049 A 
ATOM     59  H   UNL A   1      40.141  34.056  28.797  1.00  0.00     0.167 HD
ATOM     60  C   UNL A   1      43.508  33.580  29.139  1.00  0.00     0.074 A 
ATOM     61  C   UNL A   1      44.622  33.412  28.223  1.00  0.00     0.031 C 
ATOM     62  C   UNL A   1      42.669  34.625  29.421  1.00  0.00     0.031 A 
BRANCH  49  63
ATOM     63  C   UNL A   1      36.726  33.849  30.812  1.00  0.00    -0.014 A 
ATOM     64  C   UNL A   1      35.631  33.973  29.931  1.00  0.00     0.010 A 
ATOM     65  C   UNL A   1      36.523  34.365  32.111  1.00  0.00     0.010 A 
ATOM     66  C   UNL A   1      34.430  34.601  30.316  1.00  0.00     0.020 A 
ATOM     67  C   UNL A   1      35.324  34.964  32.518  1.00  0.00     0.020 A 
ATOM     68  C   UNL A   1      34.288  35.101  31.610  1.00  0.00     0.054 A 
BRANCH  68  69
ATOM     69  S   UNL A   1      32.768  35.963  32.092  1.00  0.00     0.124 S 
ATOM     70  O   UNL A   1      31.928  34.868  32.570  1.00  0.00    -0.237 OA
ATOM     71  O   UNL A   1      33.239  36.894  33.113  1.00  0.00    -0.237 OA
ATOM     72  O   UNL A   1      32.317  36.589  30.849  1.00  0.00    -0.744 OA
ENDBRANCH  68  69
ENDBRANCH  49  63
BRANCH  50  73
ATOM     73  C   UNL A   1      44.699  28.961  28.556  1.00  0.00    -0.014 A 
ATOM     74  C   UNL A   1      44.082  28.962  27.287  1.00  0.00     0.010 A 
ATOM     75  C   UNL A   1      45.929  28.299  28.714  1.00  0.00     0.010 A 
ATOM     76  C   UNL A   1      44.764  28.487  26.165  1.00  0.00     0.020 A 
ATOM     77  C   UNL A   1      46.609  27.808  27.590  1.00  0.00     0.020 A 
ATOM     78  C   UNL A   1      46.053  27.978  26.319  1.00  0.00     0.054 A 
BRANCH  78  79
ATOM     79  S   UNL A   1      47.063  27.759  24.822  1.00  0.00     0.124 S 
ATOM     80  O   UNL A   1      46.651  26.439  24.358  1.00  0.00    -0.237 OA
ATOM     81  O   UNL A   1      46.618  28.884  23.999  1.00  0.00    -0.237 OA
ATOM     82  O   UNL A   1      48.430  27.854  25.324  1.00  0.00    -0.744 OA
ENDBRANCH  78  79
ENDBRANCH  50  73
BRANCH  62  83
ATOM     83  C   UNL A   1      42.757  36.014  28.822  1.00  0.00    -0.014 A 
ATOM     84  C   UNL A   1      43.730  36.964  29.170  1.00  0.00     0.010 A 
ATOM     85  C   UNL A   1      41.751  36.445  27.921  1.00  0.00     0.010 A 
ATOM     86  C   UNL A   1      43.751  38.239  28.579  1.00  0.00     0.020 A 
ATOM     87  C   UNL A   1      41.747  37.718  27.343  1.00  0.00     0.020 A 
ATOM     88  C   UNL A   1      42.766  38.603  27.659  1.00  0.00     0.054 A 
BRANCH  88  89
ATOM     89  S   UNL A   1      42.809  40.255  26.919  1.00  0.00     0.124 S 
ATOM     90  O   UNL A   1      41.491  40.353  26.292  1.00  0.00    -0.237 OA
ATOM     91  O   UNL A   1      43.011  41.107  28.087  1.00  0.00    -0.237 OA
ATOM     92  O   UNL A   1      43.933  40.196  25.989  1.00  0.00    -0.744 OA
ENDBRANCH  88  89
ENDBRANCH  62  83
ENDBRANCH  36  37
ENDBRANCH  28  31
ENDBRANCH  26  27
ENDBRANCH  25  26
ENDBRANCH   1  25
TORSDOF 17
ENDMDL
MODEL 2
REMARK VINA RESULT:     -12.8      4.754     11.216
REMARK SMILES Cc1ccc(Nc2c(C)cccc2Cl)c(CC(=O)NCCCCNC(=O)c2ccc(-c3c4nc(c(-c5ccc(S(=O)(=O)[O-])cc5)c5ccc([nH]5)c(-c5ccc(S(=O)(=O)[O-])cc5)c5nc(c(-c6ccc(S(=O)(=O)[O-])cc6)c6ccc3[nH]6)C=C5)C=C4)cc2)c1
REMARK SMILES IDX 21 1 20 2 19 3 17 4 18 5 16 7 15 8 1 9 2 10 3 11 87 12 4 13
REMARK SMILES IDX 5 14 6 15 7 17 8 18 13 19 9 20 10 21 12 22 14 23 11 24 22 25
REMARK SMILES IDX 23 26 24 27 25 28 26 30 27 31 28 32 86 33 29 34 85 35 30 36
REMARK SMILES IDX 31 37 32 38 79 39 33 40 84 41 78 42 80 43 34 44 83 45 77 46
REMARK SMILES IDX 76 47 35 49 65 50 46 51 64 52 47 53 50 54 63 55 81 56 48 57
REMARK SMILES IDX 49 58 62 60 82 61 51 62 36 63 37 64 45 65 38 66 44 67 39 68
REMARK SMILES IDX 40 69 41 70 42 71 43 72 66 73 67 74 75 75 68 76 74 77 69 78
REMARK SMILES IDX 70 79 71 80 72 81 73 82 52 83 53 84 61 85 54 86 60 87 55 88
REMARK SMILES IDX 56 89 57 90 58 91 59 92
REMARK H PARENT 19 6 6 16 24 29 80 48 50 59
REMARK Flexibility Score: inf
ROOT
ATOM      1  C   UNL A   1      32.683  28.420  25.871  1.00  0.00     0.023 C 
ENDROOT
BRANCH   1   2
ATOM      2  C   UNL A   1      33.778  27.602  25.165  1.00  0.00     0.116 C 
BRANCH   2   3
ATOM      3  N   UNL A   1      34.027  28.026  23.793  1.00  0.00    -0.356 N 
ATOM      4  C   UNL A   1      33.652  27.449  22.618  1.00  0.00     0.224 C 
ATOM      5  O   UNL A   1      34.056  27.939  21.560  1.00  0.00    -0.275 OA
ATOM      6  H   UNL A   1      34.547  28.857  23.702  1.00  0.00     0.163 HD
BRANCH   4   7
ATOM      7  C   UNL A   1      32.782  26.206  22.593  1.00  0.00     0.137 C 
BRANCH   7   8
ATOM      8  C   UNL A   1      31.330  26.484  22.907  1.00  0.00    -0.015 A 
ATOM      9  C   UNL A   1      29.096  29.584  22.790  1.00  0.00     0.044 C 
ATOM     10  C   UNL A   1      29.561  28.175  23.004  1.00  0.00    -0.051 A 
ATOM     11  C   UNL A   1      28.749  27.259  23.669  1.00  0.00     0.005 A 
ATOM     12  C   UNL A   1      30.836  27.772  22.603  1.00  0.00     0.009 A 
ATOM     13  C   UNL A   1      29.207  25.963  23.924  1.00  0.00     0.026 A 
ATOM     14  C   UNL A   1      30.495  25.546  23.555  1.00  0.00     0.042 A 
BRANCH  14  15
ATOM     15  N   UNL A   1      30.927  24.218  23.788  1.00  0.00    -0.354 N 
ATOM     16  H   UNL A   1      30.319  23.514  23.465  1.00  0.00     0.167 HD
BRANCH  15  17
ATOM     17  C   UNL A   1      32.107  23.758  24.422  1.00  0.00     0.060 A 
ATOM     18  C   UNL A   1      32.991  22.850  23.796  1.00  0.00    -0.026 A 
ATOM     19  C   UNL A   1      32.379  24.145  25.754  1.00  0.00     0.064 A 
ATOM     20  C   UNL A   1      32.832  22.421  22.362  1.00  0.00     0.046 C 
ATOM     21  C   UNL A   1      34.069  22.315  24.526  1.00  0.00     0.005 A 
ATOM     22  C   UNL A   1      33.468  23.624  26.455  1.00  0.00     0.023 A 
ATOM     23  Cl  UNL A   1      31.353  25.265  26.585  1.00  0.00    -0.082 Cl
ATOM     24  C   UNL A   1      34.306  22.697  25.845  1.00  0.00     0.002 A 
ENDBRANCH  15  17
ENDBRANCH  14  15
ENDBRANCH   7   8
ENDBRANCH   4   7
ENDBRANCH   2   3
ENDBRANCH   1   2
BRANCH   1  25
ATOM     25  C   UNL A   1      33.167  29.637  26.660  1.00  0.00     0.023 C 
BRANCH  25  26
ATOM     26  C   UNL A   1      34.569  29.467  27.221  1.00  0.00     0.116 C 
BRANCH  26  27
ATOM     27  N   UNL A   1      35.288  30.715  27.428  1.00  0.00    -0.352 N 
ATOM     28  C   UNL A   1      36.532  30.871  28.018  1.00  0.00     0.251 C 
ATOM     29  H   UNL A   1      34.843  31.536  27.116  1.00  0.00     0.163 HD
ATOM     30  O   UNL A   1      36.953  31.949  28.400  1.00  0.00    -0.269 OA
BRANCH  28  31
ATOM     31  C   UNL A   1      37.403  29.675  28.033  1.00  0.00     0.039 A 
ATOM     32  C   UNL A   1      37.436  28.938  29.222  1.00  0.00     0.014 A 
ATOM     33  C   UNL A   1      38.373  29.503  27.049  1.00  0.00     0.014 A 
ATOM     34  C   UNL A   1      38.554  28.164  29.513  1.00  0.00     0.010 A 
ATOM     35  C   UNL A   1      39.521  28.812  27.381  1.00  0.00     0.010 A 
ATOM     36  C   UNL A   1      39.634  28.191  28.635  1.00  0.00    -0.014 A 
BRANCH  36  37
ATOM     37  C   UNL A   1      40.948  27.645  28.950  1.00  0.00     0.031 A 
ATOM     38  C   UNL A   1      41.232  26.224  28.648  1.00  0.00     0.074 A 
ATOM     39  C   UNL A   1      41.933  28.443  29.424  1.00  0.00     0.049 A 
ATOM     40  N   UNL A   1      42.245  25.572  29.111  1.00  0.00    -0.248 NA
ATOM     41  C   UNL A   1      40.331  25.387  27.854  1.00  0.00     0.031 C 
ATOM     42  C   UNL A   1      43.363  28.142  29.457  1.00  0.00     0.029 A 
ATOM     43  N   UNL A   1      41.822  29.601  30.199  1.00  0.00    -0.354 N 
ATOM     44  C   UNL A   1      42.323  24.395  28.408  1.00  0.00     0.074 A 
ATOM     45  C   UNL A   1      41.037  24.255  27.773  1.00  0.00     0.031 C 
ATOM     46  C   UNL A   1      43.932  28.869  30.430  1.00  0.00     0.029 A 
ATOM     47  C   UNL A   1      42.855  29.519  31.154  1.00  0.00     0.049 A 
ATOM     48  H   UNL A   1      41.160  30.323  30.099  1.00  0.00     0.167 HD
ATOM     49  C   UNL A   1      43.524  23.760  28.313  1.00  0.00     0.031 A 
ATOM     50  C   UNL A   1      42.637  29.408  32.499  1.00  0.00     0.031 A 
ATOM     51  C   UNL A   1      44.490  24.270  29.290  1.00  0.00     0.049 A 
ATOM     52  C   UNL A   1      43.248  28.162  33.125  1.00  0.00     0.074 A 
ATOM     53  C   UNL A   1      45.681  24.971  29.226  1.00  0.00     0.029 A 
ATOM     54  N   UNL A   1      44.124  24.267  30.630  1.00  0.00    -0.354 N 
ATOM     55  N   UNL A   1      43.892  27.236  32.466  1.00  0.00    -0.248 NA
ATOM     56  C   UNL A   1      43.092  27.815  34.538  1.00  0.00     0.031 C 
ATOM     57  C   UNL A   1      46.002  25.423  30.543  1.00  0.00     0.029 A 
ATOM     58  C   UNL A   1      45.027  24.964  31.409  1.00  0.00     0.049 A 
ATOM     59  H   UNL A   1      43.319  23.824  30.983  1.00  0.00     0.167 HD
ATOM     60  C   UNL A   1      44.185  26.184  33.297  1.00  0.00     0.074 A 
ATOM     61  C   UNL A   1      43.666  26.599  34.589  1.00  0.00     0.031 C 
ATOM     62  C   UNL A   1      44.786  25.040  32.846  1.00  0.00     0.031 A 
BRANCH  49  63
ATOM     63  C   UNL A   1      43.879  22.803  27.187  1.00  0.00    -0.014 A 
ATOM     64  C   UNL A   1      42.969  21.796  26.799  1.00  0.00     0.010 A 
ATOM     65  C   UNL A   1      45.140  22.759  26.553  1.00  0.00     0.010 A 
ATOM     66  C   UNL A   1      43.313  20.796  25.869  1.00  0.00     0.020 A 
ATOM     67  C   UNL A   1      45.486  21.791  25.602  1.00  0.00     0.020 A 
ATOM     68  C   UNL A   1      44.577  20.797  25.280  1.00  0.00     0.054 A 
BRANCH  68  69
ATOM     69  S   UNL A   1      45.046  19.479  24.128  1.00  0.00     0.124 S 
ATOM     70  O   UNL A   1      46.503  19.483  24.228  1.00  0.00    -0.237 OA
ATOM     71  O   UNL A   1      44.375  18.310  24.689  1.00  0.00    -0.237 OA
ATOM     72  O   UNL A   1      44.515  19.936  22.844  1.00  0.00    -0.744 OA
ENDBRANCH  68  69
ENDBRANCH  49  63
BRANCH  50  73
ATOM     73  C   UNL A   1      41.389  30.080  32.966  1.00  0.00    -0.014 A 
ATOM     74  C   UNL A   1      41.431  31.482  33.124  1.00  0.00     0.010 A 
ATOM     75  C   UNL A   1      40.142  29.448  32.823  1.00  0.00     0.010 A 
ATOM     76  C   UNL A   1      40.280  32.251  32.947  1.00  0.00     0.020 A 
ATOM     77  C   UNL A   1      38.982  30.219  32.659  1.00  0.00     0.020 A 
ATOM     78  C   UNL A   1      39.077  31.614  32.646  1.00  0.00     0.054 A 
BRANCH  78  79
ATOM     79  S   UNL A   1      37.709  32.635  32.019  1.00  0.00     0.124 S 
ATOM     80  O   UNL A   1      38.346  33.385  30.941  1.00  0.00    -0.237 OA
ATOM     81  O   UNL A   1      36.750  31.614  31.595  1.00  0.00    -0.237 OA
ATOM     82  O   UNL A   1      37.314  33.417  33.185  1.00  0.00    -0.744 OA
ENDBRANCH  78  79
ENDBRANCH  50  73
BRANCH  62  83
ATOM     83  C   UNL A   1      45.142  23.836  33.695  1.00  0.00    -0.014 A 
ATOM     84  C   UNL A   1      44.324  22.705  33.845  1.00  0.00     0.010 A 
ATOM     85  C   UNL A   1      46.326  23.864  34.474  1.00  0.00     0.010 A 
ATOM     86  C   UNL A   1      44.713  21.624  34.654  1.00  0.00     0.020 A 
ATOM     87  C   UNL A   1      46.714  22.805  35.300  1.00  0.00     0.020 A 
ATOM     88  C   UNL A   1      45.913  21.676  35.366  1.00  0.00     0.054 A 
BRANCH  88  89
ATOM     89  S   UNL A   1      46.389  20.274  36.409  1.00  0.00     0.124 S 
ATOM     90  O   UNL A   1      47.839  20.226  36.230  1.00  0.00    -0.237 OA
ATOM     91  O   UNL A   1      45.935  20.708  37.728  1.00  0.00    -0.237 OA
ATOM     92  O   UNL A   1      45.657  19.146  35.839  1.00  0.00    -0.744 OA
ENDBRANCH  88  89
ENDBRANCH  62  83
ENDBRANCH  36  37
ENDBRANCH  28  31
ENDBRANCH  26  27
ENDBRANCH  25  26
ENDBRANCH   1  25
TORSDOF 17
ENDMDL
MODEL 3
REMARK VINA RESULT:     -12.7      4.019     10.546
REMARK SMILES Cc1ccc(Nc2c(C)cccc2Cl)c(CC(=O)NCCCCNC(=O)c2ccc(-c3c4nc(c(-c5ccc(S(=O)(=O)[O-])cc5)c5ccc([nH]5)c(-c5ccc(S(=O)(=O)[O-])cc5)c5nc(c(-c6ccc(S(=O)(=O)[O-])cc6)c6ccc3[nH]6)C=C5)C=C4)cc2)c1
REMARK SMILES IDX 21 1 20 2 19 3 17 4 18 5 16 7 15 8 1 9 2 10 3 11 87 12 4 13
REMARK SMILES IDX 5 14 6 15 7 17 8 18 13 19 9 20 10 21 12 22 14 23 11 24 22 25
REMARK SMILES IDX 23 26 24 27 25 28 26 30 27 31 28 32 86 33 29 34 85 35 30 36
REMARK SMILES IDX 31 37 32 38 79 39 33 40 84 41 78 42 80 43 34 44 83 45 77 46
REMARK SMILES IDX 76 47 35 49 65 50 46 51 64 52 47 53 50 54 63 55 81 56 48 57
REMARK SMILES IDX 49 58 62 60 82 61 51 62 36 63 37 64 45 65 38 66 44 67 39 68
REMARK SMILES IDX 40 69 41 70 42 71 43 72 66 73 67 74 75 75 68 76 74 77 69 78
REMARK SMILES IDX 70 79 71 80 72 81 73 82 52 83 53 84 61 85 54 86 60 87 55 88
REMARK SMILES IDX 56 89 57 90 58 91 59 92
REMARK H PARENT 19 6 6 16 24 29 80 48 50 59
REMARK Flexibility Score: inf
ROOT
ATOM      1  C   UNL A   1      32.842  29.328  24.701  1.00  0.00     0.023 C 
ENDROOT
BRANCH   1   2
ATOM      2  C   UNL A   1      33.954  28.370  24.242  1.00  0.00     0.116 C 
BRANCH   2   3
ATOM      3  N   UNL A   1      33.781  27.889  22.877  1.00  0.00    -0.356 N 
ATOM      4  C   UNL A   1      33.584  26.625  22.414  1.00  0.00     0.224 C 
ATOM      5  O   UNL A   1      33.553  26.436  21.194  1.00  0.00    -0.275 OA
ATOM      6  H   UNL A   1      33.812  28.588  22.183  1.00  0.00     0.163 HD
BRANCH   4   7
ATOM      7  C   UNL A   1      33.436  25.452  23.365  1.00  0.00     0.137 C 
BRANCH   7   8
ATOM      8  C   UNL A   1      32.146  25.477  24.152  1.00  0.00    -0.015 A 
ATOM      9  C   UNL A   1      28.710  27.073  23.639  1.00  0.00     0.044 C 
ATOM     10  C   UNL A   1      29.844  26.307  24.252  1.00  0.00    -0.051 A 
ATOM     11  C   UNL A   1      29.758  25.855  25.567  1.00  0.00     0.005 A 
ATOM     12  C   UNL A   1      31.028  26.090  23.545  1.00  0.00     0.009 A 
ATOM     13  C   UNL A   1      30.840  25.195  26.159  1.00  0.00     0.026 A 
ATOM     14  C   UNL A   1      32.049  24.991  25.476  1.00  0.00     0.042 A 
BRANCH  14  15
ATOM     15  N   UNL A   1      33.118  24.289  26.079  1.00  0.00    -0.354 N 
ATOM     16  H   UNL A   1      33.523  24.728  26.863  1.00  0.00     0.167 HD
BRANCH  15  17
ATOM     17  C   UNL A   1      33.691  23.045  25.717  1.00  0.00     0.060 A 
ATOM     18  C   UNL A   1      35.072  22.904  25.450  1.00  0.00    -0.026 A 
ATOM     19  C   UNL A   1      32.856  21.920  25.534  1.00  0.00     0.064 A 
ATOM     20  C   UNL A   1      36.060  24.017  25.674  1.00  0.00     0.046 C 
ATOM     21  C   UNL A   1      35.562  21.680  24.956  1.00  0.00     0.005 A 
ATOM     22  C   UNL A   1      33.363  20.706  25.066  1.00  0.00     0.023 A 
ATOM     23  Cl  UNL A   1      31.156  22.008  25.855  1.00  0.00    -0.082 Cl
ATOM     24  C   UNL A   1      34.715  20.590  24.763  1.00  0.00     0.002 A 
ENDBRANCH  15  17
ENDBRANCH  14  15
ENDBRANCH   7   8
ENDBRANCH   4   7
ENDBRANCH   2   3
ENDBRANCH   1   2
BRANCH   1  25
ATOM     25  C   UNL A   1      32.097  28.921  25.972  1.00  0.00     0.023 C 
BRANCH  25  26
ATOM     26  C   UNL A   1      32.832  29.305  27.245  1.00  0.00     0.116 C 
BRANCH  26  27
ATOM     27  N   UNL A   1      33.264  30.694  27.294  1.00  0.00    -0.352 N 
ATOM     28  C   UNL A   1      34.401  31.192  27.910  1.00  0.00     0.251 C 
ATOM     29  H   UNL A   1      32.685  31.350  26.841  1.00  0.00     0.163 HD
ATOM     30  O   UNL A   1      34.562  32.377  28.143  1.00  0.00    -0.269 OA
BRANCH  28  31
ATOM     31  C   UNL A   1      35.494  30.223  28.144  1.00  0.00     0.039 A 
ATOM     32  C   UNL A   1      35.661  29.772  29.458  1.00  0.00     0.014 A 
ATOM     33  C   UNL A   1      36.489  30.046  27.188  1.00  0.00     0.014 A 
ATOM     34  C   UNL A   1      36.909  29.314  29.869  1.00  0.00     0.010 A 
ATOM     35  C   UNL A   1      37.750  29.682  27.619  1.00  0.00     0.010 A 
ATOM     36  C   UNL A   1      37.971  29.372  28.970  1.00  0.00    -0.014 A 
BRANCH  36  37
ATOM     37  C   UNL A   1      39.364  29.176  29.350  1.00  0.00     0.031 A 
ATOM     38  C   UNL A   1      40.019  27.882  29.055  1.00  0.00     0.074 A 
ATOM     39  C   UNL A   1      40.086  30.192  29.879  1.00  0.00     0.049 A 
ATOM     40  N   UNL A   1      41.142  27.504  29.567  1.00  0.00    -0.248 NA
ATOM     41  C   UNL A   1      39.405  26.857  28.210  1.00  0.00     0.031 C 
ATOM     42  C   UNL A   1      41.542  30.268  29.986  1.00  0.00     0.029 A 
ATOM     43  N   UNL A   1      39.642  31.267  30.655  1.00  0.00    -0.354 N 
ATOM     44  C   UNL A   1      41.555  26.400  28.862  1.00  0.00     0.074 A 
ATOM     45  C   UNL A   1      40.382  25.946  28.160  1.00  0.00     0.031 C 
ATOM     46  C   UNL A   1      41.855  31.098  30.991  1.00  0.00     0.029 A 
ATOM     47  C   UNL A   1      40.613  31.435  31.662  1.00  0.00     0.049 A 
ATOM     48  H   UNL A   1      38.822  31.796  30.524  1.00  0.00     0.167 HD
ATOM     49  C   UNL A   1      42.883  26.097  28.825  1.00  0.00     0.031 A 
ATOM     50  C   UNL A   1      40.366  31.246  32.993  1.00  0.00     0.031 A 
ATOM     51  C   UNL A   1      43.635  26.820  29.855  1.00  0.00     0.049 A 
ATOM     52  C   UNL A   1      41.247  30.187  33.643  1.00  0.00     0.074 A 
ATOM     53  C   UNL A   1      44.607  27.804  29.857  1.00  0.00     0.029 A 
ATOM     54  N   UNL A   1      43.217  26.698  31.174  1.00  0.00    -0.354 N 
ATOM     55  N   UNL A   1      42.139  29.471  33.013  1.00  0.00    -0.248 NA
ATOM     56  C   UNL A   1      41.116  29.785  35.044  1.00  0.00     0.031 C 
ATOM     57  C   UNL A   1      44.736  28.299  31.192  1.00  0.00     0.029 A 
ATOM     58  C   UNL A   1      43.871  27.587  32.003  1.00  0.00     0.049 A 
ATOM     59  H   UNL A   1      42.537  26.055  31.481  1.00  0.00     0.167 HD
ATOM     60  C   UNL A   1      42.652  28.514  33.852  1.00  0.00     0.074 A 
ATOM     61  C   UNL A   1      41.981  28.757  35.117  1.00  0.00     0.031 C 
ATOM     62  C   UNL A   1      43.548  27.572  33.426  1.00  0.00     0.031 A 
BRANCH  49  63
ATOM     63  C   UNL A   1      43.527  25.285  27.714  1.00  0.00    -0.014 A 
ATOM     64  C   UNL A   1      44.474  24.286  28.024  1.00  0.00     0.010 A 
ATOM     65  C   UNL A   1      43.340  25.539  26.338  1.00  0.00     0.010 A 
ATOM     66  C   UNL A   1      45.206  23.615  27.025  1.00  0.00     0.020 A 
ATOM     67  C   UNL A   1      44.036  24.859  25.331  1.00  0.00     0.020 A 
ATOM     68  C   UNL A   1      44.986  23.913  25.680  1.00  0.00     0.054 A 
BRANCH  68  69
ATOM     69  S   UNL A   1      45.967  23.096  24.394  1.00  0.00     0.124 S 
ATOM     70  O   UNL A   1      44.971  22.844  23.357  1.00  0.00    -0.237 OA
ATOM     71  O   UNL A   1      46.976  24.103  24.074  1.00  0.00    -0.237 OA
ATOM     72  O   UNL A   1      46.482  21.899  25.059  1.00  0.00    -0.744 OA
ENDBRANCH  68  69
ENDBRANCH  49  63
BRANCH  50  73
ATOM     73  C   UNL A   1      38.966  31.565  33.399  1.00  0.00    -0.014 A 
ATOM     74  C   UNL A   1      38.664  32.917  33.669  1.00  0.00     0.010 A 
ATOM     75  C   UNL A   1      37.916  30.681  33.095  1.00  0.00     0.010 A 
ATOM     76  C   UNL A   1      37.379  33.415  33.451  1.00  0.00     0.020 A 
ATOM     77  C   UNL A   1      36.620  31.178  32.889  1.00  0.00     0.020 A 
ATOM     78  C   UNL A   1      36.384  32.552  32.994  1.00  0.00     0.054 A 
BRANCH  78  79
ATOM     79  S   UNL A   1      34.859  33.289  32.330  1.00  0.00     0.124 S 
ATOM     80  O   UNL A   1      34.370  32.245  31.436  1.00  0.00    -0.237 OA
ATOM     81  O   UNL A   1      34.076  33.493  33.549  1.00  0.00    -0.237 OA
ATOM     82  O   UNL A   1      35.333  34.507  31.680  1.00  0.00    -0.744 OA
ENDBRANCH  78  79
ENDBRANCH  50  73
BRANCH  62  83
ATOM     83  C   UNL A   1      44.161  26.484  34.286  1.00  0.00    -0.014 A 
ATOM     84  C   UNL A   1      45.170  26.702  35.237  1.00  0.00     0.010 A 
ATOM     85  C   UNL A   1      43.778  25.135  34.072  1.00  0.00     0.010 A 
ATOM     86  C   UNL A   1      45.698  25.645  35.997  1.00  0.00     0.020 A 
ATOM     87  C   UNL A   1      44.311  24.072  34.806  1.00  0.00     0.020 A 
ATOM     88  C   UNL A   1      45.256  24.337  35.785  1.00  0.00     0.054 A 
BRANCH  88  89
ATOM     89  S   UNL A   1      45.958  22.991  36.771  1.00  0.00     0.124 S 
ATOM     90  O   UNL A   1      45.314  21.811  36.196  1.00  0.00    -0.237 OA
ATOM     91  O   UNL A   1      47.386  23.124  36.493  1.00  0.00    -0.237 OA
ATOM     92  O   UNL A   1      45.559  23.310  38.139  1.00  0.00    -0.744 OA
ENDBRANCH  88  89
ENDBRANCH  62  83
ENDBRANCH  36  37
ENDBRANCH  28  31
ENDBRANCH  26  27
ENDBRANCH  25  26
ENDBRANCH   1  25
TORSDOF 17
ENDMDL
