MODEL 1
REMARK VINA RESULT:     -11.7      0.000      0.000
REMARK SMILES Cc1cc(F)cc(N[C@@](C)(C(=O)NCCCCNC(=O)c2ccc(-c3c4nc(c(-c5ccc(S(=O)(=O)[O-])cc5)c5ccc([nH]5)c(-c5ccc(S(=O)(=O)[O-])cc5)c5nc(c(-c6ccc(S(=O)(=O)[O-])cc6)c6ccc3[nH]6)C=C5)C=C4)cc2)c2ccc(O)cc2)c1
REMARK SMILES IDX 16 1 15 2 14 3 13 4 11 5 12 6 9 8 10 9 8 10 7 12 1 13 2 14
REMARK SMILES IDX 3 15 88 16 4 17 5 18 6 19 81 20 82 21 87 22 83 23 86 24
REMARK SMILES IDX 84 25 85 26 17 28 18 29 19 30 20 32 21 33 22 34 80 35 23 36
REMARK SMILES IDX 79 37 24 38 25 39 26 40 73 41 27 42 78 43 72 44 74 45 28 46
REMARK SMILES IDX 77 47 71 48 70 49 29 51 59 52 40 53 58 54 41 55 44 56 57 57
REMARK SMILES IDX 75 58 42 59 43 60 56 62 76 63 45 64 30 65 31 66 39 67 32 68
REMARK SMILES IDX 38 69 33 70 34 71 35 72 36 73 37 74 60 75 61 76 69 77 62 78
REMARK SMILES IDX 68 79 63 80 64 81 65 82 66 83 67 84 46 85 47 86 55 87 48 88
REMARK SMILES IDX 54 89 49 90 50 91 51 92 52 93 53 94
REMARK H PARENT 13 7 8 11 85 27 18 31 74 50 44 61
REMARK Flexibility Score: inf
ROOT
ATOM      1  C   UNL A   1      33.796  27.997  25.924  1.00  0.00     0.023 C 
ENDROOT
BRANCH   1   2
ATOM      2  C   UNL A   1      33.750  26.482  25.712  1.00  0.00     0.023 C 
BRANCH   2   3
ATOM      3  C   UNL A   1      32.490  25.954  25.031  1.00  0.00     0.116 C 
BRANCH   3   4
ATOM      4  N   UNL A   1      31.777  25.005  25.864  1.00  0.00    -0.354 N 
ATOM      5  C   UNL A   1      31.615  23.646  25.805  1.00  0.00     0.250 C 
ATOM      6  O   UNL A   1      30.775  23.210  26.602  1.00  0.00    -0.272 OA
ATOM      7  H   UNL A   1      31.318  25.422  26.628  1.00  0.00     0.163 HD
BRANCH   5   8
ATOM      8  C   UNL A   1      32.421  22.721  24.793  1.00  0.00     0.139 C 
ATOM      9  C   UNL A   1      32.068  23.093  23.330  1.00  0.00     0.051 C 
BRANCH   8  10
ATOM     10  N   UNL A   1      31.987  21.315  25.032  1.00  0.00    -0.368 N 
ATOM     11  H   UNL A   1      31.306  21.213  25.736  1.00  0.00     0.161 HD
BRANCH  10  12
ATOM     12  C   UNL A   1      32.373  20.126  24.434  1.00  0.00     0.038 A 
ATOM     13  C   UNL A   1      33.186  16.604  25.724  1.00  0.00     0.044 C 
ATOM     14  C   UNL A   1      32.874  17.734  24.790  1.00  0.00    -0.046 A 
ATOM     15  C   UNL A   1      32.702  17.496  23.429  1.00  0.00     0.042 A 
ATOM     16  C   UNL A   1      32.679  19.039  25.278  1.00  0.00     0.029 A 
ATOM     17  C   UNL A   1      32.457  18.565  22.579  1.00  0.00     0.125 A 
ATOM     18  F   UNL A   1      32.288  18.331  21.270  1.00  0.00    -0.207 F 
ATOM     19  C   UNL A   1      32.343  19.868  23.064  1.00  0.00     0.065 A 
ENDBRANCH  10  12
ENDBRANCH   8  10
BRANCH   8  20
ATOM     20  C   UNL A   1      33.968  22.904  24.825  1.00  0.00    -0.013 A 
ATOM     21  C   UNL A   1      34.671  22.910  26.050  1.00  0.00     0.010 A 
ATOM     22  C   UNL A   1      34.738  23.015  23.652  1.00  0.00     0.010 A 
ATOM     23  C   UNL A   1      36.039  23.187  26.105  1.00  0.00     0.046 A 
ATOM     24  C   UNL A   1      36.110  23.282  23.700  1.00  0.00     0.046 A 
ATOM     25  C   UNL A   1      36.740  23.402  24.930  1.00  0.00     0.115 A 
BRANCH  25  26
ATOM     26  O   UNL A   1      38.059  23.737  25.017  1.00  0.00    -0.508 OA
ATOM     27  H   UNL A   1      38.600  23.713  24.252  1.00  0.00     0.293 HD
ENDBRANCH  25  26
ENDBRANCH   8  20
ENDBRANCH   5   8
ENDBRANCH   3   4
ENDBRANCH   2   3
ENDBRANCH   1   2
BRANCH   1  28
ATOM     28  C   UNL A   1      33.392  28.487  27.311  1.00  0.00     0.116 C 
BRANCH  28  29
ATOM     29  N   UNL A   1      33.433  29.936  27.443  1.00  0.00    -0.352 N 
ATOM     30  C   UNL A   1      34.451  30.746  27.890  1.00  0.00     0.251 C 
ATOM     31  H   UNL A   1      32.612  30.406  27.171  1.00  0.00     0.163 HD
ATOM     32  O   UNL A   1      34.254  31.943  28.041  1.00  0.00    -0.269 OA
BRANCH  30  33
ATOM     33  C   UNL A   1      35.772  30.160  28.222  1.00  0.00     0.039 A 
ATOM     34  C   UNL A   1      36.761  30.128  27.236  1.00  0.00     0.014 A 
ATOM     35  C   UNL A   1      36.037  29.656  29.498  1.00  0.00     0.014 A 
ATOM     36  C   UNL A   1      38.041  29.661  27.551  1.00  0.00     0.010 A 
ATOM     37  C   UNL A   1      37.330  29.255  29.828  1.00  0.00     0.010 A 
ATOM     38  C   UNL A   1      38.347  29.258  28.861  1.00  0.00    -0.014 A 
BRANCH  38  39
ATOM     39  C   UNL A   1      39.727  28.855  29.244  1.00  0.00     0.031 A 
ATOM     40  C   UNL A   1      40.650  29.843  29.907  1.00  0.00     0.074 A 
ATOM     41  C   UNL A   1      40.178  27.625  28.919  1.00  0.00     0.049 A 
ATOM     42  N   UNL A   1      41.908  29.701  30.236  1.00  0.00    -0.248 NA
ATOM     43  C   UNL A   1      40.096  31.173  30.216  1.00  0.00     0.031 C 
ATOM     44  C   UNL A   1      39.402  26.593  28.224  1.00  0.00     0.029 A 
ATOM     45  N   UNL A   1      41.405  27.041  29.111  1.00  0.00    -0.354 N 
ATOM     46  C   UNL A   1      42.305  30.927  30.758  1.00  0.00     0.074 A 
ATOM     47  C   UNL A   1      41.163  31.812  30.675  1.00  0.00     0.031 C 
ATOM     48  C   UNL A   1      40.168  25.502  28.059  1.00  0.00     0.029 A 
ATOM     49  C   UNL A   1      41.498  25.766  28.601  1.00  0.00     0.049 A 
ATOM     50  H   UNL A   1      42.150  27.491  29.571  1.00  0.00     0.167 HD
ATOM     51  C   UNL A   1      43.508  31.280  31.270  1.00  0.00     0.031 A 
ATOM     52  C   UNL A   1      42.537  24.909  28.559  1.00  0.00     0.031 A 
ATOM     53  C   UNL A   1      44.630  30.389  31.387  1.00  0.00     0.049 A 
ATOM     54  C   UNL A   1      43.853  25.320  29.165  1.00  0.00     0.074 A 
ATOM     55  C   UNL A   1      45.857  30.630  31.981  1.00  0.00     0.029 A 
ATOM     56  N   UNL A   1      44.667  29.091  30.905  1.00  0.00    -0.354 N 
ATOM     57  N   UNL A   1      44.176  26.453  29.741  1.00  0.00    -0.248 NA
ATOM     58  C   UNL A   1      44.941  24.331  29.128  1.00  0.00     0.031 C 
ATOM     59  C   UNL A   1      46.654  29.494  31.812  1.00  0.00     0.029 A 
ATOM     60  C   UNL A   1      45.904  28.527  31.163  1.00  0.00     0.049 A 
ATOM     61  H   UNL A   1      43.922  28.637  30.446  1.00  0.00     0.167 HD
ATOM     62  C   UNL A   1      45.493  26.300  30.161  1.00  0.00     0.074 A 
ATOM     63  C   UNL A   1      45.901  24.962  29.788  1.00  0.00     0.031 C 
ATOM     64  C   UNL A   1      46.293  27.189  30.799  1.00  0.00     0.031 A 
BRANCH  51  65
ATOM     65  C   UNL A   1      43.686  32.698  31.747  1.00  0.00    -0.014 A 
ATOM     66  C   UNL A   1      44.057  33.723  30.860  1.00  0.00     0.010 A 
ATOM     67  C   UNL A   1      43.388  33.021  33.085  1.00  0.00     0.010 A 
ATOM     68  C   UNL A   1      44.146  35.044  31.307  1.00  0.00     0.020 A 
ATOM     69  C   UNL A   1      43.454  34.343  33.529  1.00  0.00     0.020 A 
ATOM     70  C   UNL A   1      43.842  35.346  32.638  1.00  0.00     0.054 A 
BRANCH  70  71
ATOM     71  S   UNL A   1      43.907  37.078  33.174  1.00  0.00     0.124 S 
ATOM     72  O   UNL A   1      43.895  37.789  31.898  1.00  0.00    -0.237 OA
ATOM     73  O   UNL A   1      42.693  37.211  33.977  1.00  0.00    -0.237 OA
ATOM     74  O   UNL A   1      45.158  37.164  33.923  1.00  0.00    -0.744 OA
ENDBRANCH  70  71
ENDBRANCH  51  65
BRANCH  52  75
ATOM     75  C   UNL A   1      42.387  23.576  27.915  1.00  0.00    -0.014 A 
ATOM     76  C   UNL A   1      41.916  22.473  28.648  1.00  0.00     0.010 A 
ATOM     77  C   UNL A   1      42.742  23.396  26.565  1.00  0.00     0.010 A 
ATOM     78  C   UNL A   1      41.839  21.208  28.056  1.00  0.00     0.020 A 
ATOM     79  C   UNL A   1      42.639  22.140  25.962  1.00  0.00     0.020 A 
ATOM     80  C   UNL A   1      42.207  21.049  26.718  1.00  0.00     0.054 A 
BRANCH  80  81
ATOM     81  S   UNL A   1      42.087  19.403  25.963  1.00  0.00     0.124 S 
ATOM     82  O   UNL A   1      40.663  19.316  25.655  1.00  0.00    -0.237 OA
ATOM     83  O   UNL A   1      42.979  19.516  24.812  1.00  0.00    -0.237 OA
ATOM     84  O   UNL A   1      42.556  18.509  27.019  1.00  0.00    -0.744 OA
ENDBRANCH  80  81
ENDBRANCH  52  75
BRANCH  64  85
ATOM     85  C   UNL A   1      47.677  26.736  31.177  1.00  0.00    -0.014 A 
ATOM     86  C   UNL A   1      47.948  26.202  32.448  1.00  0.00     0.010 A 
ATOM     87  C   UNL A   1      48.708  26.793  30.221  1.00  0.00     0.010 A 
ATOM     88  C   UNL A   1      49.235  25.759  32.768  1.00  0.00     0.020 A 
ATOM     89  C   UNL A   1      49.988  26.326  30.527  1.00  0.00     0.020 A 
ATOM     90  C   UNL A   1      50.248  25.825  31.804  1.00  0.00     0.054 A 
BRANCH  90  91
ATOM     91  S   UNL A   1      51.897  25.202  32.226  1.00  0.00     0.124 S 
ATOM     92  O   UNL A   1      52.036  25.627  33.616  1.00  0.00    -0.237 OA
ATOM     93  O   UNL A   1      51.762  23.762  32.018  1.00  0.00    -0.237 OA
ATOM     94  O   UNL A   1      52.777  25.881  31.277  1.00  0.00    -0.744 OA
ENDBRANCH  90  91
ENDBRANCH  64  85
ENDBRANCH  38  39
ENDBRANCH  30  33
ENDBRANCH  28  29
ENDBRANCH   1  28
TORSDOF 18
ENDMDL
MODEL 2
REMARK VINA RESULT:     -11.4      0.590      8.085
REMARK SMILES Cc1cc(F)cc(N[C@@](C)(C(=O)NCCCCNC(=O)c2ccc(-c3c4nc(c(-c5ccc(S(=O)(=O)[O-])cc5)c5ccc([nH]5)c(-c5ccc(S(=O)(=O)[O-])cc5)c5nc(c(-c6ccc(S(=O)(=O)[O-])cc6)c6ccc3[nH]6)C=C5)C=C4)cc2)c2ccc(O)cc2)c1
REMARK SMILES IDX 16 1 15 2 14 3 13 4 11 5 12 6 9 8 10 9 8 10 7 12 1 13 2 14
REMARK SMILES IDX 3 15 88 16 4 17 5 18 6 19 81 20 82 21 87 22 83 23 86 24
REMARK SMILES IDX 84 25 85 26 17 28 18 29 19 30 20 32 21 33 22 34 80 35 23 36
REMARK SMILES IDX 79 37 24 38 25 39 26 40 73 41 27 42 78 43 72 44 74 45 28 46
REMARK SMILES IDX 77 47 71 48 70 49 29 51 59 52 40 53 58 54 41 55 44 56 57 57
REMARK SMILES IDX 75 58 42 59 43 60 56 62 76 63 45 64 30 65 31 66 39 67 32 68
REMARK SMILES IDX 38 69 33 70 34 71 35 72 36 73 37 74 60 75 61 76 69 77 62 78
REMARK SMILES IDX 68 79 63 80 64 81 65 82 66 83 67 84 46 85 47 86 55 87 48 88
REMARK SMILES IDX 54 89 49 90 50 91 51 92 52 93 53 94
REMARK H PARENT 13 7 8 11 85 27 18 31 74 50 44 61
REMARK Flexibility Score: inf
ROOT
ATOM      1  C   UNL A   1      33.611  27.891  25.906  1.00  0.00     0.023 C 
ENDROOT
BRANCH   1   2
ATOM      2  C   UNL A   1      33.451  26.408  25.563  1.00  0.00     0.023 C 
BRANCH   2   3
ATOM      3  C   UNL A   1      32.016  25.941  25.334  1.00  0.00     0.116 C 
BRANCH   3   4
ATOM      4  N   UNL A   1      31.614  24.926  26.289  1.00  0.00    -0.354 N 
ATOM      5  C   UNL A   1      31.635  23.556  26.265  1.00  0.00     0.250 C 
ATOM      6  O   UNL A   1      31.032  23.032  27.209  1.00  0.00    -0.272 OA
ATOM      7  H   UNL A   1      31.255  25.298  27.128  1.00  0.00     0.163 HD
BRANCH   5   8
ATOM      8  C   UNL A   1      32.354  22.723  25.117  1.00  0.00     0.139 C 
ATOM      9  C   UNL A   1      31.892  23.219  23.723  1.00  0.00     0.051 C 
BRANCH   8  10
ATOM     10  N   UNL A   1      31.931  21.301  25.267  1.00  0.00    -0.368 N 
ATOM     11  H   UNL A   1      31.231  21.155  25.943  1.00  0.00     0.161 HD
BRANCH  10  12
ATOM     12  C   UNL A   1      32.352  20.150  24.620  1.00  0.00     0.038 A 
ATOM     13  C   UNL A   1      33.266  16.602  25.761  1.00  0.00     0.044 C 
ATOM     14  C   UNL A   1      32.922  17.761  24.876  1.00  0.00    -0.046 A 
ATOM     15  C   UNL A   1      32.757  17.576  23.505  1.00  0.00     0.042 A 
ATOM     16  C   UNL A   1      32.689  19.038  25.418  1.00  0.00     0.029 A 
ATOM     17  C   UNL A   1      32.481  18.672  22.701  1.00  0.00     0.125 A 
ATOM     18  F   UNL A   1      32.320  18.489  21.383  1.00  0.00    -0.207 F 
ATOM     19  C   UNL A   1      32.330  19.950  23.240  1.00  0.00     0.065 A 
ENDBRANCH  10  12
ENDBRANCH   8  10
BRANCH   8  20
ATOM     20  C   UNL A   1      33.900  22.904  25.045  1.00  0.00    -0.013 A 
ATOM     21  C   UNL A   1      34.671  23.026  26.222  1.00  0.00     0.010 A 
ATOM     22  C   UNL A   1      34.604  22.897  23.825  1.00  0.00     0.010 A 
ATOM     23  C   UNL A   1      36.039  23.304  26.173  1.00  0.00     0.046 A 
ATOM     24  C   UNL A   1      35.976  23.162  23.770  1.00  0.00     0.046 A 
ATOM     25  C   UNL A   1      36.674  23.400  24.945  1.00  0.00     0.115 A 
BRANCH  25  26
ATOM     26  O   UNL A   1      37.994  23.738  24.925  1.00  0.00    -0.508 OA
ATOM     27  H   UNL A   1      38.498  23.613  24.145  1.00  0.00     0.293 HD
ENDBRANCH  25  26
ENDBRANCH   8  20
ENDBRANCH   5   8
ENDBRANCH   3   4
ENDBRANCH   2   3
ENDBRANCH   1   2
BRANCH   1  28
ATOM     28  C   UNL A   1      33.508  28.246  27.386  1.00  0.00     0.116 C 
BRANCH  28  29
ATOM     29  N   UNL A   1      33.423  29.679  27.628  1.00  0.00    -0.352 N 
ATOM     30  C   UNL A   1      34.387  30.549  28.083  1.00  0.00     0.251 C 
ATOM     31  H   UNL A   1      32.547  30.086  27.437  1.00  0.00     0.163 HD
ATOM     32  O   UNL A   1      34.089  31.707  28.337  1.00  0.00    -0.269 OA
BRANCH  30  33
ATOM     33  C   UNL A   1      35.774  30.071  28.298  1.00  0.00     0.039 A 
ATOM     34  C   UNL A   1      36.670  30.101  27.225  1.00  0.00     0.014 A 
ATOM     35  C   UNL A   1      36.191  29.605  29.547  1.00  0.00     0.014 A 
ATOM     36  C   UNL A   1      38.005  29.739  27.427  1.00  0.00     0.010 A 
ATOM     37  C   UNL A   1      37.535  29.310  29.761  1.00  0.00     0.010 A 
ATOM     38  C   UNL A   1      38.458  29.378  28.706  1.00  0.00    -0.014 A 
BRANCH  38  39
ATOM     39  C   UNL A   1      39.894  29.088  28.966  1.00  0.00     0.031 A 
ATOM     40  C   UNL A   1      40.478  27.751  28.592  1.00  0.00     0.074 A 
ATOM     41  C   UNL A   1      40.651  29.997  29.615  1.00  0.00     0.049 A 
ATOM     42  N   UNL A   1      41.681  27.288  28.815  1.00  0.00    -0.248 NA
ATOM     43  C   UNL A   1      39.588  26.801  27.903  1.00  0.00     0.031 C 
ATOM     44  C   UNL A   1      40.191  31.308  30.083  1.00  0.00     0.029 A 
ATOM     45  N   UNL A   1      41.965  29.948  30.013  1.00  0.00    -0.354 N 
ATOM     46  C   UNL A   1      41.683  25.986  28.326  1.00  0.00     0.074 A 
ATOM     47  C   UNL A   1      40.353  25.722  27.820  1.00  0.00     0.031 C 
ATOM     48  C   UNL A   1      41.207  31.941  30.692  1.00  0.00     0.029 A 
ATOM     49  C   UNL A   1      42.379  31.071  30.694  1.00  0.00     0.049 A 
ATOM     50  H   UNL A   1      42.555  29.183  29.829  1.00  0.00     0.167 HD
ATOM     51  C   UNL A   1      42.703  25.096  28.291  1.00  0.00     0.031 A 
ATOM     52  C   UNL A   1      43.563  31.364  31.267  1.00  0.00     0.031 A 
ATOM     53  C   UNL A   1      44.034  25.374  28.758  1.00  0.00     0.049 A 
ATOM     54  C   UNL A   1      44.687  30.366  31.184  1.00  0.00     0.074 A 
ATOM     55  C   UNL A   1      45.157  24.567  28.675  1.00  0.00     0.029 A 
ATOM     56  N   UNL A   1      44.426  26.540  29.395  1.00  0.00    -0.354 N 
ATOM     57  N   UNL A   1      44.693  29.178  30.630  1.00  0.00    -0.248 NA
ATOM     58  C   UNL A   1      45.969  30.755  31.792  1.00  0.00     0.031 C 
ATOM     59  C   UNL A   1      46.215  25.226  29.307  1.00  0.00     0.029 A 
ATOM     60  C   UNL A   1      45.765  26.465  29.734  1.00  0.00     0.049 A 
ATOM     61  H   UNL A   1      43.838  27.308  29.579  1.00  0.00     0.167 HD
ATOM     62  C   UNL A   1      45.986  28.691  30.795  1.00  0.00     0.074 A 
ATOM     63  C   UNL A   1      46.736  29.718  31.486  1.00  0.00     0.031 C 
ATOM     64  C   UNL A   1      46.504  27.500  30.410  1.00  0.00     0.031 A 
BRANCH  51  65
ATOM     65  C   UNL A   1      42.429  23.727  27.728  1.00  0.00    -0.014 A 
ATOM     66  C   UNL A   1      42.541  23.471  26.350  1.00  0.00     0.010 A 
ATOM     67  C   UNL A   1      42.145  22.662  28.603  1.00  0.00     0.010 A 
ATOM     68  C   UNL A   1      42.354  22.177  25.855  1.00  0.00     0.020 A 
ATOM     69  C   UNL A   1      41.981  21.363  28.114  1.00  0.00     0.020 A 
ATOM     70  C   UNL A   1      42.078  21.131  26.741  1.00  0.00     0.054 A 
BRANCH  70  71
ATOM     71  S   UNL A   1      41.902  19.452  26.076  1.00  0.00     0.124 S 
ATOM     72  O   UNL A   1      42.759  19.505  24.895  1.00  0.00    -0.237 OA
ATOM     73  O   UNL A   1      42.394  18.621  27.172  1.00  0.00    -0.237 OA
ATOM     74  O   UNL A   1      40.471  19.335  25.803  1.00  0.00    -0.744 OA
ENDBRANCH  70  71
ENDBRANCH  51  65
BRANCH  52  75
ATOM     75  C   UNL A   1      43.753  32.656  31.982  1.00  0.00    -0.014 A 
ATOM     76  C   UNL A   1      43.463  32.767  33.353  1.00  0.00     0.010 A 
ATOM     77  C   UNL A   1      44.201  33.793  31.285  1.00  0.00     0.010 A 
ATOM     78  C   UNL A   1      43.580  33.999  34.005  1.00  0.00     0.020 A 
ATOM     79  C   UNL A   1      44.348  35.019  31.939  1.00  0.00     0.020 A 
ATOM     80  C   UNL A   1      44.017  35.118  33.292  1.00  0.00     0.054 A 
BRANCH  80  81
ATOM     81  S   UNL A   1      44.177  36.705  34.158  1.00  0.00     0.124 S 
ATOM     82  O   UNL A   1      42.783  37.107  34.311  1.00  0.00    -0.237 OA
ATOM     83  O   UNL A   1      44.866  36.325  35.390  1.00  0.00    -0.237 OA
ATOM     84  O   UNL A   1      44.968  37.517  33.237  1.00  0.00    -0.744 OA
ENDBRANCH  80  81
ENDBRANCH  52  75
BRANCH  64  85
ATOM     85  C   UNL A   1      47.964  27.253  30.682  1.00  0.00    -0.014 A 
ATOM     86  C   UNL A   1      48.955  27.655  29.771  1.00  0.00     0.010 A 
ATOM     87  C   UNL A   1      48.349  26.661  31.900  1.00  0.00     0.010 A 
ATOM     88  C   UNL A   1      50.306  27.442  30.060  1.00  0.00     0.020 A 
ATOM     89  C   UNL A   1      49.698  26.472  32.203  1.00  0.00     0.020 A 
ATOM     90  C   UNL A   1      50.669  26.851  31.274  1.00  0.00     0.054 A 
BRANCH  90  91
ATOM     91  S   UNL A   1      52.429  26.628  31.647  1.00  0.00     0.124 S 
ATOM     92  O   UNL A   1      52.722  27.812  32.450  1.00  0.00    -0.237 OA
ATOM     93  O   UNL A   1      52.449  25.358  32.368  1.00  0.00    -0.237 OA
ATOM     94  O   UNL A   1      53.061  26.598  30.329  1.00  0.00    -0.744 OA
ENDBRANCH  90  91
ENDBRANCH  64  85
ENDBRANCH  38  39
ENDBRANCH  30  33
ENDBRANCH  28  29
ENDBRANCH   1  28
TORSDOF 18
ENDMDL
MODEL 3
REMARK VINA RESULT:     -11.3      1.258      2.592
REMARK SMILES Cc1cc(F)cc(N[C@@](C)(C(=O)NCCCCNC(=O)c2ccc(-c3c4nc(c(-c5ccc(S(=O)(=O)[O-])cc5)c5ccc([nH]5)c(-c5ccc(S(=O)(=O)[O-])cc5)c5nc(c(-c6ccc(S(=O)(=O)[O-])cc6)c6ccc3[nH]6)C=C5)C=C4)cc2)c2ccc(O)cc2)c1
REMARK SMILES IDX 16 1 15 2 14 3 13 4 11 5 12 6 9 8 10 9 8 10 7 12 1 13 2 14
REMARK SMILES IDX 3 15 88 16 4 17 5 18 6 19 81 20 82 21 87 22 83 23 86 24
REMARK SMILES IDX 84 25 85 26 17 28 18 29 19 30 20 32 21 33 22 34 80 35 23 36
REMARK SMILES IDX 79 37 24 38 25 39 26 40 73 41 27 42 78 43 72 44 74 45 28 46
REMARK SMILES IDX 77 47 71 48 70 49 29 51 59 52 40 53 58 54 41 55 44 56 57 57
REMARK SMILES IDX 75 58 42 59 43 60 56 62 76 63 45 64 30 65 31 66 39 67 32 68
REMARK SMILES IDX 38 69 33 70 34 71 35 72 36 73 37 74 60 75 61 76 69 77 62 78
REMARK SMILES IDX 68 79 63 80 64 81 65 82 66 83 67 84 46 85 47 86 55 87 48 88
REMARK SMILES IDX 54 89 49 90 50 91 51 92 52 93 53 94
REMARK H PARENT 13 7 8 11 85 27 18 31 74 50 44 61
REMARK Flexibility Score: inf
ROOT
ATOM      1  C   UNL A   1      33.220  28.415  25.472  1.00  0.00     0.023 C 
ENDROOT
BRANCH   1   2
ATOM      2  C   UNL A   1      33.617  27.101  24.794  1.00  0.00     0.023 C 
BRANCH   2   3
ATOM      3  C   UNL A   1      32.460  26.167  24.449  1.00  0.00     0.116 C 
BRANCH   3   4
ATOM      4  N   UNL A   1      31.747  25.723  25.632  1.00  0.00    -0.354 N 
ATOM      5  C   UNL A   1      31.808  24.582  26.387  1.00  0.00     0.250 C 
ATOM      6  O   UNL A   1      30.901  24.491  27.225  1.00  0.00    -0.272 OA
ATOM      7  H   UNL A   1      31.087  26.376  25.959  1.00  0.00     0.163 HD
BRANCH   5   8
ATOM      8  C   UNL A   1      32.929  23.472  26.190  1.00  0.00     0.139 C 
ATOM      9  C   UNL A   1      33.070  22.616  27.475  1.00  0.00     0.051 C 
BRANCH   8  10
ATOM     10  N   UNL A   1      34.221  24.180  25.960  1.00  0.00    -0.368 N 
ATOM     11  H   UNL A   1      34.252  25.096  26.318  1.00  0.00     0.161 HD
BRANCH  10  12
ATOM     12  C   UNL A   1      35.386  23.772  25.330  1.00  0.00     0.038 A 
ATOM     13  C   UNL A   1      38.783  22.462  26.542  1.00  0.00     0.044 C 
ATOM     14  C   UNL A   1      37.641  22.813  25.638  1.00  0.00    -0.046 A 
ATOM     15  C   UNL A   1      37.675  22.461  24.291  1.00  0.00     0.042 A 
ATOM     16  C   UNL A   1      36.487  23.437  26.146  1.00  0.00     0.029 A 
ATOM     17  C   UNL A   1      36.624  22.835  23.466  1.00  0.00     0.125 A 
ATOM     18  F   UNL A   1      36.658  22.491  22.171  1.00  0.00    -0.207 F 
ATOM     19  C   UNL A   1      35.518  23.524  23.964  1.00  0.00     0.065 A 
ENDBRANCH  10  12
ENDBRANCH   8  10
BRANCH   8  20
ATOM     20  C   UNL A   1      32.609  22.401  25.104  1.00  0.00    -0.013 A 
ATOM     21  C   UNL A   1      32.721  21.023  25.390  1.00  0.00     0.010 A 
ATOM     22  C   UNL A   1      32.145  22.746  23.819  1.00  0.00     0.010 A 
ATOM     23  C   UNL A   1      32.551  20.055  24.397  1.00  0.00     0.046 A 
ATOM     24  C   UNL A   1      31.961  21.781  22.825  1.00  0.00     0.046 A 
ATOM     25  C   UNL A   1      32.202  20.446  23.114  1.00  0.00     0.115 A 
BRANCH  25  26
ATOM     26  O   UNL A   1      32.108  19.486  22.151  1.00  0.00    -0.508 OA
ATOM     27  H   UNL A   1      31.829  19.716  21.286  1.00  0.00     0.293 HD
ENDBRANCH  25  26
ENDBRANCH   8  20
ENDBRANCH   5   8
ENDBRANCH   3   4
ENDBRANCH   2   3
ENDBRANCH   1   2
BRANCH   1  28
ATOM     28  C   UNL A   1      33.632  28.559  26.934  1.00  0.00     0.116 C 
BRANCH  28  29
ATOM     29  N   UNL A   1      33.555  29.930  27.419  1.00  0.00    -0.352 N 
ATOM     30  C   UNL A   1      34.486  30.665  28.115  1.00  0.00     0.251 C 
ATOM     31  H   UNL A   1      32.714  30.400  27.218  1.00  0.00     0.163 HD
ATOM     32  O   UNL A   1      34.191  31.773  28.542  1.00  0.00    -0.269 OA
BRANCH  30  33
ATOM     33  C   UNL A   1      35.832  30.100  28.378  1.00  0.00     0.039 A 
ATOM     34  C   UNL A   1      36.786  30.135  27.358  1.00  0.00     0.014 A 
ATOM     35  C   UNL A   1      36.153  29.549  29.621  1.00  0.00     0.014 A 
ATOM     36  C   UNL A   1      38.087  29.688  27.610  1.00  0.00     0.010 A 
ATOM     37  C   UNL A   1      37.465  29.168  29.890  1.00  0.00     0.010 A 
ATOM     38  C   UNL A   1      38.448  29.238  28.891  1.00  0.00    -0.014 A 
BRANCH  38  39
ATOM     39  C   UNL A   1      39.849  28.854  29.210  1.00  0.00     0.031 A 
ATOM     40  C   UNL A   1      40.794  29.862  29.810  1.00  0.00     0.074 A 
ATOM     41  C   UNL A   1      40.296  27.624  28.882  1.00  0.00     0.049 A 
ATOM     42  N   UNL A   1      42.068  29.737  30.078  1.00  0.00    -0.248 NA
ATOM     43  C   UNL A   1      40.243  31.191  30.126  1.00  0.00     0.031 C 
ATOM     44  C   UNL A   1      39.497  26.573  28.243  1.00  0.00     0.029 A 
ATOM     45  N   UNL A   1      41.537  27.054  29.021  1.00  0.00    -0.354 N 
ATOM     46  C   UNL A   1      42.478  30.975  30.559  1.00  0.00     0.074 A 
ATOM     47  C   UNL A   1      41.325  31.847  30.521  1.00  0.00     0.031 C 
ATOM     48  C   UNL A   1      40.265  25.487  28.057  1.00  0.00     0.029 A 
ATOM     49  C   UNL A   1      41.617  25.772  28.527  1.00  0.00     0.049 A 
ATOM     50  H   UNL A   1      42.299  27.519  29.435  1.00  0.00     0.167 HD
ATOM     51  C   UNL A   1      43.702  31.348  31.004  1.00  0.00     0.031 A 
ATOM     52  C   UNL A   1      42.662  24.925  28.446  1.00  0.00     0.031 A 
ATOM     53  C   UNL A   1      44.837  30.468  31.079  1.00  0.00     0.049 A 
ATOM     54  C   UNL A   1      44.002  25.357  28.978  1.00  0.00     0.074 A 
ATOM     55  C   UNL A   1      46.091  30.731  31.606  1.00  0.00     0.029 A 
ATOM     56  N   UNL A   1      44.864  29.164  30.616  1.00  0.00    -0.354 N 
ATOM     57  N   UNL A   1      44.342  26.503  29.519  1.00  0.00    -0.248 NA
ATOM     58  C   UNL A   1      45.097  24.378  28.902  1.00  0.00     0.031 C 
ATOM     59  C   UNL A   1      46.890  29.600  31.416  1.00  0.00     0.029 A 
ATOM     60  C   UNL A   1      46.118  28.616  30.820  1.00  0.00     0.049 A 
ATOM     61  H   UNL A   1      44.102  28.695  30.202  1.00  0.00     0.167 HD
ATOM     62  C   UNL A   1      45.681  26.369  29.875  1.00  0.00     0.074 A 
ATOM     63  C   UNL A   1      46.083  25.029  29.502  1.00  0.00     0.031 C 
ATOM     64  C   UNL A   1      46.502  27.276  30.457  1.00  0.00     0.031 A 
BRANCH  51  65
ATOM     65  C   UNL A   1      43.889  32.774  31.450  1.00  0.00    -0.014 A 
ATOM     66  C   UNL A   1      43.712  33.145  32.794  1.00  0.00     0.010 A 
ATOM     67  C   UNL A   1      44.338  33.735  30.526  1.00  0.00     0.010 A 
ATOM     68  C   UNL A   1      43.961  34.459  33.202  1.00  0.00     0.020 A 
ATOM     69  C   UNL A   1      44.611  35.043  30.935  1.00  0.00     0.020 A 
ATOM     70  C   UNL A   1      44.411  35.398  32.271  1.00  0.00     0.054 A 
BRANCH  70  71
ATOM     71  S   UNL A   1      44.786  37.079  32.841  1.00  0.00     0.124 S 
ATOM     72  O   UNL A   1      43.450  37.619  33.083  1.00  0.00    -0.237 OA
ATOM     73  O   UNL A   1      45.591  36.840  34.036  1.00  0.00    -0.237 OA
ATOM     74  O   UNL A   1      45.505  37.676  31.718  1.00  0.00    -0.744 OA
ENDBRANCH  70  71
ENDBRANCH  51  65
BRANCH  52  75
ATOM     75  C   UNL A   1      42.494  23.580  27.831  1.00  0.00    -0.014 A 
ATOM     76  C   UNL A   1      42.106  22.477  28.611  1.00  0.00     0.010 A 
ATOM     77  C   UNL A   1      42.748  23.390  26.460  1.00  0.00     0.010 A 
ATOM     78  C   UNL A   1      42.013  21.203  28.042  1.00  0.00     0.020 A 
ATOM     79  C   UNL A   1      42.628  22.124  25.881  1.00  0.00     0.020 A 
ATOM     80  C   UNL A   1      42.280  21.034  26.682  1.00  0.00     0.054 A 
BRANCH  80  81
ATOM     81  S   UNL A   1      42.140  19.375  25.957  1.00  0.00     0.124 S 
ATOM     82  O   UNL A   1      40.703  19.265  25.734  1.00  0.00    -0.237 OA
ATOM     83  O   UNL A   1      42.962  19.484  24.754  1.00  0.00    -0.237 OA
ATOM     84  O   UNL A   1      42.684  18.504  26.996  1.00  0.00    -0.744 OA
ENDBRANCH  80  81
ENDBRANCH  52  75
BRANCH  64  85
ATOM     85  C   UNL A   1      47.908  26.842  30.773  1.00  0.00    -0.014 A 
ATOM     86  C   UNL A   1      48.953  27.025  29.851  1.00  0.00     0.010 A 
ATOM     87  C   UNL A   1      48.195  26.294  32.037  1.00  0.00     0.010 A 
ATOM     88  C   UNL A   1      50.257  26.641  30.178  1.00  0.00     0.020 A 
ATOM     89  C   UNL A   1      49.500  25.935  32.377  1.00  0.00     0.020 A 
ATOM     90  C   UNL A   1      50.522  26.097  31.439  1.00  0.00     0.054 A 
BRANCH  90  91
ATOM     91  S   UNL A   1      52.228  25.650  31.858  1.00  0.00     0.124 S 
ATOM     92  O   UNL A   1      52.494  26.510  33.007  1.00  0.00    -0.237 OA
ATOM     93  O   UNL A   1      52.126  24.222  32.150  1.00  0.00    -0.237 OA
ATOM     94  O   UNL A   1      52.979  25.979  30.647  1.00  0.00    -0.744 OA
ENDBRANCH  90  91
ENDBRANCH  64  85
ENDBRANCH  38  39
ENDBRANCH  30  33
ENDBRANCH  28  29
ENDBRANCH   1  28
TORSDOF 18
ENDMDL
