MODEL 1
REMARK VINA RESULT:     -10.3      0.000      0.000
REMARK SMILES Cc1cc(O[C@@H](C)C(=O)NCCCCNC(=O)c2ccc(-c3c4nc(c(-c5ccc(S(=O)(=O)[O-])cc5)c5ccc([nH]5)c(-c5ccc(S(=O)(=O)[O-])cc5)c5nc(c(-c6ccc(S(=O)(=O)[O-])cc6)c6ccc3[nH]6)C=C5)C=C4)cc2)n(C)n1
REMARK SMILES IDX 13 1 12 2 11 3 10 4 8 5 9 6 6 8 7 9 5 10 4 11 1 12 2 13 3 14
REMARK SMILES IDX 80 15 78 16 79 17 14 18 15 19 16 20 17 22 18 23 19 24 77 25
REMARK SMILES IDX 20 26 76 27 21 28 22 29 23 30 70 31 24 32 75 33 69 34 71 35
REMARK SMILES IDX 25 36 74 37 68 38 67 39 26 41 56 42 37 43 55 44 38 45 41 46
REMARK SMILES IDX 54 47 72 48 39 49 40 50 53 52 73 53 42 54 27 55 28 56 36 57
REMARK SMILES IDX 29 58 35 59 30 60 31 61 32 62 33 63 34 64 57 65 58 66 66 67
REMARK SMILES IDX 59 68 65 69 60 70 61 71 62 72 63 73 64 74 43 75 44 76 52 77
REMARK SMILES IDX 45 78 51 79 46 80 47 81 48 82 49 83 50 84
REMARK H PARENT 10 7 15 21 71 40 41 51
REMARK Flexibility Score: inf
ROOT
ATOM      1  C   UNL A   1      35.915  23.275  25.851  1.00  0.00     0.023 C 
ENDROOT
BRANCH   1   2
ATOM      2  C   UNL A   1      34.651  23.797  25.173  1.00  0.00     0.023 C 
BRANCH   2   3
ATOM      3  C   UNL A   1      34.187  25.169  25.661  1.00  0.00     0.116 C 
BRANCH   3   4
ATOM      4  N   UNL A   1      32.768  25.182  25.933  1.00  0.00    -0.353 N 
ATOM      5  C   UNL A   1      31.924  26.200  26.244  1.00  0.00     0.260 C 
ATOM      6  O   UNL A   1      30.757  25.880  26.512  1.00  0.00    -0.271 OA
ATOM      7  H   UNL A   1      32.337  24.298  25.883  1.00  0.00     0.163 HD
BRANCH   5   8
ATOM      8  C   UNL A   1      32.328  27.700  26.235  1.00  0.00     0.260 C 
ATOM      9  C   UNL A   1      31.682  28.527  27.343  1.00  0.00     0.064 C 
BRANCH   8  10
ATOM     10  O   UNL A   1      32.544  28.342  24.985  1.00  0.00    -0.465 OA
BRANCH  10  11
ATOM     11  C   UNL A   1      31.568  28.532  24.098  1.00  0.00     0.212 A 
ATOM     12  C   UNL A   1      28.486  29.437  22.312  1.00  0.00     0.069 C 
ATOM     13  C   UNL A   1      29.803  28.971  22.810  1.00  0.00     0.063 A 
ATOM     14  C   UNL A   1      30.512  29.408  23.956  1.00  0.00     0.093 A 
ATOM     15  N   UNL A   1      30.445  27.977  22.190  1.00  0.00    -0.175 NA
ATOM     16  N   UNL A   1      31.534  27.766  22.954  1.00  0.00    -0.237 N 
ATOM     17  C   UNL A   1      32.495  26.775  22.533  1.00  0.00     0.178 C 
ENDBRANCH  10  11
ENDBRANCH   8  10
ENDBRANCH   5   8
ENDBRANCH   3   4
ENDBRANCH   2   3
ENDBRANCH   1   2
BRANCH   1  18
ATOM     18  C   UNL A   1      37.201  23.449  25.047  1.00  0.00     0.116 C 
BRANCH  18  19
ATOM     19  N   UNL A   1      38.298  22.583  25.463  1.00  0.00    -0.352 N 
ATOM     20  C   UNL A   1      39.355  22.890  26.290  1.00  0.00     0.251 C 
ATOM     21  H   UNL A   1      38.279  21.664  25.111  1.00  0.00     0.163 HD
ATOM     22  O   UNL A   1      40.233  22.063  26.519  1.00  0.00    -0.269 OA
BRANCH  20  23
ATOM     23  C   UNL A   1      39.439  24.255  26.852  1.00  0.00     0.039 A 
ATOM     24  C   UNL A   1      38.938  24.493  28.133  1.00  0.00     0.014 A 
ATOM     25  C   UNL A   1      40.121  25.255  26.157  1.00  0.00     0.014 A 
ATOM     26  C   UNL A   1      39.215  25.709  28.762  1.00  0.00     0.010 A 
ATOM     27  C   UNL A   1      40.464  26.430  26.815  1.00  0.00     0.010 A 
ATOM     28  C   UNL A   1      40.029  26.663  28.131  1.00  0.00    -0.014 A 
BRANCH  28  29
ATOM     29  C   UNL A   1      40.474  27.898  28.826  1.00  0.00     0.031 A 
ATOM     30  C   UNL A   1      41.820  27.937  29.496  1.00  0.00     0.074 A 
ATOM     31  C   UNL A   1      39.623  28.935  28.959  1.00  0.00     0.049 A 
ATOM     32  N   UNL A   1      42.332  28.861  30.267  1.00  0.00    -0.248 NA
ATOM     33  C   UNL A   1      42.687  26.762  29.307  1.00  0.00     0.031 C 
ATOM     34  C   UNL A   1      38.263  28.996  28.416  1.00  0.00     0.029 A 
ATOM     35  N   UNL A   1      39.770  30.134  29.612  1.00  0.00    -0.354 N 
ATOM     36  C   UNL A   1      43.557  28.361  30.691  1.00  0.00     0.074 A 
ATOM     37  C   UNL A   1      43.694  27.038  30.120  1.00  0.00     0.031 C 
ATOM     38  C   UNL A   1      37.710  30.176  28.741  1.00  0.00     0.029 A 
ATOM     39  C   UNL A   1      38.658  30.940  29.545  1.00  0.00     0.049 A 
ATOM     40  H   UNL A   1      40.594  30.392  30.086  1.00  0.00     0.167 HD
ATOM     41  C   UNL A   1      44.493  28.955  31.470  1.00  0.00     0.031 A 
ATOM     42  C   UNL A   1      38.423  32.157  30.075  1.00  0.00     0.031 A 
ATOM     43  C   UNL A   1      44.371  30.285  32.001  1.00  0.00     0.049 A 
ATOM     44  C   UNL A   1      39.499  32.824  30.884  1.00  0.00     0.074 A 
ATOM     45  C   UNL A   1      45.296  31.010  32.731  1.00  0.00     0.029 A 
ATOM     46  N   UNL A   1      43.255  31.095  31.851  1.00  0.00    -0.354 N 
ATOM     47  N   UNL A   1      40.681  32.364  31.217  1.00  0.00    -0.248 NA
ATOM     48  C   UNL A   1      39.216  34.178  31.379  1.00  0.00     0.031 C 
ATOM     49  C   UNL A   1      44.727  32.248  33.050  1.00  0.00     0.029 A 
ATOM     50  C   UNL A   1      43.464  32.309  32.484  1.00  0.00     0.049 A 
ATOM     51  H   UNL A   1      42.436  30.845  31.366  1.00  0.00     0.167 HD
ATOM     52  C   UNL A   1      41.291  33.379  31.943  1.00  0.00     0.074 A 
ATOM     53  C   UNL A   1      40.352  34.483  31.991  1.00  0.00     0.031 C 
ATOM     54  C   UNL A   1      42.519  33.396  32.519  1.00  0.00     0.031 A 
BRANCH  41  55
ATOM     55  C   UNL A   1      45.727  28.156  31.794  1.00  0.00    -0.014 A 
ATOM     56  C   UNL A   1      46.811  28.098  30.900  1.00  0.00     0.010 A 
ATOM     57  C   UNL A   1      45.803  27.453  33.010  1.00  0.00     0.010 A 
ATOM     58  C   UNL A   1      47.923  27.303  31.187  1.00  0.00     0.020 A 
ATOM     59  C   UNL A   1      46.927  26.679  33.313  1.00  0.00     0.020 A 
ATOM     60  C   UNL A   1      47.969  26.590  32.388  1.00  0.00     0.054 A 
BRANCH  60  61
ATOM     61  S   UNL A   1      49.419  25.556  32.734  1.00  0.00     0.124 S 
ATOM     62  O   UNL A   1      50.278  26.484  33.467  1.00  0.00    -0.237 OA
ATOM     63  O   UNL A   1      48.857  24.464  33.523  1.00  0.00    -0.237 OA
ATOM     64  O   UNL A   1      49.899  25.179  31.407  1.00  0.00    -0.744 OA
ENDBRANCH  60  61
ENDBRANCH  41  55
BRANCH  42  65
ATOM     65  C   UNL A   1      37.120  32.829  29.827  1.00  0.00    -0.014 A 
ATOM     66  C   UNL A   1      36.170  32.937  30.858  1.00  0.00     0.010 A 
ATOM     67  C   UNL A   1      36.837  33.402  28.573  1.00  0.00     0.010 A 
ATOM     68  C   UNL A   1      34.959  33.600  30.640  1.00  0.00     0.020 A 
ATOM     69  C   UNL A   1      35.636  34.085  28.358  1.00  0.00     0.020 A 
ATOM     70  C   UNL A   1      34.701  34.173  29.392  1.00  0.00     0.054 A 
BRANCH  70  71
ATOM     71  S   UNL A   1      33.157  35.096  29.154  1.00  0.00     0.124 S 
ATOM     72  O   UNL A   1      32.492  34.315  28.115  1.00  0.00    -0.237 OA
ATOM     73  O   UNL A   1      32.544  35.038  30.479  1.00  0.00    -0.237 OA
ATOM     74  O   UNL A   1      33.614  36.423  28.747  1.00  0.00    -0.744 OA
ENDBRANCH  70  71
ENDBRANCH  42  65
BRANCH  54  75
ATOM     75  C   UNL A   1      42.932  34.655  33.228  1.00  0.00    -0.014 A 
ATOM     76  C   UNL A   1      42.722  34.811  34.608  1.00  0.00     0.010 A 
ATOM     77  C   UNL A   1      43.600  35.666  32.513  1.00  0.00     0.010 A 
ATOM     78  C   UNL A   1      43.155  35.968  35.260  1.00  0.00     0.020 A 
ATOM     79  C   UNL A   1      44.052  36.815  33.166  1.00  0.00     0.020 A 
ATOM     80  C   UNL A   1      43.817  36.964  34.534  1.00  0.00     0.054 A 
BRANCH  80  81
ATOM     81  S   UNL A   1      44.421  38.432  35.411  1.00  0.00     0.124 S 
ATOM     82  O   UNL A   1      43.894  38.219  36.757  1.00  0.00    -0.237 OA
ATOM     83  O   UNL A   1      45.871  38.316  35.277  1.00  0.00    -0.237 OA
ATOM     84  O   UNL A   1      43.821  39.543  34.675  1.00  0.00    -0.744 OA
ENDBRANCH  80  81
ENDBRANCH  54  75
ENDBRANCH  28  29
ENDBRANCH  20  23
ENDBRANCH  18  19
ENDBRANCH   1  18
TORSDOF 16
ENDMDL
MODEL 2
REMARK VINA RESULT:     -10.1      2.764      9.247
REMARK SMILES Cc1cc(O[C@@H](C)C(=O)NCCCCNC(=O)c2ccc(-c3c4nc(c(-c5ccc(S(=O)(=O)[O-])cc5)c5ccc([nH]5)c(-c5ccc(S(=O)(=O)[O-])cc5)c5nc(c(-c6ccc(S(=O)(=O)[O-])cc6)c6ccc3[nH]6)C=C5)C=C4)cc2)n(C)n1
REMARK SMILES IDX 13 1 12 2 11 3 10 4 8 5 9 6 6 8 7 9 5 10 4 11 1 12 2 13 3 14
REMARK SMILES IDX 80 15 78 16 79 17 14 18 15 19 16 20 17 22 18 23 19 24 77 25
REMARK SMILES IDX 20 26 76 27 21 28 22 29 23 30 70 31 24 32 75 33 69 34 71 35
REMARK SMILES IDX 25 36 74 37 68 38 67 39 26 41 56 42 37 43 55 44 38 45 41 46
REMARK SMILES IDX 54 47 72 48 39 49 40 50 53 52 73 53 42 54 27 55 28 56 36 57
REMARK SMILES IDX 29 58 35 59 30 60 31 61 32 62 33 63 34 64 57 65 58 66 66 67
REMARK SMILES IDX 59 68 65 69 60 70 61 71 62 72 63 73 64 74 43 75 44 76 52 77
REMARK SMILES IDX 45 78 51 79 46 80 47 81 48 82 49 83 50 84
REMARK H PARENT 10 7 15 21 71 40 41 51
REMARK Flexibility Score: inf
ROOT
ATOM      1  C   UNL A   1      33.015  27.927  27.175  1.00  0.00     0.023 C 
ENDROOT
BRANCH   1   2
ATOM      2  C   UNL A   1      32.691  26.799  26.199  1.00  0.00     0.023 C 
BRANCH   2   3
ATOM      3  C   UNL A   1      33.879  26.310  25.374  1.00  0.00     0.116 C 
BRANCH   3   4
ATOM      4  N   UNL A   1      33.447  25.638  24.170  1.00  0.00    -0.353 N 
ATOM      5  C   UNL A   1      32.887  26.116  23.028  1.00  0.00     0.260 C 
ATOM      6  O   UNL A   1      32.539  25.269  22.194  1.00  0.00    -0.271 OA
ATOM      7  H   UNL A   1      33.583  24.663  24.178  1.00  0.00     0.163 HD
BRANCH   5   8
ATOM      8  C   UNL A   1      32.711  27.627  22.711  1.00  0.00     0.260 C 
ATOM      9  C   UNL A   1      34.008  28.344  22.348  1.00  0.00     0.064 C 
BRANCH   8  10
ATOM     10  O   UNL A   1      31.738  28.368  23.435  1.00  0.00    -0.465 OA
BRANCH  10  11
ATOM     11  C   UNL A   1      30.619  28.823  22.874  1.00  0.00     0.212 A 
ATOM     12  C   UNL A   1      27.973  30.808  21.270  1.00  0.00     0.069 C 
ATOM     13  C   UNL A   1      28.871  29.816  21.910  1.00  0.00     0.063 A 
ATOM     14  C   UNL A   1      30.282  29.855  22.022  1.00  0.00     0.093 A 
ATOM     15  N   UNL A   1      28.362  28.750  22.533  1.00  0.00    -0.175 NA
ATOM     16  N   UNL A   1      29.440  28.136  23.060  1.00  0.00    -0.237 N 
ATOM     17  C   UNL A   1      29.251  26.893  23.768  1.00  0.00     0.178 C 
ENDBRANCH  10  11
ENDBRANCH   8  10
ENDBRANCH   5   8
ENDBRANCH   3   4
ENDBRANCH   2   3
ENDBRANCH   1   2
BRANCH   1  18
ATOM     18  C   UNL A   1      33.625  29.176  26.543  1.00  0.00     0.116 C 
BRANCH  18  19
ATOM     19  N   UNL A   1      33.533  30.377  27.365  1.00  0.00    -0.352 N 
ATOM     20  C   UNL A   1      34.472  30.885  28.235  1.00  0.00     0.251 C 
ATOM     21  H   UNL A   1      32.695  30.889  27.289  1.00  0.00     0.163 HD
ATOM     22  O   UNL A   1      34.235  31.890  28.897  1.00  0.00    -0.269 OA
BRANCH  20  23
ATOM     23  C   UNL A   1      35.751  30.161  28.394  1.00  0.00     0.039 A 
ATOM     24  C   UNL A   1      36.652  30.133  27.327  1.00  0.00     0.014 A 
ATOM     25  C   UNL A   1      36.099  29.622  29.634  1.00  0.00     0.014 A 
ATOM     26  C   UNL A   1      37.948  29.656  27.537  1.00  0.00     0.010 A 
ATOM     27  C   UNL A   1      37.411  29.225  29.860  1.00  0.00     0.010 A 
ATOM     28  C   UNL A   1      38.354  29.252  28.820  1.00  0.00    -0.014 A 
BRANCH  28  29
ATOM     29  C   UNL A   1      39.763  28.888  29.117  1.00  0.00     0.031 A 
ATOM     30  C   UNL A   1      40.703  29.921  29.674  1.00  0.00     0.074 A 
ATOM     31  C   UNL A   1      40.226  27.669  28.773  1.00  0.00     0.049 A 
ATOM     32  N   UNL A   1      41.994  29.843  29.870  1.00  0.00    -0.248 NA
ATOM     33  C   UNL A   1      40.120  31.229  30.018  1.00  0.00     0.031 C 
ATOM     34  C   UNL A   1      39.433  26.599  28.161  1.00  0.00     0.029 A 
ATOM     35  N   UNL A   1      41.485  27.130  28.873  1.00  0.00    -0.354 N 
ATOM     36  C   UNL A   1      42.384  31.100  30.314  1.00  0.00     0.074 A 
ATOM     37  C   UNL A   1      41.199  31.931  30.324  1.00  0.00     0.031 C 
ATOM     38  C   UNL A   1      40.219  25.528  27.959  1.00  0.00     0.029 A 
ATOM     39  C   UNL A   1      41.576  25.845  28.391  1.00  0.00     0.049 A 
ATOM     40  H   UNL A   1      42.251  27.618  29.253  1.00  0.00     0.167 HD
ATOM     41  C   UNL A   1      43.613  31.523  30.696  1.00  0.00     0.031 A 
ATOM     42  C   UNL A   1      42.634  25.016  28.299  1.00  0.00     0.031 A 
ATOM     43  C   UNL A   1      44.779  30.682  30.723  1.00  0.00     0.049 A 
ATOM     44  C   UNL A   1      43.977  25.482  28.787  1.00  0.00     0.074 A 
ATOM     45  C   UNL A   1      46.052  30.989  31.171  1.00  0.00     0.029 A 
ATOM     46  N   UNL A   1      44.813  29.365  30.290  1.00  0.00    -0.354 N 
ATOM     47  N   UNL A   1      44.312  26.655  29.271  1.00  0.00    -0.248 NA
ATOM     48  C   UNL A   1      45.079  24.514  28.730  1.00  0.00     0.031 C 
ATOM     49  C   UNL A   1      46.864  29.865  30.981  1.00  0.00     0.029 A 
ATOM     50  C   UNL A   1      46.087  28.848  30.451  1.00  0.00     0.049 A 
ATOM     51  H   UNL A   1      44.046  28.871  29.923  1.00  0.00     0.167 HD
ATOM     52  C   UNL A   1      45.660  26.558  29.593  1.00  0.00     0.074 A 
ATOM     53  C   UNL A   1      46.075  25.209  29.262  1.00  0.00     0.031 C 
ATOM     54  C   UNL A   1      46.480  27.502  30.118  1.00  0.00     0.031 A 
BRANCH  41  55
ATOM     55  C   UNL A   1      43.749  32.964  31.108  1.00  0.00    -0.014 A 
ATOM     56  C   UNL A   1      44.052  33.964  30.167  1.00  0.00     0.010 A 
ATOM     57  C   UNL A   1      43.571  33.323  32.456  1.00  0.00     0.010 A 
ATOM     58  C   UNL A   1      44.235  35.287  30.575  1.00  0.00     0.020 A 
ATOM     59  C   UNL A   1      43.725  34.651  32.864  1.00  0.00     0.020 A 
ATOM     60  C   UNL A   1      44.081  35.620  31.923  1.00  0.00     0.054 A 
BRANCH  60  61
ATOM     61  S   UNL A   1      44.334  37.343  32.431  1.00  0.00     0.124 S 
ATOM     62  O   UNL A   1      43.365  37.480  33.516  1.00  0.00    -0.237 OA
ATOM     63  O   UNL A   1      45.737  37.359  32.836  1.00  0.00    -0.237 OA
ATOM     64  O   UNL A   1      44.030  38.107  31.223  1.00  0.00    -0.744 OA
ENDBRANCH  60  61
ENDBRANCH  41  55
BRANCH  42  65
ATOM     65  C   UNL A   1      42.451  23.646  27.748  1.00  0.00    -0.014 A 
ATOM     66  C   UNL A   1      42.561  23.418  26.365  1.00  0.00     0.010 A 
ATOM     67  C   UNL A   1      42.208  22.557  28.605  1.00  0.00     0.010 A 
ATOM     68  C   UNL A   1      42.426  22.127  25.846  1.00  0.00     0.020 A 
ATOM     69  C   UNL A   1      42.094  21.261  28.091  1.00  0.00     0.020 A 
ATOM     70  C   UNL A   1      42.196  21.056  26.714  1.00  0.00     0.054 A 
BRANCH  70  71
ATOM     71  S   UNL A   1      42.102  19.378  26.028  1.00  0.00     0.124 S 
ATOM     72  O   UNL A   1      42.597  18.568  27.137  1.00  0.00    -0.237 OA
ATOM     73  O   UNL A   1      40.680  19.237  25.726  1.00  0.00    -0.237 OA
ATOM     74  O   UNL A   1      42.975  19.440  24.858  1.00  0.00    -0.744 OA
ENDBRANCH  70  71
ENDBRANCH  42  65
BRANCH  54  75
ATOM     75  C   UNL A   1      47.903  27.105  30.392  1.00  0.00    -0.014 A 
ATOM     76  C   UNL A   1      48.919  27.354  29.453  1.00  0.00     0.010 A 
ATOM     77  C   UNL A   1      48.238  26.536  31.634  1.00  0.00     0.010 A 
ATOM     78  C   UNL A   1      50.244  27.021  29.744  1.00  0.00     0.020 A 
ATOM     79  C   UNL A   1      49.564  26.221  31.936  1.00  0.00     0.020 A 
ATOM     80  C   UNL A   1      50.558  26.455  30.984  1.00  0.00     0.054 A 
BRANCH  80  81
ATOM     81  S   UNL A   1      52.293  26.084  31.363  1.00  0.00     0.124 S 
ATOM     82  O   UNL A   1      52.660  27.203  32.226  1.00  0.00    -0.237 OA
ATOM     83  O   UNL A   1      52.209  24.782  32.021  1.00  0.00    -0.237 OA
ATOM     84  O   UNL A   1      52.936  26.071  30.051  1.00  0.00    -0.744 OA
ENDBRANCH  80  81
ENDBRANCH  54  75
ENDBRANCH  28  29
ENDBRANCH  20  23
ENDBRANCH  18  19
ENDBRANCH   1  18
TORSDOF 16
ENDMDL
MODEL 3
REMARK VINA RESULT:     -10.1      3.002      9.704
REMARK SMILES Cc1cc(O[C@@H](C)C(=O)NCCCCNC(=O)c2ccc(-c3c4nc(c(-c5ccc(S(=O)(=O)[O-])cc5)c5ccc([nH]5)c(-c5ccc(S(=O)(=O)[O-])cc5)c5nc(c(-c6ccc(S(=O)(=O)[O-])cc6)c6ccc3[nH]6)C=C5)C=C4)cc2)n(C)n1
REMARK SMILES IDX 13 1 12 2 11 3 10 4 8 5 9 6 6 8 7 9 5 10 4 11 1 12 2 13 3 14
REMARK SMILES IDX 80 15 78 16 79 17 14 18 15 19 16 20 17 22 18 23 19 24 77 25
REMARK SMILES IDX 20 26 76 27 21 28 22 29 23 30 70 31 24 32 75 33 69 34 71 35
REMARK SMILES IDX 25 36 74 37 68 38 67 39 26 41 56 42 37 43 55 44 38 45 41 46
REMARK SMILES IDX 54 47 72 48 39 49 40 50 53 52 73 53 42 54 27 55 28 56 36 57
REMARK SMILES IDX 29 58 35 59 30 60 31 61 32 62 33 63 34 64 57 65 58 66 66 67
REMARK SMILES IDX 59 68 65 69 60 70 61 71 62 72 63 73 64 74 43 75 44 76 52 77
REMARK SMILES IDX 45 78 51 79 46 80 47 81 48 82 49 83 50 84
REMARK H PARENT 10 7 15 21 71 40 41 51
REMARK Flexibility Score: inf
ROOT
ATOM      1  C   UNL A   1      32.504  28.210  27.115  1.00  0.00     0.023 C 
ENDROOT
BRANCH   1   2
ATOM      2  C   UNL A   1      32.340  27.063  26.121  1.00  0.00     0.023 C 
BRANCH   2   3
ATOM      3  C   UNL A   1      33.617  26.270  25.848  1.00  0.00     0.116 C 
BRANCH   3   4
ATOM      4  N   UNL A   1      33.849  26.112  24.430  1.00  0.00    -0.353 N 
ATOM      5  C   UNL A   1      33.558  25.092  23.581  1.00  0.00     0.260 C 
ATOM      6  O   UNL A   1      33.969  25.216  22.419  1.00  0.00    -0.271 OA
ATOM      7  H   UNL A   1      34.297  26.880  24.005  1.00  0.00     0.163 HD
BRANCH   5   8
ATOM      8  C   UNL A   1      32.724  23.843  23.975  1.00  0.00     0.260 C 
ATOM      9  C   UNL A   1      31.220  24.095  24.049  1.00  0.00     0.064 C 
BRANCH   8  10
ATOM     10  O   UNL A   1      33.275  22.917  24.904  1.00  0.00    -0.465 OA
BRANCH  10  11
ATOM     11  C   UNL A   1      33.290  21.604  24.683  1.00  0.00     0.212 A 
ATOM     12  C   UNL A   1      32.482  18.064  24.111  1.00  0.00     0.069 C 
ATOM     13  C   UNL A   1      33.052  19.417  24.322  1.00  0.00     0.063 A 
ATOM     14  C   UNL A   1      32.410  20.671  24.174  1.00  0.00     0.093 A 
ATOM     15  N   UNL A   1      34.305  19.560  24.760  1.00  0.00    -0.175 NA
ATOM     16  N   UNL A   1      34.445  20.891  24.919  1.00  0.00    -0.237 N 
ATOM     17  C   UNL A   1      35.725  21.407  25.339  1.00  0.00     0.178 C 
ENDBRANCH  10  11
ENDBRANCH   8  10
ENDBRANCH   5   8
ENDBRANCH   3   4
ENDBRANCH   2   3
ENDBRANCH   1   2
BRANCH   1  18
ATOM     18  C   UNL A   1      33.750  29.069  26.915  1.00  0.00     0.116 C 
BRANCH  18  19
ATOM     19  N   UNL A   1      33.731  30.339  27.632  1.00  0.00    -0.352 N 
ATOM     20  C   UNL A   1      34.734  30.901  28.390  1.00  0.00     0.251 C 
ATOM     21  H   UNL A   1      32.898  30.859  27.564  1.00  0.00     0.163 HD
ATOM     22  O   UNL A   1      34.556  31.965  28.974  1.00  0.00    -0.269 OA
BRANCH  20  23
ATOM     23  C   UNL A   1      36.009  30.167  28.530  1.00  0.00     0.039 A 
ATOM     24  C   UNL A   1      36.931  30.203  27.481  1.00  0.00     0.014 A 
ATOM     25  C   UNL A   1      36.333  29.553  29.741  1.00  0.00     0.014 A 
ATOM     26  C   UNL A   1      38.223  29.712  27.687  1.00  0.00     0.010 A 
ATOM     27  C   UNL A   1      37.640  29.141  29.968  1.00  0.00     0.010 A 
ATOM     28  C   UNL A   1      38.604  29.231  28.950  1.00  0.00    -0.014 A 
BRANCH  28  29
ATOM     29  C   UNL A   1      40.006  28.847  29.252  1.00  0.00     0.031 A 
ATOM     30  C   UNL A   1      40.946  29.856  29.853  1.00  0.00     0.074 A 
ATOM     31  C   UNL A   1      40.465  27.637  28.876  1.00  0.00     0.049 A 
ATOM     32  N   UNL A   1      42.234  29.763  30.061  1.00  0.00    -0.248 NA
ATOM     33  C   UNL A   1      40.368  31.156  30.231  1.00  0.00     0.031 C 
ATOM     34  C   UNL A   1      39.673  26.592  28.220  1.00  0.00     0.029 A 
ATOM     35  N   UNL A   1      41.719  27.086  28.973  1.00  0.00    -0.354 N 
ATOM     36  C   UNL A   1      42.627  31.002  30.550  1.00  0.00     0.074 A 
ATOM     37  C   UNL A   1      41.448  31.841  30.573  1.00  0.00     0.031 C 
ATOM     38  C   UNL A   1      40.454  25.523  27.993  1.00  0.00     0.029 A 
ATOM     39  C   UNL A   1      41.808  25.817  28.451  1.00  0.00     0.049 A 
ATOM     40  H   UNL A   1      42.484  27.556  29.377  1.00  0.00     0.167 HD
ATOM     41  C   UNL A   1      43.855  31.403  30.959  1.00  0.00     0.031 A 
ATOM     42  C   UNL A   1      42.861  24.983  28.346  1.00  0.00     0.031 A 
ATOM     43  C   UNL A   1      45.015  30.554  30.973  1.00  0.00     0.049 A 
ATOM     44  C   UNL A   1      44.201  25.424  28.864  1.00  0.00     0.074 A 
ATOM     45  C   UNL A   1      46.284  30.838  31.446  1.00  0.00     0.029 A 
ATOM     46  N   UNL A   1      45.045  29.251  30.499  1.00  0.00    -0.354 N 
ATOM     47  N   UNL A   1      44.538  26.578  29.388  1.00  0.00    -0.248 NA
ATOM     48  C   UNL A   1      45.297  24.450  28.789  1.00  0.00     0.031 C 
ATOM     49  C   UNL A   1      47.091  29.715  31.230  1.00  0.00     0.029 A 
ATOM     50  C   UNL A   1      46.313  28.720  30.659  1.00  0.00     0.049 A 
ATOM     51  H   UNL A   1      44.279  28.774  30.108  1.00  0.00     0.167 HD
ATOM     52  C   UNL A   1      45.881  26.461  29.724  1.00  0.00     0.074 A 
ATOM     53  C   UNL A   1      46.291  25.121  29.355  1.00  0.00     0.031 C 
ATOM     54  C   UNL A   1      46.702  27.383  30.287  1.00  0.00     0.031 A 
BRANCH  41  55
ATOM     55  C   UNL A   1      43.995  32.830  31.419  1.00  0.00    -0.014 A 
ATOM     56  C   UNL A   1      43.736  33.192  32.754  1.00  0.00     0.010 A 
ATOM     57  C   UNL A   1      44.391  33.822  30.505  1.00  0.00     0.010 A 
ATOM     58  C   UNL A   1      43.810  34.529  33.151  1.00  0.00     0.020 A 
ATOM     59  C   UNL A   1      44.495  35.157  30.906  1.00  0.00     0.020 A 
ATOM     60  C   UNL A   1      44.179  35.505  32.221  1.00  0.00     0.054 A 
BRANCH  60  61
ATOM     61  S   UNL A   1      44.260  37.236  32.757  1.00  0.00     0.124 S 
ATOM     62  O   UNL A   1      45.452  37.231  33.603  1.00  0.00    -0.237 OA
ATOM     63  O   UNL A   1      44.388  37.960  31.496  1.00  0.00    -0.237 OA
ATOM     64  O   UNL A   1      42.996  37.438  33.463  1.00  0.00    -0.744 OA
ENDBRANCH  60  61
ENDBRANCH  41  55
BRANCH  42  65
ATOM     65  C   UNL A   1      42.676  23.633  27.750  1.00  0.00    -0.014 A 
ATOM     66  C   UNL A   1      42.952  23.415  26.388  1.00  0.00     0.010 A 
ATOM     67  C   UNL A   1      42.262  22.549  28.546  1.00  0.00     0.010 A 
ATOM     68  C   UNL A   1      42.814  22.141  25.831  1.00  0.00     0.020 A 
ATOM     69  C   UNL A   1      42.144  21.268  27.997  1.00  0.00     0.020 A 
ATOM     70  C   UNL A   1      42.414  21.074  26.641  1.00  0.00     0.054 A 
BRANCH  70  71
ATOM     71  S   UNL A   1      42.317  19.413  25.916  1.00  0.00     0.124 S 
ATOM     72  O   UNL A   1      43.132  19.558  24.713  1.00  0.00    -0.237 OA
ATOM     73  O   UNL A   1      42.884  18.573  26.968  1.00  0.00    -0.237 OA
ATOM     74  O   UNL A   1      40.886  19.226  25.685  1.00  0.00    -0.744 OA
ENDBRANCH  70  71
ENDBRANCH  42  65
BRANCH  54  75
ATOM     75  C   UNL A   1      48.119  26.967  30.566  1.00  0.00    -0.014 A 
ATOM     76  C   UNL A   1      49.145  27.230  29.643  1.00  0.00     0.010 A 
ATOM     77  C   UNL A   1      48.436  26.365  31.797  1.00  0.00     0.010 A 
ATOM     78  C   UNL A   1      50.465  26.879  29.939  1.00  0.00     0.020 A 
ATOM     79  C   UNL A   1      49.757  26.032  32.104  1.00  0.00     0.020 A 
ATOM     80  C   UNL A   1      50.762  26.281  31.168  1.00  0.00     0.054 A 
BRANCH  80  81
ATOM     81  S   UNL A   1      52.490  25.886  31.554  1.00  0.00     0.124 S 
ATOM     82  O   UNL A   1      52.853  26.972  32.461  1.00  0.00    -0.237 OA
ATOM     83  O   UNL A   1      52.391  24.562  32.164  1.00  0.00    -0.237 OA
ATOM     84  O   UNL A   1      53.149  25.916  30.250  1.00  0.00    -0.744 OA
ENDBRANCH  80  81
ENDBRANCH  54  75
ENDBRANCH  28  29
ENDBRANCH  20  23
ENDBRANCH  18  19
ENDBRANCH   1  18
TORSDOF 16
ENDMDL
