MODEL 1
REMARK VINA RESULT:     -11.2      0.000      0.000
REMARK SMILES C[C@H](CN(Cc1ccccc1)C(=O)c1cc2ccccc2oc1=O)C(=O)NCCCCNC(=O)c1ccc(-c2c3nc(c(-c4ccc(S(=O)(=O)[O-])cc4)c4ccc([nH]4)c(-c4ccc(S(=O)(=O)[O-])cc4)c4nc(c(-c5ccc(S(=O)(=O)[O-])cc5)c5ccc2[nH]5)C=C4)C=C3)cc1
REMARK SMILES IDX 29 1 28 2 27 3 25 4 26 5 2 7 1 8 3 9 4 10 5 11 6 12 7 13
REMARK SMILES IDX 11 14 8 15 10 16 9 17 12 18 13 19 14 20 15 21 23 22 16 23
REMARK SMILES IDX 22 24 24 25 17 26 21 27 18 28 20 29 19 30 30 31 31 32 32 33
REMARK SMILES IDX 33 34 34 36 35 37 36 38 94 39 37 40 93 41 38 42 39 43 40 44
REMARK SMILES IDX 87 45 41 46 92 47 86 48 88 49 42 50 91 51 85 52 84 53 43 55
REMARK SMILES IDX 73 56 54 57 72 58 55 59 58 60 71 61 89 62 56 63 57 64 70 66
REMARK SMILES IDX 90 67 59 68 44 69 45 70 53 71 46 72 52 73 47 74 48 75 49 76
REMARK SMILES IDX 50 77 51 78 74 79 75 80 83 81 76 82 82 83 77 84 78 85 79 86
REMARK SMILES IDX 80 87 81 88 60 89 61 90 69 91 62 92 68 93 63 94 64 95 65 96
REMARK SMILES IDX 66 97 67 98
REMARK H PARENT 27 6 32 35 88 54 58 65
REMARK Flexibility Score: inf
ROOT
ATOM      1  C   UNL A   1      36.274  22.135  23.696  1.00  0.00     0.023 C 
ENDROOT
BRANCH   1   2
ATOM      2  C   UNL A   1      34.743  22.192  23.619  1.00  0.00     0.116 C 
BRANCH   2   3
ATOM      3  N   UNL A   1      34.144  21.162  24.450  1.00  0.00    -0.356 N 
ATOM      4  C   UNL A   1      33.655  21.164  25.716  1.00  0.00     0.224 C 
ATOM      5  O   UNL A   1      33.292  20.068  26.160  1.00  0.00    -0.275 OA
ATOM      6  H   UNL A   1      34.081  20.286  24.006  1.00  0.00     0.163 HD
BRANCH   4   7
ATOM      7  C   UNL A   1      33.405  22.425  26.552  1.00  0.00     0.095 C 
ATOM      8  C   UNL A   1      33.757  22.112  28.001  1.00  0.00     0.020 C 
BRANCH   7   9
ATOM      9  C   UNL A   1      32.104  23.223  26.267  1.00  0.00     0.133 C 
BRANCH   9  10
ATOM     10  N   UNL A   1      32.159  24.200  25.158  1.00  0.00    -0.333 N 
BRANCH  10  11
ATOM     11  C   UNL A   1      33.252  25.186  25.140  1.00  0.00     0.155 C 
BRANCH  11  12
ATOM     12  C   UNL A   1      32.951  26.482  25.884  1.00  0.00    -0.029 A 
ATOM     13  C   UNL A   1      31.731  26.678  26.544  1.00  0.00     0.005 A 
ATOM     14  C   UNL A   1      33.881  27.538  25.901  1.00  0.00     0.005 A 
ATOM     15  C   UNL A   1      31.473  27.876  27.226  1.00  0.00     0.000 A 
ATOM     16  C   UNL A   1      33.644  28.713  26.615  1.00  0.00     0.000 A 
ATOM     17  C   UNL A   1      32.436  28.884  27.276  1.00  0.00     0.000 A 
ENDBRANCH  11  12
ENDBRANCH  10  11
BRANCH  10  18
ATOM     18  C   UNL A   1      31.708  23.794  23.915  1.00  0.00     0.261 C 
ATOM     19  O   UNL A   1      31.288  22.652  23.728  1.00  0.00    -0.269 OA
BRANCH  18  20
ATOM     20  C   UNL A   1      31.513  24.850  22.882  1.00  0.00     0.126 A 
ATOM     21  C   UNL A   1      30.459  25.648  23.127  1.00  0.00     0.033 A 
ATOM     22  C   UNL A   1      32.558  25.288  21.943  1.00  0.00     0.349 A 
ATOM     23  C   UNL A   1      30.696  27.082  23.023  1.00  0.00     0.018 A 
ATOM     24  O   UNL A   1      32.816  26.655  21.924  1.00  0.00    -0.422 OA
ATOM     25  O   UNL A   1      33.187  24.506  21.238  1.00  0.00    -0.246 OA
ATOM     26  C   UNL A   1      29.830  27.975  23.651  1.00  0.00     0.012 A 
ATOM     27  C   UNL A   1      31.946  27.526  22.601  1.00  0.00     0.138 A 
ATOM     28  C   UNL A   1      30.263  29.271  23.934  1.00  0.00     0.001 A 
ATOM     29  C   UNL A   1      32.391  28.812  22.880  1.00  0.00     0.048 A 
ATOM     30  C   UNL A   1      31.551  29.678  23.577  1.00  0.00     0.004 A 
ENDBRANCH  18  20
ENDBRANCH  10  18
ENDBRANCH   9  10
ENDBRANCH   7   9
ENDBRANCH   4   7
ENDBRANCH   2   3
ENDBRANCH   1   2
BRANCH   1  31
ATOM     31  C   UNL A   1      36.936  23.252  24.504  1.00  0.00     0.023 C 
BRANCH  31  32
ATOM     32  C   UNL A   1      37.467  22.875  25.883  1.00  0.00     0.116 C 
BRANCH  32  33
ATOM     33  N   UNL A   1      38.816  22.329  25.906  1.00  0.00    -0.352 N 
ATOM     34  C   UNL A   1      39.966  22.952  26.357  1.00  0.00     0.251 C 
ATOM     35  H   UNL A   1      38.923  21.414  25.561  1.00  0.00     0.163 HD
ATOM     36  O   UNL A   1      41.053  22.386  26.301  1.00  0.00    -0.269 OA
BRANCH  34  37
ATOM     37  C   UNL A   1      39.880  24.336  26.889  1.00  0.00     0.039 A 
ATOM     38  C   UNL A   1      39.335  24.556  28.155  1.00  0.00     0.014 A 
ATOM     39  C   UNL A   1      40.428  25.402  26.172  1.00  0.00     0.014 A 
ATOM     40  C   UNL A   1      39.465  25.817  28.750  1.00  0.00     0.010 A 
ATOM     41  C   UNL A   1      40.614  26.636  26.786  1.00  0.00     0.010 A 
ATOM     42  C   UNL A   1      40.176  26.843  28.100  1.00  0.00    -0.014 A 
BRANCH  42  43
ATOM     43  C   UNL A   1      40.621  28.062  28.827  1.00  0.00     0.031 A 
ATOM     44  C   UNL A   1      41.973  28.146  29.478  1.00  0.00     0.074 A 
ATOM     45  C   UNL A   1      39.724  29.052  29.018  1.00  0.00     0.049 A 
ATOM     46  N   UNL A   1      42.484  29.125  30.182  1.00  0.00    -0.248 NA
ATOM     47  C   UNL A   1      42.847  26.969  29.365  1.00  0.00     0.031 C 
ATOM     48  C   UNL A   1      38.333  29.037  28.553  1.00  0.00     0.029 A 
ATOM     49  N   UNL A   1      39.840  30.259  29.661  1.00  0.00    -0.354 N 
ATOM     50  C   UNL A   1      43.726  28.676  30.615  1.00  0.00     0.074 A 
ATOM     51  C   UNL A   1      43.873  27.320  30.129  1.00  0.00     0.031 C 
ATOM     52  C   UNL A   1      37.744  30.198  28.878  1.00  0.00     0.029 A 
ATOM     53  C   UNL A   1      38.702  31.026  29.600  1.00  0.00     0.049 A 
ATOM     54  H   UNL A   1      40.662  30.547  30.122  1.00  0.00     0.167 HD
ATOM     55  C   UNL A   1      44.664  29.338  31.336  1.00  0.00     0.031 A 
ATOM     56  C   UNL A   1      38.454  32.269  30.056  1.00  0.00     0.031 A 
ATOM     57  C   UNL A   1      44.525  30.696  31.794  1.00  0.00     0.049 A 
ATOM     58  C   UNL A   1      39.546  33.023  30.755  1.00  0.00     0.074 A 
ATOM     59  C   UNL A   1      45.455  31.483  32.453  1.00  0.00     0.029 A 
ATOM     60  N   UNL A   1      43.387  31.472  31.639  1.00  0.00    -0.354 N 
ATOM     61  N   UNL A   1      40.754  32.618  31.063  1.00  0.00    -0.248 NA
ATOM     62  C   UNL A   1      39.249  34.407  31.148  1.00  0.00     0.031 C 
ATOM     63  C   UNL A   1      44.868  32.727  32.717  1.00  0.00     0.029 A 
ATOM     64  C   UNL A   1      43.587  32.725  32.191  1.00  0.00     0.049 A 
ATOM     65  H   UNL A   1      42.557  31.174  31.199  1.00  0.00     0.167 HD
ATOM     66  C   UNL A   1      41.369  33.704  31.673  1.00  0.00     0.074 A 
ATOM     67  C   UNL A   1      40.406  34.787  31.675  1.00  0.00     0.031 C 
ATOM     68  C   UNL A   1      42.619  33.792  32.189  1.00  0.00     0.031 A 
BRANCH  55  69
ATOM     69  C   UNL A   1      45.938  28.602  31.659  1.00  0.00    -0.014 A 
ATOM     70  C   UNL A   1      46.056  27.850  32.842  1.00  0.00     0.010 A 
ATOM     71  C   UNL A   1      47.016  28.629  30.755  1.00  0.00     0.010 A 
ATOM     72  C   UNL A   1      47.245  27.181  33.140  1.00  0.00     0.020 A 
ATOM     73  C   UNL A   1      48.199  27.939  31.039  1.00  0.00     0.020 A 
ATOM     74  C   UNL A   1      48.313  27.237  32.241  1.00  0.00     0.054 A 
BRANCH  74  75
ATOM     75  S   UNL A   1      49.846  26.354  32.648  1.00  0.00     0.124 S 
ATOM     76  O   UNL A   1      49.722  26.193  34.094  1.00  0.00    -0.237 OA
ATOM     77  O   UNL A   1      49.727  25.124  31.868  1.00  0.00    -0.237 OA
ATOM     78  O   UNL A   1      50.896  27.267  32.209  1.00  0.00    -0.744 OA
ENDBRANCH  74  75
ENDBRANCH  55  69
BRANCH  56  79
ATOM     79  C   UNL A   1      37.132  32.895  29.795  1.00  0.00    -0.014 A 
ATOM     80  C   UNL A   1      36.228  33.092  30.854  1.00  0.00     0.010 A 
ATOM     81  C   UNL A   1      36.790  33.343  28.507  1.00  0.00     0.010 A 
ATOM     82  C   UNL A   1      35.000  33.716  30.628  1.00  0.00     0.020 A 
ATOM     83  C   UNL A   1      35.570  33.986  28.283  1.00  0.00     0.020 A 
ATOM     84  C   UNL A   1      34.678  34.160  29.343  1.00  0.00     0.054 A 
BRANCH  84  85
ATOM     85  S   UNL A   1      33.108  35.032  29.084  1.00  0.00     0.124 S 
ATOM     86  O   UNL A   1      32.477  34.217  28.052  1.00  0.00    -0.237 OA
ATOM     87  O   UNL A   1      32.488  34.973  30.406  1.00  0.00    -0.237 OA
ATOM     88  O   UNL A   1      33.528  36.367  28.663  1.00  0.00    -0.744 OA
ENDBRANCH  84  85
ENDBRANCH  56  79
BRANCH  68  89
ATOM     89  C   UNL A   1      43.023  35.112  32.782  1.00  0.00    -0.014 A 
ATOM     90  C   UNL A   1      42.780  35.401  34.136  1.00  0.00     0.010 A 
ATOM     91  C   UNL A   1      43.693  36.057  31.985  1.00  0.00     0.010 A 
ATOM     92  C   UNL A   1      43.174  36.628  34.676  1.00  0.00     0.020 A 
ATOM     93  C   UNL A   1      44.106  37.276  32.527  1.00  0.00     0.020 A 
ATOM     94  C   UNL A   1      43.832  37.560  33.867  1.00  0.00     0.054 A 
BRANCH  94  95
ATOM     95  S   UNL A   1      44.374  39.129  34.599  1.00  0.00     0.124 S 
ATOM     96  O   UNL A   1      45.689  39.308  33.989  1.00  0.00    -0.237 OA
ATOM     97  O   UNL A   1      43.343  40.065  34.157  1.00  0.00    -0.237 OA
ATOM     98  O   UNL A   1      44.383  38.854  36.034  1.00  0.00    -0.744 OA
ENDBRANCH  94  95
ENDBRANCH  68  89
ENDBRANCH  42  43
ENDBRANCH  34  37
ENDBRANCH  32  33
ENDBRANCH  31  32
ENDBRANCH   1  31
TORSDOF 20
ENDMDL
MODEL 2
REMARK VINA RESULT:     -11.0      3.194      3.983
REMARK SMILES C[C@H](CN(Cc1ccccc1)C(=O)c1cc2ccccc2oc1=O)C(=O)NCCCCNC(=O)c1ccc(-c2c3nc(c(-c4ccc(S(=O)(=O)[O-])cc4)c4ccc([nH]4)c(-c4ccc(S(=O)(=O)[O-])cc4)c4nc(c(-c5ccc(S(=O)(=O)[O-])cc5)c5ccc2[nH]5)C=C4)C=C3)cc1
REMARK SMILES IDX 29 1 28 2 27 3 25 4 26 5 2 7 1 8 3 9 4 10 5 11 6 12 7 13
REMARK SMILES IDX 11 14 8 15 10 16 9 17 12 18 13 19 14 20 15 21 23 22 16 23
REMARK SMILES IDX 22 24 24 25 17 26 21 27 18 28 20 29 19 30 30 31 31 32 32 33
REMARK SMILES IDX 33 34 34 36 35 37 36 38 94 39 37 40 93 41 38 42 39 43 40 44
REMARK SMILES IDX 87 45 41 46 92 47 86 48 88 49 42 50 91 51 85 52 84 53 43 55
REMARK SMILES IDX 73 56 54 57 72 58 55 59 58 60 71 61 89 62 56 63 57 64 70 66
REMARK SMILES IDX 90 67 59 68 44 69 45 70 53 71 46 72 52 73 47 74 48 75 49 76
REMARK SMILES IDX 50 77 51 78 74 79 75 80 83 81 76 82 82 83 77 84 78 85 79 86
REMARK SMILES IDX 80 87 81 88 60 89 61 90 69 91 62 92 68 93 63 94 64 95 65 96
REMARK SMILES IDX 66 97 67 98
REMARK H PARENT 27 6 32 35 88 54 58 65
REMARK Flexibility Score: inf
ROOT
ATOM      1  C   UNL A   1      39.177  22.102  26.199  1.00  0.00     0.023 C 
ENDROOT
BRANCH   1   2
ATOM      2  C   UNL A   1      37.876  22.845  25.868  1.00  0.00     0.116 C 
BRANCH   2   3
ATOM      3  N   UNL A   1      36.738  21.944  25.919  1.00  0.00    -0.356 N 
ATOM      4  C   UNL A   1      35.411  22.141  26.118  1.00  0.00     0.224 C 
ATOM      5  O   UNL A   1      34.715  21.121  26.192  1.00  0.00    -0.275 OA
ATOM      6  H   UNL A   1      36.979  20.999  25.782  1.00  0.00     0.163 HD
BRANCH   4   7
ATOM      7  C   UNL A   1      34.724  23.512  26.118  1.00  0.00     0.095 C 
ATOM      8  C   UNL A   1      33.219  23.290  26.217  1.00  0.00     0.020 C 
BRANCH   7   9
ATOM      9  C   UNL A   1      35.246  24.572  25.112  1.00  0.00     0.133 C 
BRANCH   9  10
ATOM     10  N   UNL A   1      34.264  25.100  24.140  1.00  0.00    -0.333 N 
BRANCH  10  11
ATOM     11  C   UNL A   1      34.228  26.550  23.890  1.00  0.00     0.155 C 
BRANCH  11  12
ATOM     12  C   UNL A   1      33.341  27.338  24.847  1.00  0.00    -0.029 A 
ATOM     13  C   UNL A   1      33.080  28.699  24.647  1.00  0.00     0.005 A 
ATOM     14  C   UNL A   1      32.782  26.724  25.984  1.00  0.00     0.005 A 
ATOM     15  C   UNL A   1      32.258  29.406  25.536  1.00  0.00     0.000 A 
ATOM     16  C   UNL A   1      31.929  27.416  26.845  1.00  0.00     0.000 A 
ATOM     17  C   UNL A   1      31.669  28.760  26.623  1.00  0.00     0.000 A 
ENDBRANCH  11  12
ENDBRANCH  10  11
BRANCH  10  18
ATOM     18  C   UNL A   1      33.933  24.305  23.058  1.00  0.00     0.261 C 
ATOM     19  O   UNL A   1      34.544  23.263  22.818  1.00  0.00    -0.269 OA
BRANCH  18  20
ATOM     20  C   UNL A   1      32.663  24.618  22.344  1.00  0.00     0.126 A 
ATOM     21  C   UNL A   1      31.572  24.500  23.120  1.00  0.00     0.033 A 
ATOM     22  C   UNL A   1      32.588  25.387  21.091  1.00  0.00     0.349 A 
ATOM     23  C   UNL A   1      30.627  25.608  23.081  1.00  0.00     0.018 A 
ATOM     24  O   UNL A   1      31.737  26.487  21.110  1.00  0.00    -0.422 OA
ATOM     25  O   UNL A   1      33.250  25.103  20.098  1.00  0.00    -0.246 OA
ATOM     26  C   UNL A   1      29.721  25.785  24.124  1.00  0.00     0.012 A 
ATOM     27  C   UNL A   1      30.862  26.657  22.196  1.00  0.00     0.138 A 
ATOM     28  C   UNL A   1      29.135  27.036  24.325  1.00  0.00     0.001 A 
ATOM     29  C   UNL A   1      30.289  27.909  22.386  1.00  0.00     0.048 A 
ATOM     30  C   UNL A   1      29.443  28.103  23.477  1.00  0.00     0.004 A 
ENDBRANCH  18  20
ENDBRANCH  10  18
ENDBRANCH   9  10
ENDBRANCH   7   9
ENDBRANCH   4   7
ENDBRANCH   2   3
ENDBRANCH   1   2
BRANCH   1  31
ATOM     31  C   UNL A   1      40.023  22.717  27.315  1.00  0.00     0.023 C 
BRANCH  31  32
ATOM     32  C   UNL A   1      41.360  23.325  26.902  1.00  0.00     0.116 C 
BRANCH  32  33
ATOM     33  N   UNL A   1      41.284  24.384  25.906  1.00  0.00    -0.352 N 
ATOM     34  C   UNL A   1      41.257  25.749  26.132  1.00  0.00     0.251 C 
ATOM     35  H   UNL A   1      41.248  24.097  24.965  1.00  0.00     0.163 HD
ATOM     36  O   UNL A   1      41.169  26.540  25.198  1.00  0.00    -0.269 OA
BRANCH  34  37
ATOM     37  C   UNL A   1      41.307  26.253  27.527  1.00  0.00     0.039 A 
ATOM     38  C   UNL A   1      42.462  26.882  27.994  1.00  0.00     0.014 A 
ATOM     39  C   UNL A   1      40.173  26.189  28.341  1.00  0.00     0.014 A 
ATOM     40  C   UNL A   1      42.429  27.561  29.218  1.00  0.00     0.010 A 
ATOM     41  C   UNL A   1      40.119  26.915  29.526  1.00  0.00     0.010 A 
ATOM     42  C   UNL A   1      41.233  27.647  29.955  1.00  0.00    -0.014 A 
BRANCH  42  43
ATOM     43  C   UNL A   1      41.072  28.623  31.065  1.00  0.00     0.031 A 
ATOM     44  C   UNL A   1      41.892  28.537  32.322  1.00  0.00     0.074 A 
ATOM     45  C   UNL A   1      40.063  29.517  30.985  1.00  0.00     0.049 A 
ATOM     46  N   UNL A   1      41.834  29.291  33.391  1.00  0.00    -0.248 NA
ATOM     47  C   UNL A   1      42.871  27.443  32.410  1.00  0.00     0.031 C 
ATOM     48  C   UNL A   1      39.107  29.618  29.878  1.00  0.00     0.029 A 
ATOM     49  N   UNL A   1      39.664  30.502  31.853  1.00  0.00    -0.354 N 
ATOM     50  C   UNL A   1      42.748  28.749  34.288  1.00  0.00     0.074 A 
ATOM     51  C   UNL A   1      43.316  27.580  33.652  1.00  0.00     0.031 C 
ATOM     52  C   UNL A   1      38.270  30.641  30.108  1.00  0.00     0.029 A 
ATOM     53  C   UNL A   1      38.607  31.249  31.389  1.00  0.00     0.049 A 
ATOM     54  H   UNL A   1      40.095  30.660  32.724  1.00  0.00     0.167 HD
ATOM     55  C   UNL A   1      43.094  29.196  35.520  1.00  0.00     0.031 A 
ATOM     56  C   UNL A   1      37.985  32.317  31.922  1.00  0.00     0.031 A 
ATOM     57  C   UNL A   1      42.547  30.376  36.138  1.00  0.00     0.049 A 
ATOM     58  C   UNL A   1      38.460  32.860  33.237  1.00  0.00     0.074 A 
ATOM     59  C   UNL A   1      42.899  30.961  37.344  1.00  0.00     0.029 A 
ATOM     60  N   UNL A   1      41.536  31.156  35.599  1.00  0.00    -0.354 N 
ATOM     61  N   UNL A   1      39.401  32.396  34.023  1.00  0.00    -0.248 NA
ATOM     62  C   UNL A   1      37.806  34.081  33.726  1.00  0.00     0.031 C 
ATOM     63  C   UNL A   1      42.081  32.080  37.543  1.00  0.00     0.029 A 
ATOM     64  C   UNL A   1      41.247  32.212  36.446  1.00  0.00     0.049 A 
ATOM     65  H   UNL A   1      41.088  30.983  34.738  1.00  0.00     0.167 HD
ATOM     66  C   UNL A   1      39.462  33.278  35.095  1.00  0.00     0.074 A 
ATOM     67  C   UNL A   1      38.477  34.312  34.846  1.00  0.00     0.031 C 
ATOM     68  C   UNL A   1      40.263  33.231  36.188  1.00  0.00     0.031 A 
BRANCH  55  69
ATOM     69  C   UNL A   1      44.133  28.410  36.277  1.00  0.00    -0.014 A 
ATOM     70  C   UNL A   1      43.762  27.333  37.101  1.00  0.00     0.010 A 
ATOM     71  C   UNL A   1      45.497  28.725  36.135  1.00  0.00     0.010 A 
ATOM     72  C   UNL A   1      44.729  26.616  37.810  1.00  0.00     0.020 A 
ATOM     73  C   UNL A   1      46.470  27.993  36.824  1.00  0.00     0.020 A 
ATOM     74  C   UNL A   1      46.078  26.957  37.674  1.00  0.00     0.054 A 
BRANCH  74  75
ATOM     75  S   UNL A   1      47.316  26.008  38.600  1.00  0.00     0.124 S 
ATOM     76  O   UNL A   1      48.164  27.068  39.137  1.00  0.00    -0.237 OA
ATOM     77  O   UNL A   1      46.507  25.294  39.585  1.00  0.00    -0.237 OA
ATOM     78  O   UNL A   1      47.938  25.167  37.582  1.00  0.00    -0.744 OA
ENDBRANCH  74  75
ENDBRANCH  55  69
BRANCH  56  79
ATOM     79  C   UNL A   1      36.891  32.981  31.166  1.00  0.00    -0.014 A 
ATOM     80  C   UNL A   1      37.170  33.620  29.945  1.00  0.00     0.010 A 
ATOM     81  C   UNL A   1      35.565  32.933  31.631  1.00  0.00     0.010 A 
ATOM     82  C   UNL A   1      36.144  34.212  29.207  1.00  0.00     0.020 A 
ATOM     83  C   UNL A   1      34.533  33.507  30.883  1.00  0.00     0.020 A 
ATOM     84  C   UNL A   1      34.830  34.151  29.679  1.00  0.00     0.054 A 
BRANCH  84  85
ATOM     85  S   UNL A   1      33.501  34.862  28.671  1.00  0.00     0.124 S 
ATOM     86  O   UNL A   1      34.074  36.144  28.276  1.00  0.00    -0.237 OA
ATOM     87  O   UNL A   1      33.352  33.879  27.600  1.00  0.00    -0.237 OA
ATOM     88  O   UNL A   1      32.374  34.934  29.598  1.00  0.00    -0.744 OA
ENDBRANCH  84  85
ENDBRANCH  56  79
BRANCH  68  89
ATOM     89  C   UNL A   1      40.118  34.342  37.189  1.00  0.00    -0.014 A 
ATOM     90  C   UNL A   1      40.834  35.544  37.043  1.00  0.00     0.010 A 
ATOM     91  C   UNL A   1      39.224  34.199  38.264  1.00  0.00     0.010 A 
ATOM     92  C   UNL A   1      40.679  36.573  37.974  1.00  0.00     0.020 A 
ATOM     93  C   UNL A   1      39.051  35.235  39.185  1.00  0.00     0.020 A 
ATOM     94  C   UNL A   1      39.791  36.411  39.043  1.00  0.00     0.054 A 
BRANCH  94  95
ATOM     95  S   UNL A   1      39.572  37.777  40.216  1.00  0.00     0.124 S 
ATOM     96  O   UNL A   1      39.177  37.070  41.432  1.00  0.00    -0.237 OA
ATOM     97  O   UNL A   1      40.897  38.391  40.249  1.00  0.00    -0.237 OA
ATOM     98  O   UNL A   1      38.528  38.595  39.602  1.00  0.00    -0.744 OA
ENDBRANCH  94  95
ENDBRANCH  68  89
ENDBRANCH  42  43
ENDBRANCH  34  37
ENDBRANCH  32  33
ENDBRANCH  31  32
ENDBRANCH   1  31
TORSDOF 20
ENDMDL
MODEL 3
REMARK VINA RESULT:     -10.7      3.219      4.372
REMARK SMILES C[C@H](CN(Cc1ccccc1)C(=O)c1cc2ccccc2oc1=O)C(=O)NCCCCNC(=O)c1ccc(-c2c3nc(c(-c4ccc(S(=O)(=O)[O-])cc4)c4ccc([nH]4)c(-c4ccc(S(=O)(=O)[O-])cc4)c4nc(c(-c5ccc(S(=O)(=O)[O-])cc5)c5ccc2[nH]5)C=C4)C=C3)cc1
REMARK SMILES IDX 29 1 28 2 27 3 25 4 26 5 2 7 1 8 3 9 4 10 5 11 6 12 7 13
REMARK SMILES IDX 11 14 8 15 10 16 9 17 12 18 13 19 14 20 15 21 23 22 16 23
REMARK SMILES IDX 22 24 24 25 17 26 21 27 18 28 20 29 19 30 30 31 31 32 32 33
REMARK SMILES IDX 33 34 34 36 35 37 36 38 94 39 37 40 93 41 38 42 39 43 40 44
REMARK SMILES IDX 87 45 41 46 92 47 86 48 88 49 42 50 91 51 85 52 84 53 43 55
REMARK SMILES IDX 73 56 54 57 72 58 55 59 58 60 71 61 89 62 56 63 57 64 70 66
REMARK SMILES IDX 90 67 59 68 44 69 45 70 53 71 46 72 52 73 47 74 48 75 49 76
REMARK SMILES IDX 50 77 51 78 74 79 75 80 83 81 76 82 82 83 77 84 78 85 79 86
REMARK SMILES IDX 80 87 81 88 60 89 61 90 69 91 62 92 68 93 63 94 64 95 65 96
REMARK SMILES IDX 66 97 67 98
REMARK H PARENT 27 6 32 35 88 54 58 65
REMARK Flexibility Score: inf
ROOT
ATOM      1  C   UNL A   1      39.154  22.660  26.282  1.00  0.00     0.023 C 
ENDROOT
BRANCH   1   2
ATOM      2  C   UNL A   1      38.203  21.713  25.538  1.00  0.00     0.116 C 
BRANCH   2   3
ATOM      3  N   UNL A   1      36.971  21.527  26.284  1.00  0.00    -0.356 N 
ATOM      4  C   UNL A   1      35.662  21.661  25.955  1.00  0.00     0.224 C 
ATOM      5  O   UNL A   1      34.851  21.508  26.877  1.00  0.00    -0.275 OA
ATOM      6  H   UNL A   1      37.114  21.247  27.217  1.00  0.00     0.163 HD
BRANCH   4   7
ATOM      7  C   UNL A   1      35.136  21.848  24.526  1.00  0.00     0.095 C 
ATOM      8  C   UNL A   1      35.509  23.252  24.063  1.00  0.00     0.020 C 
BRANCH   7   9
ATOM      9  C   UNL A   1      33.707  21.327  24.218  1.00  0.00     0.133 C 
BRANCH   9  10
ATOM     10  N   UNL A   1      32.636  22.344  24.143  1.00  0.00    -0.333 N 
BRANCH  10  11
ATOM     11  C   UNL A   1      32.170  22.781  22.817  1.00  0.00     0.155 C 
BRANCH  11  12
ATOM     12  C   UNL A   1      32.146  24.292  22.618  1.00  0.00    -0.029 A 
ATOM     13  C   UNL A   1      33.281  24.989  22.184  1.00  0.00     0.005 A 
ATOM     14  C   UNL A   1      30.987  25.040  22.899  1.00  0.00     0.005 A 
ATOM     15  C   UNL A   1      33.239  26.379  22.004  1.00  0.00     0.000 A 
ATOM     16  C   UNL A   1      30.931  26.416  22.679  1.00  0.00     0.000 A 
ATOM     17  C   UNL A   1      32.060  27.088  22.233  1.00  0.00     0.000 A 
ENDBRANCH  11  12
ENDBRANCH  10  11
BRANCH  10  18
ATOM     18  C   UNL A   1      31.675  22.346  25.138  1.00  0.00     0.261 C 
ATOM     19  O   UNL A   1      30.908  21.395  25.290  1.00  0.00    -0.269 OA
BRANCH  18  20
ATOM     20  C   UNL A   1      31.763  23.419  26.169  1.00  0.00     0.126 A 
ATOM     21  C   UNL A   1      32.933  24.080  26.152  1.00  0.00     0.033 A 
ATOM     22  C   UNL A   1      30.597  24.015  26.841  1.00  0.00     0.349 A 
ATOM     23  C   UNL A   1      32.854  25.535  26.173  1.00  0.00     0.018 A 
ATOM     24  O   UNL A   1      30.508  25.402  26.776  1.00  0.00    -0.422 OA
ATOM     25  O   UNL A   1      29.738  23.341  27.401  1.00  0.00    -0.246 OA
ATOM     26  C   UNL A   1      33.938  26.295  25.739  1.00  0.00     0.012 A 
ATOM     27  C   UNL A   1      31.605  26.136  26.295  1.00  0.00     0.138 A 
ATOM     28  C   UNL A   1      33.738  27.618  25.341  1.00  0.00     0.001 A 
ATOM     29  C   UNL A   1      31.390  27.451  25.900  1.00  0.00     0.048 A 
ATOM     30  C   UNL A   1      32.462  28.184  25.392  1.00  0.00     0.004 A 
ENDBRANCH  18  20
ENDBRANCH  10  18
ENDBRANCH   9  10
ENDBRANCH   7   9
ENDBRANCH   4   7
ENDBRANCH   2   3
ENDBRANCH   1   2
BRANCH   1  31
ATOM     31  C   UNL A   1      38.768  24.139  26.254  1.00  0.00     0.023 C 
BRANCH  31  32
ATOM     32  C   UNL A   1      39.862  25.137  26.622  1.00  0.00     0.116 C 
BRANCH  32  33
ATOM     33  N   UNL A   1      40.995  25.187  25.710  1.00  0.00    -0.352 N 
ATOM     34  C   UNL A   1      42.201  25.838  25.904  1.00  0.00     0.251 C 
ATOM     35  H   UNL A   1      40.893  24.705  24.859  1.00  0.00     0.163 HD
ATOM     36  O   UNL A   1      43.072  25.821  25.041  1.00  0.00    -0.269 OA
BRANCH  34  37
ATOM     37  C   UNL A   1      42.424  26.589  27.166  1.00  0.00     0.039 A 
ATOM     38  C   UNL A   1      42.792  27.934  27.112  1.00  0.00     0.014 A 
ATOM     39  C   UNL A   1      42.172  25.985  28.400  1.00  0.00     0.014 A 
ATOM     40  C   UNL A   1      42.774  28.699  28.285  1.00  0.00     0.010 A 
ATOM     41  C   UNL A   1      42.092  26.757  29.554  1.00  0.00     0.010 A 
ATOM     42  C   UNL A   1      42.347  28.133  29.500  1.00  0.00    -0.014 A 
BRANCH  42  43
ATOM     43  C   UNL A   1      41.994  28.979  30.671  1.00  0.00     0.031 A 
ATOM     44  C   UNL A   1      42.762  28.908  31.962  1.00  0.00     0.074 A 
ATOM     45  C   UNL A   1      40.868  29.721  30.604  1.00  0.00     0.049 A 
ATOM     46  N   UNL A   1      42.545  29.552  33.081  1.00  0.00    -0.248 NA
ATOM     47  C   UNL A   1      43.887  27.962  32.021  1.00  0.00     0.031 C 
ATOM     48  C   UNL A   1      39.957  29.776  29.456  1.00  0.00     0.029 A 
ATOM     49  N   UNL A   1      40.290  30.562  31.521  1.00  0.00    -0.354 N 
ATOM     50  C   UNL A   1      43.489  29.075  33.983  1.00  0.00     0.074 A 
ATOM     51  C   UNL A   1      44.252  28.057  33.293  1.00  0.00     0.031 C 
ATOM     52  C   UNL A   1      38.968  30.644  29.716  1.00  0.00     0.029 A 
ATOM     53  C   UNL A   1      39.155  31.184  31.057  1.00  0.00     0.049 A 
ATOM     54  H   UNL A   1      40.654  30.707  32.424  1.00  0.00     0.167 HD
ATOM     55  C   UNL A   1      43.711  29.463  35.263  1.00  0.00     0.031 A 
ATOM     56  C   UNL A   1      38.358  32.104  31.635  1.00  0.00     0.031 A 
ATOM     57  C   UNL A   1      42.968  30.495  35.938  1.00  0.00     0.049 A 
ATOM     58  C   UNL A   1      38.689  32.597  33.012  1.00  0.00     0.074 A 
ATOM     59  C   UNL A   1      43.175  31.021  37.203  1.00  0.00     0.029 A 
ATOM     60  N   UNL A   1      41.876  31.163  35.404  1.00  0.00    -0.354 N 
ATOM     61  N   UNL A   1      39.652  32.209  33.812  1.00  0.00    -0.248 NA
ATOM     62  C   UNL A   1      37.840  33.666  33.555  1.00  0.00     0.031 C 
ATOM     63  C   UNL A   1      42.192  31.990  37.441  1.00  0.00     0.029 A 
ATOM     64  C   UNL A   1      41.397  32.092  36.312  1.00  0.00     0.049 A 
ATOM     65  H   UNL A   1      41.498  31.000  34.509  1.00  0.00     0.167 HD
ATOM     66  C   UNL A   1      39.535  32.998  34.949  1.00  0.00     0.074 A 
ATOM     67  C   UNL A   1      38.419  33.896  34.725  1.00  0.00     0.031 C 
ATOM     68  C   UNL A   1      40.284  32.976  36.078  1.00  0.00     0.031 A 
BRANCH  55  69
ATOM     69  C   UNL A   1      44.820  28.774  36.015  1.00  0.00    -0.014 A 
ATOM     70  C   UNL A   1      46.134  29.276  35.977  1.00  0.00     0.010 A 
ATOM     71  C   UNL A   1      44.543  27.639  36.799  1.00  0.00     0.010 A 
ATOM     72  C   UNL A   1      47.161  28.625  36.666  1.00  0.00     0.020 A 
ATOM     73  C   UNL A   1      45.564  27.001  37.510  1.00  0.00     0.020 A 
ATOM     74  C   UNL A   1      46.870  27.486  37.422  1.00  0.00     0.054 A 
BRANCH  74  75
ATOM     75  S   UNL A   1      48.219  26.662  38.314  1.00  0.00     0.124 S 
ATOM     76  O   UNL A   1      47.547  26.226  39.534  1.00  0.00    -0.237 OA
ATOM     77  O   UNL A   1      48.608  25.593  37.396  1.00  0.00    -0.237 OA
ATOM     78  O   UNL A   1      49.211  27.718  38.490  1.00  0.00    -0.744 OA
ENDBRANCH  74  75
ENDBRANCH  55  69
BRANCH  56  79
ATOM     79  C   UNL A   1      37.212  32.663  30.871  1.00  0.00    -0.014 A 
ATOM     80  C   UNL A   1      35.927  32.117  31.036  1.00  0.00     0.010 A 
ATOM     81  C   UNL A   1      37.386  33.769  30.022  1.00  0.00     0.010 A 
ATOM     82  C   UNL A   1      34.836  32.659  30.355  1.00  0.00     0.020 A 
ATOM     83  C   UNL A   1      36.292  34.327  29.355  1.00  0.00     0.020 A 
ATOM     84  C   UNL A   1      35.024  33.763  29.519  1.00  0.00     0.054 A 
BRANCH  84  85
ATOM     85  S   UNL A   1      33.583  34.499  28.699  1.00  0.00     0.124 S 
ATOM     86  O   UNL A   1      34.165  35.677  28.064  1.00  0.00    -0.237 OA
ATOM     87  O   UNL A   1      33.155  33.436  27.791  1.00  0.00    -0.237 OA
ATOM     88  O   UNL A   1      32.665  34.767  29.804  1.00  0.00    -0.744 OA
ENDBRANCH  84  85
ENDBRANCH  56  79
BRANCH  68  89
ATOM     89  C   UNL A   1      39.933  33.967  37.152  1.00  0.00    -0.014 A 
ATOM     90  C   UNL A   1      39.076  33.613  38.210  1.00  0.00     0.010 A 
ATOM     91  C   UNL A   1      40.500  35.253  37.125  1.00  0.00     0.010 A 
ATOM     92  C   UNL A   1      38.770  34.541  39.208  1.00  0.00     0.020 A 
ATOM     93  C   UNL A   1      40.212  36.176  38.133  1.00  0.00     0.020 A 
ATOM     94  C   UNL A   1      39.336  35.818  39.162  1.00  0.00     0.054 A 
BRANCH  94  95
ATOM     95  S   UNL A   1      38.960  36.994  40.491  1.00  0.00     0.124 S 
ATOM     96  O   UNL A   1      40.290  37.304  41.006  1.00  0.00    -0.237 OA
ATOM     97  O   UNL A   1      38.291  38.082  39.781  1.00  0.00    -0.237 OA
ATOM     98  O   UNL A   1      38.103  36.229  41.394  1.00  0.00    -0.744 OA
ENDBRANCH  94  95
ENDBRANCH  68  89
ENDBRANCH  42  43
ENDBRANCH  34  37
ENDBRANCH  32  33
ENDBRANCH  31  32
ENDBRANCH   1  31
TORSDOF 20
ENDMDL
