MODEL 1
REMARK VINA RESULT:     -12.3      0.000      0.000
REMARK SMILES CC1=C(CC(=O)NCCCCNC(=O)c2ccc(-c3c4nc(c(-c5ccc(S(=O)(=O)[O-])cc5)c5ccc([nH]5)c(-c5ccc(S(=O)(=O)[O-])cc5)c5nc(c(-c6ccc(S(=O)(=O)[O-])cc6)c6ccc3[nH]6)C=C5)C=C4)cc2)c2cc(F)ccc2/C1=C\c1ccc([S@@+](C)[O-])cc1
REMARK SMILES IDX 9 1 8 2 7 3 5 4 6 5 4 7 3 8 1 9 2 10 82 11 75 12 81 13 83 14
REMARK SMILES IDX 76 15 80 16 77 17 79 18 78 19 84 20 85 21 92 22 86 23 91 24
REMARK SMILES IDX 87 25 88 26 89 27 90 28 10 29 11 30 12 31 13 32 14 34 15 35
REMARK SMILES IDX 16 36 74 37 17 38 73 39 18 40 19 41 20 42 67 43 21 44 72 45
REMARK SMILES IDX 66 46 68 47 22 48 71 49 65 50 64 51 23 53 53 54 34 55 52 56
REMARK SMILES IDX 35 57 38 58 51 59 69 60 36 61 37 62 50 64 70 65 39 66 24 67
REMARK SMILES IDX 25 68 33 69 26 70 32 71 27 72 28 73 29 74 30 75 31 76 54 77
REMARK SMILES IDX 55 78 63 79 56 80 62 81 57 82 58 83 59 84 60 85 61 86 40 87
REMARK SMILES IDX 41 88 49 89 42 90 48 91 43 92 44 93 45 94 46 95 47 96
REMARK H PARENT 7 6 12 33 68 52 38 63
REMARK Flexibility Score: inf
ROOT
ATOM      1  C   UNL A   1      35.959  22.905  23.478  1.00  0.00     0.023 C 
ENDROOT
BRANCH   1   2
ATOM      2  C   UNL A   1      34.471  23.251  23.533  1.00  0.00     0.116 C 
BRANCH   2   3
ATOM      3  N   UNL A   1      33.739  22.389  24.438  1.00  0.00    -0.356 N 
ATOM      4  C   UNL A   1      33.258  22.668  25.683  1.00  0.00     0.224 C 
ATOM      5  O   UNL A   1      32.663  21.777  26.295  1.00  0.00    -0.275 OA
ATOM      6  H   UNL A   1      33.565  21.477  24.109  1.00  0.00     0.163 HD
BRANCH   4   7
ATOM      7  C   UNL A   1      33.417  24.065  26.282  1.00  0.00     0.136 C 
BRANCH   7   8
ATOM      8  C   UNL A   1      32.557  25.097  25.628  1.00  0.00    -0.027 C 
ATOM      9  C   UNL A   1      30.641  23.683  24.686  1.00  0.00     0.045 C 
ATOM     10  C   UNL A   1      31.399  24.944  24.941  1.00  0.00    -0.039 C 
ATOM     11  C   UNL A   1      30.957  26.249  24.421  1.00  0.00    -0.014 C 
ATOM     12  C   UNL A   1      32.870  26.538  25.666  1.00  0.00    -0.011 A 
ATOM     13  C   UNL A   1      31.881  27.259  24.973  1.00  0.00    -0.010 A 
ATOM     14  C   UNL A   1      29.945  26.416  23.546  1.00  0.00     0.017 C 
ATOM     15  C   UNL A   1      33.931  27.196  26.273  1.00  0.00     0.048 A 
ATOM     16  C   UNL A   1      31.920  28.648  24.936  1.00  0.00     0.012 A 
ATOM     17  C   UNL A   1      33.986  28.584  26.186  1.00  0.00     0.123 A 
ATOM     18  C   UNL A   1      32.991  29.313  25.535  1.00  0.00     0.040 A 
ATOM     19  F   UNL A   1      35.004  29.242  26.757  1.00  0.00    -0.207 F 
BRANCH  14  20
ATOM     20  C   UNL A   1      29.535  27.701  22.973  1.00  0.00    -0.025 A 
ATOM     21  C   UNL A   1      30.389  28.414  22.124  1.00  0.00     0.013 A 
ATOM     22  C   UNL A   1      28.337  28.281  23.393  1.00  0.00     0.013 A 
ATOM     23  C   UNL A   1      30.110  29.749  21.808  1.00  0.00     0.061 A 
ATOM     24  C   UNL A   1      28.050  29.606  23.058  1.00  0.00     0.061 A 
ATOM     25  C   UNL A   1      28.953  30.364  22.300  1.00  0.00     0.152 A 
BRANCH  25  26
ATOM     26  S   UNL A   1      28.700  32.152  22.154  1.00  0.00    -0.018 S 
ATOM     27  C   UNL A   1      27.964  32.234  20.512  1.00  0.00     0.346 C 
ATOM     28  O   UNL A   1      27.598  32.545  23.203  1.00  0.00    -0.612 OA
ENDBRANCH  25  26
ENDBRANCH  14  20
ENDBRANCH   7   8
ENDBRANCH   4   7
ENDBRANCH   2   3
ENDBRANCH   1   2
BRANCH   1  29
ATOM     29  C   UNL A   1      36.843  23.696  24.442  1.00  0.00     0.023 C 
BRANCH  29  30
ATOM     30  C   UNL A   1      37.010  23.084  25.826  1.00  0.00     0.116 C 
BRANCH  30  31
ATOM     31  N   UNL A   1      38.239  22.318  25.986  1.00  0.00    -0.352 N 
ATOM     32  C   UNL A   1      39.443  22.744  26.504  1.00  0.00     0.251 C 
ATOM     33  H   UNL A   1      38.204  21.382  25.687  1.00  0.00     0.163 HD
ATOM     34  O   UNL A   1      40.419  22.002  26.494  1.00  0.00    -0.269 OA
BRANCH  32  35
ATOM     35  C   UNL A   1      39.550  24.127  27.015  1.00  0.00     0.039 A 
ATOM     36  C   UNL A   1      40.071  25.139  26.207  1.00  0.00     0.014 A 
ATOM     37  C   UNL A   1      39.207  24.387  28.344  1.00  0.00     0.014 A 
ATOM     38  C   UNL A   1      40.414  26.360  26.777  1.00  0.00     0.010 A 
ATOM     39  C   UNL A   1      39.483  25.642  28.894  1.00  0.00     0.010 A 
ATOM     40  C   UNL A   1      40.142  26.619  28.131  1.00  0.00    -0.014 A 
BRANCH  40  41
ATOM     41  C   UNL A   1      40.583  27.903  28.732  1.00  0.00     0.031 A 
ATOM     42  C   UNL A   1      42.034  28.134  29.067  1.00  0.00     0.074 A 
ATOM     43  C   UNL A   1      39.686  28.893  28.905  1.00  0.00     0.049 A 
ATOM     44  N   UNL A   1      42.600  29.203  29.565  1.00  0.00    -0.248 NA
ATOM     45  C   UNL A   1      42.972  27.029  28.806  1.00  0.00     0.031 C 
ATOM     46  C   UNL A   1      38.261  28.800  28.583  1.00  0.00     0.029 A 
ATOM     47  N   UNL A   1      39.843  30.179  29.359  1.00  0.00    -0.354 N 
ATOM     48  C   UNL A   1      43.950  28.898  29.692  1.00  0.00     0.074 A 
ATOM     49  C   UNL A   1      44.118  27.533  29.244  1.00  0.00     0.031 C 
ATOM     50  C   UNL A   1      37.687  29.995  28.788  1.00  0.00     0.029 A 
ATOM     51  C   UNL A   1      38.685  30.920  29.317  1.00  0.00     0.049 A 
ATOM     52  H   UNL A   1      40.701  30.536  29.682  1.00  0.00     0.167 HD
ATOM     53  C   UNL A   1      44.959  29.688  30.130  1.00  0.00     0.031 A 
ATOM     54  C   UNL A   1      38.444  32.197  29.670  1.00  0.00     0.031 A 
ATOM     55  C   UNL A   1      44.790  31.051  30.561  1.00  0.00     0.049 A 
ATOM     56  C   UNL A   1      39.568  33.038  30.202  1.00  0.00     0.074 A 
ATOM     57  C   UNL A   1      45.756  31.928  31.021  1.00  0.00     0.029 A 
ATOM     58  N   UNL A   1      43.585  31.737  30.577  1.00  0.00    -0.354 N 
ATOM     59  N   UNL A   1      40.833  32.721  30.336  1.00  0.00    -0.248 NA
ATOM     60  C   UNL A   1      39.237  34.401  30.638  1.00  0.00     0.031 C 
ATOM     61  C   UNL A   1      45.128  33.128  31.362  1.00  0.00     0.029 A 
ATOM     62  C   UNL A   1      43.781  33.019  31.059  1.00  0.00     0.049 A 
ATOM     63  H   UNL A   1      42.720  31.367  30.287  1.00  0.00     0.167 HD
ATOM     64  C   UNL A   1      41.451  33.846  30.868  1.00  0.00     0.074 A 
ATOM     65  C   UNL A   1      40.424  34.859  31.014  1.00  0.00     0.031 C 
ATOM     66  C   UNL A   1      42.751  34.017  31.209  1.00  0.00     0.031 A 
BRANCH  53  67
ATOM     67  C   UNL A   1      46.349  29.110  30.178  1.00  0.00    -0.014 A 
ATOM     68  C   UNL A   1      47.146  29.112  29.019  1.00  0.00     0.010 A 
ATOM     69  C   UNL A   1      46.824  28.468  31.335  1.00  0.00     0.010 A 
ATOM     70  C   UNL A   1      48.384  28.464  29.006  1.00  0.00     0.020 A 
ATOM     71  C   UNL A   1      48.073  27.838  31.334  1.00  0.00     0.020 A 
ATOM     72  C   UNL A   1      48.836  27.824  30.163  1.00  0.00     0.054 A 
BRANCH  72  73
ATOM     73  S   UNL A   1      50.444  26.983  30.132  1.00  0.00     0.124 S 
ATOM     74  O   UNL A   1      50.128  25.690  30.731  1.00  0.00    -0.237 OA
ATOM     75  O   UNL A   1      50.766  26.958  28.706  1.00  0.00    -0.237 OA
ATOM     76  O   UNL A   1      51.298  27.854  30.936  1.00  0.00    -0.744 OA
ENDBRANCH  72  73
ENDBRANCH  53  67
BRANCH  54  77
ATOM     77  C   UNL A   1      37.069  32.742  29.506  1.00  0.00    -0.014 A 
ATOM     78  C   UNL A   1      36.579  33.055  28.225  1.00  0.00     0.010 A 
ATOM     79  C   UNL A   1      36.288  33.047  30.634  1.00  0.00     0.010 A 
ATOM     80  C   UNL A   1      35.362  33.724  28.077  1.00  0.00     0.020 A 
ATOM     81  C   UNL A   1      35.056  33.691  30.487  1.00  0.00     0.020 A 
ATOM     82  C   UNL A   1      34.616  34.054  29.211  1.00  0.00     0.054 A 
BRANCH  82  83
ATOM     83  S   UNL A   1      33.072  34.981  29.003  1.00  0.00     0.124 S 
ATOM     84  O   UNL A   1      32.523  34.953  30.355  1.00  0.00    -0.237 OA
ATOM     85  O   UNL A   1      33.539  36.287  28.540  1.00  0.00    -0.237 OA
ATOM     86  O   UNL A   1      32.337  34.200  28.011  1.00  0.00    -0.744 OA
ENDBRANCH  82  83
ENDBRANCH  54  77
BRANCH  66  87
ATOM     87  C   UNL A   1      43.164  35.344  31.786  1.00  0.00    -0.014 A 
ATOM     88  C   UNL A   1      43.790  36.298  30.964  1.00  0.00     0.010 A 
ATOM     89  C   UNL A   1      43.062  35.586  33.167  1.00  0.00     0.010 A 
ATOM     90  C   UNL A   1      44.341  37.457  31.516  1.00  0.00     0.020 A 
ATOM     91  C   UNL A   1      43.592  36.754  33.720  1.00  0.00     0.020 A 
ATOM     92  C   UNL A   1      44.250  37.670  32.894  1.00  0.00     0.054 A 
BRANCH  92  93
ATOM     93  S   UNL A   1      45.007  39.159  33.604  1.00  0.00     0.124 S 
ATOM     94  O   UNL A   1      44.424  40.218  32.784  1.00  0.00    -0.237 OA
ATOM     95  O   UNL A   1      44.557  39.119  34.993  1.00  0.00    -0.237 OA
ATOM     96  O   UNL A   1      46.438  38.938  33.415  1.00  0.00    -0.744 OA
ENDBRANCH  92  93
ENDBRANCH  66  87
ENDBRANCH  40  41
ENDBRANCH  32  35
ENDBRANCH  30  31
ENDBRANCH  29  30
ENDBRANCH   1  29
TORSDOF 17
ENDMDL
MODEL 2
REMARK VINA RESULT:     -12.2      1.291      7.973
REMARK SMILES CC1=C(CC(=O)NCCCCNC(=O)c2ccc(-c3c4nc(c(-c5ccc(S(=O)(=O)[O-])cc5)c5ccc([nH]5)c(-c5ccc(S(=O)(=O)[O-])cc5)c5nc(c(-c6ccc(S(=O)(=O)[O-])cc6)c6ccc3[nH]6)C=C5)C=C4)cc2)c2cc(F)ccc2/C1=C\c1ccc([S@@+](C)[O-])cc1
REMARK SMILES IDX 9 1 8 2 7 3 5 4 6 5 4 7 3 8 1 9 2 10 82 11 75 12 81 13 83 14
REMARK SMILES IDX 76 15 80 16 77 17 79 18 78 19 84 20 85 21 92 22 86 23 91 24
REMARK SMILES IDX 87 25 88 26 89 27 90 28 10 29 11 30 12 31 13 32 14 34 15 35
REMARK SMILES IDX 16 36 74 37 17 38 73 39 18 40 19 41 20 42 67 43 21 44 72 45
REMARK SMILES IDX 66 46 68 47 22 48 71 49 65 50 64 51 23 53 53 54 34 55 52 56
REMARK SMILES IDX 35 57 38 58 51 59 69 60 36 61 37 62 50 64 70 65 39 66 24 67
REMARK SMILES IDX 25 68 33 69 26 70 32 71 27 72 28 73 29 74 30 75 31 76 54 77
REMARK SMILES IDX 55 78 63 79 56 80 62 81 57 82 58 83 59 84 60 85 61 86 40 87
REMARK SMILES IDX 41 88 49 89 42 90 48 91 43 92 44 93 45 94 46 95 47 96
REMARK H PARENT 7 6 12 33 68 52 38 63
REMARK Flexibility Score: inf
ROOT
ATOM      1  C   UNL A   1      35.326  22.100  24.060  1.00  0.00     0.023 C 
ENDROOT
BRANCH   1   2
ATOM      2  C   UNL A   1      33.869  22.522  23.863  1.00  0.00     0.116 C 
BRANCH   2   3
ATOM      3  N   UNL A   1      33.135  22.561  25.111  1.00  0.00    -0.356 N 
ATOM      4  C   UNL A   1      32.983  23.600  25.982  1.00  0.00     0.224 C 
ATOM      5  O   UNL A   1      32.317  23.417  27.004  1.00  0.00    -0.275 OA
ATOM      6  H   UNL A   1      32.685  21.723  25.366  1.00  0.00     0.163 HD
BRANCH   4   7
ATOM      7  C   UNL A   1      33.589  24.968  25.671  1.00  0.00     0.136 C 
BRANCH   7   8
ATOM      8  C   UNL A   1      32.597  25.957  25.149  1.00  0.00    -0.027 C 
ATOM      9  C   UNL A   1      31.002  24.464  23.813  1.00  0.00     0.045 C 
ATOM     10  C   UNL A   1      31.518  25.756  24.353  1.00  0.00    -0.039 C 
ATOM     11  C   UNL A   1      30.884  27.050  24.046  1.00  0.00    -0.014 C 
ATOM     12  C   UNL A   1      32.656  27.394  25.473  1.00  0.00    -0.011 A 
ATOM     13  C   UNL A   1      31.593  28.068  24.846  1.00  0.00    -0.010 A 
ATOM     14  C   UNL A   1      29.903  27.220  23.137  1.00  0.00     0.017 C 
ATOM     15  C   UNL A   1      33.556  28.084  26.275  1.00  0.00     0.048 A 
ATOM     16  C   UNL A   1      31.393  29.426  25.066  1.00  0.00     0.012 A 
ATOM     17  C   UNL A   1      33.375  29.452  26.447  1.00  0.00     0.123 A 
ATOM     18  C   UNL A   1      32.303  30.125  25.861  1.00  0.00     0.040 A 
ATOM     19  F   UNL A   1      34.236  30.142  27.209  1.00  0.00    -0.207 F 
BRANCH  14  20
ATOM     20  C   UNL A   1      29.307  28.509  22.777  1.00  0.00    -0.025 A 
ATOM     21  C   UNL A   1      30.011  29.432  21.996  1.00  0.00     0.013 A 
ATOM     22  C   UNL A   1      28.081  28.871  23.338  1.00  0.00     0.013 A 
ATOM     23  C   UNL A   1      29.557  30.752  21.889  1.00  0.00     0.061 A 
ATOM     24  C   UNL A   1      27.619  30.182  23.211  1.00  0.00     0.061 A 
ATOM     25  C   UNL A   1      28.372  31.143  22.525  1.00  0.00     0.152 A 
BRANCH  25  26
ATOM     26  S   UNL A   1      27.902  32.889  22.650  1.00  0.00    -0.018 S 
ATOM     27  C   UNL A   1      29.448  33.590  23.254  1.00  0.00     0.346 C 
ATOM     28  O   UNL A   1      27.671  33.406  21.184  1.00  0.00    -0.612 OA
ENDBRANCH  25  26
ENDBRANCH  14  20
ENDBRANCH   7   8
ENDBRANCH   4   7
ENDBRANCH   2   3
ENDBRANCH   1   2
BRANCH   1  29
ATOM     29  C   UNL A   1      36.341  23.242  24.016  1.00  0.00     0.023 C 
BRANCH  29  30
ATOM     30  C   UNL A   1      37.076  23.512  25.322  1.00  0.00     0.116 C 
BRANCH  30  31
ATOM     31  N   UNL A   1      38.219  22.637  25.544  1.00  0.00    -0.352 N 
ATOM     32  C   UNL A   1      39.396  22.927  26.198  1.00  0.00     0.251 C 
ATOM     33  H   UNL A   1      38.139  21.725  25.183  1.00  0.00     0.163 HD
ATOM     34  O   UNL A   1      40.307  22.107  26.230  1.00  0.00    -0.269 OA
BRANCH  32  35
ATOM     35  C   UNL A   1      39.564  24.265  26.806  1.00  0.00     0.039 A 
ATOM     36  C   UNL A   1      40.328  25.241  26.165  1.00  0.00     0.014 A 
ATOM     37  C   UNL A   1      39.020  24.507  28.070  1.00  0.00     0.014 A 
ATOM     38  C   UNL A   1      40.697  26.386  26.861  1.00  0.00     0.010 A 
ATOM     39  C   UNL A   1      39.330  25.695  28.736  1.00  0.00     0.010 A 
ATOM     40  C   UNL A   1      40.219  26.617  28.162  1.00  0.00    -0.014 A 
BRANCH  40  41
ATOM     41  C   UNL A   1      40.685  27.813  28.909  1.00  0.00     0.031 A 
ATOM     42  C   UNL A   1      39.771  28.993  29.115  1.00  0.00     0.074 A 
ATOM     43  C   UNL A   1      41.910  27.805  29.469  1.00  0.00     0.049 A 
ATOM     44  N   UNL A   1      40.000  30.104  29.767  1.00  0.00    -0.248 NA
ATOM     45  C   UNL A   1      38.426  28.918  28.519  1.00  0.00     0.031 C 
ATOM     46  C   UNL A   1      42.871  26.705  29.370  1.00  0.00     0.029 A 
ATOM     47  N   UNL A   1      42.543  28.731  30.261  1.00  0.00    -0.354 N 
ATOM     48  C   UNL A   1      38.842  30.863  29.648  1.00  0.00     0.074 A 
ATOM     49  C   UNL A   1      37.917  30.101  28.839  1.00  0.00     0.031 C 
ATOM     50  C   UNL A   1      43.943  26.990  30.124  1.00  0.00     0.029 A 
ATOM     51  C   UNL A   1      43.777  28.319  30.707  1.00  0.00     0.049 A 
ATOM     52  H   UNL A   1      42.151  29.605  30.486  1.00  0.00     0.167 HD
ATOM     53  C   UNL A   1      38.570  32.080  30.177  1.00  0.00     0.031 A 
ATOM     54  C   UNL A   1      44.681  28.937  31.491  1.00  0.00     0.031 A 
ATOM     55  C   UNL A   1      39.487  32.830  30.994  1.00  0.00     0.049 A 
ATOM     56  C   UNL A   1      44.378  30.307  32.023  1.00  0.00     0.074 A 
ATOM     57  C   UNL A   1      39.297  34.072  31.574  1.00  0.00     0.029 A 
ATOM     58  N   UNL A   1      40.757  32.408  31.357  1.00  0.00    -0.354 N 
ATOM     59  N   UNL A   1      43.286  31.018  31.879  1.00  0.00    -0.248 NA
ATOM     60  C   UNL A   1      45.427  30.966  32.814  1.00  0.00     0.031 C 
ATOM     61  C   UNL A   1      40.470  34.423  32.246  1.00  0.00     0.029 A 
ATOM     62  C   UNL A   1      41.369  33.376  32.134  1.00  0.00     0.049 A 
ATOM     63  H   UNL A   1      41.162  31.549  31.101  1.00  0.00     0.167 HD
ATOM     64  C   UNL A   1      43.512  32.205  32.563  1.00  0.00     0.074 A 
ATOM     65  C   UNL A   1      44.839  32.110  33.139  1.00  0.00     0.031 C 
ATOM     66  C   UNL A   1      42.694  33.276  32.695  1.00  0.00     0.031 A 
BRANCH  53  67
ATOM     67  C   UNL A   1      37.226  32.698  29.891  1.00  0.00    -0.014 A 
ATOM     68  C   UNL A   1      37.041  33.456  28.721  1.00  0.00     0.010 A 
ATOM     69  C   UNL A   1      36.183  32.621  30.831  1.00  0.00     0.010 A 
ATOM     70  C   UNL A   1      35.846  34.146  28.503  1.00  0.00     0.020 A 
ATOM     71  C   UNL A   1      34.976  33.292  30.605  1.00  0.00     0.020 A 
ATOM     72  C   UNL A   1      34.823  34.066  29.451  1.00  0.00     0.054 A 
BRANCH  72  73
ATOM     73  S   UNL A   1      33.277  34.970  29.158  1.00  0.00     0.124 S 
ATOM     74  O   UNL A   1      33.760  36.261  28.680  1.00  0.00    -0.237 OA
ATOM     75  O   UNL A   1      32.603  34.139  28.161  1.00  0.00    -0.237 OA
ATOM     76  O   UNL A   1      32.638  34.985  30.472  1.00  0.00    -0.744 OA
ENDBRANCH  72  73
ENDBRANCH  53  67
BRANCH  54  77
ATOM     77  C   UNL A   1      45.950  28.233  31.818  1.00  0.00    -0.014 A 
ATOM     78  C   UNL A   1      47.039  28.283  30.928  1.00  0.00     0.010 A 
ATOM     79  C   UNL A   1      46.037  27.425  32.964  1.00  0.00     0.010 A 
ATOM     80  C   UNL A   1      48.167  27.489  31.143  1.00  0.00     0.020 A 
ATOM     81  C   UNL A   1      47.177  26.649  33.197  1.00  0.00     0.020 A 
ATOM     82  C   UNL A   1      48.221  26.662  32.267  1.00  0.00     0.054 A 
BRANCH  82  83
ATOM     83  S   UNL A   1      49.664  25.587  32.494  1.00  0.00     0.124 S 
ATOM     84  O   UNL A   1      50.628  26.505  33.091  1.00  0.00    -0.237 OA
ATOM     85  O   UNL A   1      49.153  24.545  33.382  1.00  0.00    -0.237 OA
ATOM     86  O   UNL A   1      49.976  25.145  31.137  1.00  0.00    -0.744 OA
ENDBRANCH  82  83
ENDBRANCH  54  77
BRANCH  66  87
ATOM     87  C   UNL A   1      43.192  34.456  33.485  1.00  0.00    -0.014 A 
ATOM     88  C   UNL A   1      43.997  35.425  32.860  1.00  0.00     0.010 A 
ATOM     89  C   UNL A   1      42.980  34.528  34.873  1.00  0.00     0.010 A 
ATOM     90  C   UNL A   1      44.614  36.426  33.613  1.00  0.00     0.020 A 
ATOM     91  C   UNL A   1      43.577  35.542  35.626  1.00  0.00     0.020 A 
ATOM     92  C   UNL A   1      44.411  36.469  34.995  1.00  0.00     0.054 A 
BRANCH  92  93
ATOM     93  S   UNL A   1      45.252  37.750  35.967  1.00  0.00     0.124 S 
ATOM     94  O   UNL A   1      46.283  38.209  35.041  1.00  0.00    -0.237 OA
ATOM     95  O   UNL A   1      44.180  38.705  36.239  1.00  0.00    -0.237 OA
ATOM     96  O   UNL A   1      45.741  37.025  37.137  1.00  0.00    -0.744 OA
ENDBRANCH  92  93
ENDBRANCH  66  87
ENDBRANCH  40  41
ENDBRANCH  32  35
ENDBRANCH  30  31
ENDBRANCH  29  30
ENDBRANCH   1  29
TORSDOF 17
ENDMDL
MODEL 3
REMARK VINA RESULT:     -11.9      1.979      2.857
REMARK SMILES CC1=C(CC(=O)NCCCCNC(=O)c2ccc(-c3c4nc(c(-c5ccc(S(=O)(=O)[O-])cc5)c5ccc([nH]5)c(-c5ccc(S(=O)(=O)[O-])cc5)c5nc(c(-c6ccc(S(=O)(=O)[O-])cc6)c6ccc3[nH]6)C=C5)C=C4)cc2)c2cc(F)ccc2/C1=C\c1ccc([S@@+](C)[O-])cc1
REMARK SMILES IDX 9 1 8 2 7 3 5 4 6 5 4 7 3 8 1 9 2 10 82 11 75 12 81 13 83 14
REMARK SMILES IDX 76 15 80 16 77 17 79 18 78 19 84 20 85 21 92 22 86 23 91 24
REMARK SMILES IDX 87 25 88 26 89 27 90 28 10 29 11 30 12 31 13 32 14 34 15 35
REMARK SMILES IDX 16 36 74 37 17 38 73 39 18 40 19 41 20 42 67 43 21 44 72 45
REMARK SMILES IDX 66 46 68 47 22 48 71 49 65 50 64 51 23 53 53 54 34 55 52 56
REMARK SMILES IDX 35 57 38 58 51 59 69 60 36 61 37 62 50 64 70 65 39 66 24 67
REMARK SMILES IDX 25 68 33 69 26 70 32 71 27 72 28 73 29 74 30 75 31 76 54 77
REMARK SMILES IDX 55 78 63 79 56 80 62 81 57 82 58 83 59 84 60 85 61 86 40 87
REMARK SMILES IDX 41 88 49 89 42 90 48 91 43 92 44 93 45 94 46 95 47 96
REMARK H PARENT 7 6 12 33 68 52 38 63
REMARK Flexibility Score: inf
ROOT
ATOM      1  C   UNL A   1      36.488  21.092  24.248  1.00  0.00     0.023 C 
ENDROOT
BRANCH   1   2
ATOM      2  C   UNL A   1      35.803  20.131  25.220  1.00  0.00     0.116 C 
BRANCH   2   3
ATOM      3  N   UNL A   1      35.468  18.866  24.598  1.00  0.00    -0.356 N 
ATOM      4  C   UNL A   1      34.263  18.230  24.548  1.00  0.00     0.224 C 
ATOM      5  O   UNL A   1      34.196  17.143  23.968  1.00  0.00    -0.275 OA
ATOM      6  H   UNL A   1      36.213  18.402  24.150  1.00  0.00     0.163 HD
BRANCH   4   7
ATOM      7  C   UNL A   1      33.019  18.875  25.159  1.00  0.00     0.136 C 
BRANCH   7   8
ATOM      8  C   UNL A   1      32.799  20.286  24.718  1.00  0.00    -0.027 C 
ATOM      9  C   UNL A   1      32.169  19.987  22.254  1.00  0.00     0.045 C 
ATOM     10  C   UNL A   1      32.459  20.763  23.495  1.00  0.00    -0.039 C 
ATOM     11  C   UNL A   1      32.428  22.235  23.531  1.00  0.00    -0.014 C 
ATOM     12  C   UNL A   1      32.912  21.436  25.634  1.00  0.00    -0.011 A 
ATOM     13  C   UNL A   1      32.644  22.628  24.938  1.00  0.00    -0.010 A 
ATOM     14  C   UNL A   1      32.305  23.020  22.442  1.00  0.00     0.017 C 
ATOM     15  C   UNL A   1      33.208  21.460  26.991  1.00  0.00     0.048 A 
ATOM     16  C   UNL A   1      32.616  23.845  25.610  1.00  0.00     0.012 A 
ATOM     17  C   UNL A   1      33.225  22.689  27.642  1.00  0.00     0.123 A 
ATOM     18  C   UNL A   1      32.925  23.874  26.971  1.00  0.00     0.040 A 
ATOM     19  F   UNL A   1      33.517  22.739  28.949  1.00  0.00    -0.207 F 
BRANCH  14  20
ATOM     20  C   UNL A   1      32.335  24.485  22.456  1.00  0.00    -0.025 A 
ATOM     21  C   UNL A   1      33.546  25.179  22.357  1.00  0.00     0.013 A 
ATOM     22  C   UNL A   1      31.156  25.187  22.712  1.00  0.00     0.013 A 
ATOM     23  C   UNL A   1      33.596  26.548  22.647  1.00  0.00     0.061 A 
ATOM     24  C   UNL A   1      31.205  26.557  22.979  1.00  0.00     0.061 A 
ATOM     25  C   UNL A   1      32.429  27.239  22.991  1.00  0.00     0.152 A 
BRANCH  25  26
ATOM     26  S   UNL A   1      32.491  28.928  23.645  1.00  0.00    -0.018 S 
ATOM     27  C   UNL A   1      30.777  29.130  24.164  1.00  0.00     0.346 C 
ATOM     28  O   UNL A   1      33.389  28.887  24.933  1.00  0.00    -0.612 OA
ENDBRANCH  25  26
ENDBRANCH  14  20
ENDBRANCH   7   8
ENDBRANCH   4   7
ENDBRANCH   2   3
ENDBRANCH   1   2
BRANCH   1  29
ATOM     29  C   UNL A   1      36.260  22.576  24.538  1.00  0.00     0.023 C 
BRANCH  29  30
ATOM     30  C   UNL A   1      37.268  23.218  25.481  1.00  0.00     0.116 C 
BRANCH  30  31
ATOM     31  N   UNL A   1      38.518  22.479  25.596  1.00  0.00    -0.352 N 
ATOM     32  C   UNL A   1      39.697  22.890  26.178  1.00  0.00     0.251 C 
ATOM     33  H   UNL A   1      38.520  21.574  25.209  1.00  0.00     0.163 HD
ATOM     34  O   UNL A   1      40.697  22.183  26.121  1.00  0.00    -0.269 OA
BRANCH  32  35
ATOM     35  C   UNL A   1      39.751  24.221  26.819  1.00  0.00     0.039 A 
ATOM     36  C   UNL A   1      40.383  25.288  26.179  1.00  0.00     0.014 A 
ATOM     37  C   UNL A   1      39.237  24.373  28.109  1.00  0.00     0.014 A 
ATOM     38  C   UNL A   1      40.660  26.447  26.895  1.00  0.00     0.010 A 
ATOM     39  C   UNL A   1      39.450  25.569  28.799  1.00  0.00     0.010 A 
ATOM     40  C   UNL A   1      40.214  26.594  28.219  1.00  0.00    -0.014 A 
BRANCH  40  41
ATOM     41  C   UNL A   1      40.584  27.812  28.983  1.00  0.00     0.031 A 
ATOM     42  C   UNL A   1      41.981  27.983  29.523  1.00  0.00     0.074 A 
ATOM     43  C   UNL A   1      39.682  28.802  29.127  1.00  0.00     0.049 A 
ATOM     44  N   UNL A   1      42.487  28.993  30.183  1.00  0.00    -0.248 NA
ATOM     45  C   UNL A   1      42.935  26.885  29.289  1.00  0.00     0.031 C 
ATOM     46  C   UNL A   1      38.311  28.766  28.616  1.00  0.00     0.029 A 
ATOM     47  N   UNL A   1      39.790  30.040  29.709  1.00  0.00    -0.354 N 
ATOM     48  C   UNL A   1      43.806  28.649  30.456  1.00  0.00     0.074 A 
ATOM     49  C   UNL A   1      44.019  27.325  29.914  1.00  0.00     0.031 C 
ATOM     50  C   UNL A   1      37.725  29.950  28.850  1.00  0.00     0.029 A 
ATOM     51  C   UNL A   1      38.655  30.805  29.584  1.00  0.00     0.049 A 
ATOM     52  H   UNL A   1      40.602  30.349  30.171  1.00  0.00     0.167 HD
ATOM     53  C   UNL A   1      44.756  29.377  31.090  1.00  0.00     0.031 A 
ATOM     54  C   UNL A   1      38.381  32.052  30.015  1.00  0.00     0.031 A 
ATOM     55  C   UNL A   1      44.545  30.700  31.615  1.00  0.00     0.049 A 
ATOM     56  C   UNL A   1      39.434  32.819  30.760  1.00  0.00     0.074 A 
ATOM     57  C   UNL A   1      45.450  31.514  32.272  1.00  0.00     0.029 A 
ATOM     58  N   UNL A   1      43.354  31.408  31.535  1.00  0.00    -0.354 N 
ATOM     59  N   UNL A   1      40.667  32.466  31.028  1.00  0.00    -0.248 NA
ATOM     60  C   UNL A   1      39.061  34.146  31.269  1.00  0.00     0.031 C 
ATOM     61  C   UNL A   1      44.794  32.693  32.634  1.00  0.00     0.029 A 
ATOM     62  C   UNL A   1      43.498  32.639  32.151  1.00  0.00     0.049 A 
ATOM     63  H   UNL A   1      42.532  31.082  31.104  1.00  0.00     0.167 HD
ATOM     64  C   UNL A   1      41.221  33.527  31.734  1.00  0.00     0.074 A 
ATOM     65  C   UNL A   1      40.193  34.545  31.835  1.00  0.00     0.031 C 
ATOM     66  C   UNL A   1      42.466  33.641  32.254  1.00  0.00     0.031 A 
BRANCH  53  67
ATOM     67  C   UNL A   1      46.123  28.768  31.266  1.00  0.00    -0.014 A 
ATOM     68  C   UNL A   1      47.090  28.923  30.257  1.00  0.00     0.010 A 
ATOM     69  C   UNL A   1      46.412  27.954  32.375  1.00  0.00     0.010 A 
ATOM     70  C   UNL A   1      48.316  28.257  30.339  1.00  0.00     0.020 A 
ATOM     71  C   UNL A   1      47.647  27.304  32.473  1.00  0.00     0.020 A 
ATOM     72  C   UNL A   1      48.584  27.445  31.445  1.00  0.00     0.054 A 
BRANCH  72  73
ATOM     73  S   UNL A   1      50.178  26.583  31.539  1.00  0.00     0.124 S 
ATOM     74  O   UNL A   1      50.717  27.068  32.805  1.00  0.00    -0.237 OA
ATOM     75  O   UNL A   1      49.783  25.175  31.518  1.00  0.00    -0.237 OA
ATOM     76  O   UNL A   1      50.881  27.038  30.342  1.00  0.00    -0.744 OA
ENDBRANCH  72  73
ENDBRANCH  53  67
BRANCH  54  77
ATOM     77  C   UNL A   1      37.044  32.637  29.723  1.00  0.00    -0.014 A 
ATOM     78  C   UNL A   1      36.819  33.324  28.516  1.00  0.00     0.010 A 
ATOM     79  C   UNL A   1      36.028  32.601  30.693  1.00  0.00     0.010 A 
ATOM     80  C   UNL A   1      35.627  34.021  28.310  1.00  0.00     0.020 A 
ATOM     81  C   UNL A   1      34.822  33.275  30.477  1.00  0.00     0.020 A 
ATOM     82  C   UNL A   1      34.643  34.007  29.300  1.00  0.00     0.054 A 
BRANCH  82  83
ATOM     83  S   UNL A   1      33.130  34.973  29.043  1.00  0.00     0.124 S 
ATOM     84  O   UNL A   1      32.536  34.957  30.377  1.00  0.00    -0.237 OA
ATOM     85  O   UNL A   1      33.644  36.266  28.598  1.00  0.00    -0.237 OA
ATOM     86  O   UNL A   1      32.408  34.211  28.027  1.00  0.00    -0.744 OA
ENDBRANCH  82  83
ENDBRANCH  54  77
BRANCH  66  87
ATOM     87  C   UNL A   1      42.813  34.904  32.996  1.00  0.00    -0.014 A 
ATOM     88  C   UNL A   1      43.384  35.986  32.302  1.00  0.00     0.010 A 
ATOM     89  C   UNL A   1      42.705  34.963  34.396  1.00  0.00     0.010 A 
ATOM     90  C   UNL A   1      43.876  37.092  32.998  1.00  0.00     0.020 A 
ATOM     91  C   UNL A   1      43.175  36.078  35.093  1.00  0.00     0.020 A 
ATOM     92  C   UNL A   1      43.781  37.124  34.392  1.00  0.00     0.054 A 
BRANCH  92  93
ATOM     93  S   UNL A   1      44.462  38.549  35.286  1.00  0.00     0.124 S 
ATOM     94  O   UNL A   1      43.837  39.672  34.594  1.00  0.00    -0.237 OA
ATOM     95  O   UNL A   1      44.006  38.319  36.655  1.00  0.00    -0.237 OA
ATOM     96  O   UNL A   1      45.904  38.418  35.089  1.00  0.00    -0.744 OA
ENDBRANCH  92  93
ENDBRANCH  66  87
ENDBRANCH  40  41
ENDBRANCH  32  35
ENDBRANCH  30  31
ENDBRANCH  29  30
ENDBRANCH   1  29
TORSDOF 17
ENDMDL
