MODEL 1
REMARK VINA RESULT:     -12.5      0.000      0.000
REMARK SMILES C[C@@H]1CC[C@@H](C(=O)NCCCCNC(=O)c2ccc(-c3c4nc(c(-c5ccc(S(=O)(=O)[O-])cc5)c5ccc([nH]5)c(-c5ccc(S(=O)(=O)[O-])cc5)c5nc(c(-c6ccc(S(=O)(=O)[O-])cc6)c6ccc3[nH]6)C=C5)C=C4)cc2)[C@H]2C(=O)N(c3ccccc3)C(=O)[C@@H]21
REMARK SMILES IDX 11 1 10 2 9 3 8 4 6 5 7 6 5 8 1 9 2 10 3 11 88 12 4 13 76 14
REMARK SMILES IDX 86 15 77 16 79 17 87 18 78 19 80 20 81 21 85 22 82 23 84 24
REMARK SMILES IDX 83 25 12 26 13 27 14 28 15 30 16 31 17 32 75 33 18 34 74 35
REMARK SMILES IDX 19 36 20 37 21 38 68 39 22 40 73 41 67 42 69 43 23 44 72 45
REMARK SMILES IDX 66 46 65 47 24 49 54 50 35 51 53 52 36 53 39 54 52 55 70 56
REMARK SMILES IDX 37 57 38 58 51 60 71 61 40 62 25 63 26 64 34 65 27 66 33 67
REMARK SMILES IDX 28 68 29 69 30 70 31 71 32 72 55 73 56 74 64 75 57 76 63 77
REMARK SMILES IDX 58 78 59 79 60 80 61 81 62 82 41 83 42 84 50 85 43 86 49 87
REMARK SMILES IDX 44 88 45 89 46 90 47 91 48 92
REMARK H PARENT 8 7 13 29 69 48 39 59
REMARK Flexibility Score: inf
ROOT
ATOM      1  C   UNL A   1      40.063  21.906  26.975  1.00  0.00     0.023 C 
ENDROOT
BRANCH   1   2
ATOM      2  C   UNL A   1      38.890  22.252  26.052  1.00  0.00     0.023 C 
BRANCH   2   3
ATOM      3  C   UNL A   1      38.190  23.575  26.368  1.00  0.00     0.116 C 
BRANCH   3   4
ATOM      4  N   UNL A   1      36.837  23.358  26.843  1.00  0.00    -0.356 N 
ATOM      5  C   UNL A   1      35.673  23.209  26.158  1.00  0.00     0.223 C 
ATOM      6  O   UNL A   1      34.635  23.095  26.810  1.00  0.00    -0.275 OA
ATOM      7  H   UNL A   1      36.747  23.312  27.822  1.00  0.00     0.163 HD
BRANCH   5   8
ATOM      8  C   UNL A   1      35.679  23.163  24.631  1.00  0.00     0.092 C 
ATOM      9  C   UNL A   1      32.914  23.303  21.983  1.00  0.00     0.008 C 
ATOM     10  C   UNL A   1      32.841  23.398  23.507  1.00  0.00    -0.001 C 
ATOM     11  C   UNL A   1      33.622  24.622  24.031  1.00  0.00     0.005 C 
ATOM     12  C   UNL A   1      33.373  22.176  24.242  1.00  0.00     0.095 C 
ATOM     13  C   UNL A   1      35.151  24.457  23.972  1.00  0.00     0.014 C 
ATOM     14  C   UNL A   1      34.870  21.994  24.077  1.00  0.00     0.104 C 
ATOM     15  C   UNL A   1      32.886  20.790  23.919  1.00  0.00     0.237 C 
ATOM     16  C   UNL A   1      35.061  20.608  24.640  1.00  0.00     0.238 C 
ATOM     17  N   UNL A   1      33.868  19.930  24.398  1.00  0.00    -0.250 N 
ATOM     18  O   UNL A   1      31.796  20.544  23.425  1.00  0.00    -0.274 OA
ATOM     19  O   UNL A   1      36.140  20.178  25.020  1.00  0.00    -0.274 OA
BRANCH  17  20
ATOM     20  C   UNL A   1      33.690  18.536  24.588  1.00  0.00     0.052 A 
ATOM     21  C   UNL A   1      32.878  18.040  25.617  1.00  0.00     0.027 A 
ATOM     22  C   UNL A   1      34.351  17.612  23.764  1.00  0.00     0.027 A 
ATOM     23  C   UNL A   1      32.722  16.663  25.811  1.00  0.00     0.002 A 
ATOM     24  C   UNL A   1      34.219  16.236  23.978  1.00  0.00     0.002 A 
ATOM     25  C   UNL A   1      33.399  15.762  24.996  1.00  0.00     0.000 A 
ENDBRANCH  17  20
ENDBRANCH   5   8
ENDBRANCH   3   4
ENDBRANCH   2   3
ENDBRANCH   1   2
BRANCH   1  26
ATOM     26  C   UNL A   1      40.964  23.076  27.346  1.00  0.00     0.116 C 
BRANCH  26  27
ATOM     27  N   UNL A   1      41.354  23.871  26.193  1.00  0.00    -0.352 N 
ATOM     28  C   UNL A   1      41.505  25.234  26.096  1.00  0.00     0.251 C 
ATOM     29  H   UNL A   1      41.535  23.364  25.369  1.00  0.00     0.163 HD
ATOM     30  O   UNL A   1      41.703  25.750  25.001  1.00  0.00    -0.269 OA
BRANCH  28  31
ATOM     31  C   UNL A   1      41.395  26.074  27.309  1.00  0.00     0.039 A 
ATOM     32  C   UNL A   1      42.386  27.026  27.562  1.00  0.00     0.014 A 
ATOM     33  C   UNL A   1      40.316  25.934  28.186  1.00  0.00     0.014 A 
ATOM     34  C   UNL A   1      42.264  27.880  28.661  1.00  0.00     0.010 A 
ATOM     35  C   UNL A   1      40.161  26.829  29.241  1.00  0.00     0.010 A 
ATOM     36  C   UNL A   1      41.133  27.810  29.491  1.00  0.00    -0.014 A 
BRANCH  36  37
ATOM     37  C   UNL A   1      40.948  28.751  30.626  1.00  0.00     0.031 A 
ATOM     38  C   UNL A   1      41.805  28.626  31.857  1.00  0.00     0.074 A 
ATOM     39  C   UNL A   1      39.967  29.675  30.577  1.00  0.00     0.049 A 
ATOM     40  N   UNL A   1      41.743  29.299  32.977  1.00  0.00    -0.248 NA
ATOM     41  C   UNL A   1      42.852  27.591  31.835  1.00  0.00     0.031 C 
ATOM     42  C   UNL A   1      39.047  29.877  29.456  1.00  0.00     0.029 A 
ATOM     43  N   UNL A   1      39.575  30.612  31.501  1.00  0.00    -0.354 N 
ATOM     44  C   UNL A   1      42.727  28.760  33.798  1.00  0.00     0.074 A 
ATOM     45  C   UNL A   1      43.340  27.674  33.065  1.00  0.00     0.031 C 
ATOM     46  C   UNL A   1      38.214  30.890  29.748  1.00  0.00     0.029 A 
ATOM     47  C   UNL A   1      38.512  31.381  31.090  1.00  0.00     0.049 A 
ATOM     48  H   UNL A   1      40.015  30.724  32.374  1.00  0.00     0.167 HD
ATOM     49  C   UNL A   1      43.100  29.146  35.041  1.00  0.00     0.031 A 
ATOM     50  C   UNL A   1      37.844  32.364  31.724  1.00  0.00     0.031 A 
ATOM     51  C   UNL A   1      42.498  30.234  35.765  1.00  0.00     0.049 A 
ATOM     52  C   UNL A   1      38.270  32.767  33.110  1.00  0.00     0.074 A 
ATOM     53  C   UNL A   1      42.838  30.732  37.010  1.00  0.00     0.029 A 
ATOM     54  N   UNL A   1      41.433  30.995  35.308  1.00  0.00    -0.354 N 
ATOM     55  N   UNL A   1      39.240  32.281  33.847  1.00  0.00    -0.248 NA
ATOM     56  C   UNL A   1      37.519  33.861  33.743  1.00  0.00     0.031 C 
ATOM     57  C   UNL A   1      41.950  31.765  37.326  1.00  0.00     0.029 A 
ATOM     58  C   UNL A   1      41.091  31.947  36.253  1.00  0.00     0.049 A 
ATOM     59  H   UNL A   1      40.985  30.876  34.439  1.00  0.00     0.167 HD
ATOM     60  C   UNL A   1      39.233  33.029  35.020  1.00  0.00     0.074 A 
ATOM     61  C   UNL A   1      38.172  34.007  34.888  1.00  0.00     0.031 C 
ATOM     62  C   UNL A   1      40.036  32.917  36.107  1.00  0.00     0.031 A 
BRANCH  49  63
ATOM     63  C   UNL A   1      44.214  28.377  35.702  1.00  0.00    -0.014 A 
ATOM     64  C   UNL A   1      45.547  28.819  35.620  1.00  0.00     0.010 A 
ATOM     65  C   UNL A   1      43.921  27.219  36.446  1.00  0.00     0.010 A 
ATOM     66  C   UNL A   1      46.571  28.093  36.233  1.00  0.00     0.020 A 
ATOM     67  C   UNL A   1      44.941  26.506  37.083  1.00  0.00     0.020 A 
ATOM     68  C   UNL A   1      46.262  26.939  36.957  1.00  0.00     0.054 A 
BRANCH  68  69
ATOM     69  S   UNL A   1      47.611  26.028  37.758  1.00  0.00     0.124 S 
ATOM     70  O   UNL A   1      47.328  26.258  39.173  1.00  0.00    -0.237 OA
ATOM     71  O   UNL A   1      47.399  24.661  37.290  1.00  0.00    -0.237 OA
ATOM     72  O   UNL A   1      48.817  26.677  37.252  1.00  0.00    -0.744 OA
ENDBRANCH  68  69
ENDBRANCH  49  63
BRANCH  50  73
ATOM     73  C   UNL A   1      36.708  33.050  31.048  1.00  0.00    -0.014 A 
ATOM     74  C   UNL A   1      35.416  33.002  31.600  1.00  0.00     0.010 A 
ATOM     75  C   UNL A   1      36.916  33.759  29.850  1.00  0.00     0.010 A 
ATOM     76  C   UNL A   1      34.348  33.633  30.957  1.00  0.00     0.020 A 
ATOM     77  C   UNL A   1      35.854  34.413  29.219  1.00  0.00     0.020 A 
ATOM     78  C   UNL A   1      34.574  34.335  29.771  1.00  0.00     0.054 A 
BRANCH  78  79
ATOM     79  S   UNL A   1      33.181  35.187  28.978  1.00  0.00     0.124 S 
ATOM     80  O   UNL A   1      32.310  35.467  30.114  1.00  0.00    -0.237 OA
ATOM     81  O   UNL A   1      33.825  36.350  28.372  1.00  0.00    -0.237 OA
ATOM     82  O   UNL A   1      32.675  34.200  28.027  1.00  0.00    -0.744 OA
ENDBRANCH  78  79
ENDBRANCH  50  73
BRANCH  62  83
ATOM     83  C   UNL A   1      39.830  33.901  37.226  1.00  0.00    -0.014 A 
ATOM     84  C   UNL A   1      40.352  35.205  37.157  1.00  0.00     0.010 A 
ATOM     85  C   UNL A   1      39.052  33.531  38.338  1.00  0.00     0.010 A 
ATOM     86  C   UNL A   1      40.121  36.112  38.195  1.00  0.00     0.020 A 
ATOM     87  C   UNL A   1      38.798  34.444  39.365  1.00  0.00     0.020 A 
ATOM     88  C   UNL A   1      39.346  35.725  39.293  1.00  0.00     0.054 A 
BRANCH  88  89
ATOM     89  S   UNL A   1      39.020  36.936  40.604  1.00  0.00     0.124 S 
ATOM     90  O   UNL A   1      38.210  37.930  39.907  1.00  0.00    -0.237 OA
ATOM     91  O   UNL A   1      38.314  36.142  41.607  1.00  0.00    -0.237 OA
ATOM     92  O   UNL A   1      40.353  37.384  41.000  1.00  0.00    -0.744 OA
ENDBRANCH  88  89
ENDBRANCH  62  83
ENDBRANCH  36  37
ENDBRANCH  28  31
ENDBRANCH  26  27
ENDBRANCH   1  26
TORSDOF 15
ENDMDL
MODEL 2
REMARK VINA RESULT:     -12.4      4.358      9.872
REMARK SMILES C[C@@H]1CC[C@@H](C(=O)NCCCCNC(=O)c2ccc(-c3c4nc(c(-c5ccc(S(=O)(=O)[O-])cc5)c5ccc([nH]5)c(-c5ccc(S(=O)(=O)[O-])cc5)c5nc(c(-c6ccc(S(=O)(=O)[O-])cc6)c6ccc3[nH]6)C=C5)C=C4)cc2)[C@H]2C(=O)N(c3ccccc3)C(=O)[C@@H]21
REMARK SMILES IDX 11 1 10 2 9 3 8 4 6 5 7 6 5 8 1 9 2 10 3 11 88 12 4 13 76 14
REMARK SMILES IDX 86 15 77 16 79 17 87 18 78 19 80 20 81 21 85 22 82 23 84 24
REMARK SMILES IDX 83 25 12 26 13 27 14 28 15 30 16 31 17 32 75 33 18 34 74 35
REMARK SMILES IDX 19 36 20 37 21 38 68 39 22 40 73 41 67 42 69 43 23 44 72 45
REMARK SMILES IDX 66 46 65 47 24 49 54 50 35 51 53 52 36 53 39 54 52 55 70 56
REMARK SMILES IDX 37 57 38 58 51 60 71 61 40 62 25 63 26 64 34 65 27 66 33 67
REMARK SMILES IDX 28 68 29 69 30 70 31 71 32 72 55 73 56 74 64 75 57 76 63 77
REMARK SMILES IDX 58 78 59 79 60 80 61 81 62 82 41 83 42 84 50 85 43 86 49 87
REMARK SMILES IDX 44 88 45 89 46 90 47 91 48 92
REMARK H PARENT 8 7 13 29 69 48 39 59
REMARK Flexibility Score: inf
ROOT
ATOM      1  C   UNL A   1      34.028  27.750  24.928  1.00  0.00     0.023 C 
ENDROOT
BRANCH   1   2
ATOM      2  C   UNL A   1      32.782  27.103  24.315  1.00  0.00     0.023 C 
BRANCH   2   3
ATOM      3  C   UNL A   1      32.492  25.679  24.796  1.00  0.00     0.116 C 
BRANCH   3   4
ATOM      4  N   UNL A   1      32.945  24.694  23.833  1.00  0.00    -0.356 N 
ATOM      5  C   UNL A   1      33.881  23.714  23.944  1.00  0.00     0.223 C 
ATOM      6  O   UNL A   1      34.124  23.039  22.944  1.00  0.00    -0.275 OA
ATOM      7  H   UNL A   1      32.503  24.743  22.955  1.00  0.00     0.163 HD
BRANCH   5   8
ATOM      8  C   UNL A   1      34.577  23.463  25.280  1.00  0.00     0.092 C 
ATOM      9  C   UNL A   1      37.988  22.004  26.237  1.00  0.00     0.008 C 
ATOM     10  C   UNL A   1      37.365  22.270  24.866  1.00  0.00    -0.001 C 
ATOM     11  C   UNL A   1      37.075  23.772  24.662  1.00  0.00     0.005 C 
ATOM     12  C   UNL A   1      36.066  21.521  24.607  1.00  0.00     0.095 C 
ATOM     13  C   UNL A   1      35.870  24.287  25.468  1.00  0.00     0.014 C 
ATOM     14  C   UNL A   1      34.927  21.993  25.491  1.00  0.00     0.104 C 
ATOM     15  C   UNL A   1      35.965  20.031  24.793  1.00  0.00     0.237 C 
ATOM     16  C   UNL A   1      33.894  20.925  25.234  1.00  0.00     0.238 C 
ATOM     17  N   UNL A   1      34.608  19.766  24.938  1.00  0.00    -0.250 N 
ATOM     18  O   UNL A   1      36.915  19.266  24.722  1.00  0.00    -0.274 OA
ATOM     19  O   UNL A   1      32.703  21.070  25.466  1.00  0.00    -0.274 OA
BRANCH  17  20
ATOM     20  C   UNL A   1      34.027  18.477  24.828  1.00  0.00     0.052 A 
ATOM     21  C   UNL A   1      33.082  18.024  25.760  1.00  0.00     0.027 A 
ATOM     22  C   UNL A   1      34.408  17.606  23.797  1.00  0.00     0.027 A 
ATOM     23  C   UNL A   1      32.526  16.745  25.657  1.00  0.00     0.002 A 
ATOM     24  C   UNL A   1      33.875  16.316  23.712  1.00  0.00     0.002 A 
ATOM     25  C   UNL A   1      32.929  15.888  24.638  1.00  0.00     0.000 A 
ENDBRANCH  17  20
ENDBRANCH   5   8
ENDBRANCH   3   4
ENDBRANCH   2   3
ENDBRANCH   1   2
BRANCH   1  26
ATOM     26  C   UNL A   1      34.000  27.905  26.443  1.00  0.00     0.116 C 
BRANCH  26  27
ATOM     27  N   UNL A   1      33.556  29.223  26.864  1.00  0.00    -0.352 N 
ATOM     28  C   UNL A   1      34.222  30.156  27.623  1.00  0.00     0.251 C 
ATOM     29  H   UNL A   1      32.655  29.484  26.566  1.00  0.00     0.163 HD
ATOM     30  O   UNL A   1      33.635  31.164  28.004  1.00  0.00    -0.269 OA
BRANCH  28  31
ATOM     31  C   UNL A   1      35.632  29.923  28.004  1.00  0.00     0.039 A 
ATOM     32  C   UNL A   1      35.922  29.533  29.314  1.00  0.00     0.014 A 
ATOM     33  C   UNL A   1      36.663  30.076  27.073  1.00  0.00     0.014 A 
ATOM     34  C   UNL A   1      37.238  29.236  29.674  1.00  0.00     0.010 A 
ATOM     35  C   UNL A   1      37.964  29.716  27.414  1.00  0.00     0.010 A 
ATOM     36  C   UNL A   1      38.266  29.293  28.718  1.00  0.00    -0.014 A 
BRANCH  36  37
ATOM     37  C   UNL A   1      39.662  28.919  29.061  1.00  0.00     0.031 A 
ATOM     38  C   UNL A   1      40.578  29.925  29.703  1.00  0.00     0.074 A 
ATOM     39  C   UNL A   1      40.126  27.695  28.735  1.00  0.00     0.049 A 
ATOM     40  N   UNL A   1      41.846  29.812  30.005  1.00  0.00    -0.248 NA
ATOM     41  C   UNL A   1      39.999  31.240  30.025  1.00  0.00     0.031 C 
ATOM     42  C   UNL A   1      39.351  26.639  28.080  1.00  0.00     0.029 A 
ATOM     43  N   UNL A   1      41.369  27.136  28.904  1.00  0.00    -0.354 N 
ATOM     44  C   UNL A   1      42.220  31.042  30.534  1.00  0.00     0.074 A 
ATOM     45  C   UNL A   1      41.058  31.901  30.469  1.00  0.00     0.031 C 
ATOM     46  C   UNL A   1      40.128  25.555  27.924  1.00  0.00     0.029 A 
ATOM     47  C   UNL A   1      41.465  25.850  28.428  1.00  0.00     0.049 A 
ATOM     48  H   UNL A   1      42.121  27.611  29.326  1.00  0.00     0.167 HD
ATOM     49  C   UNL A   1      43.417  31.418  31.045  1.00  0.00     0.031 A 
ATOM     50  C   UNL A   1      42.514  25.004  28.392  1.00  0.00     0.031 A 
ATOM     51  C   UNL A   1      44.569  30.559  31.120  1.00  0.00     0.049 A 
ATOM     52  C   UNL A   1      43.836  25.448  28.956  1.00  0.00     0.074 A 
ATOM     53  C   UNL A   1      45.812  30.832  31.664  1.00  0.00     0.029 A 
ATOM     54  N   UNL A   1      44.620  29.259  30.639  1.00  0.00    -0.354 N 
ATOM     55  N   UNL A   1      44.154  26.598  29.502  1.00  0.00    -0.248 NA
ATOM     56  C   UNL A   1      44.937  24.476  28.909  1.00  0.00     0.031 C 
ATOM     57  C   UNL A   1      46.629  29.713  31.473  1.00  0.00     0.029 A 
ATOM     58  C   UNL A   1      45.878  28.723  30.858  1.00  0.00     0.049 A 
ATOM     59  H   UNL A   1      43.873  28.787  30.206  1.00  0.00     0.167 HD
ATOM     60  C   UNL A   1      45.484  26.476  29.890  1.00  0.00     0.074 A 
ATOM     61  C   UNL A   1      45.906  25.138  29.527  1.00  0.00     0.031 C 
ATOM     62  C   UNL A   1      46.283  27.389  30.495  1.00  0.00     0.031 A 
BRANCH  49  63
ATOM     63  C   UNL A   1      43.541  32.828  31.561  1.00  0.00    -0.014 A 
ATOM     64  C   UNL A   1      43.798  33.899  30.687  1.00  0.00     0.010 A 
ATOM     65  C   UNL A   1      43.360  33.090  32.931  1.00  0.00     0.010 A 
ATOM     66  C   UNL A   1      43.916  35.201  31.179  1.00  0.00     0.020 A 
ATOM     67  C   UNL A   1      43.450  34.395  33.424  1.00  0.00     0.020 A 
ATOM     68  C   UNL A   1      43.746  35.440  32.545  1.00  0.00     0.054 A 
BRANCH  68  69
ATOM     69  S   UNL A   1      43.885  37.144  33.154  1.00  0.00     0.124 S 
ATOM     70  O   UNL A   1      45.162  37.104  33.863  1.00  0.00    -0.237 OA
ATOM     71  O   UNL A   1      43.876  37.927  31.921  1.00  0.00    -0.237 OA
ATOM     72  O   UNL A   1      42.707  37.307  34.001  1.00  0.00    -0.744 OA
ENDBRANCH  68  69
ENDBRANCH  49  63
BRANCH  50  73
ATOM     73  C   UNL A   1      42.352  23.642  27.813  1.00  0.00    -0.014 A 
ATOM     74  C   UNL A   1      42.827  23.356  26.521  1.00  0.00     0.010 A 
ATOM     75  C   UNL A   1      41.728  22.622  28.554  1.00  0.00     0.010 A 
ATOM     76  C   UNL A   1      42.662  22.081  25.972  1.00  0.00     0.020 A 
ATOM     77  C   UNL A   1      41.585  21.339  28.018  1.00  0.00     0.020 A 
ATOM     78  C   UNL A   1      42.042  21.080  26.725  1.00  0.00     0.054 A 
BRANCH  78  79
ATOM     79  S   UNL A   1      41.881  19.420  26.011  1.00  0.00     0.124 S 
ATOM     80  O   UNL A   1      42.719  19.519  24.820  1.00  0.00    -0.237 OA
ATOM     81  O   UNL A   1      42.396  18.565  27.078  1.00  0.00    -0.237 OA
ATOM     82  O   UNL A   1      40.447  19.294  25.761  1.00  0.00    -0.744 OA
ENDBRANCH  78  79
ENDBRANCH  50  73
BRANCH  62  83
ATOM     83  C   UNL A   1      47.684  26.964  30.844  1.00  0.00    -0.014 A 
ATOM     84  C   UNL A   1      48.764  27.238  29.988  1.00  0.00     0.010 A 
ATOM     85  C   UNL A   1      47.927  26.331  32.077  1.00  0.00     0.010 A 
ATOM     86  C   UNL A   1      50.061  26.861  30.347  1.00  0.00     0.020 A 
ATOM     87  C   UNL A   1      49.226  25.976  32.450  1.00  0.00     0.020 A 
ATOM     88  C   UNL A   1      50.284  26.232  31.576  1.00  0.00     0.054 A 
BRANCH  88  89
ATOM     89  S   UNL A   1      51.982  25.796  32.041  1.00  0.00     0.124 S 
ATOM     90  O   UNL A   1      51.840  24.398  32.438  1.00  0.00    -0.237 OA
ATOM     91  O   UNL A   1      52.723  26.025  30.803  1.00  0.00    -0.237 OA
ATOM     92  O   UNL A   1      52.294  26.724  33.126  1.00  0.00    -0.744 OA
ENDBRANCH  88  89
ENDBRANCH  62  83
ENDBRANCH  36  37
ENDBRANCH  28  31
ENDBRANCH  26  27
ENDBRANCH   1  26
TORSDOF 15
ENDMDL
MODEL 3
REMARK VINA RESULT:     -12.3      6.064     10.617
REMARK SMILES C[C@@H]1CC[C@@H](C(=O)NCCCCNC(=O)c2ccc(-c3c4nc(c(-c5ccc(S(=O)(=O)[O-])cc5)c5ccc([nH]5)c(-c5ccc(S(=O)(=O)[O-])cc5)c5nc(c(-c6ccc(S(=O)(=O)[O-])cc6)c6ccc3[nH]6)C=C5)C=C4)cc2)[C@H]2C(=O)N(c3ccccc3)C(=O)[C@@H]21
REMARK SMILES IDX 11 1 10 2 9 3 8 4 6 5 7 6 5 8 1 9 2 10 3 11 88 12 4 13 76 14
REMARK SMILES IDX 86 15 77 16 79 17 87 18 78 19 80 20 81 21 85 22 82 23 84 24
REMARK SMILES IDX 83 25 12 26 13 27 14 28 15 30 16 31 17 32 75 33 18 34 74 35
REMARK SMILES IDX 19 36 20 37 21 38 68 39 22 40 73 41 67 42 69 43 23 44 72 45
REMARK SMILES IDX 66 46 65 47 24 49 54 50 35 51 53 52 36 53 39 54 52 55 70 56
REMARK SMILES IDX 37 57 38 58 51 60 71 61 40 62 25 63 26 64 34 65 27 66 33 67
REMARK SMILES IDX 28 68 29 69 30 70 31 71 32 72 55 73 56 74 64 75 57 76 63 77
REMARK SMILES IDX 58 78 59 79 60 80 61 81 62 82 41 83 42 84 50 85 43 86 49 87
REMARK SMILES IDX 44 88 45 89 46 90 47 91 48 92
REMARK H PARENT 8 7 13 29 69 48 39 59
REMARK Flexibility Score: inf
ROOT
ATOM      1  C   UNL A   1      39.566  21.443  26.160  1.00  0.00     0.023 C 
ENDROOT
BRANCH   1   2
ATOM      2  C   UNL A   1      39.566  22.850  26.766  1.00  0.00     0.023 C 
BRANCH   2   3
ATOM      3  C   UNL A   1      38.479  23.783  26.228  1.00  0.00     0.116 C 
BRANCH   3   4
ATOM      4  N   UNL A   1      37.174  23.435  26.756  1.00  0.00    -0.356 N 
ATOM      5  C   UNL A   1      36.008  23.152  26.116  1.00  0.00     0.223 C 
ATOM      6  O   UNL A   1      35.011  22.943  26.808  1.00  0.00    -0.275 OA
ATOM      7  H   UNL A   1      37.124  23.398  27.738  1.00  0.00     0.163 HD
BRANCH   5   8
ATOM      8  C   UNL A   1      35.965  23.080  24.591  1.00  0.00     0.092 C 
ATOM      9  C   UNL A   1      33.131  23.308  22.024  1.00  0.00     0.008 C 
ATOM     10  C   UNL A   1      33.109  23.434  23.547  1.00  0.00    -0.001 C 
ATOM     11  C   UNL A   1      33.964  24.627  24.025  1.00  0.00     0.005 C 
ATOM     12  C   UNL A   1      33.603  22.200  24.289  1.00  0.00     0.095 C 
ATOM     13  C   UNL A   1      35.480  24.386  23.923  1.00  0.00     0.014 C 
ATOM     14  C   UNL A   1      35.084  21.942  24.084  1.00  0.00     0.104 C 
ATOM     15  C   UNL A   1      33.040  20.834  24.008  1.00  0.00     0.237 C 
ATOM     16  C   UNL A   1      35.225  20.558  24.666  1.00  0.00     0.238 C 
ATOM     17  N   UNL A   1      33.994  19.936  24.473  1.00  0.00    -0.250 N 
ATOM     18  O   UNL A   1      31.925  20.633  23.551  1.00  0.00    -0.274 OA
ATOM     19  O   UNL A   1      36.293  20.084  25.023  1.00  0.00    -0.274 OA
BRANCH  17  20
ATOM     20  C   UNL A   1      33.755  18.555  24.695  1.00  0.00     0.052 A 
ATOM     21  C   UNL A   1      34.340  17.576  23.880  1.00  0.00     0.027 A 
ATOM     22  C   UNL A   1      32.897  18.134  25.722  1.00  0.00     0.027 A 
ATOM     23  C   UNL A   1      34.086  16.217  24.092  1.00  0.00     0.002 A 
ATOM     24  C   UNL A   1      32.619  16.777  25.914  1.00  0.00     0.002 A 
ATOM     25  C   UNL A   1      33.219  15.819  25.104  1.00  0.00     0.000 A 
ENDBRANCH  17  20
ENDBRANCH   5   8
ENDBRANCH   3   4
ENDBRANCH   2   3
ENDBRANCH   1   2
BRANCH   1  26
ATOM     26  C   UNL A   1      40.251  20.374  27.002  1.00  0.00     0.116 C 
BRANCH  26  27
ATOM     27  N   UNL A   1      41.148  19.536  26.224  1.00  0.00    -0.352 N 
ATOM     28  C   UNL A   1      42.371  19.853  25.682  1.00  0.00     0.251 C 
ATOM     29  H   UNL A   1      40.838  18.616  26.062  1.00  0.00     0.163 HD
ATOM     30  O   UNL A   1      42.928  19.061  24.929  1.00  0.00    -0.269 OA
BRANCH  28  31
ATOM     31  C   UNL A   1      42.993  21.161  25.984  1.00  0.00     0.039 A 
ATOM     32  C   UNL A   1      43.172  22.078  24.946  1.00  0.00     0.014 A 
ATOM     33  C   UNL A   1      43.386  21.487  27.285  1.00  0.00     0.014 A 
ATOM     34  C   UNL A   1      43.689  23.347  25.222  1.00  0.00     0.010 A 
ATOM     35  C   UNL A   1      43.837  22.774  27.570  1.00  0.00     0.010 A 
ATOM     36  C   UNL A   1      43.995  23.716  26.542  1.00  0.00    -0.014 A 
BRANCH  36  37
ATOM     37  C   UNL A   1      44.483  25.080  26.869  1.00  0.00     0.031 A 
ATOM     38  C   UNL A   1      43.525  26.122  27.381  1.00  0.00     0.074 A 
ATOM     39  C   UNL A   1      45.773  25.402  26.644  1.00  0.00     0.049 A 
ATOM     40  N   UNL A   1      43.745  27.384  27.648  1.00  0.00    -0.248 NA
ATOM     41  C   UNL A   1      42.133  25.695  27.598  1.00  0.00     0.031 C 
ATOM     42  C   UNL A   1      46.795  24.494  26.119  1.00  0.00     0.029 A 
ATOM     43  N   UNL A   1      46.443  26.587  26.822  1.00  0.00    -0.354 N 
ATOM     44  C   UNL A   1      42.519  27.905  28.046  1.00  0.00     0.074 A 
ATOM     45  C   UNL A   1      41.551  26.835  27.941  1.00  0.00     0.031 C 
ATOM     46  C   UNL A   1      47.966  25.148  26.039  1.00  0.00     0.029 A 
ATOM     47  C   UNL A   1      47.770  26.530  26.466  1.00  0.00     0.049 A 
ATOM     48  H   UNL A   1      46.014  27.402  27.171  1.00  0.00     0.167 HD
ATOM     49  C   UNL A   1      42.228  29.156  28.477  1.00  0.00     0.031 A 
ATOM     50  C   UNL A   1      48.722  27.484  26.473  1.00  0.00     0.031 A 
ATOM     51  C   UNL A   1      43.193  30.216  28.592  1.00  0.00     0.049 A 
ATOM     52  C   UNL A   1      48.371  28.868  26.947  1.00  0.00     0.074 A 
ATOM     53  C   UNL A   1      43.006  31.503  29.065  1.00  0.00     0.029 A 
ATOM     54  N   UNL A   1      44.529  30.113  28.235  1.00  0.00    -0.354 N 
ATOM     55  N   UNL A   1      47.218  29.326  27.371  1.00  0.00    -0.248 NA
ATOM     56  C   UNL A   1      49.455  29.861  26.954  1.00  0.00     0.031 C 
ATOM     57  C   UNL A   1      44.218  32.192  28.951  1.00  0.00     0.029 A 
ATOM     58  C   UNL A   1      45.173  31.317  28.459  1.00  0.00     0.049 A 
ATOM     59  H   UNL A   1      44.956  29.303  27.874  1.00  0.00     0.167 HD
ATOM     60  C   UNL A   1      47.445  30.653  27.722  1.00  0.00     0.074 A 
ATOM     61  C   UNL A   1      48.847  30.919  27.472  1.00  0.00     0.031 C 
ATOM     62  C   UNL A   1      46.570  31.567  28.210  1.00  0.00     0.031 A 
BRANCH  49  63
ATOM     63  C   UNL A   1      40.798  29.446  28.853  1.00  0.00    -0.014 A 
ATOM     64  C   UNL A   1      39.796  29.543  27.871  1.00  0.00     0.010 A 
ATOM     65  C   UNL A   1      40.445  29.586  30.208  1.00  0.00     0.010 A 
ATOM     66  C   UNL A   1      38.475  29.818  28.233  1.00  0.00     0.020 A 
ATOM     67  C   UNL A   1      39.119  29.834  30.576  1.00  0.00     0.020 A 
ATOM     68  C   UNL A   1      38.146  29.967  29.583  1.00  0.00     0.054 A 
BRANCH  68  69
ATOM     69  S   UNL A   1      36.419  30.304  30.025  1.00  0.00     0.124 S 
ATOM     70  O   UNL A   1      35.708  29.817  28.845  1.00  0.00    -0.237 OA
ATOM     71  O   UNL A   1      36.237  29.512  31.238  1.00  0.00    -0.237 OA
ATOM     72  O   UNL A   1      36.387  31.751  30.218  1.00  0.00    -0.744 OA
ENDBRANCH  68  69
ENDBRANCH  49  63
BRANCH  50  73
ATOM     73  C   UNL A   1      50.106  27.158  26.031  1.00  0.00    -0.014 A 
ATOM     74  C   UNL A   1      51.068  26.727  26.961  1.00  0.00     0.010 A 
ATOM     75  C   UNL A   1      50.467  27.271  24.676  1.00  0.00     0.010 A 
ATOM     76  C   UNL A   1      52.371  26.436  26.550  1.00  0.00     0.020 A 
ATOM     77  C   UNL A   1      51.762  26.955  24.256  1.00  0.00     0.020 A 
ATOM     78  C   UNL A   1      52.710  26.551  25.199  1.00  0.00     0.054 A 
BRANCH  78  79
ATOM     79  S   UNL A   1      54.394  26.122  24.679  1.00  0.00     0.124 S 
ATOM     80  O   UNL A   1      54.409  24.675  24.862  1.00  0.00    -0.237 OA
ATOM     81  O   UNL A   1      54.426  26.585  23.293  1.00  0.00    -0.237 OA
ATOM     82  O   UNL A   1      55.239  26.880  25.599  1.00  0.00    -0.744 OA
ENDBRANCH  78  79
ENDBRANCH  50  73
BRANCH  62  83
ATOM     83  C   UNL A   1      47.109  32.931  28.549  1.00  0.00    -0.014 A 
ATOM     84  C   UNL A   1      47.053  33.988  27.623  1.00  0.00     0.010 A 
ATOM     85  C   UNL A   1      47.625  33.171  29.835  1.00  0.00     0.010 A 
ATOM     86  C   UNL A   1      47.531  35.254  27.970  1.00  0.00     0.020 A 
ATOM     87  C   UNL A   1      48.079  34.443  30.194  1.00  0.00     0.020 A 
ATOM     88  C   UNL A   1      48.041  35.473  29.254  1.00  0.00     0.054 A 
BRANCH  88  89
ATOM     89  S   UNL A   1      48.611  37.138  29.697  1.00  0.00     0.124 S 
ATOM     90  O   UNL A   1      47.415  37.942  29.461  1.00  0.00    -0.237 OA
ATOM     91  O   UNL A   1      48.997  36.984  31.098  1.00  0.00    -0.237 OA
ATOM     92  O   UNL A   1      49.719  37.382  28.776  1.00  0.00    -0.744 OA
ENDBRANCH  88  89
ENDBRANCH  62  83
ENDBRANCH  36  37
ENDBRANCH  28  31
ENDBRANCH  26  27
ENDBRANCH   1  26
TORSDOF 15
ENDMDL
