MODEL 1
REMARK VINA RESULT:     -11.2      0.000      0.000
REMARK SMILES Cc1cscc1C(=O)N[C@H](C(=O)NCCCCNC(=O)c1ccc(-c2c3nc(c(-c4ccc(S(=O)(=O)[O-])cc4)c4ccc([nH]4)c(-c4ccc(S(=O)(=O)[O-])cc4)c4nc(c(-c5ccc(S(=O)(=O)[O-])cc5)c5ccc2[nH]5)C=C4)C=C3)cc1)c1ccccc1
REMARK SMILES IDX 16 1 15 2 14 3 13 4 11 5 12 6 10 8 9 9 7 10 8 11 6 13 1 14
REMARK SMILES IDX 2 15 3 16 4 17 5 18 81 19 82 20 86 21 83 22 85 23 84 24
REMARK SMILES IDX 17 25 18 26 19 27 20 29 21 30 22 31 80 32 23 33 79 34 24 35
REMARK SMILES IDX 25 36 26 37 73 38 27 39 78 40 72 41 74 42 28 43 77 44 71 45
REMARK SMILES IDX 70 46 29 48 59 49 40 50 58 51 41 52 44 53 57 54 75 55 42 56
REMARK SMILES IDX 43 57 56 59 76 60 45 61 30 62 31 63 39 64 32 65 38 66 33 67
REMARK SMILES IDX 34 68 35 69 36 70 37 71 60 72 61 73 69 74 62 75 68 76 63 77
REMARK SMILES IDX 64 78 65 79 66 80 67 81 46 82 47 83 55 84 48 85 54 86 49 87
REMARK SMILES IDX 50 88 51 89 52 90 53 91
REMARK H PARENT 13 7 9 12 18 28 74 47 44 58
REMARK Flexibility Score: inf
ROOT
ATOM      1  C   UNL A   1      33.862  27.999  25.729  1.00  0.00     0.023 C 
ENDROOT
BRANCH   1   2
ATOM      2  C   UNL A   1      32.690  28.080  24.739  1.00  0.00     0.023 C 
BRANCH   2   3
ATOM      3  C   UNL A   1      31.999  26.750  24.435  1.00  0.00     0.116 C 
BRANCH   3   4
ATOM      4  N   UNL A   1      32.273  26.347  23.074  1.00  0.00    -0.354 N 
ATOM      5  C   UNL A   1      33.182  25.440  22.612  1.00  0.00     0.247 C 
ATOM      6  O   UNL A   1      33.632  25.693  21.498  1.00  0.00    -0.272 OA
ATOM      7  H   UNL A   1      31.726  26.789  22.384  1.00  0.00     0.163 HD
BRANCH   5   8
ATOM      8  C   UNL A   1      33.384  24.109  23.351  1.00  0.00     0.202 C 
BRANCH   8   9
ATOM      9  N   UNL A   1      32.809  23.026  22.569  1.00  0.00    -0.336 N 
ATOM     10  C   UNL A   1      32.384  21.748  22.739  1.00  0.00     0.253 C 
ATOM     11  O   UNL A   1      31.791  21.348  21.723  1.00  0.00    -0.269 OA
ATOM     12  H   UNL A   1      32.692  23.305  21.632  1.00  0.00     0.165 HD
BRANCH  10  13
ATOM     13  C   UNL A   1      32.583  20.805  23.867  1.00  0.00     0.053 A 
ATOM     14  C   UNL A   1      32.743  21.931  26.344  1.00  0.00     0.046 C 
ATOM     15  C   UNL A   1      32.723  20.829  25.332  1.00  0.00    -0.028 A 
ATOM     16  C   UNL A   1      32.843  19.540  25.846  1.00  0.00     0.069 A 
ATOM     17  S   UNL A   1      32.749  18.314  24.689  1.00  0.00    -0.151 S 
ATOM     18  C   UNL A   1      32.581  19.465  23.462  1.00  0.00     0.079 A 
ENDBRANCH  10  13
ENDBRANCH   8   9
BRANCH   8  19
ATOM     19  C   UNL A   1      34.714  23.748  23.998  1.00  0.00    -0.016 A 
ATOM     20  C   UNL A   1      35.633  22.932  23.319  1.00  0.00     0.006 A 
ATOM     21  C   UNL A   1      35.139  24.320  25.213  1.00  0.00     0.006 A 
ATOM     22  C   UNL A   1      36.907  22.687  23.848  1.00  0.00     0.000 A 
ATOM     23  C   UNL A   1      36.388  24.037  25.768  1.00  0.00     0.000 A 
ATOM     24  C   UNL A   1      37.277  23.226  25.079  1.00  0.00     0.000 A 
ENDBRANCH   8  19
ENDBRANCH   5   8
ENDBRANCH   3   4
ENDBRANCH   2   3
ENDBRANCH   1   2
BRANCH   1  25
ATOM     25  C   UNL A   1      33.526  28.263  27.194  1.00  0.00     0.116 C 
BRANCH  25  26
ATOM     26  N   UNL A   1      33.411  29.676  27.508  1.00  0.00    -0.352 N 
ATOM     27  C   UNL A   1      34.359  30.530  28.011  1.00  0.00     0.251 C 
ATOM     28  H   UNL A   1      32.528  30.077  27.337  1.00  0.00     0.163 HD
ATOM     29  O   UNL A   1      34.059  31.691  28.271  1.00  0.00    -0.269 OA
BRANCH  27  30
ATOM     30  C   UNL A   1      35.720  30.029  28.282  1.00  0.00     0.039 A 
ATOM     31  C   UNL A   1      36.651  30.058  27.243  1.00  0.00     0.014 A 
ATOM     32  C   UNL A   1      36.082  29.567  29.551  1.00  0.00     0.014 A 
ATOM     33  C   UNL A   1      37.969  29.677  27.490  1.00  0.00     0.010 A 
ATOM     34  C   UNL A   1      37.411  29.245  29.811  1.00  0.00     0.010 A 
ATOM     35  C   UNL A   1      38.366  29.298  28.783  1.00  0.00    -0.014 A 
BRANCH  35  36
ATOM     36  C   UNL A   1      39.782  28.958  29.069  1.00  0.00     0.031 A 
ATOM     37  C   UNL A   1      40.695  29.983  29.681  1.00  0.00     0.074 A 
ATOM     38  C   UNL A   1      40.250  27.738  28.735  1.00  0.00     0.049 A 
ATOM     39  N   UNL A   1      41.962  29.879  29.983  1.00  0.00    -0.248 NA
ATOM     40  C   UNL A   1      40.113  31.304  29.972  1.00  0.00     0.031 C 
ATOM     41  C   UNL A   1      39.466  26.676  28.097  1.00  0.00     0.029 A 
ATOM     42  N   UNL A   1      41.496  27.187  28.883  1.00  0.00    -0.354 N 
ATOM     43  C   UNL A   1      42.333  31.121  30.482  1.00  0.00     0.074 A 
ATOM     44  C   UNL A   1      41.171  31.976  30.400  1.00  0.00     0.031 C 
ATOM     45  C   UNL A   1      40.245  25.595  27.933  1.00  0.00     0.029 A 
ATOM     46  C   UNL A   1      41.588  25.896  28.418  1.00  0.00     0.049 A 
ATOM     47  H   UNL A   1      42.255  27.670  29.284  1.00  0.00     0.167 HD
ATOM     48  C   UNL A   1      43.531  31.509  30.981  1.00  0.00     0.031 A 
ATOM     49  C   UNL A   1      42.637  25.052  28.383  1.00  0.00     0.031 A 
ATOM     50  C   UNL A   1      44.681  30.648  31.069  1.00  0.00     0.049 A 
ATOM     51  C   UNL A   1      43.957  25.505  28.942  1.00  0.00     0.074 A 
ATOM     52  C   UNL A   1      45.923  30.925  31.612  1.00  0.00     0.029 A 
ATOM     53  N   UNL A   1      44.731  29.344  30.599  1.00  0.00    -0.354 N 
ATOM     54  N   UNL A   1      44.269  26.662  29.480  1.00  0.00    -0.248 NA
ATOM     55  C   UNL A   1      45.063  24.539  28.904  1.00  0.00     0.031 C 
ATOM     56  C   UNL A   1      46.740  29.806  31.422  1.00  0.00     0.029 A 
ATOM     57  C   UNL A   1      45.990  28.811  30.816  1.00  0.00     0.049 A 
ATOM     58  H   UNL A   1      43.981  28.869  30.172  1.00  0.00     0.167 HD
ATOM     59  C   UNL A   1      45.600  26.551  29.866  1.00  0.00     0.074 A 
ATOM     60  C   UNL A   1      46.027  25.212  29.516  1.00  0.00     0.031 C 
ATOM     61  C   UNL A   1      46.396  27.475  30.459  1.00  0.00     0.031 A 
BRANCH  48  62
ATOM     62  C   UNL A   1      43.659  32.930  31.463  1.00  0.00    -0.014 A 
ATOM     63  C   UNL A   1      44.100  33.953  30.604  1.00  0.00     0.010 A 
ATOM     64  C   UNL A   1      43.297  33.256  32.783  1.00  0.00     0.010 A 
ATOM     65  C   UNL A   1      44.218  35.265  31.066  1.00  0.00     0.020 A 
ATOM     66  C   UNL A   1      43.388  34.573  33.242  1.00  0.00     0.020 A 
ATOM     67  C   UNL A   1      43.863  35.567  32.384  1.00  0.00     0.054 A 
BRANCH  67  68
ATOM     68  S   UNL A   1      44.005  37.284  32.952  1.00  0.00     0.124 S 
ATOM     69  O   UNL A   1      42.884  37.387  33.883  1.00  0.00    -0.237 OA
ATOM     70  O   UNL A   1      45.331  37.310  33.564  1.00  0.00    -0.237 OA
ATOM     71  O   UNL A   1      43.872  38.068  31.727  1.00  0.00    -0.744 OA
ENDBRANCH  67  68
ENDBRANCH  48  62
BRANCH  49  72
ATOM     72  C   UNL A   1      42.475  23.688  27.808  1.00  0.00    -0.014 A 
ATOM     73  C   UNL A   1      42.891  23.411  26.494  1.00  0.00     0.010 A 
ATOM     74  C   UNL A   1      41.917  22.652  28.579  1.00  0.00     0.010 A 
ATOM     75  C   UNL A   1      42.733  22.131  25.954  1.00  0.00     0.020 A 
ATOM     76  C   UNL A   1      41.784  21.364  28.054  1.00  0.00     0.020 A 
ATOM     77  C   UNL A   1      42.182  21.114  26.740  1.00  0.00     0.054 A 
BRANCH  77  78
ATOM     78  S   UNL A   1      42.032  19.448  26.038  1.00  0.00     0.124 S 
ATOM     79  O   UNL A   1      42.572  18.617  27.109  1.00  0.00    -0.237 OA
ATOM     80  O   UNL A   1      40.594  19.329  25.807  1.00  0.00    -0.237 OA
ATOM     81  O   UNL A   1      42.845  19.515  24.825  1.00  0.00    -0.744 OA
ENDBRANCH  77  78
ENDBRANCH  49  72
BRANCH  61  82
ATOM     82  C   UNL A   1      47.803  27.061  30.797  1.00  0.00    -0.014 A 
ATOM     83  C   UNL A   1      48.877  27.356  29.938  1.00  0.00     0.010 A 
ATOM     84  C   UNL A   1      48.060  26.419  32.022  1.00  0.00     0.010 A 
ATOM     85  C   UNL A   1      50.178  26.989  30.286  1.00  0.00     0.020 A 
ATOM     86  C   UNL A   1      49.364  26.075  32.386  1.00  0.00     0.020 A 
ATOM     87  C   UNL A   1      50.414  26.351  31.508  1.00  0.00     0.054 A 
BRANCH  87  88
ATOM     88  S   UNL A   1      52.119  25.926  31.957  1.00  0.00     0.124 S 
ATOM     89  O   UNL A   1      52.784  25.920  30.657  1.00  0.00    -0.237 OA
ATOM     90  O   UNL A   1      52.497  27.018  32.851  1.00  0.00    -0.237 OA
ATOM     91  O   UNL A   1      51.994  24.619  32.599  1.00  0.00    -0.744 OA
ENDBRANCH  87  88
ENDBRANCH  61  82
ENDBRANCH  35  36
ENDBRANCH  27  30
ENDBRANCH  25  26
ENDBRANCH   1  25
TORSDOF 17
ENDMDL
MODEL 2
REMARK VINA RESULT:     -10.9      3.035      9.302
REMARK SMILES Cc1cscc1C(=O)N[C@H](C(=O)NCCCCNC(=O)c1ccc(-c2c3nc(c(-c4ccc(S(=O)(=O)[O-])cc4)c4ccc([nH]4)c(-c4ccc(S(=O)(=O)[O-])cc4)c4nc(c(-c5ccc(S(=O)(=O)[O-])cc5)c5ccc2[nH]5)C=C4)C=C3)cc1)c1ccccc1
REMARK SMILES IDX 16 1 15 2 14 3 13 4 11 5 12 6 10 8 9 9 7 10 8 11 6 13 1 14
REMARK SMILES IDX 2 15 3 16 4 17 5 18 81 19 82 20 86 21 83 22 85 23 84 24
REMARK SMILES IDX 17 25 18 26 19 27 20 29 21 30 22 31 80 32 23 33 79 34 24 35
REMARK SMILES IDX 25 36 26 37 73 38 27 39 78 40 72 41 74 42 28 43 77 44 71 45
REMARK SMILES IDX 70 46 29 48 59 49 40 50 58 51 41 52 44 53 57 54 75 55 42 56
REMARK SMILES IDX 43 57 56 59 76 60 45 61 30 62 31 63 39 64 32 65 38 66 33 67
REMARK SMILES IDX 34 68 35 69 36 70 37 71 60 72 61 73 69 74 62 75 68 76 63 77
REMARK SMILES IDX 64 78 65 79 66 80 67 81 46 82 47 83 55 84 48 85 54 86 49 87
REMARK SMILES IDX 50 88 51 89 52 90 53 91
REMARK H PARENT 13 7 9 12 18 28 74 47 44 58
REMARK Flexibility Score: inf
ROOT
ATOM      1  C   UNL A   1      35.633  23.640  26.379  1.00  0.00     0.023 C 
ENDROOT
BRANCH   1   2
ATOM      2  C   UNL A   1      34.543  22.601  26.074  1.00  0.00     0.023 C 
BRANCH   2   3
ATOM      3  C   UNL A   1      33.470  23.053  25.081  1.00  0.00     0.116 C 
BRANCH   3   4
ATOM      4  N   UNL A   1      32.167  23.015  25.704  1.00  0.00    -0.354 N 
ATOM      5  C   UNL A   1      31.453  24.032  26.269  1.00  0.00     0.247 C 
ATOM      6  O   UNL A   1      30.730  23.690  27.200  1.00  0.00    -0.272 OA
ATOM      7  H   UNL A   1      31.733  22.130  25.725  1.00  0.00     0.163 HD
BRANCH   5   8
ATOM      8  C   UNL A   1      31.405  25.407  25.588  1.00  0.00     0.202 C 
BRANCH   8   9
ATOM      9  N   UNL A   1      30.053  25.672  25.123  1.00  0.00    -0.336 N 
ATOM     10  C   UNL A   1      29.412  26.450  24.213  1.00  0.00     0.253 C 
ATOM     11  O   UNL A   1      28.218  26.116  24.118  1.00  0.00    -0.269 OA
ATOM     12  H   UNL A   1      29.406  25.118  25.617  1.00  0.00     0.165 HD
BRANCH  10  13
ATOM     13  C   UNL A   1      29.892  27.614  23.428  1.00  0.00     0.053 A 
ATOM     14  C   UNL A   1      32.481  27.493  22.584  1.00  0.00     0.046 C 
ATOM     15  C   UNL A   1      31.111  28.074  22.744  1.00  0.00    -0.028 A 
ATOM     16  C   UNL A   1      30.902  29.298  22.114  1.00  0.00     0.069 A 
ATOM     17  S   UNL A   1      29.330  29.898  22.253  1.00  0.00    -0.151 S 
ATOM     18  C   UNL A   1      28.887  28.560  23.188  1.00  0.00     0.079 A 
ENDBRANCH  10  13
ENDBRANCH   8   9
BRANCH   8  19
ATOM     19  C   UNL A   1      32.084  26.625  26.197  1.00  0.00    -0.016 A 
ATOM     20  C   UNL A   1      33.446  26.872  25.954  1.00  0.00     0.006 A 
ATOM     21  C   UNL A   1      31.366  27.618  26.892  1.00  0.00     0.006 A 
ATOM     22  C   UNL A   1      34.056  28.049  26.409  1.00  0.00     0.000 A 
ATOM     23  C   UNL A   1      31.983  28.767  27.390  1.00  0.00     0.000 A 
ATOM     24  C   UNL A   1      33.330  28.986  27.140  1.00  0.00     0.000 A 
ENDBRANCH   8  19
ENDBRANCH   5   8
ENDBRANCH   3   4
ENDBRANCH   2   3
ENDBRANCH   1   2
BRANCH   1  25
ATOM     25  C   UNL A   1      36.745  23.773  25.343  1.00  0.00     0.116 C 
BRANCH  25  26
ATOM     26  N   UNL A   1      37.818  22.813  25.529  1.00  0.00    -0.352 N 
ATOM     27  C   UNL A   1      39.025  22.977  26.159  1.00  0.00     0.251 C 
ATOM     28  H   UNL A   1      37.656  21.918  25.151  1.00  0.00     0.163 HD
ATOM     29  O   UNL A   1      39.839  22.058  26.167  1.00  0.00    -0.269 OA
BRANCH  27  30
ATOM     30  C   UNL A   1      39.354  24.275  26.777  1.00  0.00     0.039 A 
ATOM     31  C   UNL A   1      38.956  24.495  28.097  1.00  0.00     0.014 A 
ATOM     32  C   UNL A   1      40.072  25.249  26.077  1.00  0.00     0.014 A 
ATOM     33  C   UNL A   1      39.329  25.675  28.740  1.00  0.00     0.010 A 
ATOM     34  C   UNL A   1      40.495  26.398  26.740  1.00  0.00     0.010 A 
ATOM     35  C   UNL A   1      40.128  26.620  28.077  1.00  0.00    -0.014 A 
BRANCH  35  36
ATOM     36  C   UNL A   1      40.586  27.845  28.777  1.00  0.00     0.031 A 
ATOM     37  C   UNL A   1      41.964  27.901  29.374  1.00  0.00     0.074 A 
ATOM     38  C   UNL A   1      39.741  28.888  28.909  1.00  0.00     0.049 A 
ATOM     39  N   UNL A   1      42.533  28.872  30.039  1.00  0.00    -0.248 NA
ATOM     40  C   UNL A   1      42.805  26.702  29.222  1.00  0.00     0.031 C 
ATOM     41  C   UNL A   1      38.364  28.931  28.407  1.00  0.00     0.029 A 
ATOM     42  N   UNL A   1      39.913  30.109  29.508  1.00  0.00    -0.354 N 
ATOM     43  C   UNL A   1      43.788  28.397  30.399  1.00  0.00     0.074 A 
ATOM     44  C   UNL A   1      43.880  27.037  29.920  1.00  0.00     0.031 C 
ATOM     45  C   UNL A   1      37.829  30.128  28.697  1.00  0.00     0.029 A 
ATOM     46  C   UNL A   1      38.806  30.921  29.435  1.00  0.00     0.049 A 
ATOM     47  H   UNL A   1      40.752  30.379  29.949  1.00  0.00     0.167 HD
ATOM     48  C   UNL A   1      44.781  29.044  31.055  1.00  0.00     0.031 A 
ATOM     49  C   UNL A   1      38.600  32.164  29.912  1.00  0.00     0.031 A 
ATOM     50  C   UNL A   1      44.685  30.402  31.520  1.00  0.00     0.049 A 
ATOM     51  C   UNL A   1      39.718  32.861  30.638  1.00  0.00     0.074 A 
ATOM     52  C   UNL A   1      45.653  31.168  32.143  1.00  0.00     0.029 A 
ATOM     53  N   UNL A   1      43.552  31.195  31.417  1.00  0.00    -0.354 N 
ATOM     54  N   UNL A   1      40.926  32.422  30.904  1.00  0.00    -0.248 NA
ATOM     55  C   UNL A   1      39.452  34.224  31.116  1.00  0.00     0.031 C 
ATOM     56  C   UNL A   1      45.089  32.408  32.463  1.00  0.00     0.029 A 
ATOM     57  C   UNL A   1      43.788  32.434  31.987  1.00  0.00     0.049 A 
ATOM     58  H   UNL A   1      42.703  30.917  31.001  1.00  0.00     0.167 HD
ATOM     59  C   UNL A   1      41.571  33.464  31.559  1.00  0.00     0.074 A 
ATOM     60  C   UNL A   1      40.626  34.560  31.633  1.00  0.00     0.031 C 
ATOM     61  C   UNL A   1      42.833  33.512  32.051  1.00  0.00     0.031 A 
BRANCH  48  62
ATOM     62  C   UNL A   1      46.055  28.283  31.315  1.00  0.00    -0.014 A 
ATOM     63  C   UNL A   1      47.113  28.297  30.388  1.00  0.00     0.010 A 
ATOM     64  C   UNL A   1      46.212  27.574  32.520  1.00  0.00     0.010 A 
ATOM     65  C   UNL A   1      48.286  27.583  30.641  1.00  0.00     0.020 A 
ATOM     66  C   UNL A   1      47.396  26.881  32.790  1.00  0.00     0.020 A 
ATOM     67  C   UNL A   1      48.419  26.877  31.840  1.00  0.00     0.054 A 
BRANCH  67  68
ATOM     68  S   UNL A   1      49.963  25.977  32.152  1.00  0.00     0.124 S 
ATOM     69  O   UNL A   1      49.946  24.973  31.091  1.00  0.00    -0.237 OA
ATOM     70  O   UNL A   1      50.976  27.020  32.011  1.00  0.00    -0.237 OA
ATOM     71  O   UNL A   1      49.794  25.456  33.506  1.00  0.00    -0.744 OA
ENDBRANCH  67  68
ENDBRANCH  48  62
BRANCH  49  72
ATOM     72  C   UNL A   1      37.286  32.831  29.706  1.00  0.00    -0.014 A 
ATOM     73  C   UNL A   1      37.026  33.553  28.528  1.00  0.00     0.010 A 
ATOM     74  C   UNL A   1      36.279  32.737  30.684  1.00  0.00     0.010 A 
ATOM     75  C   UNL A   1      35.792  34.184  28.339  1.00  0.00     0.020 A 
ATOM     76  C   UNL A   1      35.034  33.342  30.487  1.00  0.00     0.020 A 
ATOM     77  C   UNL A   1      34.802  34.072  29.321  1.00  0.00     0.054 A 
BRANCH  77  78
ATOM     78  S   UNL A   1      33.192  34.856  29.034  1.00  0.00     0.124 S 
ATOM     79  O   UNL A   1      32.604  33.983  28.024  1.00  0.00    -0.237 OA
ATOM     80  O   UNL A   1      32.572  34.800  30.356  1.00  0.00    -0.237 OA
ATOM     81  O   UNL A   1      33.543  36.199  28.577  1.00  0.00    -0.744 OA
ENDBRANCH  77  78
ENDBRANCH  49  72
BRANCH  61  82
ATOM     82  C   UNL A   1      43.280  34.800  32.689  1.00  0.00    -0.014 A 
ATOM     83  C   UNL A   1      44.087  35.717  31.993  1.00  0.00     0.010 A 
ATOM     84  C   UNL A   1      42.834  35.123  33.984  1.00  0.00     0.010 A 
ATOM     85  C   UNL A   1      44.466  36.920  32.593  1.00  0.00     0.020 A 
ATOM     86  C   UNL A   1      43.187  36.337  34.576  1.00  0.00     0.020 A 
ATOM     87  C   UNL A   1      44.012  37.223  33.881  1.00  0.00     0.054 A 
BRANCH  87  88
ATOM     88  S   UNL A   1      44.479  38.812  34.620  1.00  0.00     0.124 S 
ATOM     89  O   UNL A   1      44.610  38.465  36.032  1.00  0.00    -0.237 OA
ATOM     90  O   UNL A   1      45.728  39.131  33.932  1.00  0.00    -0.237 OA
ATOM     91  O   UNL A   1      43.355  39.689  34.295  1.00  0.00    -0.744 OA
ENDBRANCH  87  88
ENDBRANCH  61  82
ENDBRANCH  35  36
ENDBRANCH  27  30
ENDBRANCH  25  26
ENDBRANCH   1  25
TORSDOF 17
ENDMDL
MODEL 3
REMARK VINA RESULT:     -10.6      0.471      8.197
REMARK SMILES Cc1cscc1C(=O)N[C@H](C(=O)NCCCCNC(=O)c1ccc(-c2c3nc(c(-c4ccc(S(=O)(=O)[O-])cc4)c4ccc([nH]4)c(-c4ccc(S(=O)(=O)[O-])cc4)c4nc(c(-c5ccc(S(=O)(=O)[O-])cc5)c5ccc2[nH]5)C=C4)C=C3)cc1)c1ccccc1
REMARK SMILES IDX 16 1 15 2 14 3 13 4 11 5 12 6 10 8 9 9 7 10 8 11 6 13 1 14
REMARK SMILES IDX 2 15 3 16 4 17 5 18 81 19 82 20 86 21 83 22 85 23 84 24
REMARK SMILES IDX 17 25 18 26 19 27 20 29 21 30 22 31 80 32 23 33 79 34 24 35
REMARK SMILES IDX 25 36 26 37 73 38 27 39 78 40 72 41 74 42 28 43 77 44 71 45
REMARK SMILES IDX 70 46 29 48 59 49 40 50 58 51 41 52 44 53 57 54 75 55 42 56
REMARK SMILES IDX 43 57 56 59 76 60 45 61 30 62 31 63 39 64 32 65 38 66 33 67
REMARK SMILES IDX 34 68 35 69 36 70 37 71 60 72 61 73 69 74 62 75 68 76 63 77
REMARK SMILES IDX 64 78 65 79 66 80 67 81 46 82 47 83 55 84 48 85 54 86 49 87
REMARK SMILES IDX 50 88 51 89 52 90 53 91
REMARK H PARENT 13 7 9 12 18 28 74 47 44 58
REMARK Flexibility Score: inf
ROOT
ATOM      1  C   UNL A   1      34.082  27.927  25.607  1.00  0.00     0.023 C 
ENDROOT
BRANCH   1   2
ATOM      2  C   UNL A   1      32.915  28.107  24.624  1.00  0.00     0.023 C 
BRANCH   2   3
ATOM      3  C   UNL A   1      32.082  26.852  24.362  1.00  0.00     0.116 C 
BRANCH   3   4
ATOM      4  N   UNL A   1      32.271  26.403  23.001  1.00  0.00    -0.354 N 
ATOM      5  C   UNL A   1      33.124  25.453  22.519  1.00  0.00     0.247 C 
ATOM      6  O   UNL A   1      33.525  25.661  21.377  1.00  0.00    -0.272 OA
ATOM      7  H   UNL A   1      31.705  26.847  22.327  1.00  0.00     0.163 HD
BRANCH   5   8
ATOM      8  C   UNL A   1      33.318  24.136  23.284  1.00  0.00     0.202 C 
BRANCH   8   9
ATOM      9  N   UNL A   1      32.703  23.047  22.542  1.00  0.00    -0.336 N 
ATOM     10  C   UNL A   1      32.278  21.774  22.746  1.00  0.00     0.253 C 
ATOM     11  O   UNL A   1      31.638  21.365  21.762  1.00  0.00    -0.269 OA
ATOM     12  H   UNL A   1      32.547  23.315  21.608  1.00  0.00     0.165 HD
BRANCH  10  13
ATOM     13  C   UNL A   1      32.520  20.844  23.877  1.00  0.00     0.053 A 
ATOM     14  C   UNL A   1      32.731  21.993  26.339  1.00  0.00     0.046 C 
ATOM     15  C   UNL A   1      32.700  20.882  25.336  1.00  0.00    -0.028 A 
ATOM     16  C   UNL A   1      32.851  19.600  25.858  1.00  0.00     0.069 A 
ATOM     17  S   UNL A   1      32.743  18.362  24.715  1.00  0.00    -0.151 S 
ATOM     18  C   UNL A   1      32.526  19.500  23.482  1.00  0.00     0.079 A 
ENDBRANCH  10  13
ENDBRANCH   8   9
BRANCH   8  19
ATOM     19  C   UNL A   1      34.656  23.763  23.907  1.00  0.00    -0.016 A 
ATOM     20  C   UNL A   1      35.558  22.943  23.208  1.00  0.00     0.006 A 
ATOM     21  C   UNL A   1      35.106  24.327  25.117  1.00  0.00     0.006 A 
ATOM     22  C   UNL A   1      36.839  22.687  23.715  1.00  0.00     0.000 A 
ATOM     23  C   UNL A   1      36.363  24.032  25.649  1.00  0.00     0.000 A 
ATOM     24  C   UNL A   1      37.234  23.218  24.942  1.00  0.00     0.000 A 
ENDBRANCH   8  19
ENDBRANCH   5   8
ENDBRANCH   3   4
ENDBRANCH   2   3
ENDBRANCH   1   2
BRANCH   1  25
ATOM     25  C   UNL A   1      33.758  28.139  27.083  1.00  0.00     0.116 C 
BRANCH  25  26
ATOM     26  N   UNL A   1      33.563  29.535  27.431  1.00  0.00    -0.352 N 
ATOM     27  C   UNL A   1      34.453  30.421  27.981  1.00  0.00     0.251 C 
ATOM     28  H   UNL A   1      32.665  29.896  27.245  1.00  0.00     0.163 HD
ATOM     29  O   UNL A   1      34.086  31.559  28.262  1.00  0.00    -0.269 OA
BRANCH  27  30
ATOM     30  C   UNL A   1      35.829  29.983  28.276  1.00  0.00     0.039 A 
ATOM     31  C   UNL A   1      36.773  30.039  27.250  1.00  0.00     0.014 A 
ATOM     32  C   UNL A   1      36.193  29.552  29.556  1.00  0.00     0.014 A 
ATOM     33  C   UNL A   1      38.103  29.717  27.519  1.00  0.00     0.010 A 
ATOM     34  C   UNL A   1      37.531  29.290  29.838  1.00  0.00     0.010 A 
ATOM     35  C   UNL A   1      38.497  29.372  28.822  1.00  0.00    -0.014 A 
BRANCH  35  36
ATOM     36  C   UNL A   1      39.922  29.095  29.131  1.00  0.00     0.031 A 
ATOM     37  C   UNL A   1      40.526  27.766  28.777  1.00  0.00     0.074 A 
ATOM     38  C   UNL A   1      40.654  30.030  29.769  1.00  0.00     0.049 A 
ATOM     39  N   UNL A   1      41.741  27.333  28.985  1.00  0.00    -0.248 NA
ATOM     40  C   UNL A   1      39.642  26.786  28.122  1.00  0.00     0.031 C 
ATOM     41  C   UNL A   1      40.162  31.342  30.200  1.00  0.00     0.029 A 
ATOM     42  N   UNL A   1      41.965  30.021  30.169  1.00  0.00    -0.354 N 
ATOM     43  C   UNL A   1      41.765  26.030  28.505  1.00  0.00     0.074 A 
ATOM     44  C   UNL A   1      40.432  25.726  28.036  1.00  0.00     0.031 C 
ATOM     45  C   UNL A   1      41.167  32.018  30.780  1.00  0.00     0.029 A 
ATOM     46  C   UNL A   1      42.360  31.178  30.797  1.00  0.00     0.049 A 
ATOM     47  H   UNL A   1      42.568  29.256  30.021  1.00  0.00     0.167 HD
ATOM     48  C   UNL A   1      42.810  25.170  28.443  1.00  0.00     0.031 A 
ATOM     49  C   UNL A   1      43.548  31.523  31.329  1.00  0.00     0.031 A 
ATOM     50  C   UNL A   1      44.137  25.484  28.902  1.00  0.00     0.049 A 
ATOM     51  C   UNL A   1      44.693  30.551  31.249  1.00  0.00     0.074 A 
ATOM     52  C   UNL A   1      45.278  24.706  28.831  1.00  0.00     0.029 A 
ATOM     53  N   UNL A   1      44.499  26.671  29.521  1.00  0.00    -0.354 N 
ATOM     54  N   UNL A   1      44.716  29.349  30.723  1.00  0.00    -0.248 NA
ATOM     55  C   UNL A   1      45.974  30.984  31.821  1.00  0.00     0.031 C 
ATOM     56  C   UNL A   1      46.319  25.401  29.454  1.00  0.00     0.029 A 
ATOM     57  C   UNL A   1      45.841  26.637  29.859  1.00  0.00     0.049 A 
ATOM     58  H   UNL A   1      43.891  27.426  29.694  1.00  0.00     0.167 HD
ATOM     59  C   UNL A   1      46.020  28.893  30.878  1.00  0.00     0.074 A 
ATOM     60  C   UNL A   1      46.758  29.955  31.532  1.00  0.00     0.031 C 
ATOM     61  C   UNL A   1      46.558  27.704  30.511  1.00  0.00     0.031 A 
BRANCH  48  62
ATOM     62  C   UNL A   1      42.554  23.803  27.864  1.00  0.00    -0.014 A 
ATOM     63  C   UNL A   1      42.635  23.572  26.479  1.00  0.00     0.010 A 
ATOM     64  C   UNL A   1      42.265  22.725  28.721  1.00  0.00     0.010 A 
ATOM     65  C   UNL A   1      42.390  22.300  25.957  1.00  0.00     0.020 A 
ATOM     66  C   UNL A   1      42.046  21.444  28.205  1.00  0.00     0.020 A 
ATOM     67  C   UNL A   1      42.095  21.244  26.824  1.00  0.00     0.054 A 
BRANCH  67  68
ATOM     68  S   UNL A   1      41.803  19.597  26.121  1.00  0.00     0.124 S 
ATOM     69  O   UNL A   1      42.180  18.725  27.230  1.00  0.00    -0.237 OA
ATOM     70  O   UNL A   1      40.376  19.631  25.808  1.00  0.00    -0.237 OA
ATOM     71  O   UNL A   1      42.691  19.551  24.962  1.00  0.00    -0.744 OA
ENDBRANCH  67  68
ENDBRANCH  48  62
BRANCH  49  72
ATOM     72  C   UNL A   1      43.717  32.855  31.973  1.00  0.00    -0.014 A 
ATOM     73  C   UNL A   1      44.169  33.958  31.228  1.00  0.00     0.010 A 
ATOM     74  C   UNL A   1      43.411  33.031  33.335  1.00  0.00     0.010 A 
ATOM     75  C   UNL A   1      44.332  35.206  31.837  1.00  0.00     0.020 A 
ATOM     76  C   UNL A   1      43.545  34.283  33.940  1.00  0.00     0.020 A 
ATOM     77  C   UNL A   1      44.016  35.362  33.190  1.00  0.00     0.054 A 
BRANCH  77  78
ATOM     78  S   UNL A   1      44.187  37.001  33.947  1.00  0.00     0.124 S 
ATOM     79  O   UNL A   1      43.158  37.766  33.252  1.00  0.00    -0.237 OA
ATOM     80  O   UNL A   1      43.927  36.727  35.359  1.00  0.00    -0.237 OA
ATOM     81  O   UNL A   1      45.565  37.378  33.639  1.00  0.00    -0.744 OA
ENDBRANCH  77  78
ENDBRANCH  49  72
BRANCH  61  82
ATOM     82  C   UNL A   1      48.024  27.496  30.778  1.00  0.00    -0.014 A 
ATOM     83  C   UNL A   1      48.473  26.932  31.985  1.00  0.00     0.010 A 
ATOM     84  C   UNL A   1      48.962  27.819  29.780  1.00  0.00     0.010 A 
ATOM     85  C   UNL A   1      49.837  26.721  32.201  1.00  0.00     0.020 A 
ATOM     86  C   UNL A   1      50.325  27.583  29.981  1.00  0.00     0.020 A 
ATOM     87  C   UNL A   1      50.754  27.047  31.196  1.00  0.00     0.054 A 
BRANCH  87  88
ATOM     88  S   UNL A   1      52.515  26.719  31.482  1.00  0.00     0.124 S 
ATOM     89  O   UNL A   1      52.541  25.264  31.587  1.00  0.00    -0.237 OA
ATOM     90  O   UNL A   1      53.143  27.275  30.285  1.00  0.00    -0.237 OA
ATOM     91  O   UNL A   1      52.805  27.439  32.721  1.00  0.00    -0.744 OA
ENDBRANCH  87  88
ENDBRANCH  61  82
ENDBRANCH  35  36
ENDBRANCH  27  30
ENDBRANCH  25  26
ENDBRANCH   1  25
TORSDOF 17
ENDMDL
