MODEL 1
REMARK VINA RESULT:     -10.3      0.000      0.000
REMARK SMILES CC[NH+](CC)[C@@H](C(=O)NCCCCNC(=O)c1ccc(-c2c3nc(c(-c4ccc(S(=O)(=O)[O-])cc4)c4ccc([nH]4)c(-c4ccc(S(=O)(=O)[O-])cc4)c4nc(c(-c5ccc(S(=O)(=O)[O-])cc5)c5ccc2[nH]5)C=C4)C=C3)cc1)c1ccc(C2CC2)cc1
REMARK SMILES IDX 12 1 11 2 10 3 9 4 7 5 8 6 6 8 3 9 2 11 1 12 4 13 5 14 77 15
REMARK SMILES IDX 78 16 85 17 79 18 84 19 80 20 81 21 82 22 83 23 13 24 14 25
REMARK SMILES IDX 15 26 16 28 17 29 18 30 76 31 19 32 75 33 20 34 21 35 22 36
REMARK SMILES IDX 69 37 23 38 74 39 68 40 70 41 24 42 73 43 67 44 66 45 25 47
REMARK SMILES IDX 55 48 36 49 54 50 37 51 40 52 53 53 71 54 38 55 39 56 52 58
REMARK SMILES IDX 72 59 41 60 26 61 27 62 35 63 28 64 34 65 29 66 30 67 31 68
REMARK SMILES IDX 32 69 33 70 56 71 57 72 65 73 58 74 64 75 59 76 60 77 61 78
REMARK SMILES IDX 62 79 63 80 42 81 43 82 51 83 44 84 50 85 45 86 46 87 47 88
REMARK SMILES IDX 48 89 49 90
REMARK H PARENT 9 7 3 10 14 27 70 46 40 57
REMARK Flexibility Score: inf
ROOT
ATOM      1  C   UNL A   1      32.814  27.350  25.716  1.00  0.00     0.023 C 
ENDROOT
BRANCH   1   2
ATOM      2  C   UNL A   1      31.437  27.005  26.290  1.00  0.00     0.023 C 
BRANCH   2   3
ATOM      3  C   UNL A   1      31.011  25.532  26.217  1.00  0.00     0.116 C 
BRANCH   3   4
ATOM      4  N   UNL A   1      30.506  25.090  24.925  1.00  0.00    -0.351 N 
ATOM      5  C   UNL A   1      30.950  24.177  24.002  1.00  0.00     0.283 C 
ATOM      6  O   UNL A   1      30.196  23.994  23.039  1.00  0.00    -0.268 OA
ATOM      7  H   UNL A   1      29.673  25.541  24.659  1.00  0.00     0.163 HD
BRANCH   5   8
ATOM      8  C   UNL A   1      32.329  23.453  24.137  1.00  0.00     0.305 C 
BRANCH   8   9
ATOM      9  N   UNL A   1      33.309  23.947  23.094  1.00  0.00    -0.321 N 
ATOM     10  H   UNL A   1      33.040  23.380  22.292  1.00  0.00     0.349 HD
BRANCH   9  11
ATOM     11  C   UNL A   1      33.157  25.334  22.616  1.00  0.00     0.259 C 
ATOM     12  C   UNL A   1      32.798  25.535  21.152  1.00  0.00     0.071 C 
ENDBRANCH   9  11
BRANCH   9  13
ATOM     13  C   UNL A   1      34.709  23.670  23.443  1.00  0.00     0.259 C 
ATOM     14  C   UNL A   1      35.209  24.226  24.783  1.00  0.00     0.071 C 
ENDBRANCH   9  13
ENDBRANCH   8   9
BRANCH   8  15
ATOM     15  C   UNL A   1      32.260  21.909  24.154  1.00  0.00     0.019 A 
ATOM     16  C   UNL A   1      32.446  21.235  25.372  1.00  0.00     0.011 A 
ATOM     17  C   UNL A   1      32.094  21.115  23.013  1.00  0.00     0.011 A 
ATOM     18  C   UNL A   1      32.733  19.865  25.401  1.00  0.00     0.004 A 
ATOM     19  C   UNL A   1      32.347  19.730  23.057  1.00  0.00     0.004 A 
ATOM     20  C   UNL A   1      32.771  19.091  24.232  1.00  0.00    -0.045 A 
BRANCH  20  21
ATOM     21  C   UNL A   1      33.330  17.680  24.299  1.00  0.00     0.019 C 
ATOM     22  C   UNL A   1      33.985  17.037  23.107  1.00  0.00     0.009 C 
ATOM     23  C   UNL A   1      34.813  17.393  24.309  1.00  0.00     0.009 C 
ENDBRANCH  20  21
ENDBRANCH   8  15
ENDBRANCH   5   8
ENDBRANCH   3   4
ENDBRANCH   2   3
ENDBRANCH   1   2
BRANCH   1  24
ATOM     24  C   UNL A   1      33.771  27.929  26.741  1.00  0.00     0.116 C 
BRANCH  24  25
ATOM     25  N   UNL A   1      33.501  29.340  26.982  1.00  0.00    -0.352 N 
ATOM     26  C   UNL A   1      34.246  30.273  27.655  1.00  0.00     0.251 C 
ATOM     27  H   UNL A   1      32.655  29.674  26.604  1.00  0.00     0.163 HD
ATOM     28  O   UNL A   1      33.744  31.352  27.949  1.00  0.00    -0.269 OA
BRANCH  26  29
ATOM     29  C   UNL A   1      35.644  29.973  28.023  1.00  0.00     0.039 A 
ATOM     30  C   UNL A   1      36.640  30.092  27.051  1.00  0.00     0.014 A 
ATOM     31  C   UNL A   1      35.965  29.539  29.312  1.00  0.00     0.014 A 
ATOM     32  C   UNL A   1      37.960  29.791  27.383  1.00  0.00     0.010 A 
ATOM     33  C   UNL A   1      37.290  29.347  29.669  1.00  0.00     0.010 A 
ATOM     34  C   UNL A   1      38.294  29.429  28.698  1.00  0.00    -0.014 A 
BRANCH  34  35
ATOM     35  C   UNL A   1      39.681  29.063  29.063  1.00  0.00     0.031 A 
ATOM     36  C   UNL A   1      40.557  30.072  29.759  1.00  0.00     0.074 A 
ATOM     37  C   UNL A   1      40.154  27.848  28.727  1.00  0.00     0.049 A 
ATOM     38  N   UNL A   1      41.801  29.957  30.142  1.00  0.00    -0.248 NA
ATOM     39  C   UNL A   1      39.970  31.398  30.031  1.00  0.00     0.031 C 
ATOM     40  C   UNL A   1      39.409  26.819  27.996  1.00  0.00     0.029 A 
ATOM     41  N   UNL A   1      41.376  27.272  28.958  1.00  0.00    -0.354 N 
ATOM     42  C   UNL A   1      42.149  31.196  30.671  1.00  0.00     0.074 A 
ATOM     43  C   UNL A   1      41.009  32.066  30.507  1.00  0.00     0.031 C 
ATOM     44  C   UNL A   1      40.176  25.725  27.873  1.00  0.00     0.029 A 
ATOM     45  C   UNL A   1      41.475  25.986  28.482  1.00  0.00     0.049 A 
ATOM     46  H   UNL A   1      42.111  27.733  29.421  1.00  0.00     0.167 HD
ATOM     47  C   UNL A   1      43.306  31.565  31.267  1.00  0.00     0.031 A 
ATOM     48  C   UNL A   1      42.502  25.116  28.536  1.00  0.00     0.031 A 
ATOM     49  C   UNL A   1      44.420  30.676  31.453  1.00  0.00     0.049 A 
ATOM     50  C   UNL A   1      43.763  25.538  29.241  1.00  0.00     0.074 A 
ATOM     51  C   UNL A   1      45.616  30.917  32.104  1.00  0.00     0.029 A 
ATOM     52  N   UNL A   1      44.470  29.369  30.989  1.00  0.00    -0.354 N 
ATOM     53  N   UNL A   1      44.046  26.690  29.804  1.00  0.00    -0.248 NA
ATOM     54  C   UNL A   1      44.829  24.536  29.341  1.00  0.00     0.031 C 
ATOM     55  C   UNL A   1      46.411  29.773  31.988  1.00  0.00     0.029 A 
ATOM     56  C   UNL A   1      45.685  28.796  31.325  1.00  0.00     0.049 A 
ATOM     57  H   UNL A   1      43.749  28.916  30.495  1.00  0.00     0.167 HD
ATOM     58  C   UNL A   1      45.315  26.539  30.352  1.00  0.00     0.074 A 
ATOM     59  C   UNL A   1      45.729  25.178  30.072  1.00  0.00     0.031 C 
ATOM     60  C   UNL A   1      46.070  27.440  31.029  1.00  0.00     0.031 A 
BRANCH  47  61
ATOM     61  C   UNL A   1      43.423  32.984  31.760  1.00  0.00    -0.014 A 
ATOM     62  C   UNL A   1      43.103  33.325  33.087  1.00  0.00     0.010 A 
ATOM     63  C   UNL A   1      43.903  33.984  30.896  1.00  0.00     0.010 A 
ATOM     64  C   UNL A   1      43.229  34.645  33.530  1.00  0.00     0.020 A 
ATOM     65  C   UNL A   1      44.060  35.300  31.343  1.00  0.00     0.020 A 
ATOM     66  C   UNL A   1      43.709  35.624  32.656  1.00  0.00     0.054 A 
BRANCH  66  67
ATOM     67  S   UNL A   1      43.907  37.318  33.272  1.00  0.00     0.124 S 
ATOM     68  O   UNL A   1      43.903  38.092  32.033  1.00  0.00    -0.237 OA
ATOM     69  O   UNL A   1      42.732  37.488  34.122  1.00  0.00    -0.237 OA
ATOM     70  O   UNL A   1      45.184  37.284  33.980  1.00  0.00    -0.744 OA
ENDBRANCH  66  67
ENDBRANCH  47  61
BRANCH  48  71
ATOM     71  C   UNL A   1      42.367  23.762  27.933  1.00  0.00    -0.014 A 
ATOM     72  C   UNL A   1      42.674  23.543  26.579  1.00  0.00     0.010 A 
ATOM     73  C   UNL A   1      41.935  22.678  28.718  1.00  0.00     0.010 A 
ATOM     74  C   UNL A   1      42.520  22.273  26.013  1.00  0.00     0.020 A 
ATOM     75  C   UNL A   1      41.810  21.401  28.165  1.00  0.00     0.020 A 
ATOM     76  C   UNL A   1      42.088  21.210  26.810  1.00  0.00     0.054 A 
BRANCH  76  77
ATOM     77  S   UNL A   1      41.925  19.565  26.063  1.00  0.00     0.124 S 
ATOM     78  O   UNL A   1      42.428  18.699  27.124  1.00  0.00    -0.237 OA
ATOM     79  O   UNL A   1      40.490  19.479  25.800  1.00  0.00    -0.237 OA
ATOM     80  O   UNL A   1      42.764  19.647  24.869  1.00  0.00    -0.744 OA
ENDBRANCH  76  77
ENDBRANCH  48  71
BRANCH  60  81
ATOM     81  C   UNL A   1      47.398  26.963  31.551  1.00  0.00    -0.014 A 
ATOM     82  C   UNL A   1      48.571  27.069  30.782  1.00  0.00     0.010 A 
ATOM     83  C   UNL A   1      47.474  26.423  32.848  1.00  0.00     0.010 A 
ATOM     84  C   UNL A   1      49.784  26.588  31.279  1.00  0.00     0.020 A 
ATOM     85  C   UNL A   1      48.692  25.975  33.362  1.00  0.00     0.020 A 
ATOM     86  C   UNL A   1      49.835  26.039  32.563  1.00  0.00     0.054 A 
BRANCH  86  87
ATOM     87  S   UNL A   1      51.423  25.428  33.189  1.00  0.00     0.124 S 
ATOM     88  O   UNL A   1      52.024  26.646  33.728  1.00  0.00    -0.237 OA
ATOM     89  O   UNL A   1      51.016  24.435  34.180  1.00  0.00    -0.237 OA
ATOM     90  O   UNL A   1      52.077  24.884  32.003  1.00  0.00    -0.744 OA
ENDBRANCH  86  87
ENDBRANCH  60  81
ENDBRANCH  34  35
ENDBRANCH  26  29
ENDBRANCH  24  25
ENDBRANCH   1  24
TORSDOF 19
ENDMDL
MODEL 2
REMARK VINA RESULT:     -10.1      4.263      7.943
REMARK SMILES CC[NH+](CC)[C@@H](C(=O)NCCCCNC(=O)c1ccc(-c2c3nc(c(-c4ccc(S(=O)(=O)[O-])cc4)c4ccc([nH]4)c(-c4ccc(S(=O)(=O)[O-])cc4)c4nc(c(-c5ccc(S(=O)(=O)[O-])cc5)c5ccc2[nH]5)C=C4)C=C3)cc1)c1ccc(C2CC2)cc1
REMARK SMILES IDX 12 1 11 2 10 3 9 4 7 5 8 6 6 8 3 9 2 11 1 12 4 13 5 14 77 15
REMARK SMILES IDX 78 16 85 17 79 18 84 19 80 20 81 21 82 22 83 23 13 24 14 25
REMARK SMILES IDX 15 26 16 28 17 29 18 30 76 31 19 32 75 33 20 34 21 35 22 36
REMARK SMILES IDX 69 37 23 38 74 39 68 40 70 41 24 42 73 43 67 44 66 45 25 47
REMARK SMILES IDX 55 48 36 49 54 50 37 51 40 52 53 53 71 54 38 55 39 56 52 58
REMARK SMILES IDX 72 59 41 60 26 61 27 62 35 63 28 64 34 65 29 66 30 67 31 68
REMARK SMILES IDX 32 69 33 70 56 71 57 72 65 73 58 74 64 75 59 76 60 77 61 78
REMARK SMILES IDX 62 79 63 80 42 81 43 82 51 83 44 84 50 85 45 86 46 87 47 88
REMARK SMILES IDX 48 89 49 90
REMARK H PARENT 9 7 3 10 14 27 70 46 40 57
REMARK Flexibility Score: inf
ROOT
ATOM      1  C   UNL A   1      34.846  33.336  29.733  1.00  0.00     0.023 C 
ENDROOT
BRANCH   1   2
ATOM      2  C   UNL A   1      35.137  32.293  30.816  1.00  0.00     0.023 C 
BRANCH   2   3
ATOM      3  C   UNL A   1      34.559  32.571  32.211  1.00  0.00     0.116 C 
BRANCH   3   4
ATOM      4  N   UNL A   1      35.119  33.723  32.901  1.00  0.00    -0.351 N 
ATOM      5  C   UNL A   1      36.400  34.170  33.105  1.00  0.00     0.283 C 
ATOM      6  O   UNL A   1      36.492  35.264  33.674  1.00  0.00    -0.268 OA
ATOM      7  H   UNL A   1      34.435  34.302  33.308  1.00  0.00     0.163 HD
BRANCH   5   8
ATOM      8  C   UNL A   1      37.654  33.334  32.685  1.00  0.00     0.305 C 
BRANCH   8   9
ATOM      9  N   UNL A   1      38.356  32.758  33.897  1.00  0.00    -0.321 N 
ATOM     10  H   UNL A   1      39.141  33.402  33.990  1.00  0.00     0.349 HD
BRANCH   9  11
ATOM     11  C   UNL A   1      37.665  32.851  35.196  1.00  0.00     0.259 C 
ATOM     12  C   UNL A   1      38.498  33.238  36.407  1.00  0.00     0.071 C 
ENDBRANCH   9  11
BRANCH   9  13
ATOM     13  C   UNL A   1      38.863  31.397  33.675  1.00  0.00     0.259 C 
ATOM     14  C   UNL A   1      37.877  30.383  33.080  1.00  0.00     0.071 C 
ENDBRANCH   9  13
ENDBRANCH   8   9
BRANCH   8  15
ATOM     15  C   UNL A   1      38.649  34.066  31.757  1.00  0.00     0.019 A 
ATOM     16  C   UNL A   1      38.297  34.273  30.413  1.00  0.00     0.011 A 
ATOM     17  C   UNL A   1      39.928  34.484  32.144  1.00  0.00     0.011 A 
ATOM     18  C   UNL A   1      39.264  34.612  29.459  1.00  0.00     0.004 A 
ATOM     19  C   UNL A   1      40.886  34.860  31.182  1.00  0.00     0.004 A 
ATOM     20  C   UNL A   1      40.604  34.835  29.808  1.00  0.00    -0.045 A 
BRANCH  20  21
ATOM     21  C   UNL A   1      41.644  34.949  28.707  1.00  0.00     0.019 C 
ATOM     22  C   UNL A   1      41.821  36.219  27.922  1.00  0.00     0.009 C 
ATOM     23  C   UNL A   1      42.904  35.769  28.861  1.00  0.00     0.009 C 
ENDBRANCH  20  21
ENDBRANCH   8  15
ENDBRANCH   5   8
ENDBRANCH   3   4
ENDBRANCH   2   3
ENDBRANCH   1   2
BRANCH   1  24
ATOM     24  C   UNL A   1      35.149  32.853  28.328  1.00  0.00     0.116 C 
BRANCH  24  25
ATOM     25  N   UNL A   1      34.326  31.704  27.972  1.00  0.00    -0.352 N 
ATOM     26  C   UNL A   1      34.691  30.404  27.736  1.00  0.00     0.251 C 
ATOM     27  H   UNL A   1      33.363  31.890  27.889  1.00  0.00     0.163 HD
ATOM     28  O   UNL A   1      33.886  29.633  27.225  1.00  0.00    -0.269 OA
BRANCH  26  29
ATOM     29  C   UNL A   1      36.046  29.942  28.096  1.00  0.00     0.039 A 
ATOM     30  C   UNL A   1      36.255  29.374  29.354  1.00  0.00     0.014 A 
ATOM     31  C   UNL A   1      37.113  30.103  27.208  1.00  0.00     0.014 A 
ATOM     32  C   UNL A   1      37.536  28.953  29.711  1.00  0.00     0.010 A 
ATOM     33  C   UNL A   1      38.359  29.585  27.521  1.00  0.00     0.010 A 
ATOM     34  C   UNL A   1      38.592  29.045  28.791  1.00  0.00    -0.014 A 
BRANCH  34  35
ATOM     35  C   UNL A   1      39.968  28.646  29.163  1.00  0.00     0.031 A 
ATOM     36  C   UNL A   1      40.847  29.615  29.910  1.00  0.00     0.074 A 
ATOM     37  C   UNL A   1      40.429  27.437  28.789  1.00  0.00     0.049 A 
ATOM     38  N   UNL A   1      42.083  29.468  30.307  1.00  0.00    -0.248 NA
ATOM     39  C   UNL A   1      40.274  30.938  30.222  1.00  0.00     0.031 C 
ATOM     40  C   UNL A   1      39.681  26.447  28.009  1.00  0.00     0.029 A 
ATOM     41  N   UNL A   1      41.639  26.835  29.017  1.00  0.00    -0.354 N 
ATOM     42  C   UNL A   1      42.440  30.681  30.887  1.00  0.00     0.074 A 
ATOM     43  C   UNL A   1      41.315  31.574  30.738  1.00  0.00     0.031 C 
ATOM     44  C   UNL A   1      40.435  25.347  27.857  1.00  0.00     0.029 A 
ATOM     45  C   UNL A   1      41.728  25.567  28.495  1.00  0.00     0.049 A 
ATOM     46  H   UNL A   1      42.374  27.268  29.508  1.00  0.00     0.167 HD
ATOM     47  C   UNL A   1      43.593  31.011  31.514  1.00  0.00     0.031 A 
ATOM     48  C   UNL A   1      42.742  24.681  28.532  1.00  0.00     0.031 A 
ATOM     49  C   UNL A   1      44.691  30.099  31.683  1.00  0.00     0.049 A 
ATOM     50  C   UNL A   1      43.997  25.057  29.272  1.00  0.00     0.074 A 
ATOM     51  C   UNL A   1      45.879  30.299  32.361  1.00  0.00     0.029 A 
ATOM     52  N   UNL A   1      44.730  28.810  31.173  1.00  0.00    -0.354 N 
ATOM     53  N   UNL A   1      44.287  26.183  29.881  1.00  0.00    -0.248 NA
ATOM     54  C   UNL A   1      45.047  24.037  29.350  1.00  0.00     0.031 C 
ATOM     55  C   UNL A   1      46.661  29.148  32.215  1.00  0.00     0.029 A 
ATOM     56  C   UNL A   1      45.931  28.208  31.504  1.00  0.00     0.049 A 
ATOM     57  H   UNL A   1      44.011  28.386  30.651  1.00  0.00     0.167 HD
ATOM     58  C   UNL A   1      45.545  25.994  30.443  1.00  0.00     0.074 A 
ATOM     59  C   UNL A   1      45.945  24.638  30.118  1.00  0.00     0.031 C 
ATOM     60  C   UNL A   1      46.302  26.857  31.164  1.00  0.00     0.031 A 
BRANCH  47  61
ATOM     61  C   UNL A   1      43.721  32.408  32.061  1.00  0.00    -0.014 A 
ATOM     62  C   UNL A   1      43.216  32.746  33.331  1.00  0.00     0.010 A 
ATOM     63  C   UNL A   1      44.397  33.390  31.314  1.00  0.00     0.010 A 
ATOM     64  C   UNL A   1      43.356  34.045  33.828  1.00  0.00     0.020 A 
ATOM     65  C   UNL A   1      44.567  34.682  31.820  1.00  0.00     0.020 A 
ATOM     66  C   UNL A   1      44.032  35.005  33.070  1.00  0.00     0.054 A 
BRANCH  66  67
ATOM     67  S   UNL A   1      44.239  36.669  33.761  1.00  0.00     0.124 S 
ATOM     68  O   UNL A   1      44.769  36.381  35.091  1.00  0.00    -0.237 OA
ATOM     69  O   UNL A   1      45.181  37.286  32.831  1.00  0.00    -0.237 OA
ATOM     70  O   UNL A   1      42.889  37.226  33.736  1.00  0.00    -0.744 OA
ENDBRANCH  66  67
ENDBRANCH  47  61
BRANCH  48  71
ATOM     71  C   UNL A   1      42.597  23.352  27.877  1.00  0.00    -0.014 A 
ATOM     72  C   UNL A   1      43.143  23.114  26.603  1.00  0.00     0.010 A 
ATOM     73  C   UNL A   1      41.915  22.310  28.532  1.00  0.00     0.010 A 
ATOM     74  C   UNL A   1      42.981  21.870  25.983  1.00  0.00     0.020 A 
ATOM     75  C   UNL A   1      41.778  21.056  27.930  1.00  0.00     0.020 A 
ATOM     76  C   UNL A   1      42.298  20.850  26.650  1.00  0.00     0.054 A 
BRANCH  76  77
ATOM     77  S   UNL A   1      42.127  19.236  25.840  1.00  0.00     0.124 S 
ATOM     78  O   UNL A   1      43.022  19.374  24.697  1.00  0.00    -0.237 OA
ATOM     79  O   UNL A   1      42.567  18.312  26.883  1.00  0.00    -0.237 OA
ATOM     80  O   UNL A   1      40.703  19.165  25.518  1.00  0.00    -0.744 OA
ENDBRANCH  76  77
ENDBRANCH  48  71
BRANCH  60  81
ATOM     81  C   UNL A   1      47.615  26.343  31.689  1.00  0.00    -0.014 A 
ATOM     82  C   UNL A   1      47.703  25.680  32.926  1.00  0.00     0.010 A 
ATOM     83  C   UNL A   1      48.778  26.505  30.913  1.00  0.00     0.010 A 
ATOM     84  C   UNL A   1      48.939  25.242  33.403  1.00  0.00     0.020 A 
ATOM     85  C   UNL A   1      50.010  26.036  31.370  1.00  0.00     0.020 A 
ATOM     86  C   UNL A   1      50.086  25.428  32.625  1.00  0.00     0.054 A 
BRANCH  86  87
ATOM     87  S   UNL A   1      51.679  24.846  33.263  1.00  0.00     0.124 S 
ATOM     88  O   UNL A   1      51.375  23.460  33.614  1.00  0.00    -0.237 OA
ATOM     89  O   UNL A   1      52.568  25.024  32.117  1.00  0.00    -0.237 OA
ATOM     90  O   UNL A   1      51.945  25.730  34.394  1.00  0.00    -0.744 OA
ENDBRANCH  86  87
ENDBRANCH  60  81
ENDBRANCH  34  35
ENDBRANCH  26  29
ENDBRANCH  24  25
ENDBRANCH   1  24
TORSDOF 19
ENDMDL
MODEL 3
REMARK VINA RESULT:     -10.1      3.845      9.222
REMARK SMILES CC[NH+](CC)[C@@H](C(=O)NCCCCNC(=O)c1ccc(-c2c3nc(c(-c4ccc(S(=O)(=O)[O-])cc4)c4ccc([nH]4)c(-c4ccc(S(=O)(=O)[O-])cc4)c4nc(c(-c5ccc(S(=O)(=O)[O-])cc5)c5ccc2[nH]5)C=C4)C=C3)cc1)c1ccc(C2CC2)cc1
REMARK SMILES IDX 12 1 11 2 10 3 9 4 7 5 8 6 6 8 3 9 2 11 1 12 4 13 5 14 77 15
REMARK SMILES IDX 78 16 85 17 79 18 84 19 80 20 81 21 82 22 83 23 13 24 14 25
REMARK SMILES IDX 15 26 16 28 17 29 18 30 76 31 19 32 75 33 20 34 21 35 22 36
REMARK SMILES IDX 69 37 23 38 74 39 68 40 70 41 24 42 73 43 67 44 66 45 25 47
REMARK SMILES IDX 55 48 36 49 54 50 37 51 40 52 53 53 71 54 38 55 39 56 52 58
REMARK SMILES IDX 72 59 41 60 26 61 27 62 35 63 28 64 34 65 29 66 30 67 31 68
REMARK SMILES IDX 32 69 33 70 56 71 57 72 65 73 58 74 64 75 59 76 60 77 61 78
REMARK SMILES IDX 62 79 63 80 42 81 43 82 51 83 44 84 50 85 45 86 46 87 47 88
REMARK SMILES IDX 48 89 49 90
REMARK H PARENT 9 7 3 10 14 27 70 46 40 57
REMARK Flexibility Score: inf
ROOT
ATOM      1  C   UNL A   1      38.326  20.025  24.944  1.00  0.00     0.023 C 
ENDROOT
BRANCH   1   2
ATOM      2  C   UNL A   1      37.019  20.820  25.006  1.00  0.00     0.023 C 
BRANCH   2   3
ATOM      3  C   UNL A   1      37.116  22.263  25.521  1.00  0.00     0.116 C 
BRANCH   3   4
ATOM      4  N   UNL A   1      36.156  22.624  26.554  1.00  0.00    -0.351 N 
ATOM      5  C   UNL A   1      34.800  22.832  26.550  1.00  0.00     0.283 C 
ATOM      6  O   UNL A   1      34.296  23.041  27.660  1.00  0.00    -0.268 OA
ATOM      7  H   UNL A   1      36.567  22.745  27.440  1.00  0.00     0.163 HD
BRANCH   5   8
ATOM      8  C   UNL A   1      33.960  22.847  25.231  1.00  0.00     0.305 C 
BRANCH   8   9
ATOM      9  N   UNL A   1      32.919  23.946  25.259  1.00  0.00    -0.321 N 
ATOM     10  H   UNL A   1      32.257  23.603  24.564  1.00  0.00     0.349 HD
BRANCH   9  11
ATOM     11  C   UNL A   1      32.108  24.088  26.483  1.00  0.00     0.259 C 
ATOM     12  C   UNL A   1      30.695  23.528  26.456  1.00  0.00     0.071 C 
ENDBRANCH   9  11
BRANCH   9  13
ATOM     13  C   UNL A   1      33.446  25.249  24.832  1.00  0.00     0.259 C 
ATOM     14  C   UNL A   1      33.639  26.307  25.926  1.00  0.00     0.071 C 
ENDBRANCH   9  13
ENDBRANCH   8   9
BRANCH   8  15
ATOM     15  C   UNL A   1      33.331  21.490  24.839  1.00  0.00     0.019 A 
ATOM     16  C   UNL A   1      33.390  20.425  25.753  1.00  0.00     0.011 A 
ATOM     17  C   UNL A   1      32.759  21.218  23.590  1.00  0.00     0.011 A 
ATOM     18  C   UNL A   1      33.153  19.109  25.341  1.00  0.00     0.004 A 
ATOM     19  C   UNL A   1      32.488  19.894  23.196  1.00  0.00     0.004 A 
ATOM     20  C   UNL A   1      32.774  18.799  24.026  1.00  0.00    -0.045 A 
BRANCH  20  21
ATOM     21  C   UNL A   1      32.779  17.348  23.579  1.00  0.00     0.019 C 
ATOM     22  C   UNL A   1      34.008  16.711  22.990  1.00  0.00     0.009 C 
ATOM     23  C   UNL A   1      33.512  16.266  24.337  1.00  0.00     0.009 C 
ENDBRANCH  20  21
ENDBRANCH   8  15
ENDBRANCH   5   8
ENDBRANCH   3   4
ENDBRANCH   2   3
ENDBRANCH   1   2
BRANCH   1  24
ATOM     24  C   UNL A   1      39.364  20.485  25.949  1.00  0.00     0.116 C 
BRANCH  24  25
ATOM     25  N   UNL A   1      40.430  19.503  26.098  1.00  0.00    -0.352 N 
ATOM     26  C   UNL A   1      41.784  19.689  26.213  1.00  0.00     0.251 C 
ATOM     27  H   UNL A   1      40.134  18.565  26.118  1.00  0.00     0.163 HD
ATOM     28  O   UNL A   1      42.539  18.730  26.097  1.00  0.00    -0.269 OA
BRANCH  26  29
ATOM     29  C   UNL A   1      42.323  21.039  26.473  1.00  0.00     0.039 A 
ATOM     30  C   UNL A   1      42.606  21.413  27.788  1.00  0.00     0.014 A 
ATOM     31  C   UNL A   1      42.512  21.945  25.426  1.00  0.00     0.014 A 
ATOM     32  C   UNL A   1      43.096  22.692  28.046  1.00  0.00     0.010 A 
ATOM     33  C   UNL A   1      43.101  23.174  25.671  1.00  0.00     0.010 A 
ATOM     34  C   UNL A   1      43.358  23.576  26.987  1.00  0.00    -0.014 A 
BRANCH  34  35
ATOM     35  C   UNL A   1      43.836  24.954  27.240  1.00  0.00     0.031 A 
ATOM     36  C   UNL A   1      45.283  25.294  26.995  1.00  0.00     0.074 A 
ATOM     37  C   UNL A   1      42.980  25.871  27.728  1.00  0.00     0.049 A 
ATOM     38  N   UNL A   1      45.903  26.430  27.174  1.00  0.00    -0.248 NA
ATOM     39  C   UNL A   1      46.158  24.207  26.517  1.00  0.00     0.031 C 
ATOM     40  C   UNL A   1      41.573  25.628  28.060  1.00  0.00     0.029 A 
ATOM     41  N   UNL A   1      43.168  27.195  28.029  1.00  0.00    -0.354 N 
ATOM     42  C   UNL A   1      47.236  26.187  26.859  1.00  0.00     0.074 A 
ATOM     43  C   UNL A   1      47.349  24.784  26.536  1.00  0.00     0.031 C 
ATOM     44  C   UNL A   1      41.017  26.775  28.482  1.00  0.00     0.029 A 
ATOM     45  C   UNL A   1      42.033  27.821  28.485  1.00  0.00     0.049 A 
ATOM     46  H   UNL A   1      44.033  27.654  27.928  1.00  0.00     0.167 HD
ATOM     47  C   UNL A   1      48.267  27.062  26.815  1.00  0.00     0.031 A 
ATOM     48  C   UNL A   1      41.836  29.100  28.860  1.00  0.00     0.031 A 
ATOM     49  C   UNL A   1      48.130  28.463  27.107  1.00  0.00     0.049 A 
ATOM     50  C   UNL A   1      42.990  30.061  28.762  1.00  0.00     0.074 A 
ATOM     51  C   UNL A   1      49.088  29.456  27.028  1.00  0.00     0.029 A 
ATOM     52  N   UNL A   1      46.956  29.068  27.530  1.00  0.00    -0.354 N 
ATOM     53  N   UNL A   1      44.227  29.829  28.388  1.00  0.00    -0.248 NA
ATOM     54  C   UNL A   1      42.714  31.459  29.110  1.00  0.00     0.031 C 
ATOM     55  C   UNL A   1      48.506  30.654  27.454  1.00  0.00     0.029 A 
ATOM     56  C   UNL A   1      47.169  30.420  27.734  1.00  0.00     0.049 A 
ATOM     57  H   UNL A   1      46.098  28.604  27.666  1.00  0.00     0.167 HD
ATOM     58  C   UNL A   1      44.870  31.060  28.427  1.00  0.00     0.074 A 
ATOM     59  C   UNL A   1      43.877  32.034  28.839  1.00  0.00     0.031 C 
ATOM     60  C   UNL A   1      46.162  31.364  28.147  1.00  0.00     0.031 A 
BRANCH  47  61
ATOM     61  C   UNL A   1      49.625  26.531  26.437  1.00  0.00    -0.014 A 
ATOM     62  C   UNL A   1      50.396  25.781  27.345  1.00  0.00     0.010 A 
ATOM     63  C   UNL A   1      50.120  26.745  25.138  1.00  0.00     0.010 A 
ATOM     64  C   UNL A   1      51.649  25.286  26.972  1.00  0.00     0.020 A 
ATOM     65  C   UNL A   1      51.359  26.225  24.750  1.00  0.00     0.020 A 
ATOM     66  C   UNL A   1      52.122  25.509  25.676  1.00  0.00     0.054 A 
BRANCH  66  67
ATOM     67  S   UNL A   1      53.730  24.814  25.205  1.00  0.00     0.124 S 
ATOM     68  O   UNL A   1      54.557  25.161  26.358  1.00  0.00    -0.237 OA
ATOM     69  O   UNL A   1      53.431  23.393  25.053  1.00  0.00    -0.237 OA
ATOM     70  O   UNL A   1      54.062  25.514  23.968  1.00  0.00    -0.744 OA
ENDBRANCH  66  67
ENDBRANCH  47  61
BRANCH  48  71
ATOM     71  C   UNL A   1      40.496  29.542  29.330  1.00  0.00    -0.014 A 
ATOM     72  C   UNL A   1      40.230  29.702  30.702  1.00  0.00     0.010 A 
ATOM     73  C   UNL A   1      39.474  29.816  28.402  1.00  0.00     0.010 A 
ATOM     74  C   UNL A   1      38.960  30.094  31.138  1.00  0.00     0.020 A 
ATOM     75  C   UNL A   1      38.213  30.239  28.831  1.00  0.00     0.020 A 
ATOM     76  C   UNL A   1      37.959  30.359  30.199  1.00  0.00     0.054 A 
BRANCH  76  77
ATOM     77  S   UNL A   1      36.328  30.896  30.785  1.00  0.00     0.124 S 
ATOM     78  O   UNL A   1      36.091  29.984  31.899  1.00  0.00    -0.237 OA
ATOM     79  O   UNL A   1      36.567  32.291  31.147  1.00  0.00    -0.237 OA
ATOM     80  O   UNL A   1      35.466  30.703  29.621  1.00  0.00    -0.744 OA
ENDBRANCH  76  77
ENDBRANCH  48  71
BRANCH  60  81
ATOM     81  C   UNL A   1      46.558  32.813  28.231  1.00  0.00    -0.014 A 
ATOM     82  C   UNL A   1      46.469  33.664  27.115  1.00  0.00     0.010 A 
ATOM     83  C   UNL A   1      47.004  33.335  29.459  1.00  0.00     0.010 A 
ATOM     84  C   UNL A   1      46.874  34.997  27.212  1.00  0.00     0.020 A 
ATOM     85  C   UNL A   1      47.376  34.675  29.570  1.00  0.00     0.020 A 
ATOM     86  C   UNL A   1      47.330  35.492  28.438  1.00  0.00     0.054 A 
BRANCH  86  87
ATOM     87  S   UNL A   1      47.845  37.227  28.542  1.00  0.00     0.124 S 
ATOM     88  O   UNL A   1      47.356  37.608  29.865  1.00  0.00    -0.237 OA
ATOM     89  O   UNL A   1      49.298  37.139  28.410  1.00  0.00    -0.237 OA
ATOM     90  O   UNL A   1      47.161  37.860  27.418  1.00  0.00    -0.744 OA
ENDBRANCH  86  87
ENDBRANCH  60  81
ENDBRANCH  34  35
ENDBRANCH  26  29
ENDBRANCH  24  25
ENDBRANCH   1  24
TORSDOF 19
ENDMDL
