MODEL 1
REMARK VINA RESULT:      -9.9      0.000      0.000
REMARK SMILES C#CC[N@@H+](CC(=O)NCCCCNC(=O)c1ccc(-c2c3nc(c(-c4ccc(S(=O)(=O)[O-])cc4)c4ccc([nH]4)c(-c4ccc(S(=O)(=O)[O-])cc4)c4nc(c(-c5ccc(S(=O)(=O)[O-])cc5)c5ccc2[nH]5)C=C4)C=C3)cc1)Cc1ccc(C(C)C)cc1
REMARK SMILES IDX 10 1 9 2 8 3 6 4 7 5 5 7 4 8 3 10 2 11 1 12 76 13 77 14
REMARK SMILES IDX 78 15 85 16 79 17 84 18 80 19 81 20 82 21 83 22 11 23 12 24
REMARK SMILES IDX 13 25 14 26 15 28 16 29 17 30 75 31 18 32 74 33 19 34 20 35
REMARK SMILES IDX 21 36 68 37 22 38 73 39 67 40 69 41 23 42 72 43 66 44 65 45
REMARK SMILES IDX 24 47 54 48 35 49 53 50 36 51 39 52 52 53 70 54 37 55 38 56
REMARK SMILES IDX 51 58 71 59 40 60 25 61 26 62 34 63 27 64 33 65 28 66 29 67
REMARK SMILES IDX 30 68 31 69 32 70 55 71 56 72 64 73 57 74 63 75 58 76 59 77
REMARK SMILES IDX 60 78 61 79 62 80 41 81 42 82 50 83 43 84 49 85 44 86 45 87
REMARK SMILES IDX 46 88 47 89 48 90
REMARK H PARENT 8 6 4 9 13 27 69 46 39 57
REMARK Flexibility Score: inf
ROOT
ATOM      1  C   UNL A   1      39.018  22.509  26.424  1.00  0.00     0.023 C 
ENDROOT
BRANCH   1   2
ATOM      2  C   UNL A   1      37.970  23.485  25.809  1.00  0.00     0.116 C 
BRANCH   2   3
ATOM      3  N   UNL A   1      37.372  23.126  24.522  1.00  0.00    -0.351 N 
ATOM      4  C   UNL A   1      36.207  23.428  23.859  1.00  0.00     0.275 C 
ATOM      5  O   UNL A   1      36.127  22.991  22.702  1.00  0.00    -0.269 OA
ATOM      6  H   UNL A   1      37.947  22.518  24.003  1.00  0.00     0.163 HD
BRANCH   4   7
ATOM      7  C   UNL A   1      35.041  24.275  24.415  1.00  0.00     0.364 C 
BRANCH   7   8
ATOM      8  N   UNL A   1      33.662  24.031  23.922  1.00  0.00    -0.313 N 
ATOM      9  H   UNL A   1      33.741  23.408  23.118  1.00  0.00     0.349 HD
BRANCH   8  10
ATOM     10  C   UNL A   1      33.095  25.275  23.461  1.00  0.00     0.354 C 
BRANCH  10  11
ATOM     11  C   UNL A   1      32.821  25.482  21.982  1.00  0.00    -0.047 C 
ATOM     12  C   UNL A   1      32.587  25.661  20.711  1.00  0.00     0.010 C 
ENDBRANCH  10  11
ENDBRANCH   8  10
BRANCH   8  13
ATOM     13  C   UNL A   1      32.783  23.142  24.728  1.00  0.00     0.300 C 
BRANCH  13  14
ATOM     14  C   UNL A   1      32.806  21.614  24.637  1.00  0.00     0.006 A 
ATOM     15  C   UNL A   1      33.030  20.819  25.774  1.00  0.00     0.010 A 
ATOM     16  C   UNL A   1      32.588  20.905  23.467  1.00  0.00     0.010 A 
ATOM     17  C   UNL A   1      33.026  19.401  25.703  1.00  0.00     0.004 A 
ATOM     18  C   UNL A   1      32.558  19.522  23.375  1.00  0.00     0.004 A 
ATOM     19  C   UNL A   1      32.787  18.741  24.490  1.00  0.00    -0.045 A 
BRANCH  19  20
ATOM     20  C   UNL A   1      32.749  17.243  24.282  1.00  0.00     0.013 C 
ATOM     21  C   UNL A   1      33.729  16.773  23.214  1.00  0.00     0.012 C 
ATOM     22  C   UNL A   1      32.896  16.490  25.600  1.00  0.00     0.012 C 
ENDBRANCH  19  20
ENDBRANCH  13  14
ENDBRANCH   8  13
ENDBRANCH   7   8
ENDBRANCH   4   7
ENDBRANCH   2   3
ENDBRANCH   1   2
BRANCH   1  23
ATOM     23  C   UNL A   1      39.223  21.180  25.750  1.00  0.00     0.023 C 
BRANCH  23  24
ATOM     24  C   UNL A   1      39.816  20.161  26.667  1.00  0.00     0.116 C 
BRANCH  24  25
ATOM     25  N   UNL A   1      40.968  19.475  26.087  1.00  0.00    -0.352 N 
ATOM     26  C   UNL A   1      42.216  19.984  25.813  1.00  0.00     0.251 C 
ATOM     27  H   UNL A   1      40.834  18.526  25.864  1.00  0.00     0.163 HD
ATOM     28  O   UNL A   1      43.030  19.345  25.174  1.00  0.00    -0.269 OA
BRANCH  26  29
ATOM     29  C   UNL A   1      42.501  21.345  26.299  1.00  0.00     0.039 A 
ATOM     30  C   UNL A   1      42.851  21.541  27.630  1.00  0.00     0.014 A 
ATOM     31  C   UNL A   1      42.569  22.386  25.372  1.00  0.00     0.014 A 
ATOM     32  C   UNL A   1      43.327  22.790  28.013  1.00  0.00     0.010 A 
ATOM     33  C   UNL A   1      43.235  23.543  25.709  1.00  0.00     0.010 A 
ATOM     34  C   UNL A   1      43.557  23.786  27.047  1.00  0.00    -0.014 A 
BRANCH  34  35
ATOM     35  C   UNL A   1      44.061  25.122  27.421  1.00  0.00     0.031 A 
ATOM     36  C   UNL A   1      45.505  25.466  27.154  1.00  0.00     0.074 A 
ATOM     37  C   UNL A   1      43.234  25.999  28.019  1.00  0.00     0.049 A 
ATOM     38  N   UNL A   1      46.128  26.597  27.350  1.00  0.00    -0.248 NA
ATOM     39  C   UNL A   1      46.379  24.391  26.645  1.00  0.00     0.031 C 
ATOM     40  C   UNL A   1      41.848  25.729  28.417  1.00  0.00     0.029 A 
ATOM     41  N   UNL A   1      43.431  27.305  28.375  1.00  0.00    -0.354 N 
ATOM     42  C   UNL A   1      47.454  26.356  27.010  1.00  0.00     0.074 A 
ATOM     43  C   UNL A   1      47.573  24.956  26.690  1.00  0.00     0.031 C 
ATOM     44  C   UNL A   1      41.300  26.858  28.893  1.00  0.00     0.029 A 
ATOM     45  C   UNL A   1      42.301  27.918  28.860  1.00  0.00     0.049 A 
ATOM     46  H   UNL A   1      44.300  27.763  28.292  1.00  0.00     0.167 HD
ATOM     47  C   UNL A   1      48.479  27.235  26.923  1.00  0.00     0.031 A 
ATOM     48  C   UNL A   1      42.094  29.200  29.211  1.00  0.00     0.031 A 
ATOM     49  C   UNL A   1      48.335  28.634  27.203  1.00  0.00     0.049 A 
ATOM     50  C   UNL A   1      43.225  30.177  29.039  1.00  0.00     0.074 A 
ATOM     51  C   UNL A   1      49.274  29.639  27.080  1.00  0.00     0.029 A 
ATOM     52  N   UNL A   1      47.165  29.224  27.659  1.00  0.00    -0.354 N 
ATOM     53  N   UNL A   1      44.450  29.954  28.624  1.00  0.00    -0.248 NA
ATOM     54  C   UNL A   1      42.935  31.580  29.353  1.00  0.00     0.031 C 
ATOM     55  C   UNL A   1      48.685  30.833  27.509  1.00  0.00     0.029 A 
ATOM     56  C   UNL A   1      47.361  30.580  27.839  1.00  0.00     0.049 A 
ATOM     57  H   UNL A   1      46.320  28.747  27.828  1.00  0.00     0.167 HD
ATOM     58  C   UNL A   1      45.076  31.195  28.607  1.00  0.00     0.074 A 
ATOM     59  C   UNL A   1      44.080  32.164  29.028  1.00  0.00     0.031 C 
ATOM     60  C   UNL A   1      46.352  31.510  28.274  1.00  0.00     0.031 A 
BRANCH  47  61
ATOM     61  C   UNL A   1      49.820  26.696  26.500  1.00  0.00    -0.014 A 
ATOM     62  C   UNL A   1      50.274  26.821  25.173  1.00  0.00     0.010 A 
ATOM     63  C   UNL A   1      50.641  26.055  27.444  1.00  0.00     0.010 A 
ATOM     64  C   UNL A   1      51.500  26.273  24.787  1.00  0.00     0.020 A 
ATOM     65  C   UNL A   1      51.884  25.534  27.070  1.00  0.00     0.020 A 
ATOM     66  C   UNL A   1      52.296  25.632  25.739  1.00  0.00     0.054 A 
BRANCH  66  67
ATOM     67  S   UNL A   1      53.895  24.951  25.218  1.00  0.00     0.124 S 
ATOM     68  O   UNL A   1      53.596  23.526  25.114  1.00  0.00    -0.237 OA
ATOM     69  O   UNL A   1      54.136  25.636  23.951  1.00  0.00    -0.237 OA
ATOM     70  O   UNL A   1      54.799  25.321  26.304  1.00  0.00    -0.744 OA
ENDBRANCH  66  67
ENDBRANCH  47  61
BRANCH  48  71
ATOM     71  C   UNL A   1      40.754  29.631  29.694  1.00  0.00    -0.014 A 
ATOM     72  C   UNL A   1      40.484  29.734  31.070  1.00  0.00     0.010 A 
ATOM     73  C   UNL A   1      39.747  29.979  28.774  1.00  0.00     0.010 A 
ATOM     74  C   UNL A   1      39.229  30.157  31.518  1.00  0.00     0.020 A 
ATOM     75  C   UNL A   1      38.501  30.429  29.217  1.00  0.00     0.020 A 
ATOM     76  C   UNL A   1      38.245  30.504  30.587  1.00  0.00     0.054 A 
BRANCH  76  77
ATOM     77  S   UNL A   1      36.642  31.106  31.189  1.00  0.00     0.124 S 
ATOM     78  O   UNL A   1      36.270  30.070  32.147  1.00  0.00    -0.237 OA
ATOM     79  O   UNL A   1      36.987  32.405  31.762  1.00  0.00    -0.237 OA
ATOM     80  O   UNL A   1      35.825  31.165  29.979  1.00  0.00    -0.744 OA
ENDBRANCH  76  77
ENDBRANCH  48  71
BRANCH  60  81
ATOM     81  C   UNL A   1      46.728  32.965  28.332  1.00  0.00    -0.014 A 
ATOM     82  C   UNL A   1      47.260  33.535  29.502  1.00  0.00     0.010 A 
ATOM     83  C   UNL A   1      46.567  33.764  27.185  1.00  0.00     0.010 A 
ATOM     84  C   UNL A   1      47.566  34.896  29.543  1.00  0.00     0.020 A 
ATOM     85  C   UNL A   1      46.904  35.117  27.213  1.00  0.00     0.020 A 
ATOM     86  C   UNL A   1      47.377  35.680  28.400  1.00  0.00     0.054 A 
BRANCH  86  87
ATOM     87  S   UNL A   1      47.779  37.445  28.479  1.00  0.00     0.124 S 
ATOM     88  O   UNL A   1      48.742  37.486  29.576  1.00  0.00    -0.237 OA
ATOM     89  O   UNL A   1      48.325  37.711  27.150  1.00  0.00    -0.237 OA
ATOM     90  O   UNL A   1      46.492  38.080  28.756  1.00  0.00    -0.744 OA
ENDBRANCH  86  87
ENDBRANCH  60  81
ENDBRANCH  34  35
ENDBRANCH  26  29
ENDBRANCH  24  25
ENDBRANCH  23  24
ENDBRANCH   1  23
TORSDOF 20
ENDMDL
MODEL 2
REMARK VINA RESULT:      -9.9      1.563      3.556
REMARK SMILES C#CC[N@@H+](CC(=O)NCCCCNC(=O)c1ccc(-c2c3nc(c(-c4ccc(S(=O)(=O)[O-])cc4)c4ccc([nH]4)c(-c4ccc(S(=O)(=O)[O-])cc4)c4nc(c(-c5ccc(S(=O)(=O)[O-])cc5)c5ccc2[nH]5)C=C4)C=C3)cc1)Cc1ccc(C(C)C)cc1
REMARK SMILES IDX 10 1 9 2 8 3 6 4 7 5 5 7 4 8 3 10 2 11 1 12 76 13 77 14
REMARK SMILES IDX 78 15 85 16 79 17 84 18 80 19 81 20 82 21 83 22 11 23 12 24
REMARK SMILES IDX 13 25 14 26 15 28 16 29 17 30 75 31 18 32 74 33 19 34 20 35
REMARK SMILES IDX 21 36 68 37 22 38 73 39 67 40 69 41 23 42 72 43 66 44 65 45
REMARK SMILES IDX 24 47 54 48 35 49 53 50 36 51 39 52 52 53 70 54 37 55 38 56
REMARK SMILES IDX 51 58 71 59 40 60 25 61 26 62 34 63 27 64 33 65 28 66 29 67
REMARK SMILES IDX 30 68 31 69 32 70 55 71 56 72 64 73 57 74 63 75 58 76 59 77
REMARK SMILES IDX 60 78 61 79 62 80 41 81 42 82 50 83 43 84 49 85 44 86 45 87
REMARK SMILES IDX 46 88 47 89 48 90
REMARK H PARENT 8 6 4 9 13 27 69 46 39 57
REMARK Flexibility Score: inf
ROOT
ATOM      1  C   UNL A   1      36.960  21.992  25.966  1.00  0.00     0.023 C 
ENDROOT
BRANCH   1   2
ATOM      2  C   UNL A   1      36.404  23.369  25.495  1.00  0.00     0.116 C 
BRANCH   2   3
ATOM      3  N   UNL A   1      35.896  23.471  24.126  1.00  0.00    -0.351 N 
ATOM      4  C   UNL A   1      34.745  23.098  23.473  1.00  0.00     0.275 C 
ATOM      5  O   UNL A   1      34.659  23.477  22.296  1.00  0.00    -0.269 OA
ATOM      6  H   UNL A   1      36.536  23.916  23.525  1.00  0.00     0.163 HD
BRANCH   4   7
ATOM      7  C   UNL A   1      33.573  22.301  24.085  1.00  0.00     0.364 C 
BRANCH   7   8
ATOM      8  N   UNL A   1      32.588  23.000  24.950  1.00  0.00    -0.313 N 
ATOM      9  H   UNL A   1      33.095  23.321  25.775  1.00  0.00     0.349 HD
BRANCH   8  10
ATOM     10  C   UNL A   1      31.587  22.057  25.387  1.00  0.00     0.354 C 
BRANCH  10  11
ATOM     11  C   UNL A   1      30.498  22.499  26.349  1.00  0.00    -0.047 C 
ATOM     12  C   UNL A   1      29.563  22.878  27.175  1.00  0.00     0.010 C 
ENDBRANCH  10  11
ENDBRANCH   8  10
BRANCH   8  13
ATOM     13  C   UNL A   1      32.114  24.342  24.519  1.00  0.00     0.300 C 
BRANCH  13  14
ATOM     14  C   UNL A   1      32.428  25.636  25.273  1.00  0.00     0.006 A 
ATOM     15  C   UNL A   1      31.581  26.112  26.289  1.00  0.00     0.010 A 
ATOM     16  C   UNL A   1      33.554  26.411  25.046  1.00  0.00     0.010 A 
ATOM     17  C   UNL A   1      31.879  27.297  27.012  1.00  0.00     0.004 A 
ATOM     18  C   UNL A   1      33.878  27.559  25.752  1.00  0.00     0.004 A 
ATOM     19  C   UNL A   1      33.041  28.032  26.744  1.00  0.00    -0.045 A 
BRANCH  19  20
ATOM     20  C   UNL A   1      33.477  29.301  27.443  1.00  0.00     0.013 C 
ATOM     21  C   UNL A   1      34.987  29.380  27.630  1.00  0.00     0.012 C 
ATOM     22  C   UNL A   1      32.893  30.540  26.772  1.00  0.00     0.012 C 
ENDBRANCH  19  20
ENDBRANCH  13  14
ENDBRANCH   8  13
ENDBRANCH   7   8
ENDBRANCH   4   7
ENDBRANCH   2   3
ENDBRANCH   1   2
BRANCH   1  23
ATOM     23  C   UNL A   1      38.188  21.457  25.283  1.00  0.00     0.023 C 
BRANCH  23  24
ATOM     24  C   UNL A   1      39.401  21.531  26.151  1.00  0.00     0.116 C 
BRANCH  24  25
ATOM     25  N   UNL A   1      40.216  20.320  26.095  1.00  0.00    -0.352 N 
ATOM     26  C   UNL A   1      41.587  20.210  26.131  1.00  0.00     0.251 C 
ATOM     27  H   UNL A   1      39.720  19.473  26.023  1.00  0.00     0.163 HD
ATOM     28  O   UNL A   1      42.139  19.150  25.908  1.00  0.00    -0.269 OA
BRANCH  26  29
ATOM     29  C   UNL A   1      42.346  21.439  26.419  1.00  0.00     0.039 A 
ATOM     30  C   UNL A   1      42.570  22.363  25.404  1.00  0.00     0.014 A 
ATOM     31  C   UNL A   1      42.685  21.721  27.743  1.00  0.00     0.014 A 
ATOM     32  C   UNL A   1      43.092  23.606  25.744  1.00  0.00     0.010 A 
ATOM     33  C   UNL A   1      42.996  23.016  28.094  1.00  0.00     0.010 A 
ATOM     34  C   UNL A   1      43.271  23.952  27.095  1.00  0.00    -0.014 A 
BRANCH  34  35
ATOM     35  C   UNL A   1      43.824  25.264  27.488  1.00  0.00     0.031 A 
ATOM     36  C   UNL A   1      45.281  25.557  27.232  1.00  0.00     0.074 A 
ATOM     37  C   UNL A   1      43.026  26.164  28.092  1.00  0.00     0.049 A 
ATOM     38  N   UNL A   1      45.944  26.662  27.444  1.00  0.00    -0.248 NA
ATOM     39  C   UNL A   1      46.117  24.456  26.715  1.00  0.00     0.031 C 
ATOM     40  C   UNL A   1      41.629  25.942  28.480  1.00  0.00     0.029 A 
ATOM     41  N   UNL A   1      43.270  27.458  28.465  1.00  0.00    -0.354 N 
ATOM     42  C   UNL A   1      47.262  26.375  27.109  1.00  0.00     0.074 A 
ATOM     43  C   UNL A   1      47.330  24.976  26.772  1.00  0.00     0.031 C 
ATOM     44  C   UNL A   1      41.121  27.085  28.967  1.00  0.00     0.029 A 
ATOM     45  C   UNL A   1      42.161  28.107  28.952  1.00  0.00     0.049 A 
ATOM     46  H   UNL A   1      44.156  27.884  28.391  1.00  0.00     0.167 HD
ATOM     47  C   UNL A   1      48.319  27.216  27.036  1.00  0.00     0.031 A 
ATOM     48  C   UNL A   1      42.001  29.392  29.317  1.00  0.00     0.031 A 
ATOM     49  C   UNL A   1      48.227  28.616  27.333  1.00  0.00     0.049 A 
ATOM     50  C   UNL A   1      43.168  30.328  29.162  1.00  0.00     0.074 A 
ATOM     51  C   UNL A   1      49.203  29.586  27.226  1.00  0.00     0.029 A 
ATOM     52  N   UNL A   1      47.077  29.244  27.790  1.00  0.00    -0.354 N 
ATOM     53  N   UNL A   1      44.386  30.064  28.750  1.00  0.00    -0.248 NA
ATOM     54  C   UNL A   1      42.930  31.737  29.491  1.00  0.00     0.031 C 
ATOM     55  C   UNL A   1      48.656  30.796  27.666  1.00  0.00     0.029 A 
ATOM     56  C   UNL A   1      47.323  30.589  27.987  1.00  0.00     0.049 A 
ATOM     57  H   UNL A   1      46.214  28.797  27.949  1.00  0.00     0.167 HD
ATOM     58  C   UNL A   1      45.058  31.281  28.751  1.00  0.00     0.074 A 
ATOM     59  C   UNL A   1      44.097  32.281  29.178  1.00  0.00     0.031 C 
ATOM     60  C   UNL A   1      46.347  31.552  28.428  1.00  0.00     0.031 A 
BRANCH  47  61
ATOM     61  C   UNL A   1      49.642  26.632  26.614  1.00  0.00    -0.014 A 
ATOM     62  C   UNL A   1      50.025  26.592  25.259  1.00  0.00     0.010 A 
ATOM     63  C   UNL A   1      50.516  26.115  27.586  1.00  0.00     0.010 A 
ATOM     64  C   UNL A   1      51.235  26.004  24.880  1.00  0.00     0.020 A 
ATOM     65  C   UNL A   1      51.743  25.556  27.214  1.00  0.00     0.020 A 
ATOM     66  C   UNL A   1      52.085  25.488  25.862  1.00  0.00     0.054 A 
BRANCH  66  67
ATOM     67  S   UNL A   1      53.660  24.752  25.346  1.00  0.00     0.124 S 
ATOM     68  O   UNL A   1      53.264  23.382  25.031  1.00  0.00    -0.237 OA
ATOM     69  O   UNL A   1      54.037  25.575  24.199  1.00  0.00    -0.237 OA
ATOM     70  O   UNL A   1      54.513  24.900  26.522  1.00  0.00    -0.744 OA
ENDBRANCH  66  67
ENDBRANCH  47  61
BRANCH  48  71
ATOM     71  C   UNL A   1      40.675  29.867  29.798  1.00  0.00    -0.014 A 
ATOM     72  C   UNL A   1      39.670  30.238  28.887  1.00  0.00     0.010 A 
ATOM     73  C   UNL A   1      40.397  29.915  31.177  1.00  0.00     0.010 A 
ATOM     74  C   UNL A   1      38.420  30.666  29.345  1.00  0.00     0.020 A 
ATOM     75  C   UNL A   1      39.140  30.316  31.638  1.00  0.00     0.020 A 
ATOM     76  C   UNL A   1      38.162  30.700  30.718  1.00  0.00     0.054 A 
BRANCH  76  77
ATOM     77  S   UNL A   1      36.515  31.203  31.290  1.00  0.00     0.124 S 
ATOM     78  O   UNL A   1      36.830  32.301  32.197  1.00  0.00    -0.237 OA
ATOM     79  O   UNL A   1      35.850  31.580  30.044  1.00  0.00    -0.237 OA
ATOM     80  O   UNL A   1      35.991  29.995  31.925  1.00  0.00    -0.744 OA
ENDBRANCH  76  77
ENDBRANCH  48  71
BRANCH  60  81
ATOM     81  C   UNL A   1      46.777  32.991  28.505  1.00  0.00    -0.014 A 
ATOM     82  C   UNL A   1      47.331  33.525  29.682  1.00  0.00     0.010 A 
ATOM     83  C   UNL A   1      46.644  33.811  27.369  1.00  0.00     0.010 A 
ATOM     84  C   UNL A   1      47.687  34.873  29.741  1.00  0.00     0.020 A 
ATOM     85  C   UNL A   1      47.032  35.150  27.415  1.00  0.00     0.020 A 
ATOM     86  C   UNL A   1      47.526  35.679  28.608  1.00  0.00     0.054 A 
BRANCH  86  87
ATOM     87  S   UNL A   1      47.993  37.427  28.710  1.00  0.00     0.124 S 
ATOM     88  O   UNL A   1      46.819  38.085  28.146  1.00  0.00    -0.237 OA
ATOM     89  O   UNL A   1      48.199  37.622  30.143  1.00  0.00    -0.237 OA
ATOM     90  O   UNL A   1      49.205  37.508  27.896  1.00  0.00    -0.744 OA
ENDBRANCH  86  87
ENDBRANCH  60  81
ENDBRANCH  34  35
ENDBRANCH  26  29
ENDBRANCH  24  25
ENDBRANCH  23  24
ENDBRANCH   1  23
TORSDOF 20
ENDMDL
MODEL 3
REMARK VINA RESULT:      -9.8      4.432      6.410
REMARK SMILES C#CC[N@@H+](CC(=O)NCCCCNC(=O)c1ccc(-c2c3nc(c(-c4ccc(S(=O)(=O)[O-])cc4)c4ccc([nH]4)c(-c4ccc(S(=O)(=O)[O-])cc4)c4nc(c(-c5ccc(S(=O)(=O)[O-])cc5)c5ccc2[nH]5)C=C4)C=C3)cc1)Cc1ccc(C(C)C)cc1
REMARK SMILES IDX 10 1 9 2 8 3 6 4 7 5 5 7 4 8 3 10 2 11 1 12 76 13 77 14
REMARK SMILES IDX 78 15 85 16 79 17 84 18 80 19 81 20 82 21 83 22 11 23 12 24
REMARK SMILES IDX 13 25 14 26 15 28 16 29 17 30 75 31 18 32 74 33 19 34 20 35
REMARK SMILES IDX 21 36 68 37 22 38 73 39 67 40 69 41 23 42 72 43 66 44 65 45
REMARK SMILES IDX 24 47 54 48 35 49 53 50 36 51 39 52 52 53 70 54 37 55 38 56
REMARK SMILES IDX 51 58 71 59 40 60 25 61 26 62 34 63 27 64 33 65 28 66 29 67
REMARK SMILES IDX 30 68 31 69 32 70 55 71 56 72 64 73 57 74 63 75 58 76 59 77
REMARK SMILES IDX 60 78 61 79 62 80 41 81 42 82 50 83 43 84 49 85 44 86 45 87
REMARK SMILES IDX 46 88 47 89 48 90
REMARK H PARENT 8 6 4 9 13 27 69 46 39 57
REMARK Flexibility Score: inf
ROOT
ATOM      1  C   UNL A   1      36.062  21.827  24.282  1.00  0.00     0.023 C 
ENDROOT
BRANCH   1   2
ATOM      2  C   UNL A   1      35.100  21.318  25.396  1.00  0.00     0.116 C 
BRANCH   2   3
ATOM      3  N   UNL A   1      34.024  20.405  25.008  1.00  0.00    -0.351 N 
ATOM      4  C   UNL A   1      32.655  20.480  24.914  1.00  0.00     0.275 C 
ATOM      5  O   UNL A   1      32.103  19.485  24.423  1.00  0.00    -0.269 OA
ATOM      6  H   UNL A   1      34.366  19.518  24.749  1.00  0.00     0.163 HD
BRANCH   4   7
ATOM      7  C   UNL A   1      31.783  21.686  25.326  1.00  0.00     0.364 C 
BRANCH   7   8
ATOM      8  N   UNL A   1      32.192  23.055  24.919  1.00  0.00    -0.313 N 
ATOM      9  H   UNL A   1      31.363  23.644  24.990  1.00  0.00     0.349 HD
BRANCH   8  10
ATOM     10  C   UNL A   1      32.603  23.037  23.536  1.00  0.00     0.354 C 
BRANCH  10  11
ATOM     11  C   UNL A   1      32.468  24.290  22.688  1.00  0.00    -0.047 C 
ATOM     12  C   UNL A   1      32.352  25.365  21.960  1.00  0.00     0.010 C 
ENDBRANCH  10  11
ENDBRANCH   8  10
BRANCH   8  13
ATOM     13  C   UNL A   1      33.029  23.840  25.866  1.00  0.00     0.300 C 
BRANCH  13  14
ATOM     14  C   UNL A   1      32.996  25.367  25.963  1.00  0.00     0.006 A 
ATOM     15  C   UNL A   1      31.955  26.033  26.635  1.00  0.00     0.010 A 
ATOM     16  C   UNL A   1      33.973  26.197  25.440  1.00  0.00     0.010 A 
ATOM     17  C   UNL A   1      31.932  27.447  26.753  1.00  0.00     0.004 A 
ATOM     18  C   UNL A   1      33.985  27.578  25.561  1.00  0.00     0.004 A 
ATOM     19  C   UNL A   1      32.957  28.233  26.212  1.00  0.00    -0.045 A 
BRANCH  19  20
ATOM     20  C   UNL A   1      33.055  29.742  26.276  1.00  0.00     0.013 C 
ATOM     21  C   UNL A   1      31.713  30.406  26.560  1.00  0.00     0.012 C 
ATOM     22  C   UNL A   1      34.157  30.192  27.228  1.00  0.00     0.012 C 
ENDBRANCH  19  20
ENDBRANCH  13  14
ENDBRANCH   8  13
ENDBRANCH   7   8
ENDBRANCH   4   7
ENDBRANCH   2   3
ENDBRANCH   1   2
BRANCH   1  23
ATOM     23  C   UNL A   1      36.351  23.302  24.220  1.00  0.00     0.023 C 
BRANCH  23  24
ATOM     24  C   UNL A   1      37.263  23.751  25.314  1.00  0.00     0.116 C 
BRANCH  24  25
ATOM     25  N   UNL A   1      38.437  22.896  25.463  1.00  0.00    -0.352 N 
ATOM     26  C   UNL A   1      39.625  23.179  26.096  1.00  0.00     0.251 C 
ATOM     27  H   UNL A   1      38.370  22.001  25.059  1.00  0.00     0.163 HD
ATOM     28  O   UNL A   1      40.583  22.435  26.000  1.00  0.00    -0.269 OA
BRANCH  26  29
ATOM     29  C   UNL A   1      39.689  24.436  26.862  1.00  0.00     0.039 A 
ATOM     30  C   UNL A   1      39.137  24.494  28.137  1.00  0.00     0.014 A 
ATOM     31  C   UNL A   1      40.443  25.493  26.350  1.00  0.00     0.014 A 
ATOM     32  C   UNL A   1      39.399  25.611  28.922  1.00  0.00     0.010 A 
ATOM     33  C   UNL A   1      40.870  26.486  27.203  1.00  0.00     0.010 A 
ATOM     34  C   UNL A   1      40.298  26.595  28.473  1.00  0.00    -0.014 A 
BRANCH  34  35
ATOM     35  C   UNL A   1      40.597  27.794  29.283  1.00  0.00     0.031 A 
ATOM     36  C   UNL A   1      41.923  27.889  29.995  1.00  0.00     0.074 A 
ATOM     37  C   UNL A   1      39.673  28.765  29.394  1.00  0.00     0.049 A 
ATOM     38  N   UNL A   1      42.404  28.875  30.703  1.00  0.00    -0.248 NA
ATOM     39  C   UNL A   1      42.808  26.709  29.949  1.00  0.00     0.031 C 
ATOM     40  C   UNL A   1      38.318  28.723  28.831  1.00  0.00     0.029 A 
ATOM     41  N   UNL A   1      39.741  29.990  30.001  1.00  0.00    -0.354 N 
ATOM     42  C   UNL A   1      43.622  28.423  31.194  1.00  0.00     0.074 A 
ATOM     43  C   UNL A   1      43.769  27.047  30.790  1.00  0.00     0.031 C 
ATOM     44  C   UNL A   1      37.713  29.900  29.056  1.00  0.00     0.029 A 
ATOM     45  C   UNL A   1      38.622  30.763  29.801  1.00  0.00     0.049 A 
ATOM     46  H   UNL A   1      40.516  30.288  30.530  1.00  0.00     0.167 HD
ATOM     47  C   UNL A   1      44.566  29.107  31.880  1.00  0.00     0.031 A 
ATOM     48  C   UNL A   1      38.376  32.037  30.157  1.00  0.00     0.031 A 
ATOM     49  C   UNL A   1      44.424  30.489  32.238  1.00  0.00     0.049 A 
ATOM     50  C   UNL A   1      39.464  32.804  30.857  1.00  0.00     0.074 A 
ATOM     51  C   UNL A   1      45.335  31.314  32.866  1.00  0.00     0.029 A 
ATOM     52  N   UNL A   1      43.290  31.249  31.987  1.00  0.00    -0.354 N 
ATOM     53  N   UNL A   1      40.653  32.392  31.231  1.00  0.00    -0.248 NA
ATOM     54  C   UNL A   1      39.189  34.214  31.154  1.00  0.00     0.031 C 
ATOM     55  C   UNL A   1      44.733  32.566  33.039  1.00  0.00     0.029 A 
ATOM     56  C   UNL A   1      43.472  32.534  32.463  1.00  0.00     0.049 A 
ATOM     57  H   UNL A   1      42.479  30.922  31.536  1.00  0.00     0.167 HD
ATOM     58  C   UNL A   1      41.279  33.499  31.791  1.00  0.00     0.074 A 
ATOM     59  C   UNL A   1      40.342  34.603  31.679  1.00  0.00     0.031 C 
ATOM     60  C   UNL A   1      42.512  33.601  32.347  1.00  0.00     0.031 A 
BRANCH  47  61
ATOM     61  C   UNL A   1      45.817  28.364  32.268  1.00  0.00    -0.014 A 
ATOM     62  C   UNL A   1      46.016  27.901  33.583  1.00  0.00     0.010 A 
ATOM     63  C   UNL A   1      46.811  28.126  31.303  1.00  0.00     0.010 A 
ATOM     64  C   UNL A   1      47.204  27.256  33.937  1.00  0.00     0.020 A 
ATOM     65  C   UNL A   1      47.987  27.451  31.645  1.00  0.00     0.020 A 
ATOM     66  C   UNL A   1      48.182  27.036  32.964  1.00  0.00     0.054 A 
BRANCH  66  67
ATOM     67  S   UNL A   1      49.705  26.174  33.443  1.00  0.00     0.124 S 
ATOM     68  O   UNL A   1      49.337  25.615  34.742  1.00  0.00    -0.237 OA
ATOM     69  O   UNL A   1      49.874  25.202  32.367  1.00  0.00    -0.237 OA
ATOM     70  O   UNL A   1      50.706  27.236  33.483  1.00  0.00    -0.744 OA
ENDBRANCH  66  67
ENDBRANCH  47  61
BRANCH  48  71
ATOM     71  C   UNL A   1      37.077  32.670  29.800  1.00  0.00    -0.014 A 
ATOM     72  C   UNL A   1      35.931  32.450  30.584  1.00  0.00     0.010 A 
ATOM     73  C   UNL A   1      36.990  33.531  28.690  1.00  0.00     0.010 A 
ATOM     74  C   UNL A   1      34.717  33.062  30.254  1.00  0.00     0.020 A 
ATOM     75  C   UNL A   1      35.786  34.166  28.374  1.00  0.00     0.020 A 
ATOM     76  C   UNL A   1      34.654  33.918  29.151  1.00  0.00     0.054 A 
BRANCH  76  77
ATOM     77  S   UNL A   1      33.084  34.748  28.775  1.00  0.00     0.124 S 
ATOM     78  O   UNL A   1      33.538  35.987  28.151  1.00  0.00    -0.237 OA
ATOM     79  O   UNL A   1      32.428  33.793  27.884  1.00  0.00    -0.237 OA
ATOM     80  O   UNL A   1      32.455  34.898  30.085  1.00  0.00    -0.744 OA
ENDBRANCH  76  77
ENDBRANCH  48  71
BRANCH  60  81
ATOM     81  C   UNL A   1      42.919  34.958  32.851  1.00  0.00    -0.014 A 
ATOM     82  C   UNL A   1      42.744  35.318  34.198  1.00  0.00     0.010 A 
ATOM     83  C   UNL A   1      43.508  35.875  31.961  1.00  0.00     0.010 A 
ATOM     84  C   UNL A   1      43.095  36.597  34.634  1.00  0.00     0.020 A 
ATOM     85  C   UNL A   1      43.890  37.141  32.401  1.00  0.00     0.020 A 
ATOM     86  C   UNL A   1      43.658  37.504  33.729  1.00  0.00     0.054 A 
BRANCH  86  87
ATOM     87  S   UNL A   1      44.102  39.159  34.317  1.00  0.00     0.124 S 
ATOM     88  O   UNL A   1      43.026  39.975  33.761  1.00  0.00    -0.237 OA
ATOM     89  O   UNL A   1      44.087  39.000  35.769  1.00  0.00    -0.237 OA
ATOM     90  O   UNL A   1      45.423  39.389  33.735  1.00  0.00    -0.744 OA
ENDBRANCH  86  87
ENDBRANCH  60  81
ENDBRANCH  34  35
ENDBRANCH  26  29
ENDBRANCH  24  25
ENDBRANCH  23  24
ENDBRANCH   1  23
TORSDOF 20
ENDMDL
