MODEL 1
REMARK VINA RESULT:     -11.1      0.000      0.000
REMARK SMILES CS(=O)(=O)c1ccc(-c2cc(Cl)cnc2-c2ccc(C(=O)NCCCCNC(=O)c3ccc(-c4c5nc(c(-c6ccc(S(=O)(=O)[O-])cc6)c6ccc([nH]6)c(-c6ccc(S(=O)(=O)[O-])cc6)c6nc(c(-c7ccc(S(=O)(=O)[O-])cc7)c7ccc4[nH]7)C=C6)C=C5)cc3)nc2)cc1
REMARK SMILES IDX 24 1 23 2 22 3 20 4 21 5 19 7 16 8 17 9 91 10 18 11 90 12
REMARK SMILES IDX 15 13 9 14 10 15 11 16 14 17 12 18 13 19 8 20 5 21 6 22
REMARK SMILES IDX 93 23 7 24 92 25 2 26 1 27 3 28 4 29 25 30 26 31 27 32 28 33
REMARK SMILES IDX 29 35 30 36 31 37 89 38 32 39 88 40 33 41 34 42 35 43 82 44
REMARK SMILES IDX 36 45 87 46 81 47 83 48 37 49 86 50 80 51 79 52 38 54 68 55
REMARK SMILES IDX 49 56 67 57 50 58 53 59 66 60 84 61 51 62 52 63 65 65 85 66
REMARK SMILES IDX 54 67 39 68 40 69 48 70 41 71 47 72 42 73 43 74 44 75 45 76
REMARK SMILES IDX 46 77 69 78 70 79 78 80 71 81 77 82 72 83 73 84 74 85 75 86
REMARK SMILES IDX 76 87 55 88 56 89 64 90 57 91 63 92 58 93 59 94 60 95 61 96
REMARK SMILES IDX 62 97
REMARK H PARENT 22 6 27 34 83 53 53 64
REMARK Flexibility Score: inf
ROOT
ATOM      1  C   UNL A   1      35.286  21.881  24.798  1.00  0.00     0.023 C 
ENDROOT
BRANCH   1   2
ATOM      2  C   UNL A   1      33.757  21.827  24.780  1.00  0.00     0.116 C 
BRANCH   2   3
ATOM      3  N   UNL A   1      33.217  21.969  26.118  1.00  0.00    -0.351 N 
ATOM      4  C   UNL A   1      32.477  22.961  26.724  1.00  0.00     0.269 C 
ATOM      5  O   UNL A   1      32.124  22.749  27.886  1.00  0.00    -0.268 OA
ATOM      6  H   UNL A   1      33.419  21.208  26.709  1.00  0.00     0.163 HD
BRANCH   4   7
ATOM      7  C   UNL A   1      32.053  24.232  26.033  1.00  0.00     0.128 A 
ATOM      8  C   UNL A   1      31.012  26.524  24.866  1.00  0.00     0.019 A 
ATOM      9  C   UNL A   1      32.027  25.810  24.225  1.00  0.00     0.014 A 
ATOM     10  C   UNL A   1      30.633  26.074  26.123  1.00  0.00     0.122 A 
ATOM     11  C   UNL A   1      32.570  24.673  24.823  1.00  0.00     0.035 A 
ATOM     12  N   UNL A   1      31.103  24.943  26.701  1.00  0.00    -0.250 NA
BRANCH   8  13
ATOM     13  C   UNL A   1      30.329  27.639  24.210  1.00  0.00     0.080 A 
ATOM     14  C   UNL A   1      30.742  28.980  24.381  1.00  0.00     0.010 A 
ATOM     15  C   UNL A   1      29.960  29.972  23.768  1.00  0.00     0.033 A 
ATOM     16  C   UNL A   1      28.841  29.617  23.024  1.00  0.00     0.060 A 
ATOM     17  N   UNL A   1      29.249  27.279  23.468  1.00  0.00    -0.254 NA
ATOM     18  Cl  UNL A   1      27.865  30.821  22.285  1.00  0.00    -0.083 Cl
ATOM     19  C   UNL A   1      28.530  28.275  22.898  1.00  0.00     0.132 A 
BRANCH  14  20
ATOM     20  C   UNL A   1      31.928  29.354  25.173  1.00  0.00    -0.016 A 
ATOM     21  C   UNL A   1      34.179  29.972  26.747  1.00  0.00     0.067 A 
ATOM     22  C   UNL A   1      34.341  29.245  25.570  1.00  0.00     0.021 A 
ATOM     23  C   UNL A   1      32.908  30.405  27.140  1.00  0.00     0.021 A 
ATOM     24  C   UNL A   1      33.219  28.947  24.789  1.00  0.00     0.010 A 
ATOM     25  C   UNL A   1      31.793  30.100  26.356  1.00  0.00     0.010 A 
BRANCH  21  26
ATOM     26  S   UNL A   1      35.554  30.366  27.802  1.00  0.00     0.175 S 
ATOM     27  C   UNL A   1      35.517  32.116  28.074  1.00  0.00     0.163 C 
ATOM     28  O   UNL A   1      36.750  30.082  27.035  1.00  0.00    -0.224 OA
ATOM     29  O   UNL A   1      35.295  29.703  29.067  1.00  0.00    -0.224 OA
ENDBRANCH  21  26
ENDBRANCH  14  20
ENDBRANCH   8  13
ENDBRANCH   4   7
ENDBRANCH   2   3
ENDBRANCH   1   2
BRANCH   1  30
ATOM     30  C   UNL A   1      35.872  23.296  24.785  1.00  0.00     0.023 C 
BRANCH  30  31
ATOM     31  C   UNL A   1      36.804  23.625  25.947  1.00  0.00     0.116 C 
BRANCH  31  32
ATOM     32  N   UNL A   1      37.863  22.643  26.137  1.00  0.00    -0.352 N 
ATOM     33  C   UNL A   1      39.151  22.852  26.574  1.00  0.00     0.251 C 
ATOM     34  H   UNL A   1      37.627  21.711  25.925  1.00  0.00     0.163 HD
ATOM     35  O   UNL A   1      39.958  21.929  26.586  1.00  0.00    -0.269 OA
BRANCH  33  36
ATOM     36  C   UNL A   1      39.558  24.211  26.979  1.00  0.00     0.039 A 
ATOM     37  C   UNL A   1      39.510  24.553  28.332  1.00  0.00     0.014 A 
ATOM     38  C   UNL A   1      40.050  25.115  26.034  1.00  0.00     0.014 A 
ATOM     39  C   UNL A   1      40.042  25.773  28.750  1.00  0.00     0.010 A 
ATOM     40  C   UNL A   1      40.635  26.304  26.460  1.00  0.00     0.010 A 
ATOM     41  C   UNL A   1      40.652  26.635  27.824  1.00  0.00    -0.014 A 
BRANCH  41  42
ATOM     42  C   UNL A   1      41.365  27.859  28.268  1.00  0.00     0.031 A 
ATOM     43  C   UNL A   1      42.858  27.961  28.133  1.00  0.00     0.074 A 
ATOM     44  C   UNL A   1      40.669  28.844  28.871  1.00  0.00     0.049 A 
ATOM     45  N   UNL A   1      43.655  28.919  28.530  1.00  0.00    -0.248 NA
ATOM     46  C   UNL A   1      43.549  26.830  27.492  1.00  0.00     0.031 C 
ATOM     47  C   UNL A   1      39.222  28.837  29.109  1.00  0.00     0.029 A 
ATOM     48  N   UNL A   1      41.086  30.037  29.408  1.00  0.00    -0.354 N 
ATOM     49  C   UNL A   1      44.939  28.502  28.204  1.00  0.00     0.074 A 
ATOM     50  C   UNL A   1      44.820  27.187  27.612  1.00  0.00     0.031 C 
ATOM     51  C   UNL A   1      38.872  29.977  29.727  1.00  0.00     0.029 A 
ATOM     52  C   UNL A   1      40.069  30.776  29.965  1.00  0.00     0.049 A 
ATOM     53  H   UNL A   1      42.025  30.333  29.396  1.00  0.00     0.167 HD
ATOM     54  C   UNL A   1      46.111  29.162  28.369  1.00  0.00     0.031 A 
ATOM     55  C   UNL A   1      40.096  31.961  30.606  1.00  0.00     0.031 A 
ATOM     56  C   UNL A   1      46.223  30.476  28.943  1.00  0.00     0.049 A 
ATOM     57  C   UNL A   1      41.410  32.672  30.777  1.00  0.00     0.074 A 
ATOM     58  C   UNL A   1      47.357  31.257  29.085  1.00  0.00     0.029 A 
ATOM     59  N   UNL A   1      45.168  31.201  29.477  1.00  0.00    -0.354 N 
ATOM     60  N   UNL A   1      42.605  32.297  30.385  1.00  0.00    -0.248 NA
ATOM     61  C   UNL A   1      41.380  33.968  31.467  1.00  0.00     0.031 C 
ATOM     62  C   UNL A   1      46.997  32.434  29.750  1.00  0.00     0.029 A 
ATOM     63  C   UNL A   1      45.630  32.408  29.975  1.00  0.00     0.049 A 
ATOM     64  H   UNL A   1      44.231  30.901  29.499  1.00  0.00     0.167 HD
ATOM     65  C   UNL A   1      43.464  33.320  30.766  1.00  0.00     0.074 A 
ATOM     66  C   UNL A   1      42.652  34.337  31.401  1.00  0.00     0.031 C 
ATOM     67  C   UNL A   1      44.808  33.407  30.608  1.00  0.00     0.031 A 
BRANCH  54  68
ATOM     68  C   UNL A   1      47.371  28.472  27.920  1.00  0.00    -0.014 A 
ATOM     69  C   UNL A   1      48.137  27.707  28.817  1.00  0.00     0.010 A 
ATOM     70  C   UNL A   1      47.761  28.539  26.570  1.00  0.00     0.010 A 
ATOM     71  C   UNL A   1      49.289  27.049  28.380  1.00  0.00     0.020 A 
ATOM     72  C   UNL A   1      48.899  27.861  26.123  1.00  0.00     0.020 A 
ATOM     73  C   UNL A   1      49.663  27.131  27.036  1.00  0.00     0.054 A 
BRANCH  73  74
ATOM     74  S   UNL A   1      51.144  26.235  26.489  1.00  0.00     0.124 S 
ATOM     75  O   UNL A   1      52.208  26.975  27.163  1.00  0.00    -0.237 OA
ATOM     76  O   UNL A   1      50.904  24.884  26.990  1.00  0.00    -0.237 OA
ATOM     77  O   UNL A   1      51.115  26.372  25.035  1.00  0.00    -0.744 OA
ENDBRANCH  73  74
ENDBRANCH  54  68
BRANCH  55  78
ATOM     78  C   UNL A   1      38.837  32.550  31.138  1.00  0.00    -0.014 A 
ATOM     79  C   UNL A   1      38.113  33.489  30.382  1.00  0.00     0.010 A 
ATOM     80  C   UNL A   1      38.353  32.170  32.403  1.00  0.00     0.010 A 
ATOM     81  C   UNL A   1      36.941  34.056  30.893  1.00  0.00     0.020 A 
ATOM     82  C   UNL A   1      37.167  32.715  32.905  1.00  0.00     0.020 A 
ATOM     83  C   UNL A   1      36.476  33.665  32.152  1.00  0.00     0.054 A 
BRANCH  83  84
ATOM     84  S   UNL A   1      34.930  34.380  32.776  1.00  0.00     0.124 S 
ATOM     85  O   UNL A   1      34.031  34.195  31.642  1.00  0.00    -0.237 OA
ATOM     86  O   UNL A   1      34.649  33.554  33.948  1.00  0.00    -0.237 OA
ATOM     87  O   UNL A   1      35.291  35.765  33.073  1.00  0.00    -0.744 OA
ENDBRANCH  83  84
ENDBRANCH  55  78
BRANCH  67  88
ATOM     88  C   UNL A   1      45.484  34.654  31.112  1.00  0.00    -0.014 A 
ATOM     89  C   UNL A   1      45.609  35.790  30.294  1.00  0.00     0.010 A 
ATOM     90  C   UNL A   1      45.946  34.708  32.440  1.00  0.00     0.010 A 
ATOM     91  C   UNL A   1      46.210  36.952  30.787  1.00  0.00     0.020 A 
ATOM     92  C   UNL A   1      46.524  35.875  32.944  1.00  0.00     0.020 A 
ATOM     93  C   UNL A   1      46.663  36.987  32.110  1.00  0.00     0.054 A 
BRANCH  93  94
ATOM     94  S   UNL A   1      47.392  38.522  32.742  1.00  0.00     0.124 S 
ATOM     95  O   UNL A   1      47.271  39.412  31.591  1.00  0.00    -0.237 OA
ATOM     96  O   UNL A   1      46.530  38.843  33.877  1.00  0.00    -0.237 OA
ATOM     97  O   UNL A   1      48.757  38.138  33.092  1.00  0.00    -0.744 OA
ENDBRANCH  93  94
ENDBRANCH  67  88
ENDBRANCH  41  42
ENDBRANCH  33  36
ENDBRANCH  31  32
ENDBRANCH  30  31
ENDBRANCH   1  30
TORSDOF 17
ENDMDL
MODEL 2
REMARK VINA RESULT:     -10.9      0.898      7.932
REMARK SMILES CS(=O)(=O)c1ccc(-c2cc(Cl)cnc2-c2ccc(C(=O)NCCCCNC(=O)c3ccc(-c4c5nc(c(-c6ccc(S(=O)(=O)[O-])cc6)c6ccc([nH]6)c(-c6ccc(S(=O)(=O)[O-])cc6)c6nc(c(-c7ccc(S(=O)(=O)[O-])cc7)c7ccc4[nH]7)C=C6)C=C5)cc3)nc2)cc1
REMARK SMILES IDX 24 1 23 2 22 3 20 4 21 5 19 7 16 8 17 9 91 10 18 11 90 12
REMARK SMILES IDX 15 13 9 14 10 15 11 16 14 17 12 18 13 19 8 20 5 21 6 22
REMARK SMILES IDX 93 23 7 24 92 25 2 26 1 27 3 28 4 29 25 30 26 31 27 32 28 33
REMARK SMILES IDX 29 35 30 36 31 37 89 38 32 39 88 40 33 41 34 42 35 43 82 44
REMARK SMILES IDX 36 45 87 46 81 47 83 48 37 49 86 50 80 51 79 52 38 54 68 55
REMARK SMILES IDX 49 56 67 57 50 58 53 59 66 60 84 61 51 62 52 63 65 65 85 66
REMARK SMILES IDX 54 67 39 68 40 69 48 70 41 71 47 72 42 73 43 74 44 75 45 76
REMARK SMILES IDX 46 77 69 78 70 79 78 80 71 81 77 82 72 83 73 84 74 85 75 86
REMARK SMILES IDX 76 87 55 88 56 89 64 90 57 91 63 92 58 93 59 94 60 95 61 96
REMARK SMILES IDX 62 97
REMARK H PARENT 22 6 27 34 83 53 53 64
REMARK Flexibility Score: inf
ROOT
ATOM      1  C   UNL A   1      35.170  21.485  24.763  1.00  0.00     0.023 C 
ENDROOT
BRANCH   1   2
ATOM      2  C   UNL A   1      33.646  21.593  24.843  1.00  0.00     0.116 C 
BRANCH   2   3
ATOM      3  N   UNL A   1      33.213  21.816  26.208  1.00  0.00    -0.351 N 
ATOM      4  C   UNL A   1      32.556  22.863  26.818  1.00  0.00     0.269 C 
ATOM      5  O   UNL A   1      32.283  22.718  28.012  1.00  0.00    -0.268 OA
ATOM      6  H   UNL A   1      33.431  21.076  26.819  1.00  0.00     0.163 HD
BRANCH   4   7
ATOM      7  C   UNL A   1      32.126  24.116  26.100  1.00  0.00     0.128 A 
ATOM      8  C   UNL A   1      31.080  26.388  24.898  1.00  0.00     0.019 A 
ATOM      9  C   UNL A   1      32.038  25.621  24.231  1.00  0.00     0.014 A 
ATOM     10  C   UNL A   1      30.763  26.001  26.193  1.00  0.00     0.122 A 
ATOM     11  C   UNL A   1      32.584  24.493  24.845  1.00  0.00     0.035 A 
ATOM     12  N   UNL A   1      31.236  24.881  26.790  1.00  0.00    -0.250 NA
BRANCH   8  13
ATOM     13  C   UNL A   1      30.391  27.495  24.236  1.00  0.00     0.080 A 
ATOM     14  C   UNL A   1      30.769  28.843  24.432  1.00  0.00     0.010 A 
ATOM     15  C   UNL A   1      29.982  29.824  23.809  1.00  0.00     0.033 A 
ATOM     16  C   UNL A   1      28.891  29.453  23.030  1.00  0.00     0.060 A 
ATOM     17  N   UNL A   1      29.340  27.120  23.461  1.00  0.00    -0.254 NA
ATOM     18  Cl  UNL A   1      27.909  30.643  22.278  1.00  0.00    -0.083 Cl
ATOM     19  C   UNL A   1      28.615  28.106  22.882  1.00  0.00     0.132 A 
BRANCH  14  20
ATOM     20  C   UNL A   1      31.924  29.234  25.261  1.00  0.00    -0.016 A 
ATOM     21  C   UNL A   1      34.144  30.070  26.777  1.00  0.00     0.067 A 
ATOM     22  C   UNL A   1      32.865  30.483  27.144  1.00  0.00     0.021 A 
ATOM     23  C   UNL A   1      34.325  29.235  25.669  1.00  0.00     0.021 A 
ATOM     24  C   UNL A   1      31.765  30.058  26.391  1.00  0.00     0.010 A 
ATOM     25  C   UNL A   1      33.222  28.818  24.921  1.00  0.00     0.010 A 
BRANCH  21  26
ATOM     26  S   UNL A   1      35.588  30.590  27.672  1.00  0.00     0.175 S 
ATOM     27  C   UNL A   1      35.458  29.919  29.307  1.00  0.00     0.163 C 
ATOM     28  O   UNL A   1      35.495  32.031  27.797  1.00  0.00    -0.224 OA
ATOM     29  O   UNL A   1      36.719  29.963  27.012  1.00  0.00    -0.224 OA
ENDBRANCH  21  26
ENDBRANCH  14  20
ENDBRANCH   8  13
ENDBRANCH   4   7
ENDBRANCH   2   3
ENDBRANCH   1   2
BRANCH   1  30
ATOM     30  C   UNL A   1      35.894  22.825  24.605  1.00  0.00     0.023 C 
BRANCH  30  31
ATOM     31  C   UNL A   1      36.987  23.100  25.633  1.00  0.00     0.116 C 
BRANCH  31  32
ATOM     32  N   UNL A   1      38.007  22.062  25.687  1.00  0.00    -0.352 N 
ATOM     33  C   UNL A   1      39.291  22.152  26.174  1.00  0.00     0.251 C 
ATOM     34  H   UNL A   1      37.744  21.183  25.329  1.00  0.00     0.163 HD
ATOM     35  O   UNL A   1      40.065  21.209  26.056  1.00  0.00    -0.269 OA
BRANCH  33  36
ATOM     36  C   UNL A   1      39.734  23.416  26.793  1.00  0.00     0.039 A 
ATOM     37  C   UNL A   1      40.415  23.366  28.011  1.00  0.00     0.014 A 
ATOM     38  C   UNL A   1      39.539  24.634  26.136  1.00  0.00     0.014 A 
ATOM     39  C   UNL A   1      40.981  24.532  28.527  1.00  0.00     0.010 A 
ATOM     40  C   UNL A   1      40.155  25.783  26.621  1.00  0.00     0.010 A 
ATOM     41  C   UNL A   1      40.898  25.738  27.812  1.00  0.00    -0.014 A 
BRANCH  41  42
ATOM     42  C   UNL A   1      41.628  26.950  28.261  1.00  0.00     0.031 A 
ATOM     43  C   UNL A   1      40.879  28.121  28.832  1.00  0.00     0.074 A 
ATOM     44  C   UNL A   1      42.962  27.023  28.073  1.00  0.00     0.049 A 
ATOM     45  N   UNL A   1      41.340  29.286  29.208  1.00  0.00    -0.248 NA
ATOM     46  C   UNL A   1      39.421  27.974  28.976  1.00  0.00     0.031 C 
ATOM     47  C   UNL A   1      43.793  25.972  27.478  1.00  0.00     0.029 A 
ATOM     48  N   UNL A   1      43.852  28.031  28.348  1.00  0.00    -0.354 N 
ATOM     49  C   UNL A   1      40.231  30.016  29.617  1.00  0.00     0.074 A 
ATOM     50  C   UNL A   1      39.071  29.179  29.406  1.00  0.00     0.031 C 
ATOM     51  C   UNL A   1      45.070  26.384  27.451  1.00  0.00     0.029 A 
ATOM     52  C   UNL A   1      45.146  27.739  27.986  1.00  0.00     0.049 A 
ATOM     53  H   UNL A   1      43.587  28.883  28.765  1.00  0.00     0.167 HD
ATOM     54  C   UNL A   1      40.187  31.267  30.136  1.00  0.00     0.031 A 
ATOM     55  C   UNL A   1      46.267  28.481  28.066  1.00  0.00     0.031 A 
ATOM     56  C   UNL A   1      41.345  32.091  30.359  1.00  0.00     0.049 A 
ATOM     57  C   UNL A   1      46.189  29.867  28.645  1.00  0.00     0.074 A 
ATOM     58  C   UNL A   1      41.409  33.342  30.947  1.00  0.00     0.029 A 
ATOM     59  N   UNL A   1      42.640  31.752  29.998  1.00  0.00    -0.354 N 
ATOM     60  N   UNL A   1      45.141  30.509  29.104  1.00  0.00    -0.248 NA
ATOM     61  C   UNL A   1      47.445  30.626  28.725  1.00  0.00     0.031 C 
ATOM     62  C   UNL A   1      42.735  33.781  30.897  1.00  0.00     0.029 A 
ATOM     63  C   UNL A   1      43.506  32.782  30.325  1.00  0.00     0.049 A 
ATOM     64  H   UNL A   1      42.904  30.904  29.572  1.00  0.00     0.167 HD
ATOM     65  C   UNL A   1      45.615  31.739  29.544  1.00  0.00     0.074 A 
ATOM     66  C   UNL A   1      47.045  31.745  29.314  1.00  0.00     0.031 C 
ATOM     67  C   UNL A   1      44.926  32.774  30.085  1.00  0.00     0.031 A 
BRANCH  54  68
ATOM     68  C   UNL A   1      38.837  31.824  30.501  1.00  0.00    -0.014 A 
ATOM     69  C   UNL A   1      38.177  31.416  31.673  1.00  0.00     0.010 A 
ATOM     70  C   UNL A   1      38.247  32.812  29.691  1.00  0.00     0.010 A 
ATOM     71  C   UNL A   1      36.937  31.963  32.013  1.00  0.00     0.020 A 
ATOM     72  C   UNL A   1      37.018  33.380  30.041  1.00  0.00     0.020 A 
ATOM     73  C   UNL A   1      36.365  32.940  31.195  1.00  0.00     0.054 A 
BRANCH  73  74
ATOM     74  S   UNL A   1      34.771  33.659  31.681  1.00  0.00     0.124 S 
ATOM     75  O   UNL A   1      35.191  34.858  32.402  1.00  0.00    -0.237 OA
ATOM     76  O   UNL A   1      34.121  33.895  30.395  1.00  0.00    -0.237 OA
ATOM     77  O   UNL A   1      34.159  32.619  32.504  1.00  0.00    -0.744 OA
ENDBRANCH  73  74
ENDBRANCH  54  68
BRANCH  55  78
ATOM     78  C   UNL A   1      47.563  27.930  27.582  1.00  0.00    -0.014 A 
ATOM     79  C   UNL A   1      48.027  28.227  26.289  1.00  0.00     0.010 A 
ATOM     80  C   UNL A   1      48.340  27.106  28.416  1.00  0.00     0.010 A 
ATOM     81  C   UNL A   1      49.234  27.692  25.830  1.00  0.00     0.020 A 
ATOM     82  C   UNL A   1      49.561  26.591  27.971  1.00  0.00     0.020 A 
ATOM     83  C   UNL A   1      49.993  26.876  26.674  1.00  0.00     0.054 A 
BRANCH  83  84
ATOM     84  S   UNL A   1      51.578  26.227  26.075  1.00  0.00     0.124 S 
ATOM     85  O   UNL A   1      51.430  26.355  24.629  1.00  0.00    -0.237 OA
ATOM     86  O   UNL A   1      52.545  27.130  26.695  1.00  0.00    -0.237 OA
ATOM     87  O   UNL A   1      51.600  24.858  26.586  1.00  0.00    -0.744 OA
ENDBRANCH  83  84
ENDBRANCH  55  78
BRANCH  67  88
ATOM     88  C   UNL A   1      45.712  33.992  30.486  1.00  0.00    -0.014 A 
ATOM     89  C   UNL A   1      46.296  34.090  31.761  1.00  0.00     0.010 A 
ATOM     90  C   UNL A   1      45.918  35.027  29.555  1.00  0.00     0.010 A 
ATOM     91  C   UNL A   1      47.050  35.214  32.108  1.00  0.00     0.020 A 
ATOM     92  C   UNL A   1      46.692  36.139  29.889  1.00  0.00     0.020 A 
ATOM     93  C   UNL A   1      47.244  36.232  31.168  1.00  0.00     0.054 A 
BRANCH  93  94
ATOM     94  S   UNL A   1      48.270  37.656  31.623  1.00  0.00     0.124 S 
ATOM     95  O   UNL A   1      47.292  38.551  32.236  1.00  0.00    -0.237 OA
ATOM     96  O   UNL A   1      49.245  37.070  32.540  1.00  0.00    -0.237 OA
ATOM     97  O   UNL A   1      48.817  38.110  30.348  1.00  0.00    -0.744 OA
ENDBRANCH  93  94
ENDBRANCH  67  88
ENDBRANCH  41  42
ENDBRANCH  33  36
ENDBRANCH  31  32
ENDBRANCH  30  31
ENDBRANCH   1  30
TORSDOF 17
ENDMDL
MODEL 3
REMARK VINA RESULT:     -10.8      5.436     10.350
REMARK SMILES CS(=O)(=O)c1ccc(-c2cc(Cl)cnc2-c2ccc(C(=O)NCCCCNC(=O)c3ccc(-c4c5nc(c(-c6ccc(S(=O)(=O)[O-])cc6)c6ccc([nH]6)c(-c6ccc(S(=O)(=O)[O-])cc6)c6nc(c(-c7ccc(S(=O)(=O)[O-])cc7)c7ccc4[nH]7)C=C6)C=C5)cc3)nc2)cc1
REMARK SMILES IDX 24 1 23 2 22 3 20 4 21 5 19 7 16 8 17 9 91 10 18 11 90 12
REMARK SMILES IDX 15 13 9 14 10 15 11 16 14 17 12 18 13 19 8 20 5 21 6 22
REMARK SMILES IDX 93 23 7 24 92 25 2 26 1 27 3 28 4 29 25 30 26 31 27 32 28 33
REMARK SMILES IDX 29 35 30 36 31 37 89 38 32 39 88 40 33 41 34 42 35 43 82 44
REMARK SMILES IDX 36 45 87 46 81 47 83 48 37 49 86 50 80 51 79 52 38 54 68 55
REMARK SMILES IDX 49 56 67 57 50 58 53 59 66 60 84 61 51 62 52 63 65 65 85 66
REMARK SMILES IDX 54 67 39 68 40 69 48 70 41 71 47 72 42 73 43 74 44 75 45 76
REMARK SMILES IDX 46 77 69 78 70 79 78 80 71 81 77 82 72 83 73 84 74 85 75 86
REMARK SMILES IDX 76 87 55 88 56 89 64 90 57 91 63 92 58 93 59 94 60 95 61 96
REMARK SMILES IDX 62 97
REMARK H PARENT 22 6 27 34 83 53 53 64
REMARK Flexibility Score: inf
ROOT
ATOM      1  C   UNL A   1      32.673  32.851  26.863  1.00  0.00     0.023 C 
ENDROOT
BRANCH   1   2
ATOM      2  C   UNL A   1      32.466  31.377  27.215  1.00  0.00     0.116 C 
BRANCH   2   3
ATOM      3  N   UNL A   1      33.652  30.818  27.833  1.00  0.00    -0.351 N 
ATOM      4  C   UNL A   1      34.322  29.627  27.658  1.00  0.00     0.269 C 
ATOM      5  O   UNL A   1      35.352  29.475  28.318  1.00  0.00    -0.268 OA
ATOM      6  H   UNL A   1      34.059  31.405  28.511  1.00  0.00     0.163 HD
BRANCH   4   7
ATOM      7  C   UNL A   1      33.890  28.556  26.689  1.00  0.00     0.128 A 
ATOM      8  C   UNL A   1      33.089  26.408  25.125  1.00  0.00     0.019 A 
ATOM      9  C   UNL A   1      33.936  27.384  24.594  1.00  0.00     0.014 A 
ATOM     10  C   UNL A   1      32.622  26.624  26.414  1.00  0.00     0.122 A 
ATOM     11  C   UNL A   1      34.318  28.479  25.371  1.00  0.00     0.035 A 
ATOM     12  N   UNL A   1      33.021  27.646  27.207  1.00  0.00    -0.250 NA
BRANCH   8  13
ATOM     13  C   UNL A   1      32.777  25.184  24.389  1.00  0.00     0.080 A 
ATOM     14  C   UNL A   1      31.659  25.086  23.529  1.00  0.00     0.010 A 
ATOM     15  C   UNL A   1      31.414  23.836  22.940  1.00  0.00     0.033 A 
ATOM     16  C   UNL A   1      32.258  22.763  23.203  1.00  0.00     0.060 A 
ATOM     17  N   UNL A   1      33.621  24.148  24.636  1.00  0.00    -0.254 NA
ATOM     18  Cl  UNL A   1      31.959  21.224  22.504  1.00  0.00    -0.083 Cl
ATOM     19  C   UNL A   1      33.339  22.964  24.043  1.00  0.00     0.132 A 
BRANCH  14  20
ATOM     20  C   UNL A   1      30.764  26.225  23.255  1.00  0.00    -0.016 A 
ATOM     21  C   UNL A   1      29.095  28.450  22.823  1.00  0.00     0.067 A 
ATOM     22  C   UNL A   1      30.355  28.410  22.231  1.00  0.00     0.021 A 
ATOM     23  C   UNL A   1      28.654  27.387  23.618  1.00  0.00     0.021 A 
ATOM     24  C   UNL A   1      31.177  27.298  22.443  1.00  0.00     0.010 A 
ATOM     25  C   UNL A   1      29.482  26.282  23.828  1.00  0.00     0.010 A 
BRANCH  21  26
ATOM     26  S   UNL A   1      28.007  29.841  22.617  1.00  0.00     0.175 S 
ATOM     27  C   UNL A   1      28.729  31.201  23.493  1.00  0.00     0.163 C 
ATOM     28  O   UNL A   1      26.776  29.502  23.302  1.00  0.00    -0.224 OA
ATOM     29  O   UNL A   1      28.019  30.155  21.200  1.00  0.00    -0.224 OA
ENDBRANCH  21  26
ENDBRANCH  14  20
ENDBRANCH   8  13
ENDBRANCH   4   7
ENDBRANCH   2   3
ENDBRANCH   1   2
BRANCH   1  30
ATOM     30  C   UNL A   1      32.154  33.835  27.916  1.00  0.00     0.023 C 
BRANCH  30  31
ATOM     31  C   UNL A   1      33.227  34.492  28.778  1.00  0.00     0.116 C 
BRANCH  31  32
ATOM     32  N   UNL A   1      32.708  35.064  30.013  1.00  0.00    -0.352 N 
ATOM     33  C   UNL A   1      33.210  34.937  31.288  1.00  0.00     0.251 C 
ATOM     34  H   UNL A   1      31.895  35.611  29.924  1.00  0.00     0.163 HD
ATOM     35  O   UNL A   1      32.597  35.401  32.243  1.00  0.00    -0.269 OA
BRANCH  33  36
ATOM     36  C   UNL A   1      34.467  34.191  31.491  1.00  0.00     0.039 A 
ATOM     37  C   UNL A   1      35.680  34.840  31.251  1.00  0.00     0.014 A 
ATOM     38  C   UNL A   1      34.444  32.883  31.983  1.00  0.00     0.014 A 
ATOM     39  C   UNL A   1      36.875  34.206  31.592  1.00  0.00     0.010 A 
ATOM     40  C   UNL A   1      35.633  32.277  32.378  1.00  0.00     0.010 A 
ATOM     41  C   UNL A   1      36.858  32.941  32.203  1.00  0.00    -0.014 A 
BRANCH  41  42
ATOM     42  C   UNL A   1      38.103  32.320  32.719  1.00  0.00     0.031 A 
ATOM     43  C   UNL A   1      38.596  32.638  34.102  1.00  0.00     0.074 A 
ATOM     44  C   UNL A   1      38.833  31.532  31.903  1.00  0.00     0.049 A 
ATOM     45  N   UNL A   1      39.696  32.248  34.693  1.00  0.00    -0.248 NA
ATOM     46  C   UNL A   1      37.758  33.531  34.920  1.00  0.00     0.031 C 
ATOM     47  C   UNL A   1      38.487  31.192  30.520  1.00  0.00     0.029 A 
ATOM     48  N   UNL A   1      40.026  30.886  32.112  1.00  0.00    -0.354 N 
ATOM     49  C   UNL A   1      39.692  32.858  35.941  1.00  0.00     0.074 A 
ATOM     50  C   UNL A   1      38.501  33.676  36.009  1.00  0.00     0.031 C 
ATOM     51  C   UNL A   1      39.435  30.388  30.013  1.00  0.00     0.029 A 
ATOM     52  C   UNL A   1      40.475  30.187  31.016  1.00  0.00     0.049 A 
ATOM     53  H   UNL A   1      40.515  30.922  32.967  1.00  0.00     0.167 HD
ATOM     54  C   UNL A   1      40.593  32.735  36.946  1.00  0.00     0.031 A 
ATOM     55  C   UNL A   1      41.602  29.472  30.834  1.00  0.00     0.031 A 
ATOM     56  C   UNL A   1      41.768  31.908  36.880  1.00  0.00     0.049 A 
ATOM     57  C   UNL A   1      42.585  29.352  31.965  1.00  0.00     0.074 A 
ATOM     58  C   UNL A   1      42.701  31.661  37.872  1.00  0.00     0.029 A 
ATOM     59  N   UNL A   1      42.177  31.199  35.760  1.00  0.00    -0.354 N 
ATOM     60  N   UNL A   1      42.521  29.870  33.169  1.00  0.00    -0.248 NA
ATOM     61  C   UNL A   1      43.788  28.546  31.718  1.00  0.00     0.031 C 
ATOM     62  C   UNL A   1      43.701  30.843  37.337  1.00  0.00     0.029 A 
ATOM     63  C   UNL A   1      43.364  30.538  36.028  1.00  0.00     0.049 A 
ATOM     64  H   UNL A   1      41.695  31.171  34.903  1.00  0.00     0.167 HD
ATOM     65  C   UNL A   1      43.666  29.437  33.827  1.00  0.00     0.074 A 
ATOM     66  C   UNL A   1      44.394  28.600  32.897  1.00  0.00     0.031 C 
ATOM     67  C   UNL A   1      44.079  29.712  35.089  1.00  0.00     0.031 A 
BRANCH  54  68
ATOM     68  C   UNL A   1      40.342  33.515  38.208  1.00  0.00    -0.014 A 
ATOM     69  C   UNL A   1      40.855  34.813  38.371  1.00  0.00     0.010 A 
ATOM     70  C   UNL A   1      39.531  32.966  39.219  1.00  0.00     0.010 A 
ATOM     71  C   UNL A   1      40.591  35.537  39.537  1.00  0.00     0.020 A 
ATOM     72  C   UNL A   1      39.243  33.697  40.376  1.00  0.00     0.020 A 
ATOM     73  C   UNL A   1      39.788  34.973  40.532  1.00  0.00     0.054 A 
BRANCH  73  74
ATOM     74  S   UNL A   1      39.430  35.951  42.019  1.00  0.00     0.124 S 
ATOM     75  O   UNL A   1      40.546  35.590  42.890  1.00  0.00    -0.237 OA
ATOM     76  O   UNL A   1      39.447  37.321  41.513  1.00  0.00    -0.237 OA
ATOM     77  O   UNL A   1      38.122  35.463  42.449  1.00  0.00    -0.744 OA
ENDBRANCH  73  74
ENDBRANCH  54  68
BRANCH  55  78
ATOM     78  C   UNL A   1      41.863  28.813  29.525  1.00  0.00    -0.014 A 
ATOM     79  C   UNL A   1      41.656  27.432  29.367  1.00  0.00     0.010 A 
ATOM     80  C   UNL A   1      42.318  29.567  28.428  1.00  0.00     0.010 A 
ATOM     81  C   UNL A   1      41.921  26.812  28.142  1.00  0.00     0.020 A 
ATOM     82  C   UNL A   1      42.558  28.956  27.193  1.00  0.00     0.020 A 
ATOM     83  C   UNL A   1      42.371  27.579  27.063  1.00  0.00     0.054 A 
BRANCH  83  84
ATOM     84  S   UNL A   1      42.667  26.763  25.470  1.00  0.00     0.124 S 
ATOM     85  O   UNL A   1      43.868  25.983  25.748  1.00  0.00    -0.237 OA
ATOM     86  O   UNL A   1      41.442  25.992  25.276  1.00  0.00    -0.237 OA
ATOM     87  O   UNL A   1      42.843  27.879  24.543  1.00  0.00    -0.744 OA
ENDBRANCH  83  84
ENDBRANCH  55  78
BRANCH  67  88
ATOM     88  C   UNL A   1      45.368  29.087  35.546  1.00  0.00    -0.014 A 
ATOM     89  C   UNL A   1      46.595  29.753  35.378  1.00  0.00     0.010 A 
ATOM     90  C   UNL A   1      45.346  27.844  36.204  1.00  0.00     0.010 A 
ATOM     91  C   UNL A   1      47.781  29.174  35.837  1.00  0.00     0.020 A 
ATOM     92  C   UNL A   1      46.526  27.274  36.687  1.00  0.00     0.020 A 
ATOM     93  C   UNL A   1      47.738  27.938  36.490  1.00  0.00     0.054 A 
BRANCH  93  94
ATOM     94  S   UNL A   1      49.284  27.231  37.122  1.00  0.00     0.124 S 
ATOM     95  O   UNL A   1      49.710  26.387  36.008  1.00  0.00    -0.237 OA
ATOM     96  O   UNL A   1      50.105  28.415  37.362  1.00  0.00    -0.237 OA
ATOM     97  O   UNL A   1      48.869  26.513  38.324  1.00  0.00    -0.744 OA
ENDBRANCH  93  94
ENDBRANCH  67  88
ENDBRANCH  41  42
ENDBRANCH  33  36
ENDBRANCH  31  32
ENDBRANCH  30  31
ENDBRANCH   1  30
TORSDOF 17
ENDMDL
