MODEL 1
REMARK VINA RESULT:     -11.9      0.000      0.000
REMARK SMILES CN1C(=O)/C(=C\c2ccc(-c3ccccc3C(=O)NCCCCNC(=O)c3ccc(-c4c5nc(c(-c6ccc(S(=O)(=O)[O-])cc6)c6ccc([nH]6)c(-c6ccc(S(=O)(=O)[O-])cc6)c6nc(c(-c7ccc(S(=O)(=O)[O-])cc7)c7ccc4[nH]7)C=C6)C=C5)cc3)o2)C(=O)[NH+]=C1S
REMARK SMILES IDX 21 1 20 2 19 3 17 4 18 5 16 7 11 8 12 9 13 10 15 11 14 12
REMARK SMILES IDX 10 13 7 14 8 15 87 16 9 17 6 18 1 19 2 20 3 21 91 22 4 23
REMARK SMILES IDX 5 24 90 25 88 26 89 28 92 29 22 31 23 32 24 33 25 34 26 36
REMARK SMILES IDX 27 37 28 38 86 39 29 40 85 41 30 42 31 43 32 44 79 45 33 46
REMARK SMILES IDX 84 47 78 48 80 49 34 50 83 51 77 52 76 53 35 55 65 56 46 57
REMARK SMILES IDX 64 58 47 59 50 60 63 61 81 62 48 63 49 64 62 66 82 67 51 68
REMARK SMILES IDX 36 69 37 70 45 71 38 72 44 73 39 74 40 75 41 76 42 77 43 78
REMARK SMILES IDX 66 79 67 80 75 81 68 82 74 83 69 84 70 85 71 86 72 87 73 88
REMARK SMILES IDX 52 89 53 90 61 91 54 92 60 93 55 94 56 95 57 96 58 97 59 98
REMARK H PARENT 19 6 90 27 92 30 24 35 80 54 50 65
REMARK Flexibility Score: inf
ROOT
ATOM      1  C   UNL A   1      35.379  22.258  25.923  1.00  0.00     0.023 C 
ENDROOT
BRANCH   1   2
ATOM      2  C   UNL A   1      34.768  23.338  26.812  1.00  0.00     0.116 C 
BRANCH   2   3
ATOM      3  N   UNL A   1      33.345  23.472  26.645  1.00  0.00    -0.352 N 
ATOM      4  C   UNL A   1      32.329  22.833  26.005  1.00  0.00     0.252 C 
ATOM      5  O   UNL A   1      31.230  23.106  26.514  1.00  0.00    -0.269 OA
ATOM      6  H   UNL A   1      33.008  24.256  27.138  1.00  0.00     0.163 HD
BRANCH   4   7
ATOM      7  C   UNL A   1      32.326  21.947  24.786  1.00  0.00     0.050 A 
ATOM      8  C   UNL A   1      32.291  22.218  23.405  1.00  0.00     0.030 A 
ATOM      9  C   UNL A   1      32.213  21.134  22.484  1.00  0.00     0.013 A 
ATOM     10  C   UNL A   1      32.212  19.803  22.889  1.00  0.00     0.001 A 
ATOM     11  C   UNL A   1      32.332  20.567  25.154  1.00  0.00     0.014 A 
ATOM     12  C   UNL A   1      32.287  19.517  24.236  1.00  0.00     0.001 A 
BRANCH   8  13
ATOM     13  C   UNL A   1      32.464  23.498  22.752  1.00  0.00     0.135 A 
ATOM     14  C   UNL A   1      31.857  25.606  22.320  1.00  0.00     0.128 A 
ATOM     15  C   UNL A   1      32.881  25.248  21.446  1.00  0.00     0.051 A 
ATOM     16  O   UNL A   1      31.631  24.505  23.134  1.00  0.00    -0.457 OA
ATOM     17  C   UNL A   1      33.210  23.892  21.668  1.00  0.00     0.051 A 
BRANCH  14  18
ATOM     18  C   UNL A   1      31.173  26.842  22.532  1.00  0.00     0.071 C 
ATOM     19  C   UNL A   1      33.918  28.510  26.134  1.00  0.00     0.301 C 
ATOM     20  N   UNL A   1      32.831  28.712  25.183  1.00  0.00    -0.189 N 
ATOM     21  C   UNL A   1      32.848  27.950  24.038  1.00  0.00     0.349 C 
ATOM     22  C   UNL A   1      31.861  29.671  25.326  1.00  0.00     0.318 C 
ATOM     23  O   UNL A   1      33.875  27.454  23.580  1.00  0.00    -0.240 OA
ATOM     24  C   UNL A   1      31.555  27.856  23.335  1.00  0.00     0.157 C 
ATOM     25  N   UNL A   1      30.853  29.840  24.547  1.00  0.00    -0.200 N 
ATOM     26  C   UNL A   1      30.581  28.957  23.543  1.00  0.00     0.347 C 
ATOM     27  H   UNL A   1      30.266  30.620  24.677  1.00  0.00     0.316 HD
ATOM     28  O   UNL A   1      29.578  29.058  22.843  1.00  0.00    -0.241 OA
BRANCH  22  29
ATOM     29  S   UNL A   1      32.020  30.829  26.627  1.00  0.00    -0.055 SA
ATOM     30  H   UNL A   1      31.552  30.282  27.780  1.00  0.00     0.116 HD
ENDBRANCH  22  29
ENDBRANCH  14  18
ENDBRANCH   8  13
ENDBRANCH   4   7
ENDBRANCH   2   3
ENDBRANCH   1   2
BRANCH   1  31
ATOM     31  C   UNL A   1      36.097  22.815  24.692  1.00  0.00     0.023 C 
BRANCH  31  32
ATOM     32  C   UNL A   1      37.420  23.530  24.942  1.00  0.00     0.116 C 
BRANCH  32  33
ATOM     33  N   UNL A   1      38.495  22.677  25.424  1.00  0.00    -0.352 N 
ATOM     34  C   UNL A   1      39.462  22.993  26.360  1.00  0.00     0.251 C 
ATOM     35  H   UNL A   1      38.539  21.771  25.041  1.00  0.00     0.163 HD
ATOM     36  O   UNL A   1      40.319  22.173  26.674  1.00  0.00    -0.269 OA
BRANCH  34  37
ATOM     37  C   UNL A   1      39.460  24.363  26.930  1.00  0.00     0.039 A 
ATOM     38  C   UNL A   1      38.906  24.578  28.193  1.00  0.00     0.014 A 
ATOM     39  C   UNL A   1      40.165  25.384  26.284  1.00  0.00     0.014 A 
ATOM     40  C   UNL A   1      39.163  25.781  28.860  1.00  0.00     0.010 A 
ATOM     41  C   UNL A   1      40.495  26.537  26.990  1.00  0.00     0.010 A 
ATOM     42  C   UNL A   1      40.017  26.743  28.294  1.00  0.00    -0.014 A 
BRANCH  42  43
ATOM     43  C   UNL A   1      40.461  27.944  29.057  1.00  0.00     0.031 A 
ATOM     44  C   UNL A   1      41.825  27.980  29.695  1.00  0.00     0.074 A 
ATOM     45  C   UNL A   1      39.609  28.973  29.252  1.00  0.00     0.049 A 
ATOM     46  N   UNL A   1      42.363  28.905  30.447  1.00  0.00    -0.248 NA
ATOM     47  C   UNL A   1      42.683  26.803  29.485  1.00  0.00     0.031 C 
ATOM     48  C   UNL A   1      38.240  29.054  28.735  1.00  0.00     0.029 A 
ATOM     49  N   UNL A   1      39.767  30.153  29.940  1.00  0.00    -0.354 N 
ATOM     50  C   UNL A   1      43.611  28.416  30.813  1.00  0.00     0.074 A 
ATOM     51  C   UNL A   1      43.721  27.085  30.256  1.00  0.00     0.031 C 
ATOM     52  C   UNL A   1      37.705  30.237  29.078  1.00  0.00     0.029 A 
ATOM     53  C   UNL A   1      38.671  30.983  29.879  1.00  0.00     0.049 A 
ATOM     54  H   UNL A   1      40.589  30.382  30.430  1.00  0.00     0.167 HD
ATOM     55  C   UNL A   1      44.593  29.024  31.523  1.00  0.00     0.031 A 
ATOM     56  C   UNL A   1      38.465  32.208  30.401  1.00  0.00     0.031 A 
ATOM     57  C   UNL A   1      44.488  30.347  32.076  1.00  0.00     0.049 A 
ATOM     58  C   UNL A   1      39.558  32.859  31.206  1.00  0.00     0.074 A 
ATOM     59  C   UNL A   1      45.441  31.070  32.772  1.00  0.00     0.029 A 
ATOM     60  N   UNL A   1      43.358  31.149  31.996  1.00  0.00    -0.354 N 
ATOM     61  N   UNL A   1      40.755  32.402  31.490  1.00  0.00    -0.248 NA
ATOM     62  C   UNL A   1      39.274  34.192  31.754  1.00  0.00     0.031 C 
ATOM     63  C   UNL A   1      44.871  32.290  33.153  1.00  0.00     0.029 A 
ATOM     64  C   UNL A   1      43.583  32.351  32.647  1.00  0.00     0.049 A 
ATOM     65  H   UNL A   1      42.520  30.900  31.544  1.00  0.00     0.167 HD
ATOM     66  C   UNL A   1      41.378  33.406  32.223  1.00  0.00     0.074 A 
ATOM     67  C   UNL A   1      40.429  34.495  32.332  1.00  0.00     0.031 C 
ATOM     68  C   UNL A   1      42.627  33.425  32.751  1.00  0.00     0.031 A 
BRANCH  55  69
ATOM     69  C   UNL A   1      45.861  28.238  31.743  1.00  0.00    -0.014 A 
ATOM     70  C   UNL A   1      46.944  28.348  30.850  1.00  0.00     0.010 A 
ATOM     71  C   UNL A   1      45.965  27.361  32.836  1.00  0.00     0.010 A 
ATOM     72  C   UNL A   1      48.071  27.537  31.000  1.00  0.00     0.020 A 
ATOM     73  C   UNL A   1      47.106  26.571  33.010  1.00  0.00     0.020 A 
ATOM     74  C   UNL A   1      48.139  26.643  32.072  1.00  0.00     0.054 A 
BRANCH  74  75
ATOM     75  S   UNL A   1      49.595  25.572  32.221  1.00  0.00     0.124 S 
ATOM     76  O   UNL A   1      49.151  24.603  33.221  1.00  0.00    -0.237 OA
ATOM     77  O   UNL A   1      49.749  25.047  30.867  1.00  0.00    -0.237 OA
ATOM     78  O   UNL A   1      50.650  26.481  32.659  1.00  0.00    -0.744 OA
ENDBRANCH  74  75
ENDBRANCH  55  69
BRANCH  56  79
ATOM     79  C   UNL A   1      37.188  32.926  30.132  1.00  0.00    -0.014 A 
ATOM     80  C   UNL A   1      37.025  33.647  28.935  1.00  0.00     0.010 A 
ATOM     81  C   UNL A   1      36.122  32.874  31.047  1.00  0.00     0.010 A 
ATOM     82  C   UNL A   1      35.823  34.305  28.659  1.00  0.00     0.020 A 
ATOM     83  C   UNL A   1      34.909  33.512  30.764  1.00  0.00     0.020 A 
ATOM     84  C   UNL A   1      34.769  34.227  29.573  1.00  0.00     0.054 A 
BRANCH  84  85
ATOM     85  S   UNL A   1      33.195  35.029  29.158  1.00  0.00     0.124 S 
ATOM     86  O   UNL A   1      32.493  35.003  30.438  1.00  0.00    -0.237 OA
ATOM     87  O   UNL A   1      33.625  36.347  28.697  1.00  0.00    -0.237 OA
ATOM     88  O   UNL A   1      32.636  34.167  28.119  1.00  0.00    -0.744 OA
ENDBRANCH  84  85
ENDBRANCH  56  79
BRANCH  68  89
ATOM     89  C   UNL A   1      43.057  34.676  33.469  1.00  0.00    -0.014 A 
ATOM     90  C   UNL A   1      42.934  34.797  34.865  1.00  0.00     0.010 A 
ATOM     91  C   UNL A   1      43.650  35.723  32.739  1.00  0.00     0.010 A 
ATOM     92  C   UNL A   1      43.374  35.954  35.514  1.00  0.00     0.020 A 
ATOM     93  C   UNL A   1      44.114  36.870  33.389  1.00  0.00     0.020 A 
ATOM     94  C   UNL A   1      43.962  36.984  34.771  1.00  0.00     0.054 A 
BRANCH  94  95
ATOM     95  S   UNL A   1      44.573  38.452  35.644  1.00  0.00     0.124 S 
ATOM     96  O   UNL A   1      43.908  38.335  36.938  1.00  0.00    -0.237 OA
ATOM     97  O   UNL A   1      46.018  38.237  35.658  1.00  0.00    -0.237 OA
ATOM     98  O   UNL A   1      44.123  39.563  34.808  1.00  0.00    -0.744 OA
ENDBRANCH  94  95
ENDBRANCH  68  89
ENDBRANCH  42  43
ENDBRANCH  34  37
ENDBRANCH  32  33
ENDBRANCH  31  32
ENDBRANCH   1  31
TORSDOF 17
ENDMDL
MODEL 2
REMARK VINA RESULT:     -11.8      1.359      2.244
REMARK SMILES CN1C(=O)/C(=C\c2ccc(-c3ccccc3C(=O)NCCCCNC(=O)c3ccc(-c4c5nc(c(-c6ccc(S(=O)(=O)[O-])cc6)c6ccc([nH]6)c(-c6ccc(S(=O)(=O)[O-])cc6)c6nc(c(-c7ccc(S(=O)(=O)[O-])cc7)c7ccc4[nH]7)C=C6)C=C5)cc3)o2)C(=O)[NH+]=C1S
REMARK SMILES IDX 21 1 20 2 19 3 17 4 18 5 16 7 11 8 12 9 13 10 15 11 14 12
REMARK SMILES IDX 10 13 7 14 8 15 87 16 9 17 6 18 1 19 2 20 3 21 91 22 4 23
REMARK SMILES IDX 5 24 90 25 88 26 89 28 92 29 22 31 23 32 24 33 25 34 26 36
REMARK SMILES IDX 27 37 28 38 86 39 29 40 85 41 30 42 31 43 32 44 79 45 33 46
REMARK SMILES IDX 84 47 78 48 80 49 34 50 83 51 77 52 76 53 35 55 65 56 46 57
REMARK SMILES IDX 64 58 47 59 50 60 63 61 81 62 48 63 49 64 62 66 82 67 51 68
REMARK SMILES IDX 36 69 37 70 45 71 38 72 44 73 39 74 40 75 41 76 42 77 43 78
REMARK SMILES IDX 66 79 67 80 75 81 68 82 74 83 69 84 70 85 71 86 72 87 73 88
REMARK SMILES IDX 52 89 53 90 61 91 54 92 60 93 55 94 56 95 57 96 58 97 59 98
REMARK H PARENT 19 6 90 27 92 30 24 35 80 54 50 65
REMARK Flexibility Score: inf
ROOT
ATOM      1  C   UNL A   1      35.022  23.335  26.089  1.00  0.00     0.023 C 
ENDROOT
BRANCH   1   2
ATOM      2  C   UNL A   1      34.748  21.916  26.581  1.00  0.00     0.116 C 
BRANCH   2   3
ATOM      3  N   UNL A   1      35.695  20.951  26.086  1.00  0.00    -0.352 N 
ATOM      4  C   UNL A   1      35.737  19.935  25.182  1.00  0.00     0.252 C 
ATOM      5  O   UNL A   1      36.902  19.686  24.834  1.00  0.00    -0.269 OA
ATOM      6  H   UNL A   1      36.567  21.058  26.531  1.00  0.00     0.163 HD
BRANCH   4   7
ATOM      7  C   UNL A   1      34.645  19.058  24.624  1.00  0.00     0.050 A 
ATOM      8  C   UNL A   1      33.303  19.304  24.279  1.00  0.00     0.030 A 
ATOM      9  C   UNL A   1      32.487  18.221  23.843  1.00  0.00     0.013 A 
ATOM     10  C   UNL A   1      32.972  16.923  23.703  1.00  0.00     0.001 A 
ATOM     11  C   UNL A   1      35.101  17.715  24.455  1.00  0.00     0.014 A 
ATOM     12  C   UNL A   1      34.295  16.672  23.997  1.00  0.00     0.001 A 
BRANCH   8  13
ATOM     13  C   UNL A   1      32.639  20.585  24.172  1.00  0.00     0.135 A 
ATOM     14  C   UNL A   1      32.439  22.656  23.354  1.00  0.00     0.128 A 
ATOM     15  C   UNL A   1      31.527  22.497  24.394  1.00  0.00     0.051 A 
ATOM     16  O   UNL A   1      33.105  21.445  23.224  1.00  0.00    -0.457 OA
ATOM     17  C   UNL A   1      31.708  21.216  24.960  1.00  0.00     0.051 A 
BRANCH  14  18
ATOM     18  C   UNL A   1      32.671  23.733  22.445  1.00  0.00     0.071 C 
ATOM     19  C   UNL A   1      30.581  27.239  25.021  1.00  0.00     0.301 C 
ATOM     20  N   UNL A   1      31.351  26.822  23.854  1.00  0.00    -0.189 N 
ATOM     21  C   UNL A   1      32.051  25.643  23.951  1.00  0.00     0.349 C 
ATOM     22  C   UNL A   1      31.483  27.580  22.718  1.00  0.00     0.318 C 
ATOM     23  O   UNL A   1      32.405  25.162  25.025  1.00  0.00    -0.240 OA
ATOM     24  C   UNL A   1      32.442  25.045  22.661  1.00  0.00     0.157 C 
ATOM     25  N   UNL A   1      32.098  27.224  21.647  1.00  0.00    -0.200 N 
ATOM     26  C   UNL A   1      32.578  25.956  21.497  1.00  0.00     0.347 C 
ATOM     27  H   UNL A   1      32.223  27.878  20.921  1.00  0.00     0.316 HD
ATOM     28  O   UNL A   1      33.093  25.577  20.450  1.00  0.00    -0.241 OA
BRANCH  22  29
ATOM     29  S   UNL A   1      30.838  29.206  22.721  1.00  0.00    -0.055 SA
ATOM     30  H   UNL A   1      29.815  29.290  21.829  1.00  0.00     0.116 HD
ENDBRANCH  22  29
ENDBRANCH  14  18
ENDBRANCH   8  13
ENDBRANCH   4   7
ENDBRANCH   2   3
ENDBRANCH   1   2
BRANCH   1  31
ATOM     31  C   UNL A   1      36.494  23.739  26.185  1.00  0.00     0.023 C 
BRANCH  31  32
ATOM     32  C   UNL A   1      37.394  23.312  25.032  1.00  0.00     0.116 C 
BRANCH  32  33
ATOM     33  N   UNL A   1      38.558  22.531  25.421  1.00  0.00    -0.352 N 
ATOM     34  C   UNL A   1      39.582  22.915  26.266  1.00  0.00     0.251 C 
ATOM     35  H   UNL A   1      38.624  21.626  25.039  1.00  0.00     0.163 HD
ATOM     36  O   UNL A   1      40.513  22.153  26.506  1.00  0.00    -0.269 OA
BRANCH  34  37
ATOM     37  C   UNL A   1      39.546  24.288  26.828  1.00  0.00     0.039 A 
ATOM     38  C   UNL A   1      39.056  24.485  28.120  1.00  0.00     0.014 A 
ATOM     39  C   UNL A   1      40.160  25.338  26.137  1.00  0.00     0.014 A 
ATOM     40  C   UNL A   1      39.291  25.705  28.765  1.00  0.00     0.010 A 
ATOM     41  C   UNL A   1      40.473  26.511  26.817  1.00  0.00     0.010 A 
ATOM     42  C   UNL A   1      40.062  26.703  28.145  1.00  0.00    -0.014 A 
BRANCH  42  43
ATOM     43  C   UNL A   1      40.489  27.931  28.874  1.00  0.00     0.031 A 
ATOM     44  C   UNL A   1      41.860  28.010  29.494  1.00  0.00     0.074 A 
ATOM     45  C   UNL A   1      39.618  28.945  29.057  1.00  0.00     0.049 A 
ATOM     46  N   UNL A   1      42.387  28.964  30.217  1.00  0.00    -0.248 NA
ATOM     47  C   UNL A   1      42.740  26.847  29.300  1.00  0.00     0.031 C 
ATOM     48  C   UNL A   1      38.241  28.985  28.556  1.00  0.00     0.029 A 
ATOM     49  N   UNL A   1      39.759  30.144  29.716  1.00  0.00    -0.354 N 
ATOM     50  C   UNL A   1      43.651  28.511  30.578  1.00  0.00     0.074 A 
ATOM     51  C   UNL A   1      43.782  27.170  30.050  1.00  0.00     0.031 C 
ATOM     52  C   UNL A   1      37.685  30.164  28.880  1.00  0.00     0.029 A 
ATOM     53  C   UNL A   1      38.644  30.949  29.650  1.00  0.00     0.049 A 
ATOM     54  H   UNL A   1      40.582  30.402  30.190  1.00  0.00     0.167 HD
ATOM     55  C   UNL A   1      44.628  29.155  31.262  1.00  0.00     0.031 A 
ATOM     56  C   UNL A   1      38.419  32.181  30.147  1.00  0.00     0.031 A 
ATOM     57  C   UNL A   1      44.501  30.489  31.785  1.00  0.00     0.049 A 
ATOM     58  C   UNL A   1      39.508  32.873  30.922  1.00  0.00     0.074 A 
ATOM     59  C   UNL A   1      45.446  31.247  32.453  1.00  0.00     0.029 A 
ATOM     60  N   UNL A   1      43.353  31.263  31.702  1.00  0.00    -0.354 N 
ATOM     61  N   UNL A   1      40.717  32.449  31.201  1.00  0.00    -0.248 NA
ATOM     62  C   UNL A   1      39.201  34.213  31.443  1.00  0.00     0.031 C 
ATOM     63  C   UNL A   1      44.856  32.464  32.812  1.00  0.00     0.029 A 
ATOM     64  C   UNL A   1      43.560  32.485  32.322  1.00  0.00     0.049 A 
ATOM     65  H   UNL A   1      42.515  30.986  31.266  1.00  0.00     0.167 HD
ATOM     66  C   UNL A   1      41.328  33.482  31.903  1.00  0.00     0.074 A 
ATOM     67  C   UNL A   1      40.357  34.554  32.000  1.00  0.00     0.031 C 
ATOM     68  C   UNL A   1      42.582  33.540  32.415  1.00  0.00     0.031 A 
BRANCH  55  69
ATOM     69  C   UNL A   1      45.915  28.402  31.483  1.00  0.00    -0.014 A 
ATOM     70  C   UNL A   1      46.957  28.457  30.537  1.00  0.00     0.010 A 
ATOM     71  C   UNL A   1      46.079  27.609  32.632  1.00  0.00     0.010 A 
ATOM     72  C   UNL A   1      48.101  27.672  30.697  1.00  0.00     0.020 A 
ATOM     73  C   UNL A   1      47.237  26.848  32.813  1.00  0.00     0.020 A 
ATOM     74  C   UNL A   1      48.227  26.860  31.828  1.00  0.00     0.054 A 
BRANCH  74  75
ATOM     75  S   UNL A   1      49.704  25.820  31.991  1.00  0.00     0.124 S 
ATOM     76  O   UNL A   1      49.845  25.290  30.636  1.00  0.00    -0.237 OA
ATOM     77  O   UNL A   1      50.729  26.776  32.400  1.00  0.00    -0.237 OA
ATOM     78  O   UNL A   1      49.326  24.840  33.006  1.00  0.00    -0.744 OA
ENDBRANCH  74  75
ENDBRANCH  55  69
BRANCH  56  79
ATOM     79  C   UNL A   1      37.123  32.865  29.879  1.00  0.00    -0.014 A 
ATOM     80  C   UNL A   1      36.118  32.878  30.863  1.00  0.00     0.010 A 
ATOM     81  C   UNL A   1      36.893  33.528  28.660  1.00  0.00     0.010 A 
ATOM     82  C   UNL A   1      34.907  33.537  30.634  1.00  0.00     0.020 A 
ATOM     83  C   UNL A   1      35.691  34.209  28.436  1.00  0.00     0.020 A 
ATOM     84  C   UNL A   1      34.703  34.204  29.424  1.00  0.00     0.054 A 
BRANCH  84  85
ATOM     85  S   UNL A   1      33.151  35.113  29.181  1.00  0.00     0.124 S 
ATOM     86  O   UNL A   1      33.630  36.419  28.737  1.00  0.00    -0.237 OA
ATOM     87  O   UNL A   1      32.471  34.310  28.168  1.00  0.00    -0.237 OA
ATOM     88  O   UNL A   1      32.530  35.089  30.503  1.00  0.00    -0.744 OA
ENDBRANCH  84  85
ENDBRANCH  56  79
BRANCH  68  89
ATOM     89  C   UNL A   1      42.994  34.817  33.098  1.00  0.00    -0.014 A 
ATOM     90  C   UNL A   1      42.787  35.007  34.476  1.00  0.00     0.010 A 
ATOM     91  C   UNL A   1      43.655  35.815  32.358  1.00  0.00     0.010 A 
ATOM     92  C   UNL A   1      43.211  36.187  35.096  1.00  0.00     0.020 A 
ATOM     93  C   UNL A   1      44.102  36.984  32.981  1.00  0.00     0.020 A 
ATOM     94  C   UNL A   1      43.867  37.167  34.344  1.00  0.00     0.054 A 
BRANCH  94  95
ATOM     95  S   UNL A   1      44.455  38.665  35.183  1.00  0.00     0.124 S 
ATOM     96  O   UNL A   1      43.659  39.706  34.538  1.00  0.00    -0.237 OA
ATOM     97  O   UNL A   1      44.127  38.398  36.581  1.00  0.00    -0.237 OA
ATOM     98  O   UNL A   1      45.883  38.693  34.879  1.00  0.00    -0.744 OA
ENDBRANCH  94  95
ENDBRANCH  68  89
ENDBRANCH  42  43
ENDBRANCH  34  37
ENDBRANCH  32  33
ENDBRANCH  31  32
ENDBRANCH   1  31
TORSDOF 17
ENDMDL
MODEL 3
REMARK VINA RESULT:     -11.8      3.895      9.022
REMARK SMILES CN1C(=O)/C(=C\c2ccc(-c3ccccc3C(=O)NCCCCNC(=O)c3ccc(-c4c5nc(c(-c6ccc(S(=O)(=O)[O-])cc6)c6ccc([nH]6)c(-c6ccc(S(=O)(=O)[O-])cc6)c6nc(c(-c7ccc(S(=O)(=O)[O-])cc7)c7ccc4[nH]7)C=C6)C=C5)cc3)o2)C(=O)[NH+]=C1S
REMARK SMILES IDX 21 1 20 2 19 3 17 4 18 5 16 7 11 8 12 9 13 10 15 11 14 12
REMARK SMILES IDX 10 13 7 14 8 15 87 16 9 17 6 18 1 19 2 20 3 21 91 22 4 23
REMARK SMILES IDX 5 24 90 25 88 26 89 28 92 29 22 31 23 32 24 33 25 34 26 36
REMARK SMILES IDX 27 37 28 38 86 39 29 40 85 41 30 42 31 43 32 44 79 45 33 46
REMARK SMILES IDX 84 47 78 48 80 49 34 50 83 51 77 52 76 53 35 55 65 56 46 57
REMARK SMILES IDX 64 58 47 59 50 60 63 61 81 62 48 63 49 64 62 66 82 67 51 68
REMARK SMILES IDX 36 69 37 70 45 71 38 72 44 73 39 74 40 75 41 76 42 77 43 78
REMARK SMILES IDX 66 79 67 80 75 81 68 82 74 83 69 84 70 85 71 86 72 87 73 88
REMARK SMILES IDX 52 89 53 90 61 91 54 92 60 93 55 94 56 95 57 96 58 97 59 98
REMARK H PARENT 19 6 90 27 92 30 24 35 80 54 50 65
REMARK Flexibility Score: inf
ROOT
ATOM      1  C   UNL A   1      37.301  23.594  25.445  1.00  0.00     0.023 C 
ENDROOT
BRANCH   1   2
ATOM      2  C   UNL A   1      35.824  23.734  25.088  1.00  0.00     0.116 C 
BRANCH   2   3
ATOM      3  N   UNL A   1      34.949  23.077  26.024  1.00  0.00    -0.352 N 
ATOM      4  C   UNL A   1      34.181  21.956  26.088  1.00  0.00     0.252 C 
ATOM      5  O   UNL A   1      33.949  21.631  27.264  1.00  0.00    -0.269 OA
ATOM      6  H   UNL A   1      34.888  23.590  26.863  1.00  0.00     0.163 HD
BRANCH   4   7
ATOM      7  C   UNL A   1      33.538  21.130  25.003  1.00  0.00     0.050 A 
ATOM      8  C   UNL A   1      32.588  21.429  24.008  1.00  0.00     0.030 A 
ATOM      9  C   UNL A   1      32.111  20.385  23.166  1.00  0.00     0.013 A 
ATOM     10  C   UNL A   1      32.575  19.075  23.254  1.00  0.00     0.001 A 
ATOM     11  C   UNL A   1      33.992  19.777  25.050  1.00  0.00     0.014 A 
ATOM     12  C   UNL A   1      33.535  18.773  24.196  1.00  0.00     0.001 A 
BRANCH   8  13
ATOM     13  C   UNL A   1      32.104  22.734  23.614  1.00  0.00     0.135 A 
ATOM     14  C   UNL A   1      32.334  24.943  23.354  1.00  0.00     0.128 A 
ATOM     15  C   UNL A   1      31.002  24.603  23.129  1.00  0.00     0.051 A 
ATOM     16  O   UNL A   1      33.001  23.759  23.635  1.00  0.00    -0.457 OA
ATOM     17  C   UNL A   1      30.842  23.220  23.369  1.00  0.00     0.051 A 
BRANCH  14  18
ATOM     18  C   UNL A   1      33.034  26.182  23.238  1.00  0.00     0.071 C 
ATOM     19  C   UNL A   1      32.008  27.939  27.615  1.00  0.00     0.301 C 
ATOM     20  N   UNL A   1      32.718  28.056  26.346  1.00  0.00    -0.189 N 
ATOM     21  C   UNL A   1      32.945  26.897  25.643  1.00  0.00     0.349 C 
ATOM     22  C   UNL A   1      33.243  29.232  25.872  1.00  0.00     0.318 C 
ATOM     23  O   UNL A   1      32.977  25.789  26.173  1.00  0.00    -0.240 OA
ATOM     24  C   UNL A   1      33.255  27.087  24.214  1.00  0.00     0.157 C 
ATOM     25  N   UNL A   1      33.818  29.391  24.734  1.00  0.00    -0.200 N 
ATOM     26  C   UNL A   1      33.839  28.390  23.807  1.00  0.00     0.347 C 
ATOM     27  H   UNL A   1      34.251  30.251  24.527  1.00  0.00     0.316 HD
ATOM     28  O   UNL A   1      34.311  28.553  22.687  1.00  0.00    -0.241 OA
BRANCH  22  29
ATOM     29  S   UNL A   1      33.211  30.638  26.913  1.00  0.00    -0.055 SA
ATOM     30  H   UNL A   1      33.825  30.345  28.090  1.00  0.00     0.116 HD
ENDBRANCH  22  29
ENDBRANCH  14  18
ENDBRANCH   8  13
ENDBRANCH   4   7
ENDBRANCH   2   3
ENDBRANCH   1   2
BRANCH   1  31
ATOM     31  C   UNL A   1      37.794  22.145  25.443  1.00  0.00     0.023 C 
BRANCH  31  32
ATOM     32  C   UNL A   1      39.085  21.864  26.204  1.00  0.00     0.116 C 
BRANCH  32  33
ATOM     33  N   UNL A   1      39.625  20.526  26.019  1.00  0.00    -0.352 N 
ATOM     34  C   UNL A   1      40.946  20.134  26.117  1.00  0.00     0.251 C 
ATOM     35  H   UNL A   1      38.975  19.820  25.798  1.00  0.00     0.163 HD
ATOM     36  O   UNL A   1      41.266  18.964  25.930  1.00  0.00    -0.269 OA
BRANCH  34  37
ATOM     37  C   UNL A   1      41.964  21.174  26.403  1.00  0.00     0.039 A 
ATOM     38  C   UNL A   1      42.467  21.946  25.354  1.00  0.00     0.014 A 
ATOM     39  C   UNL A   1      42.278  21.493  27.728  1.00  0.00     0.014 A 
ATOM     40  C   UNL A   1      43.188  23.111  25.642  1.00  0.00     0.010 A 
ATOM     41  C   UNL A   1      42.912  22.700  28.008  1.00  0.00     0.010 A 
ATOM     42  C   UNL A   1      43.357  23.535  26.971  1.00  0.00    -0.014 A 
BRANCH  42  43
ATOM     43  C   UNL A   1      43.952  24.861  27.301  1.00  0.00     0.031 A 
ATOM     44  C   UNL A   1      43.091  25.962  27.864  1.00  0.00     0.074 A 
ATOM     45  C   UNL A   1      45.248  25.110  27.018  1.00  0.00     0.049 A 
ATOM     46  N   UNL A   1      43.412  27.197  28.153  1.00  0.00    -0.248 NA
ATOM     47  C   UNL A   1      41.675  25.639  28.099  1.00  0.00     0.031 C 
ATOM     48  C   UNL A   1      46.188  24.154  26.426  1.00  0.00     0.029 A 
ATOM     49  N   UNL A   1      46.003  26.246  27.189  1.00  0.00    -0.354 N 
ATOM     50  C   UNL A   1      42.237  27.801  28.587  1.00  0.00     0.074 A 
ATOM     51  C   UNL A   1      41.186  26.815  28.459  1.00  0.00     0.031 C 
ATOM     52  C   UNL A   1      47.400  24.724  26.333  1.00  0.00     0.029 A 
ATOM     53  C   UNL A   1      47.319  26.100  26.812  1.00  0.00     0.049 A 
ATOM     54  H   UNL A   1      45.637  27.085  27.548  1.00  0.00     0.167 HD
ATOM     55  C   UNL A   1      42.048  29.051  29.076  1.00  0.00     0.031 A 
ATOM     56  C   UNL A   1      48.348  26.970  26.854  1.00  0.00     0.031 A 
ATOM     57  C   UNL A   1      43.092  30.032  29.208  1.00  0.00     0.049 A 
ATOM     58  C   UNL A   1      48.115  28.361  27.379  1.00  0.00     0.074 A 
ATOM     59  C   UNL A   1      43.013  31.310  29.732  1.00  0.00     0.029 A 
ATOM     60  N   UNL A   1      44.407  29.844  28.808  1.00  0.00    -0.354 N 
ATOM     61  N   UNL A   1      47.008  28.892  27.841  1.00  0.00    -0.248 NA
ATOM     62  C   UNL A   1      49.272  29.266  27.395  1.00  0.00     0.031 C 
ATOM     63  C   UNL A   1      44.271  31.911  29.608  1.00  0.00     0.029 A 
ATOM     64  C   UNL A   1      45.146  30.989  29.057  1.00  0.00     0.049 A 
ATOM     65  H   UNL A   1      44.762  29.018  28.407  1.00  0.00     0.167 HD
ATOM     66  C   UNL A   1      47.342  30.184  28.232  1.00  0.00     0.074 A 
ATOM     67  C   UNL A   1      48.756  30.351  27.959  1.00  0.00     0.031 C 
ATOM     68  C   UNL A   1      46.551  31.142  28.775  1.00  0.00     0.031 A 
BRANCH  55  69
ATOM     69  C   UNL A   1      40.645  29.415  29.493  1.00  0.00    -0.014 A 
ATOM     70  C   UNL A   1      39.686  29.803  28.538  1.00  0.00     0.010 A 
ATOM     71  C   UNL A   1      40.288  29.397  30.852  1.00  0.00     0.010 A 
ATOM     72  C   UNL A   1      38.423  30.242  28.942  1.00  0.00     0.020 A 
ATOM     73  C   UNL A   1      39.013  29.804  31.258  1.00  0.00     0.020 A 
ATOM     74  C   UNL A   1      38.099  30.254  30.301  1.00  0.00     0.054 A 
BRANCH  74  75
ATOM     75  S   UNL A   1      36.468  30.868  30.802  1.00  0.00     0.124 S 
ATOM     76  O   UNL A   1      36.783  32.227  31.237  1.00  0.00    -0.237 OA
ATOM     77  O   UNL A   1      35.693  30.768  29.568  1.00  0.00    -0.237 OA
ATOM     78  O   UNL A   1      36.064  29.951  31.865  1.00  0.00    -0.744 OA
ENDBRANCH  74  75
ENDBRANCH  55  69
BRANCH  56  79
ATOM     79  C   UNL A   1      49.708  26.533  26.433  1.00  0.00    -0.014 A 
ATOM     80  C   UNL A   1      50.559  25.897  27.356  1.00  0.00     0.010 A 
ATOM     81  C   UNL A   1      50.154  26.721  25.113  1.00  0.00     0.010 A 
ATOM     82  C   UNL A   1      51.829  25.460  26.968  1.00  0.00     0.020 A 
ATOM     83  C   UNL A   1      51.415  26.264  24.715  1.00  0.00     0.020 A 
ATOM     84  C   UNL A   1      52.246  25.641  25.648  1.00  0.00     0.054 A 
BRANCH  84  85
ATOM     85  S   UNL A   1      53.870  24.999  25.152  1.00  0.00     0.124 S 
ATOM     86  O   UNL A   1      53.569  23.601  24.858  1.00  0.00    -0.237 OA
ATOM     87  O   UNL A   1      54.199  25.833  23.998  1.00  0.00    -0.237 OA
ATOM     88  O   UNL A   1      54.702  25.227  26.332  1.00  0.00    -0.744 OA
ENDBRANCH  84  85
ENDBRANCH  56  79
BRANCH  68  89
ATOM     89  C   UNL A   1      47.200  32.450  29.144  1.00  0.00    -0.014 A 
ATOM     90  C   UNL A   1      47.237  33.527  28.240  1.00  0.00     0.010 A 
ATOM     91  C   UNL A   1      47.725  32.621  30.438  1.00  0.00     0.010 A 
ATOM     92  C   UNL A   1      47.813  34.744  28.618  1.00  0.00     0.020 A 
ATOM     93  C   UNL A   1      48.277  33.844  30.826  1.00  0.00     0.020 A 
ATOM     94  C   UNL A   1      48.329  34.895  29.909  1.00  0.00     0.054 A 
BRANCH  94  95
ATOM     95  S   UNL A   1      49.021  36.501  30.392  1.00  0.00     0.124 S 
ATOM     96  O   UNL A   1      50.420  36.358  30.000  1.00  0.00    -0.237 OA
ATOM     97  O   UNL A   1      48.237  37.440  29.594  1.00  0.00    -0.237 OA
ATOM     98  O   UNL A   1      48.779  36.563  31.831  1.00  0.00    -0.744 OA
ENDBRANCH  94  95
ENDBRANCH  68  89
ENDBRANCH  42  43
ENDBRANCH  34  37
ENDBRANCH  32  33
ENDBRANCH  31  32
ENDBRANCH   1  31
TORSDOF 17
ENDMDL
