MODEL 1
REMARK VINA RESULT:     -10.9      0.000      0.000
REMARK SMILES CCc1ccc(C[NH+]2CCC(Oc3ccccc3OC)(C(=O)NCCCCNC(=O)c3ccc(-c4c5nc(c(-c6ccc(S(=O)(=O)[O-])cc6)c6ccc([nH]6)c(-c6ccc(S(=O)(=O)[O-])cc6)c6nc(c(-c7ccc(S(=O)(=O)[O-])cc7)c7ccc4[nH]7)C=C6)C=C5)cc3)CC2)nc1
REMARK SMILES IDX 25 1 24 2 23 3 21 4 22 5 11 7 8 8 9 9 92 10 10 12 91 13 7 14
REMARK SMILES IDX 6 15 3 16 4 17 94 18 5 19 93 20 2 21 1 22 12 23 13 24 14 25
REMARK SMILES IDX 18 26 15 27 17 28 16 29 19 30 20 31 26 32 27 33 28 34 29 35
REMARK SMILES IDX 30 37 31 38 32 39 90 40 33 41 89 42 34 43 35 44 36 45 83 46
REMARK SMILES IDX 37 47 88 48 82 49 84 50 38 51 87 52 81 53 80 54 39 56 69 57
REMARK SMILES IDX 50 58 68 59 51 60 54 61 67 62 85 63 52 64 53 65 66 67 86 68
REMARK SMILES IDX 55 69 40 70 41 71 49 72 42 73 48 74 43 75 44 76 45 77 46 78
REMARK SMILES IDX 47 79 70 80 71 81 79 82 72 83 78 84 73 85 74 86 75 87 76 88
REMARK SMILES IDX 77 89 56 90 57 91 65 92 58 93 64 94 59 95 60 96 61 97 62 98
REMARK SMILES IDX 63 99
REMARK H PARENT 23 6 8 11 28 36 84 55 54 66
REMARK Flexibility Score: inf
ROOT
ATOM      1  C   UNL A   1      37.175  22.063  24.334  1.00  0.00     0.023 C 
ENDROOT
BRANCH   1   2
ATOM      2  C   UNL A   1      36.655  23.494  24.436  1.00  0.00     0.116 C 
BRANCH   2   3
ATOM      3  N   UNL A   1      35.694  23.820  23.403  1.00  0.00    -0.353 N 
ATOM      4  C   UNL A   1      34.537  24.548  23.452  1.00  0.00     0.264 C 
ATOM      5  O   UNL A   1      34.095  24.888  22.347  1.00  0.00    -0.270 OA
ATOM      6  H   UNL A   1      35.910  23.455  22.515  1.00  0.00     0.163 HD
BRANCH   4   7
ATOM      7  C   UNL A   1      33.807  24.920  24.792  1.00  0.00     0.197 C 
ATOM      8  N   UNL A   1      31.961  22.696  25.375  1.00  0.00    -0.330 N 
ATOM      9  C   UNL A   1      33.409  22.522  25.518  1.00  0.00     0.267 C 
ATOM     10  C   UNL A   1      31.646  23.625  24.281  1.00  0.00     0.267 C 
ATOM     11  H   UNL A   1      31.613  23.111  26.240  1.00  0.00     0.348 HD
ATOM     12  C   UNL A   1      34.053  23.853  25.864  1.00  0.00     0.120 C 
ATOM     13  C   UNL A   1      32.284  25.005  24.524  1.00  0.00     0.120 C 
BRANCH   8  14
ATOM     14  C   UNL A   1      31.257  21.397  25.224  1.00  0.00     0.319 C 
BRANCH  14  15
ATOM     15  C   UNL A   1      32.118  20.209  24.820  1.00  0.00     0.095 A 
ATOM     16  C   UNL A   1      33.337  17.824  24.144  1.00  0.00    -0.030 A 
ATOM     17  C   UNL A   1      32.843  18.656  23.139  1.00  0.00     0.007 A 
ATOM     18  C   UNL A   1      33.209  18.274  25.456  1.00  0.00     0.115 A 
ATOM     19  C   UNL A   1      32.234  19.861  23.475  1.00  0.00     0.030 A 
ATOM     20  N   UNL A   1      32.634  19.445  25.811  1.00  0.00    -0.255 NA
BRANCH  16  21
ATOM     21  C   UNL A   1      33.904  16.460  23.859  1.00  0.00     0.034 C 
ATOM     22  C   UNL A   1      34.732  15.883  24.997  1.00  0.00     0.009 C 
ENDBRANCH  16  21
ENDBRANCH  14  15
ENDBRANCH   8  14
BRANCH   7  23
ATOM     23  O   UNL A   1      34.425  26.174  25.164  1.00  0.00    -0.473 OA
BRANCH  23  24
ATOM     24  C   UNL A   1      33.656  27.262  25.441  1.00  0.00     0.162 A 
ATOM     25  C   UNL A   1      32.822  27.158  26.560  1.00  0.00     0.050 A 
ATOM     26  C   UNL A   1      33.532  28.368  24.591  1.00  0.00     0.160 A 
ATOM     27  C   UNL A   1      31.915  28.174  26.864  1.00  0.00     0.004 A 
ATOM     28  C   UNL A   1      32.639  29.394  24.914  1.00  0.00     0.050 A 
ATOM     29  C   UNL A   1      31.827  29.295  26.043  1.00  0.00     0.004 A 
BRANCH  26  30
ATOM     30  O   UNL A   1      34.280  28.578  23.465  1.00  0.00    -0.493 OA
ATOM     31  C   UNL A   1      33.583  28.242  22.270  1.00  0.00     0.278 C 
ENDBRANCH  26  30
ENDBRANCH  23  24
ENDBRANCH   7  23
ENDBRANCH   4   7
ENDBRANCH   2   3
ENDBRANCH   1   2
BRANCH   1  32
ATOM     32  C   UNL A   1      37.558  21.426  25.668  1.00  0.00     0.023 C 
BRANCH  32  33
ATOM     33  C   UNL A   1      39.022  21.582  26.062  1.00  0.00     0.116 C 
BRANCH  33  34
ATOM     34  N   UNL A   1      39.778  20.339  26.002  1.00  0.00    -0.352 N 
ATOM     35  C   UNL A   1      41.137  20.159  26.132  1.00  0.00     0.251 C 
ATOM     36  H   UNL A   1      39.250  19.523  25.849  1.00  0.00     0.163 HD
ATOM     37  O   UNL A   1      41.637  19.059  25.954  1.00  0.00    -0.269 OA
BRANCH  35  38
ATOM     38  C   UNL A   1      41.984  21.330  26.448  1.00  0.00     0.039 A 
ATOM     39  C   UNL A   1      42.371  22.184  25.413  1.00  0.00     0.014 A 
ATOM     40  C   UNL A   1      42.338  21.613  27.770  1.00  0.00     0.014 A 
ATOM     41  C   UNL A   1      43.048  23.366  25.714  1.00  0.00     0.010 A 
ATOM     42  C   UNL A   1      42.942  22.829  28.074  1.00  0.00     0.010 A 
ATOM     43  C   UNL A   1      43.302  23.718  27.051  1.00  0.00    -0.014 A 
BRANCH  43  44
ATOM     44  C   UNL A   1      43.931  25.015  27.403  1.00  0.00     0.031 A 
ATOM     45  C   UNL A   1      43.103  26.115  28.010  1.00  0.00     0.074 A 
ATOM     46  C   UNL A   1      45.228  25.233  27.101  1.00  0.00     0.049 A 
ATOM     47  N   UNL A   1      43.455  27.335  28.321  1.00  0.00    -0.248 NA
ATOM     48  C   UNL A   1      41.686  25.812  28.272  1.00  0.00     0.031 C 
ATOM     49  C   UNL A   1      46.122  24.267  26.457  1.00  0.00     0.029 A 
ATOM     50  N   UNL A   1      46.014  26.343  27.282  1.00  0.00    -0.354 N 
ATOM     51  C   UNL A   1      42.301  27.953  28.789  1.00  0.00     0.074 A 
ATOM     52  C   UNL A   1      41.229  26.988  28.677  1.00  0.00     0.031 C 
ATOM     53  C   UNL A   1      47.338  24.820  26.316  1.00  0.00     0.029 A 
ATOM     54  C   UNL A   1      47.301  26.189  26.821  1.00  0.00     0.049 A 
ATOM     55  H   UNL A   1      45.688  27.171  27.701  1.00  0.00     0.167 HD
ATOM     56  C   UNL A   1      42.150  29.204  29.284  1.00  0.00     0.031 A 
ATOM     57  C   UNL A   1      48.334  27.053  26.799  1.00  0.00     0.031 A 
ATOM     58  C   UNL A   1      43.223  30.154  29.410  1.00  0.00     0.049 A 
ATOM     59  C   UNL A   1      48.150  28.431  27.373  1.00  0.00     0.074 A 
ATOM     60  C   UNL A   1      43.189  31.419  29.970  1.00  0.00     0.029 A 
ATOM     61  N   UNL A   1      44.520  29.948  28.965  1.00  0.00    -0.354 N 
ATOM     62  N   UNL A   1      47.071  28.967  27.892  1.00  0.00    -0.248 NA
ATOM     63  C   UNL A   1      49.324  29.315  27.371  1.00  0.00     0.031 C 
ATOM     64  C   UNL A   1      44.453  31.998  29.816  1.00  0.00     0.029 A 
ATOM     65  C   UNL A   1      45.289  31.071  29.212  1.00  0.00     0.049 A 
ATOM     66  H   UNL A   1      44.845  29.123  28.535  1.00  0.00     0.167 HD
ATOM     67  C   UNL A   1      47.442  30.244  28.299  1.00  0.00     0.074 A 
ATOM     68  C   UNL A   1      48.848  30.393  27.979  1.00  0.00     0.031 C 
ATOM     69  C   UNL A   1      46.687  31.206  28.885  1.00  0.00     0.031 A 
BRANCH  56  70
ATOM     70  C   UNL A   1      40.768  29.618  29.716  1.00  0.00    -0.014 A 
ATOM     71  C   UNL A   1      39.727  29.771  28.782  1.00  0.00     0.010 A 
ATOM     72  C   UNL A   1      40.499  29.834  31.080  1.00  0.00     0.010 A 
ATOM     73  C   UNL A   1      38.457  30.182  29.197  1.00  0.00     0.020 A 
ATOM     74  C   UNL A   1      39.223  30.215  31.503  1.00  0.00     0.020 A 
ATOM     75  C   UNL A   1      38.215  30.406  30.555  1.00  0.00     0.054 A 
BRANCH  75  76
ATOM     76  S   UNL A   1      36.555  30.928  31.068  1.00  0.00     0.124 S 
ATOM     77  O   UNL A   1      36.848  32.116  31.867  1.00  0.00    -0.237 OA
ATOM     78  O   UNL A   1      35.890  31.178  29.792  1.00  0.00    -0.237 OA
ATOM     79  O   UNL A   1      36.048  29.782  31.818  1.00  0.00    -0.744 OA
ENDBRANCH  75  76
ENDBRANCH  56  70
BRANCH  57  80
ATOM     80  C   UNL A   1      49.639  26.629  26.223  1.00  0.00    -0.014 A 
ATOM     81  C   UNL A   1      50.010  27.021  24.925  1.00  0.00     0.010 A 
ATOM     82  C   UNL A   1      50.535  25.857  26.987  1.00  0.00     0.010 A 
ATOM     83  C   UNL A   1      51.248  26.641  24.397  1.00  0.00     0.020 A 
ATOM     84  C   UNL A   1      51.784  25.499  26.472  1.00  0.00     0.020 A 
ATOM     85  C   UNL A   1      52.129  25.886  25.176  1.00  0.00     0.054 A 
BRANCH  85  86
ATOM     86  S   UNL A   1      53.759  25.465  24.497  1.00  0.00     0.124 S 
ATOM     87  O   UNL A   1      54.645  26.321  25.278  1.00  0.00    -0.237 OA
ATOM     88  O   UNL A   1      53.854  24.033  24.773  1.00  0.00    -0.237 OA
ATOM     89  O   UNL A   1      53.638  25.810  23.082  1.00  0.00    -0.744 OA
ENDBRANCH  85  86
ENDBRANCH  57  80
BRANCH  69  90
ATOM     90  C   UNL A   1      47.367  32.499  29.248  1.00  0.00    -0.014 A 
ATOM     91  C   UNL A   1      47.381  33.589  28.362  1.00  0.00     0.010 A 
ATOM     92  C   UNL A   1      47.947  32.642  30.521  1.00  0.00     0.010 A 
ATOM     93  C   UNL A   1      47.987  34.793  28.732  1.00  0.00     0.020 A 
ATOM     94  C   UNL A   1      48.530  33.851  30.907  1.00  0.00     0.020 A 
ATOM     95  C   UNL A   1      48.557  34.916  30.004  1.00  0.00     0.054 A 
BRANCH  95  96
ATOM     96  S   UNL A   1      49.294  36.504  30.480  1.00  0.00     0.124 S 
ATOM     97  O   UNL A   1      49.516  37.137  29.183  1.00  0.00    -0.237 OA
ATOM     98  O   UNL A   1      48.250  37.108  31.305  1.00  0.00    -0.237 OA
ATOM     99  O   UNL A   1      50.506  36.119  31.202  1.00  0.00    -0.744 OA
ENDBRANCH  95  96
ENDBRANCH  69  90
ENDBRANCH  43  44
ENDBRANCH  35  38
ENDBRANCH  33  34
ENDBRANCH  32  33
ENDBRANCH   1  32
TORSDOF 20
ENDMDL
MODEL 2
REMARK VINA RESULT:     -10.6      0.778      7.899
REMARK SMILES CCc1ccc(C[NH+]2CCC(Oc3ccccc3OC)(C(=O)NCCCCNC(=O)c3ccc(-c4c5nc(c(-c6ccc(S(=O)(=O)[O-])cc6)c6ccc([nH]6)c(-c6ccc(S(=O)(=O)[O-])cc6)c6nc(c(-c7ccc(S(=O)(=O)[O-])cc7)c7ccc4[nH]7)C=C6)C=C5)cc3)CC2)nc1
REMARK SMILES IDX 25 1 24 2 23 3 21 4 22 5 11 7 8 8 9 9 92 10 10 12 91 13 7 14
REMARK SMILES IDX 6 15 3 16 4 17 94 18 5 19 93 20 2 21 1 22 12 23 13 24 14 25
REMARK SMILES IDX 18 26 15 27 17 28 16 29 19 30 20 31 26 32 27 33 28 34 29 35
REMARK SMILES IDX 30 37 31 38 32 39 90 40 33 41 89 42 34 43 35 44 36 45 83 46
REMARK SMILES IDX 37 47 88 48 82 49 84 50 38 51 87 52 81 53 80 54 39 56 69 57
REMARK SMILES IDX 50 58 68 59 51 60 54 61 67 62 85 63 52 64 53 65 66 67 86 68
REMARK SMILES IDX 55 69 40 70 41 71 49 72 42 73 48 74 43 75 44 76 45 77 46 78
REMARK SMILES IDX 47 79 70 80 71 81 79 82 72 83 78 84 73 85 74 86 75 87 76 88
REMARK SMILES IDX 77 89 56 90 57 91 65 92 58 93 64 94 59 95 60 96 61 97 62 98
REMARK SMILES IDX 63 99
REMARK H PARENT 23 6 8 11 28 36 84 55 54 66
REMARK Flexibility Score: inf
ROOT
ATOM      1  C   UNL A   1      38.277  23.399  26.082  1.00  0.00     0.023 C 
ENDROOT
BRANCH   1   2
ATOM      2  C   UNL A   1      36.792  23.716  25.929  1.00  0.00     0.116 C 
BRANCH   2   3
ATOM      3  N   UNL A   1      36.289  23.433  24.601  1.00  0.00    -0.353 N 
ATOM      4  C   UNL A   1      35.186  23.901  23.941  1.00  0.00     0.264 C 
ATOM      5  O   UNL A   1      35.190  23.697  22.721  1.00  0.00    -0.270 OA
ATOM      6  H   UNL A   1      36.834  22.796  24.085  1.00  0.00     0.163 HD
BRANCH   4   7
ATOM      7  C   UNL A   1      33.993  24.628  24.661  1.00  0.00     0.197 C 
ATOM      8  N   UNL A   1      31.965  22.557  25.203  1.00  0.00    -0.330 N 
ATOM      9  C   UNL A   1      33.221  22.590  25.957  1.00  0.00     0.267 C 
ATOM     10  C   UNL A   1      32.167  23.025  23.824  1.00  0.00     0.267 C 
ATOM     11  H   UNL A   1      31.317  23.203  25.655  1.00  0.00     0.348 HD
ATOM     12  C   UNL A   1      33.732  24.017  26.041  1.00  0.00     0.120 C 
ATOM     13  C   UNL A   1      32.717  24.463  23.800  1.00  0.00     0.120 C 
BRANCH   8  14
ATOM     14  C   UNL A   1      31.322  21.220  25.250  1.00  0.00     0.319 C 
BRANCH  14  15
ATOM     15  C   UNL A   1      32.186  20.044  24.821  1.00  0.00     0.095 A 
ATOM     16  C   UNL A   1      33.414  17.675  24.102  1.00  0.00    -0.030 A 
ATOM     17  C   UNL A   1      32.901  18.515  23.113  1.00  0.00     0.007 A 
ATOM     18  C   UNL A   1      33.300  18.109  25.420  1.00  0.00     0.115 A 
ATOM     19  C   UNL A   1      32.287  19.712  23.471  1.00  0.00     0.030 A 
ATOM     20  N   UNL A   1      32.720  19.271  25.796  1.00  0.00    -0.255 NA
BRANCH  16  21
ATOM     21  C   UNL A   1      33.986  16.319  23.793  1.00  0.00     0.034 C 
ATOM     22  C   UNL A   1      34.804  15.719  24.928  1.00  0.00     0.009 C 
ENDBRANCH  16  21
ENDBRANCH  14  15
ENDBRANCH   8  14
BRANCH   7  23
ATOM     23  O   UNL A   1      34.467  25.990  24.782  1.00  0.00    -0.473 OA
BRANCH  23  24
ATOM     24  C   UNL A   1      33.645  27.031  24.478  1.00  0.00     0.162 A 
ATOM     25  C   UNL A   1      33.817  27.602  23.212  1.00  0.00     0.050 A 
ATOM     26  C   UNL A   1      32.792  27.648  25.400  1.00  0.00     0.160 A 
ATOM     27  C   UNL A   1      33.101  28.743  22.847  1.00  0.00     0.004 A 
ATOM     28  C   UNL A   1      32.060  28.776  25.021  1.00  0.00     0.050 A 
ATOM     29  C   UNL A   1      32.218  29.328  23.750  1.00  0.00     0.004 A 
BRANCH  26  30
ATOM     30  O   UNL A   1      32.549  27.194  26.668  1.00  0.00    -0.493 OA
ATOM     31  C   UNL A   1      32.119  28.225  27.550  1.00  0.00     0.278 C 
ENDBRANCH  26  30
ENDBRANCH  23  24
ENDBRANCH   7  23
ENDBRANCH   4   7
ENDBRANCH   2   3
ENDBRANCH   1   2
BRANCH   1  32
ATOM     32  C   UNL A   1      38.664  21.967  25.721  1.00  0.00     0.023 C 
BRANCH  32  33
ATOM     33  C   UNL A   1      39.496  21.238  26.769  1.00  0.00     0.116 C 
BRANCH  33  34
ATOM     34  N   UNL A   1      40.333  20.182  26.218  1.00  0.00    -0.352 N 
ATOM     35  C   UNL A   1      41.675  20.228  25.913  1.00  0.00     0.251 C 
ATOM     36  H   UNL A   1      39.882  19.326  26.041  1.00  0.00     0.163 HD
ATOM     37  O   UNL A   1      42.218  19.285  25.357  1.00  0.00    -0.269 OA
BRANCH  35  38
ATOM     38  C   UNL A   1      42.437  21.456  26.231  1.00  0.00     0.039 A 
ATOM     39  C   UNL A   1      42.685  22.380  25.215  1.00  0.00     0.014 A 
ATOM     40  C   UNL A   1      42.846  21.717  27.542  1.00  0.00     0.014 A 
ATOM     41  C   UNL A   1      43.276  23.605  25.528  1.00  0.00     0.010 A 
ATOM     42  C   UNL A   1      43.361  22.968  27.865  1.00  0.00     0.010 A 
ATOM     43  C   UNL A   1      43.580  23.924  26.863  1.00  0.00    -0.014 A 
BRANCH  43  44
ATOM     44  C   UNL A   1      44.117  25.257  27.236  1.00  0.00     0.031 A 
ATOM     45  C   UNL A   1      45.577  25.564  27.041  1.00  0.00     0.074 A 
ATOM     46  C   UNL A   1      43.309  26.162  27.826  1.00  0.00     0.049 A 
ATOM     47  N   UNL A   1      46.244  26.640  27.368  1.00  0.00    -0.248 NA
ATOM     48  C   UNL A   1      46.401  24.509  26.427  1.00  0.00     0.031 C 
ATOM     49  C   UNL A   1      41.888  25.962  28.125  1.00  0.00     0.029 A 
ATOM     50  N   UNL A   1      43.571  27.424  28.296  1.00  0.00    -0.354 N 
ATOM     51  C   UNL A   1      47.566  26.384  27.026  1.00  0.00     0.074 A 
ATOM     52  C   UNL A   1      47.615  25.034  26.510  1.00  0.00     0.031 C 
ATOM     53  C   UNL A   1      41.401  27.070  28.707  1.00  0.00     0.029 A 
ATOM     54  C   UNL A   1      42.480  28.041  28.860  1.00  0.00     0.049 A 
ATOM     55  H   UNL A   1      44.458  27.847  28.235  1.00  0.00     0.167 HD
ATOM     56  C   UNL A   1      48.639  27.204  27.117  1.00  0.00     0.031 A 
ATOM     57  C   UNL A   1      42.359  29.250  29.442  1.00  0.00     0.031 A 
ATOM     58  C   UNL A   1      48.582  28.553  27.614  1.00  0.00     0.049 A 
ATOM     59  C   UNL A   1      43.560  30.153  29.513  1.00  0.00     0.074 A 
ATOM     60  C   UNL A   1      49.598  29.490  27.673  1.00  0.00     0.029 A 
ATOM     61  N   UNL A   1      47.450  29.154  28.143  1.00  0.00    -0.354 N 
ATOM     62  N   UNL A   1      44.785  29.924  29.104  1.00  0.00    -0.248 NA
ATOM     63  C   UNL A   1      43.360  31.480  30.112  1.00  0.00     0.031 C 
ATOM     64  C   UNL A   1      49.093  30.642  28.287  1.00  0.00     0.029 A 
ATOM     65  C   UNL A   1      47.747  30.440  28.557  1.00  0.00     0.049 A 
ATOM     66  H   UNL A   1      46.565  28.727  28.214  1.00  0.00     0.167 HD
ATOM     67  C   UNL A   1      45.497  31.087  29.375  1.00  0.00     0.074 A 
ATOM     68  C   UNL A   1      44.561  32.021  29.969  1.00  0.00     0.031 C 
ATOM     69  C   UNL A   1      46.807  31.358  29.151  1.00  0.00     0.031 A 
BRANCH  56  70
ATOM     70  C   UNL A   1      49.971  26.656  26.676  1.00  0.00    -0.014 A 
ATOM     71  C   UNL A   1      50.848  26.044  27.592  1.00  0.00     0.010 A 
ATOM     72  C   UNL A   1      50.343  26.732  25.321  1.00  0.00     0.010 A 
ATOM     73  C   UNL A   1      52.091  25.564  27.170  1.00  0.00     0.020 A 
ATOM     74  C   UNL A   1      51.572  26.226  24.890  1.00  0.00     0.020 A 
ATOM     75  C   UNL A   1      52.447  25.663  25.823  1.00  0.00     0.054 A 
BRANCH  75  76
ATOM     76  S   UNL A   1      54.062  25.024  25.301  1.00  0.00     0.124 S 
ATOM     77  O   UNL A   1      53.714  23.691  24.814  1.00  0.00    -0.237 OA
ATOM     78  O   UNL A   1      54.470  25.980  24.275  1.00  0.00    -0.237 OA
ATOM     79  O   UNL A   1      54.858  25.051  26.526  1.00  0.00    -0.744 OA
ENDBRANCH  75  76
ENDBRANCH  56  70
BRANCH  57  80
ATOM     80  C   UNL A   1      41.043  29.677  29.992  1.00  0.00    -0.014 A 
ATOM     81  C   UNL A   1      40.012  30.098  29.134  1.00  0.00     0.010 A 
ATOM     82  C   UNL A   1      40.803  29.630  31.378  1.00  0.00     0.010 A 
ATOM     83  C   UNL A   1      38.769  30.476  29.652  1.00  0.00     0.020 A 
ATOM     84  C   UNL A   1      39.553  29.980  31.896  1.00  0.00     0.020 A 
ATOM     85  C   UNL A   1      38.546  30.409  31.030  1.00  0.00     0.054 A 
BRANCH  85  86
ATOM     86  S   UNL A   1      36.904  30.835  31.674  1.00  0.00     0.124 S 
ATOM     87  O   UNL A   1      37.210  31.252  33.038  1.00  0.00    -0.237 OA
ATOM     88  O   UNL A   1      36.476  31.897  30.767  1.00  0.00    -0.237 OA
ATOM     89  O   UNL A   1      36.155  29.586  31.552  1.00  0.00    -0.744 OA
ENDBRANCH  85  86
ENDBRANCH  57  80
BRANCH  69  90
ATOM     90  C   UNL A   1      47.307  32.728  29.522  1.00  0.00    -0.014 A 
ATOM     91  C   UNL A   1      47.233  33.800  28.618  1.00  0.00     0.010 A 
ATOM     92  C   UNL A   1      47.801  32.956  30.819  1.00  0.00     0.010 A 
ATOM     93  C   UNL A   1      47.670  35.074  28.994  1.00  0.00     0.020 A 
ATOM     94  C   UNL A   1      48.213  34.232  31.210  1.00  0.00     0.020 A 
ATOM     95  C   UNL A   1      48.156  35.282  30.290  1.00  0.00     0.054 A 
BRANCH  95  96
ATOM     96  S   UNL A   1      48.672  36.952  30.771  1.00  0.00     0.124 S 
ATOM     97  O   UNL A   1      48.366  37.723  29.570  1.00  0.00    -0.237 OA
ATOM     98  O   UNL A   1      47.824  37.228  31.929  1.00  0.00    -0.237 OA
ATOM     99  O   UNL A   1      50.095  36.803  31.071  1.00  0.00    -0.744 OA
ENDBRANCH  95  96
ENDBRANCH  69  90
ENDBRANCH  43  44
ENDBRANCH  35  38
ENDBRANCH  33  34
ENDBRANCH  32  33
ENDBRANCH   1  32
TORSDOF 20
ENDMDL
MODEL 3
REMARK VINA RESULT:     -10.6      4.873      8.748
REMARK SMILES CCc1ccc(C[NH+]2CCC(Oc3ccccc3OC)(C(=O)NCCCCNC(=O)c3ccc(-c4c5nc(c(-c6ccc(S(=O)(=O)[O-])cc6)c6ccc([nH]6)c(-c6ccc(S(=O)(=O)[O-])cc6)c6nc(c(-c7ccc(S(=O)(=O)[O-])cc7)c7ccc4[nH]7)C=C6)C=C5)cc3)CC2)nc1
REMARK SMILES IDX 25 1 24 2 23 3 21 4 22 5 11 7 8 8 9 9 92 10 10 12 91 13 7 14
REMARK SMILES IDX 6 15 3 16 4 17 94 18 5 19 93 20 2 21 1 22 12 23 13 24 14 25
REMARK SMILES IDX 18 26 15 27 17 28 16 29 19 30 20 31 26 32 27 33 28 34 29 35
REMARK SMILES IDX 30 37 31 38 32 39 90 40 33 41 89 42 34 43 35 44 36 45 83 46
REMARK SMILES IDX 37 47 88 48 82 49 84 50 38 51 87 52 81 53 80 54 39 56 69 57
REMARK SMILES IDX 50 58 68 59 51 60 54 61 67 62 85 63 52 64 53 65 66 67 86 68
REMARK SMILES IDX 55 69 40 70 41 71 49 72 42 73 48 74 43 75 44 76 45 77 46 78
REMARK SMILES IDX 47 79 70 80 71 81 79 82 72 83 78 84 73 85 74 86 75 87 76 88
REMARK SMILES IDX 77 89 56 90 57 91 65 92 58 93 64 94 59 95 60 96 61 97 62 98
REMARK SMILES IDX 63 99
REMARK H PARENT 23 6 8 11 28 36 84 55 54 66
REMARK Flexibility Score: inf
ROOT
ATOM      1  C   UNL A   1      38.344  23.658  26.123  1.00  0.00     0.023 C 
ENDROOT
BRANCH   1   2
ATOM      2  C   UNL A   1      36.829  23.847  26.138  1.00  0.00     0.116 C 
BRANCH   2   3
ATOM      3  N   UNL A   1      36.243  23.795  24.814  1.00  0.00    -0.353 N 
ATOM      4  C   UNL A   1      35.088  24.340  24.323  1.00  0.00     0.264 C 
ATOM      5  O   UNL A   1      35.013  24.363  23.089  1.00  0.00    -0.270 OA
ATOM      6  H   UNL A   1      36.764  23.281  24.156  1.00  0.00     0.163 HD
BRANCH   4   7
ATOM      7  C   UNL A   1      33.933  24.885  25.239  1.00  0.00     0.197 C 
ATOM      8  N   UNL A   1      31.874  22.775  25.320  1.00  0.00    -0.330 N 
ATOM      9  C   UNL A   1      33.151  22.601  26.017  1.00  0.00     0.267 C 
ATOM     10  C   UNL A   1      32.048  23.567  24.093  1.00  0.00     0.267 C 
ATOM     11  H   UNL A   1      31.254  23.299  25.938  1.00  0.00     0.348 HD
ATOM     12  C   UNL A   1      33.697  23.955  26.434  1.00  0.00     0.120 C 
ATOM     13  C   UNL A   1      32.629  24.958  24.407  1.00  0.00     0.120 C 
BRANCH   8  14
ATOM     14  C   UNL A   1      31.203  21.478  25.056  1.00  0.00     0.319 C 
BRANCH  14  15
ATOM     15  C   UNL A   1      32.111  20.311  24.700  1.00  0.00     0.095 A 
ATOM     16  C   UNL A   1      33.418  17.957  24.079  1.00  0.00    -0.030 A 
ATOM     17  C   UNL A   1      32.991  18.801  23.053  1.00  0.00     0.007 A 
ATOM     18  C   UNL A   1      33.180  18.380  25.384  1.00  0.00     0.115 A 
ATOM     19  C   UNL A   1      32.337  19.990  23.362  1.00  0.00     0.030 A 
ATOM     20  N   UNL A   1      32.560  19.535  25.715  1.00  0.00    -0.255 NA
BRANCH  16  21
ATOM     21  C   UNL A   1      34.026  16.607  23.815  1.00  0.00     0.034 C 
ATOM     22  C   UNL A   1      34.729  15.997  25.019  1.00  0.00     0.009 C 
ENDBRANCH  16  21
ENDBRANCH  14  15
ENDBRANCH   8  14
BRANCH   7  23
ATOM     23  O   UNL A   1      34.441  26.167  25.677  1.00  0.00    -0.473 OA
BRANCH  23  24
ATOM     24  C   UNL A   1      33.640  27.267  25.652  1.00  0.00     0.162 A 
ATOM     25  C   UNL A   1      32.725  27.386  26.703  1.00  0.00     0.050 A 
ATOM     26  C   UNL A   1      33.569  28.156  24.573  1.00  0.00     0.160 A 
ATOM     27  C   UNL A   1      31.785  28.418  26.710  1.00  0.00     0.004 A 
ATOM     28  C   UNL A   1      32.642  29.202  24.596  1.00  0.00     0.050 A 
ATOM     29  C   UNL A   1      31.746  29.329  25.658  1.00  0.00     0.004 A 
BRANCH  26  30
ATOM     30  O   UNL A   1      34.398  28.137  23.485  1.00  0.00    -0.493 OA
ATOM     31  C   UNL A   1      33.691  28.205  22.252  1.00  0.00     0.278 C 
ENDBRANCH  26  30
ENDBRANCH  23  24
ENDBRANCH   7  23
ENDBRANCH   4   7
ENDBRANCH   2   3
ENDBRANCH   1   2
BRANCH   1  32
ATOM     32  C   UNL A   1      38.808  22.255  25.738  1.00  0.00     0.023 C 
BRANCH  32  33
ATOM     33  C   UNL A   1      40.074  21.777  26.438  1.00  0.00     0.116 C 
BRANCH  33  34
ATOM     34  N   UNL A   1      41.218  21.642  25.548  1.00  0.00    -0.352 N 
ATOM     35  C   UNL A   1      42.384  22.374  25.539  1.00  0.00     0.251 C 
ATOM     36  H   UNL A   1      41.149  20.937  24.866  1.00  0.00     0.163 HD
ATOM     37  O   UNL A   1      43.214  22.207  24.658  1.00  0.00    -0.269 OA
BRANCH  35  38
ATOM     38  C   UNL A   1      42.594  23.395  26.589  1.00  0.00     0.039 A 
ATOM     39  C   UNL A   1      42.836  24.716  26.209  1.00  0.00     0.014 A 
ATOM     40  C   UNL A   1      42.488  23.054  27.940  1.00  0.00     0.014 A 
ATOM     41  C   UNL A   1      42.894  25.712  27.185  1.00  0.00     0.010 A 
ATOM     42  C   UNL A   1      42.466  24.058  28.903  1.00  0.00     0.010 A 
ATOM     43  C   UNL A   1      42.668  25.397  28.535  1.00  0.00    -0.014 A 
BRANCH  43  44
ATOM     44  C   UNL A   1      42.625  26.451  29.580  1.00  0.00     0.031 A 
ATOM     45  C   UNL A   1      43.626  26.440  30.703  1.00  0.00     0.074 A 
ATOM     46  C   UNL A   1      41.636  27.368  29.564  1.00  0.00     0.049 A 
ATOM     47  N   UNL A   1      43.707  27.231  31.741  1.00  0.00    -0.248 NA
ATOM     48  C   UNL A   1      44.650  25.383  30.671  1.00  0.00     0.031 C 
ATOM     49  C   UNL A   1      40.570  27.447  28.562  1.00  0.00     0.029 A 
ATOM     50  N   UNL A   1      41.357  28.398  30.426  1.00  0.00    -0.354 N 
ATOM     51  C   UNL A   1      44.770  26.753  32.498  1.00  0.00     0.074 A 
ATOM     52  C   UNL A   1      45.273  25.576  31.824  1.00  0.00     0.031 C 
ATOM     53  C   UNL A   1      39.767  28.483  28.855  1.00  0.00     0.029 A 
ATOM     54  C   UNL A   1      40.235  29.116  30.084  1.00  0.00     0.049 A 
ATOM     55  H   UNL A   1      41.908  28.604  31.215  1.00  0.00     0.167 HD
ATOM     56  C   UNL A   1      45.293  27.256  33.640  1.00  0.00     0.031 A 
ATOM     57  C   UNL A   1      39.643  30.161  30.694  1.00  0.00     0.031 A 
ATOM     58  C   UNL A   1      44.801  28.438  34.298  1.00  0.00     0.049 A 
ATOM     59  C   UNL A   1      40.252  30.718  31.951  1.00  0.00     0.074 A 
ATOM     60  C   UNL A   1      45.309  29.074  35.416  1.00  0.00     0.029 A 
ATOM     61  N   UNL A   1      43.683  29.157  33.900  1.00  0.00    -0.354 N 
ATOM     62  N   UNL A   1      41.311  30.303  32.604  1.00  0.00    -0.248 NA
ATOM     63  C   UNL A   1      39.595  31.890  32.546  1.00  0.00     0.031 C 
ATOM     64  C   UNL A   1      44.468  30.149  35.726  1.00  0.00     0.029 A 
ATOM     65  C   UNL A   1      43.470  30.215  34.766  1.00  0.00     0.049 A 
ATOM     66  H   UNL A   1      43.124  28.946  33.117  1.00  0.00     0.167 HD
ATOM     67  C   UNL A   1      41.461  31.178  33.675  1.00  0.00     0.074 A 
ATOM     68  C   UNL A   1      40.393  32.152  33.572  1.00  0.00     0.031 C 
ATOM     69  C   UNL A   1      42.399  31.175  34.654  1.00  0.00     0.031 A 
BRANCH  56  70
ATOM     70  C   UNL A   1      46.453  26.521  34.258  1.00  0.00    -0.014 A 
ATOM     71  C   UNL A   1      47.782  26.866  33.949  1.00  0.00     0.010 A 
ATOM     72  C   UNL A   1      46.212  25.486  35.180  1.00  0.00     0.010 A 
ATOM     73  C   UNL A   1      48.847  26.156  34.512  1.00  0.00     0.020 A 
ATOM     74  C   UNL A   1      47.274  24.795  35.769  1.00  0.00     0.020 A 
ATOM     75  C   UNL A   1      48.585  25.121  35.414  1.00  0.00     0.054 A 
BRANCH  75  76
ATOM     76  S   UNL A   1      49.986  24.224  36.137  1.00  0.00     0.124 S 
ATOM     77  O   UNL A   1      50.992  24.341  35.085  1.00  0.00    -0.237 OA
ATOM     78  O   UNL A   1      50.259  24.983  37.354  1.00  0.00    -0.237 OA
ATOM     79  O   UNL A   1      49.461  22.877  36.350  1.00  0.00    -0.744 OA
ENDBRANCH  75  76
ENDBRANCH  56  70
BRANCH  57  80
ATOM     80  C   UNL A   1      38.409  30.754  30.110  1.00  0.00    -0.014 A 
ATOM     81  C   UNL A   1      37.149  30.184  30.367  1.00  0.00     0.010 A 
ATOM     82  C   UNL A   1      38.485  31.917  29.321  1.00  0.00     0.010 A 
ATOM     83  C   UNL A   1      35.990  30.759  29.836  1.00  0.00     0.020 A 
ATOM     84  C   UNL A   1      37.326  32.509  28.812  1.00  0.00     0.020 A 
ATOM     85  C   UNL A   1      36.086  31.921  29.066  1.00  0.00     0.054 A 
BRANCH  85  86
ATOM     86  S   UNL A   1      34.562  32.690  28.447  1.00  0.00     0.124 S 
ATOM     87  O   UNL A   1      33.915  31.575  27.763  1.00  0.00    -0.237 OA
ATOM     88  O   UNL A   1      33.916  33.142  29.676  1.00  0.00    -0.237 OA
ATOM     89  O   UNL A   1      35.049  33.761  27.580  1.00  0.00    -0.744 OA
ENDBRANCH  85  86
ENDBRANCH  57  80
BRANCH  69  90
ATOM     90  C   UNL A   1      42.335  32.273  35.681  1.00  0.00    -0.014 A 
ATOM     91  C   UNL A   1      43.033  33.480  35.502  1.00  0.00     0.010 A 
ATOM     92  C   UNL A   1      41.514  32.117  36.812  1.00  0.00     0.010 A 
ATOM     93  C   UNL A   1      42.931  34.502  36.450  1.00  0.00     0.020 A 
ATOM     94  C   UNL A   1      41.387  33.145  37.749  1.00  0.00     0.020 A 
ATOM     95  C   UNL A   1      42.108  34.328  37.568  1.00  0.00     0.054 A 
BRANCH  95  96
ATOM     96  S   UNL A   1      41.954  35.686  38.760  1.00  0.00     0.124 S 
ATOM     97  O   UNL A   1      43.250  36.347  38.637  1.00  0.00    -0.237 OA
ATOM     98  O   UNL A   1      40.813  36.438  38.243  1.00  0.00    -0.237 OA
ATOM     99  O   UNL A   1      41.719  35.005  40.032  1.00  0.00    -0.744 OA
ENDBRANCH  95  96
ENDBRANCH  69  90
ENDBRANCH  43  44
ENDBRANCH  35  38
ENDBRANCH  33  34
ENDBRANCH  32  33
ENDBRANCH   1  32
TORSDOF 20
ENDMDL
