MODEL 1
REMARK VINA RESULT:     -12.6      0.000      0.000
REMARK SMILES O=C(COc1ccc(NC(=O)c2ccc(Br)cc2)cc1-c1nc2ccccc2o1)NCCCCNC(=O)c1ccc(-c2c3nc(c(-c4ccc(S(=O)(=O)[O-])cc4)c4ccc([nH]4)c(-c4ccc(S(=O)(=O)[O-])cc4)c4nc(c(-c5ccc(S(=O)(=O)[O-])cc5)c5ccc2[nH]5)C=C4)C=C3)cc1
REMARK SMILES IDX 32 1 31 2 30 3 1 4 2 5 3 7 4 8 5 9 6 10 20 11 7 12 19 13
REMARK SMILES IDX 8 14 21 15 22 16 29 17 23 18 28 19 24 20 27 21 25 22 26 23
REMARK SMILES IDX 9 24 10 25 11 27 12 28 13 29 18 30 14 31 17 32 15 33 16 34
REMARK SMILES IDX 33 35 34 36 35 37 36 38 37 40 38 41 39 42 97 43 40 44 96 45
REMARK SMILES IDX 41 46 42 47 43 48 90 49 44 50 95 51 89 52 91 53 45 54 94 55
REMARK SMILES IDX 88 56 87 57 46 59 76 60 57 61 75 62 58 63 61 64 74 65 92 66
REMARK SMILES IDX 59 67 60 68 73 70 93 71 62 72 47 73 48 74 56 75 49 76 55 77
REMARK SMILES IDX 50 78 51 79 52 80 53 81 54 82 77 83 78 84 86 85 79 86 85 87
REMARK SMILES IDX 80 88 81 89 82 90 83 91 84 92 63 93 64 94 72 95 65 96 71 97
REMARK SMILES IDX 66 98 67 99 68 100 69 101 70 102
REMARK H PARENT 30 6 9 26 35 39 91 58 61 69
REMARK Flexibility Score: inf
ROOT
ATOM      1  C   UNL A   1      34.268  31.592  27.856  1.00  0.00     0.023 C 
ENDROOT
BRANCH   1   2
ATOM      2  C   UNL A   1      34.323  30.279  27.101  1.00  0.00     0.116 C 
BRANCH   2   3
ATOM      3  N   UNL A   1      33.679  29.168  27.765  1.00  0.00    -0.353 N 
ATOM      4  O   UNL A   1      31.422  29.368  27.308  1.00  0.00    -0.271 OA
ATOM      5  C   UNL A   1      32.455  28.709  27.279  1.00  0.00     0.257 C 
ATOM      6  H   UNL A   1      34.097  28.743  28.547  1.00  0.00     0.163 HD
BRANCH   5   7
ATOM      7  C   UNL A   1      32.565  27.305  26.665  1.00  0.00     0.329 C 
BRANCH   7   8
ATOM      8  O   UNL A   1      31.240  26.784  26.796  1.00  0.00    -0.483 OA
BRANCH   8   9
ATOM      9  C   UNL A   1      30.842  25.733  26.025  1.00  0.00     0.132 A 
ATOM     10  C   UNL A   1      31.244  24.529  26.590  1.00  0.00     0.049 A 
ATOM     11  C   UNL A   1      30.492  25.823  24.657  1.00  0.00     0.081 A 
ATOM     12  C   UNL A   1      31.369  23.403  25.802  1.00  0.00     0.030 A 
ATOM     13  C   UNL A   1      30.612  24.651  23.875  1.00  0.00     0.043 A 
ATOM     14  C   UNL A   1      31.039  23.434  24.447  1.00  0.00     0.042 A 
BRANCH  11  15
ATOM     15  C   UNL A   1      30.045  27.102  24.085  1.00  0.00     0.231 A 
ATOM     16  N   UNL A   1      30.809  28.055  23.592  1.00  0.00    -0.209 NA
ATOM     17  O   UNL A   1      28.692  27.344  23.939  1.00  0.00    -0.436 OA
ATOM     18  C   UNL A   1      29.954  28.880  22.927  1.00  0.00     0.110 A 
ATOM     19  C   UNL A   1      28.649  28.485  23.163  1.00  0.00     0.155 A 
ATOM     20  C   UNL A   1      30.219  29.930  22.038  1.00  0.00     0.032 A 
ATOM     21  C   UNL A   1      27.543  29.130  22.618  1.00  0.00     0.049 A 
ATOM     22  C   UNL A   1      29.134  30.560  21.419  1.00  0.00     0.003 A 
ATOM     23  C   UNL A   1      27.822  30.180  21.722  1.00  0.00     0.004 A 
ENDBRANCH  11  15
BRANCH  14  24
ATOM     24  N   UNL A   1      31.198  22.295  23.624  1.00  0.00    -0.322 N 
ATOM     25  C   UNL A   1      32.342  21.750  23.062  1.00  0.00     0.255 C 
ATOM     26  H   UNL A   1      30.364  21.814  23.420  1.00  0.00     0.170 HD
ATOM     27  O   UNL A   1      32.260  20.966  22.118  1.00  0.00    -0.269 OA
BRANCH  25  28
ATOM     28  C   UNL A   1      33.683  22.036  23.631  1.00  0.00     0.040 A 
ATOM     29  C   UNL A   1      34.412  23.138  23.164  1.00  0.00     0.015 A 
ATOM     30  C   UNL A   1      34.195  21.245  24.670  1.00  0.00     0.015 A 
ATOM     31  C   UNL A   1      35.612  23.492  23.789  1.00  0.00     0.016 A 
ATOM     32  C   UNL A   1      35.389  21.606  25.298  1.00  0.00     0.016 A 
ATOM     33  C   UNL A   1      36.085  22.733  24.862  1.00  0.00     0.018 A 
ATOM     34  Br  UNL A   1      37.672  23.247  25.751  1.00  0.00    -0.051 Br
ENDBRANCH  25  28
ENDBRANCH  14  24
ENDBRANCH   8   9
ENDBRANCH   7   8
ENDBRANCH   5   7
ENDBRANCH   2   3
ENDBRANCH   1   2
BRANCH   1  35
ATOM     35  C   UNL A   1      35.605  32.322  27.900  1.00  0.00     0.023 C 
BRANCH  35  36
ATOM     36  C   UNL A   1      36.207  32.468  29.290  1.00  0.00     0.116 C 
BRANCH  36  37
ATOM     37  N   UNL A   1      35.781  31.430  30.222  1.00  0.00    -0.352 N 
ATOM     38  C   UNL A   1      36.515  30.337  30.628  1.00  0.00     0.251 C 
ATOM     39  H   UNL A   1      34.876  31.520  30.599  1.00  0.00     0.163 HD
ATOM     40  O   UNL A   1      36.025  29.460  31.330  1.00  0.00    -0.269 OA
BRANCH  38  41
ATOM     41  C   UNL A   1      37.910  30.239  30.153  1.00  0.00     0.039 A 
ATOM     42  C   UNL A   1      38.947  30.203  31.086  1.00  0.00     0.014 A 
ATOM     43  C   UNL A   1      38.158  30.019  28.794  1.00  0.00     0.014 A 
ATOM     44  C   UNL A   1      40.235  29.868  30.661  1.00  0.00     0.010 A 
ATOM     45  C   UNL A   1      39.422  29.608  28.391  1.00  0.00     0.010 A 
ATOM     46  C   UNL A   1      40.474  29.526  29.319  1.00  0.00    -0.014 A 
BRANCH  46  47
ATOM     47  C   UNL A   1      41.816  29.084  28.859  1.00  0.00     0.031 A 
ATOM     48  C   UNL A   1      42.940  30.081  28.773  1.00  0.00     0.074 A 
ATOM     49  C   UNL A   1      42.007  27.812  28.454  1.00  0.00     0.049 A 
ATOM     50  N   UNL A   1      44.161  29.913  28.335  1.00  0.00    -0.248 NA
ATOM     51  C   UNL A   1      42.642  31.456  29.205  1.00  0.00     0.031 C 
ATOM     52  C   UNL A   1      40.986  26.763  28.432  1.00  0.00     0.029 A 
ATOM     53  N   UNL A   1      43.131  27.187  27.973  1.00  0.00    -0.354 N 
ATOM     54  C   UNL A   1      44.766  31.161  28.418  1.00  0.00     0.074 A 
ATOM     55  C   UNL A   1      43.763  32.089  28.891  1.00  0.00     0.031 C 
ATOM     56  C   UNL A   1      41.537  25.619  27.992  1.00  0.00     0.029 A 
ATOM     57  C   UNL A   1      42.939  25.859  27.665  1.00  0.00     0.049 A 
ATOM     58  H   UNL A   1      43.995  27.645  27.859  1.00  0.00     0.167 HD
ATOM     59  C   UNL A   1      46.050  31.503  28.155  1.00  0.00     0.031 A 
ATOM     60  C   UNL A   1      43.794  24.940  27.176  1.00  0.00     0.031 A 
ATOM     61  C   UNL A   1      47.052  30.575  27.706  1.00  0.00     0.049 A 
ATOM     62  C   UNL A   1      45.220  25.337  26.906  1.00  0.00     0.074 A 
ATOM     63  C   UNL A   1      48.394  30.808  27.464  1.00  0.00     0.029 A 
ATOM     64  N   UNL A   1      46.823  29.234  27.439  1.00  0.00    -0.354 N 
ATOM     65  N   UNL A   1      45.790  26.509  27.054  1.00  0.00    -0.248 NA
ATOM     66  C   UNL A   1      46.121  24.284  26.416  1.00  0.00     0.031 C 
ATOM     67  C   UNL A   1      48.969  29.616  27.011  1.00  0.00     0.029 A 
ATOM     68  C   UNL A   1      47.995  28.629  27.020  1.00  0.00     0.049 A 
ATOM     69  H   UNL A   1      45.955  28.780  27.533  1.00  0.00     0.167 HD
ATOM     70  C   UNL A   1      47.123  26.328  26.701  1.00  0.00     0.074 A 
ATOM     71  C   UNL A   1      47.276  24.932  26.346  1.00  0.00     0.031 C 
ATOM     72  C   UNL A   1      48.129  27.238  26.672  1.00  0.00     0.031 A 
BRANCH  59  73
ATOM     73  C   UNL A   1      46.434  32.945  28.352  1.00  0.00    -0.014 A 
ATOM     74  C   UNL A   1      46.983  33.386  29.570  1.00  0.00     0.010 A 
ATOM     75  C   UNL A   1      46.260  33.868  27.306  1.00  0.00     0.010 A 
ATOM     76  C   UNL A   1      47.301  34.734  29.758  1.00  0.00     0.020 A 
ATOM     77  C   UNL A   1      46.605  35.212  27.478  1.00  0.00     0.020 A 
ATOM     78  C   UNL A   1      47.104  35.640  28.711  1.00  0.00     0.054 A 
BRANCH  78  79
ATOM     79  S   UNL A   1      47.534  37.381  28.977  1.00  0.00     0.124 S 
ATOM     80  O   UNL A   1      46.274  38.052  28.664  1.00  0.00    -0.237 OA
ATOM     81  O   UNL A   1      47.922  37.404  30.385  1.00  0.00    -0.237 OA
ATOM     82  O   UNL A   1      48.619  37.620  28.029  1.00  0.00    -0.744 OA
ENDBRANCH  78  79
ENDBRANCH  59  73
BRANCH  60  83
ATOM     83  C   UNL A   1      43.330  23.546  26.934  1.00  0.00    -0.014 A 
ATOM     84  C   UNL A   1      43.138  23.074  25.623  1.00  0.00     0.010 A 
ATOM     85  C   UNL A   1      43.091  22.674  28.013  1.00  0.00     0.010 A 
ATOM     86  C   UNL A   1      42.700  21.766  25.394  1.00  0.00     0.020 A 
ATOM     87  C   UNL A   1      42.679  21.358  27.789  1.00  0.00     0.020 A 
ATOM     88  C   UNL A   1      42.475  20.915  26.480  1.00  0.00     0.054 A 
BRANCH  88  89
ATOM     89  S   UNL A   1      41.961  19.203  26.160  1.00  0.00     0.124 S 
ATOM     90  O   UNL A   1      42.807  18.840  25.027  1.00  0.00    -0.237 OA
ATOM     91  O   UNL A   1      42.275  18.538  27.422  1.00  0.00    -0.237 OA
ATOM     92  O   UNL A   1      40.535  19.324  25.866  1.00  0.00    -0.744 OA
ENDBRANCH  88  89
ENDBRANCH  60  83
BRANCH  72  93
ATOM     93  C   UNL A   1      49.495  26.747  26.275  1.00  0.00    -0.014 A 
ATOM     94  C   UNL A   1      49.997  26.962  24.979  1.00  0.00     0.010 A 
ATOM     95  C   UNL A   1      50.311  26.119  27.234  1.00  0.00     0.010 A 
ATOM     96  C   UNL A   1      51.283  26.532  24.642  1.00  0.00     0.020 A 
ATOM     97  C   UNL A   1      51.607  25.711  26.907  1.00  0.00     0.020 A 
ATOM     98  C   UNL A   1      52.080  25.908  25.608  1.00  0.00     0.054 A 
BRANCH  98  99
ATOM     99  S   UNL A   1      53.763  25.404  25.159  1.00  0.00     0.124 S 
ATOM    100  O   UNL A   1      53.870  25.893  23.787  1.00  0.00    -0.237 OA
ATOM    101  O   UNL A   1      54.583  26.107  26.142  1.00  0.00    -0.237 OA
ATOM    102  O   UNL A   1      53.738  23.949  25.303  1.00  0.00    -0.744 OA
ENDBRANCH  98  99
ENDBRANCH  72  93
ENDBRANCH  46  47
ENDBRANCH  38  41
ENDBRANCH  36  37
ENDBRANCH  35  36
ENDBRANCH   1  35
TORSDOF 19
ENDMDL
MODEL 2
REMARK VINA RESULT:     -12.4      5.933     11.776
REMARK SMILES O=C(COc1ccc(NC(=O)c2ccc(Br)cc2)cc1-c1nc2ccccc2o1)NCCCCNC(=O)c1ccc(-c2c3nc(c(-c4ccc(S(=O)(=O)[O-])cc4)c4ccc([nH]4)c(-c4ccc(S(=O)(=O)[O-])cc4)c4nc(c(-c5ccc(S(=O)(=O)[O-])cc5)c5ccc2[nH]5)C=C4)C=C3)cc1
REMARK SMILES IDX 32 1 31 2 30 3 1 4 2 5 3 7 4 8 5 9 6 10 20 11 7 12 19 13
REMARK SMILES IDX 8 14 21 15 22 16 29 17 23 18 28 19 24 20 27 21 25 22 26 23
REMARK SMILES IDX 9 24 10 25 11 27 12 28 13 29 18 30 14 31 17 32 15 33 16 34
REMARK SMILES IDX 33 35 34 36 35 37 36 38 37 40 38 41 39 42 97 43 40 44 96 45
REMARK SMILES IDX 41 46 42 47 43 48 90 49 44 50 95 51 89 52 91 53 45 54 94 55
REMARK SMILES IDX 88 56 87 57 46 59 76 60 57 61 75 62 58 63 61 64 74 65 92 66
REMARK SMILES IDX 59 67 60 68 73 70 93 71 62 72 47 73 48 74 56 75 49 76 55 77
REMARK SMILES IDX 50 78 51 79 52 80 53 81 54 82 77 83 78 84 86 85 79 86 85 87
REMARK SMILES IDX 80 88 81 89 82 90 83 91 84 92 63 93 64 94 72 95 65 96 71 97
REMARK SMILES IDX 66 98 67 99 68 100 69 101 70 102
REMARK H PARENT 30 6 9 26 35 39 91 58 61 69
REMARK Flexibility Score: inf
ROOT
ATOM      1  C   UNL A   1      39.838  21.739  25.984  1.00  0.00     0.023 C 
ENDROOT
BRANCH   1   2
ATOM      2  C   UNL A   1      38.404  22.200  26.145  1.00  0.00     0.116 C 
BRANCH   2   3
ATOM      3  N   UNL A   1      37.662  22.329  24.911  1.00  0.00    -0.353 N 
ATOM      4  O   UNL A   1      36.007  20.718  24.985  1.00  0.00    -0.271 OA
ATOM      5  C   UNL A   1      36.339  21.892  24.870  1.00  0.00     0.257 C 
ATOM      6  H   UNL A   1      38.085  22.718  24.112  1.00  0.00     0.163 HD
BRANCH   5   7
ATOM      7  C   UNL A   1      35.348  23.055  24.709  1.00  0.00     0.329 C 
BRANCH   7   8
ATOM      8  O   UNL A   1      34.954  22.965  23.337  1.00  0.00    -0.483 OA
BRANCH   8   9
ATOM      9  C   UNL A   1      33.769  23.503  22.933  1.00  0.00     0.132 A 
ATOM     10  C   UNL A   1      33.919  24.850  22.628  1.00  0.00     0.049 A 
ATOM     11  C   UNL A   1      32.496  22.947  23.206  1.00  0.00     0.081 A 
ATOM     12  C   UNL A   1      32.823  25.689  22.648  1.00  0.00     0.030 A 
ATOM     13  C   UNL A   1      31.388  23.826  23.202  1.00  0.00     0.043 A 
ATOM     14  C   UNL A   1      31.546  25.198  22.912  1.00  0.00     0.042 A 
BRANCH  11  15
ATOM     15  C   UNL A   1      32.357  21.514  23.501  1.00  0.00     0.231 A 
ATOM     16  N   UNL A   1      32.126  20.549  22.633  1.00  0.00    -0.209 NA
ATOM     17  O   UNL A   1      32.574  21.061  24.788  1.00  0.00    -0.436 OA
ATOM     18  C   UNL A   1      32.375  19.398  23.315  1.00  0.00     0.110 A 
ATOM     19  C   UNL A   1      32.611  19.688  24.648  1.00  0.00     0.155 A 
ATOM     20  C   UNL A   1      32.503  18.082  22.851  1.00  0.00     0.032 A 
ATOM     21  C   UNL A   1      32.900  18.718  25.603  1.00  0.00     0.049 A 
ATOM     22  C   UNL A   1      32.857  17.090  23.771  1.00  0.00     0.003 A 
ATOM     23  C   UNL A   1      33.030  17.401  25.124  1.00  0.00     0.004 A 
ENDBRANCH  11  15
BRANCH  14  24
ATOM     24  N   UNL A   1      30.424  26.055  22.969  1.00  0.00    -0.322 N 
ATOM     25  C   UNL A   1      30.110  27.059  23.873  1.00  0.00     0.255 C 
ATOM     26  H   UNL A   1      29.761  25.918  22.255  1.00  0.00     0.170 HD
ATOM     27  O   UNL A   1      28.957  27.474  23.968  1.00  0.00    -0.269 OA
BRANCH  25  28
ATOM     28  C   UNL A   1      31.167  27.710  24.688  1.00  0.00     0.040 A 
ATOM     29  C   UNL A   1      31.865  28.807  24.166  1.00  0.00     0.015 A 
ATOM     30  C   UNL A   1      31.427  27.268  25.994  1.00  0.00     0.015 A 
ATOM     31  C   UNL A   1      32.764  29.507  24.978  1.00  0.00     0.016 A 
ATOM     32  C   UNL A   1      32.318  27.975  26.804  1.00  0.00     0.016 A 
ATOM     33  C   UNL A   1      32.973  29.097  26.296  1.00  0.00     0.018 A 
ATOM     34  Br  UNL A   1      34.136  30.080  27.415  1.00  0.00    -0.051 Br
ENDBRANCH  25  28
ENDBRANCH  14  24
ENDBRANCH   8   9
ENDBRANCH   7   8
ENDBRANCH   5   7
ENDBRANCH   2   3
ENDBRANCH   1   2
BRANCH   1  35
ATOM     35  C   UNL A   1      40.647  21.811  27.272  1.00  0.00     0.023 C 
BRANCH  35  36
ATOM     36  C   UNL A   1      41.723  22.887  27.291  1.00  0.00     0.116 C 
BRANCH  36  37
ATOM     37  N   UNL A   1      41.728  23.727  26.100  1.00  0.00    -0.352 N 
ATOM     38  C   UNL A   1      41.606  25.099  26.060  1.00  0.00     0.251 C 
ATOM     39  H   UNL A   1      41.828  23.267  25.235  1.00  0.00     0.163 HD
ATOM     40  O   UNL A   1      41.509  25.705  24.999  1.00  0.00    -0.269 OA
BRANCH  38  41
ATOM     41  C   UNL A   1      41.556  25.816  27.351  1.00  0.00     0.039 A 
ATOM     42  C   UNL A   1      42.610  26.661  27.702  1.00  0.00     0.014 A 
ATOM     43  C   UNL A   1      40.389  25.766  28.119  1.00  0.00     0.014 A 
ATOM     44  C   UNL A   1      42.460  27.520  28.794  1.00  0.00     0.010 A 
ATOM     45  C   UNL A   1      40.214  26.678  29.152  1.00  0.00     0.010 A 
ATOM     46  C   UNL A   1      41.246  27.566  29.501  1.00  0.00    -0.014 A 
BRANCH  46  47
ATOM     47  C   UNL A   1      41.032  28.530  30.610  1.00  0.00     0.031 A 
ATOM     48  C   UNL A   1      41.870  28.431  31.856  1.00  0.00     0.074 A 
ATOM     49  C   UNL A   1      40.044  29.444  30.531  1.00  0.00     0.049 A 
ATOM     50  N   UNL A   1      41.795  29.130  32.959  1.00  0.00    -0.248 NA
ATOM     51  C   UNL A   1      42.908  27.387  31.877  1.00  0.00     0.031 C 
ATOM     52  C   UNL A   1      39.123  29.607  29.404  1.00  0.00     0.029 A 
ATOM     53  N   UNL A   1      39.644  30.408  31.423  1.00  0.00    -0.354 N 
ATOM     54  C   UNL A   1      42.756  28.596  33.809  1.00  0.00     0.074 A 
ATOM     55  C   UNL A   1      43.360  27.478  33.118  1.00  0.00     0.031 C 
ATOM     56  C   UNL A   1      38.287  30.627  29.659  1.00  0.00     0.029 A 
ATOM     57  C   UNL A   1      38.586  31.169  30.981  1.00  0.00     0.049 A 
ATOM     58  H   UNL A   1      40.073  30.543  32.299  1.00  0.00     0.167 HD
ATOM     59  C   UNL A   1      43.128  29.014  35.042  1.00  0.00     0.031 A 
ATOM     60  C   UNL A   1      37.931  32.188  31.573  1.00  0.00     0.031 A 
ATOM     61  C   UNL A   1      42.542  30.139  35.719  1.00  0.00     0.049 A 
ATOM     62  C   UNL A   1      38.371  32.648  32.936  1.00  0.00     0.074 A 
ATOM     63  C   UNL A   1      42.884  30.679  36.946  1.00  0.00     0.029 A 
ATOM     64  N   UNL A   1      41.496  30.902  35.222  1.00  0.00    -0.354 N 
ATOM     65  N   UNL A   1      39.327  32.170  33.696  1.00  0.00    -0.248 NA
ATOM     66  C   UNL A   1      37.652  33.791  33.516  1.00  0.00     0.031 C 
ATOM     67  C   UNL A   1      42.017  31.744  37.210  1.00  0.00     0.029 A 
ATOM     68  C   UNL A   1      41.170  31.900  36.124  1.00  0.00     0.049 A 
ATOM     69  H   UNL A   1      41.052  30.755  34.356  1.00  0.00     0.167 HD
ATOM     70  C   UNL A   1      39.342  32.972  34.833  1.00  0.00     0.074 A 
ATOM     71  C   UNL A   1      38.310  33.973  34.653  1.00  0.00     0.031 C 
ATOM     72  C   UNL A   1      40.139  32.888  35.927  1.00  0.00     0.031 A 
BRANCH  59  73
ATOM     73  C   UNL A   1      44.223  28.245  35.731  1.00  0.00    -0.014 A 
ATOM     74  C   UNL A   1      43.922  27.175  36.595  1.00  0.00     0.010 A 
ATOM     75  C   UNL A   1      45.569  28.583  35.504  1.00  0.00     0.010 A 
ATOM     76  C   UNL A   1      44.943  26.493  37.261  1.00  0.00     0.020 A 
ATOM     77  C   UNL A   1      46.596  27.882  36.144  1.00  0.00     0.020 A 
ATOM     78  C   UNL A   1      46.275  26.855  37.034  1.00  0.00     0.054 A 
BRANCH  78  79
ATOM     79  S   UNL A   1      47.581  25.946  37.903  1.00  0.00     0.124 S 
ATOM     80  O   UNL A   1      46.807  25.099  38.807  1.00  0.00    -0.237 OA
ATOM     81  O   UNL A   1      48.263  25.246  36.818  1.00  0.00    -0.237 OA
ATOM     82  O   UNL A   1      48.362  26.997  38.551  1.00  0.00    -0.744 OA
ENDBRANCH  78  79
ENDBRANCH  59  73
BRANCH  60  83
ATOM     83  C   UNL A   1      36.805  32.859  30.866  1.00  0.00    -0.014 A 
ATOM     84  C   UNL A   1      37.048  33.943  30.003  1.00  0.00     0.010 A 
ATOM     85  C   UNL A   1      35.483  32.409  31.039  1.00  0.00     0.010 A 
ATOM     86  C   UNL A   1      35.991  34.575  29.341  1.00  0.00     0.020 A 
ATOM     87  C   UNL A   1      34.426  33.021  30.358  1.00  0.00     0.020 A 
ATOM     88  C   UNL A   1      34.686  34.108  29.522  1.00  0.00     0.054 A 
BRANCH  88  89
ATOM     89  S   UNL A   1      33.335  34.907  28.609  1.00  0.00     0.124 S 
ATOM     90  O   UNL A   1      32.576  35.539  29.684  1.00  0.00    -0.237 OA
ATOM     91  O   UNL A   1      34.051  35.819  27.720  1.00  0.00    -0.237 OA
ATOM     92  O   UNL A   1      32.668  33.793  27.941  1.00  0.00    -0.744 OA
ENDBRANCH  88  89
ENDBRANCH  60  83
BRANCH  72  93
ATOM     93  C   UNL A   1      39.951  33.922  37.003  1.00  0.00    -0.014 A 
ATOM     94  C   UNL A   1      40.550  35.190  36.906  1.00  0.00     0.010 A 
ATOM     95  C   UNL A   1      39.110  33.640  38.095  1.00  0.00     0.010 A 
ATOM     96  C   UNL A   1      40.332  36.150  37.898  1.00  0.00     0.020 A 
ATOM     97  C   UNL A   1      38.869  34.606  39.075  1.00  0.00     0.020 A 
ATOM     98  C   UNL A   1      39.493  35.852  38.977  1.00  0.00     0.054 A 
BRANCH  98  99
ATOM     99  S   UNL A   1      39.187  37.131  40.225  1.00  0.00     0.124 S 
ATOM    100  O   UNL A   1      38.370  36.414  41.200  1.00  0.00    -0.237 OA
ATOM    101  O   UNL A   1      40.534  37.478  40.668  1.00  0.00    -0.237 OA
ATOM    102  O   UNL A   1      38.492  38.181  39.481  1.00  0.00    -0.744 OA
ENDBRANCH  98  99
ENDBRANCH  72  93
ENDBRANCH  46  47
ENDBRANCH  38  41
ENDBRANCH  36  37
ENDBRANCH  35  36
ENDBRANCH   1  35
TORSDOF 19
ENDMDL
MODEL 3
REMARK VINA RESULT:     -12.1      5.631      7.699
REMARK SMILES O=C(COc1ccc(NC(=O)c2ccc(Br)cc2)cc1-c1nc2ccccc2o1)NCCCCNC(=O)c1ccc(-c2c3nc(c(-c4ccc(S(=O)(=O)[O-])cc4)c4ccc([nH]4)c(-c4ccc(S(=O)(=O)[O-])cc4)c4nc(c(-c5ccc(S(=O)(=O)[O-])cc5)c5ccc2[nH]5)C=C4)C=C3)cc1
REMARK SMILES IDX 32 1 31 2 30 3 1 4 2 5 3 7 4 8 5 9 6 10 20 11 7 12 19 13
REMARK SMILES IDX 8 14 21 15 22 16 29 17 23 18 28 19 24 20 27 21 25 22 26 23
REMARK SMILES IDX 9 24 10 25 11 27 12 28 13 29 18 30 14 31 17 32 15 33 16 34
REMARK SMILES IDX 33 35 34 36 35 37 36 38 37 40 38 41 39 42 97 43 40 44 96 45
REMARK SMILES IDX 41 46 42 47 43 48 90 49 44 50 95 51 89 52 91 53 45 54 94 55
REMARK SMILES IDX 88 56 87 57 46 59 76 60 57 61 75 62 58 63 61 64 74 65 92 66
REMARK SMILES IDX 59 67 60 68 73 70 93 71 62 72 47 73 48 74 56 75 49 76 55 77
REMARK SMILES IDX 50 78 51 79 52 80 53 81 54 82 77 83 78 84 86 85 79 86 85 87
REMARK SMILES IDX 80 88 81 89 82 90 83 91 84 92 63 93 64 94 72 95 65 96 71 97
REMARK SMILES IDX 66 98 67 99 68 100 69 101 70 102
REMARK H PARENT 30 6 9 26 35 39 91 58 61 69
REMARK Flexibility Score: inf
ROOT
ATOM      1  C   UNL A   1      32.260  31.125  26.834  1.00  0.00     0.023 C 
ENDROOT
BRANCH   1   2
ATOM      2  C   UNL A   1      31.368  30.462  25.804  1.00  0.00     0.116 C 
BRANCH   2   3
ATOM      3  N   UNL A   1      31.867  29.209  25.282  1.00  0.00    -0.353 N 
ATOM      4  O   UNL A   1      33.982  28.939  26.173  1.00  0.00    -0.271 OA
ATOM      5  C   UNL A   1      32.843  28.520  26.000  1.00  0.00     0.257 C 
ATOM      6  H   UNL A   1      31.522  28.849  24.434  1.00  0.00     0.163 HD
BRANCH   5   7
ATOM      7  C   UNL A   1      32.313  27.202  26.584  1.00  0.00     0.329 C 
BRANCH   7   8
ATOM      8  O   UNL A   1      30.994  27.107  26.039  1.00  0.00    -0.483 OA
BRANCH   8   9
ATOM      9  C   UNL A   1      30.613  25.982  25.370  1.00  0.00     0.132 A 
ATOM     10  C   UNL A   1      31.153  24.850  25.967  1.00  0.00     0.049 A 
ATOM     11  C   UNL A   1      30.141  25.958  24.037  1.00  0.00     0.081 A 
ATOM     12  C   UNL A   1      31.295  23.686  25.238  1.00  0.00     0.030 A 
ATOM     13  C   UNL A   1      30.282  24.748  23.318  1.00  0.00     0.043 A 
ATOM     14  C   UNL A   1      30.849  23.604  23.920  1.00  0.00     0.042 A 
BRANCH  11  15
ATOM     15  C   UNL A   1      29.549  27.161  23.434  1.00  0.00     0.231 A 
ATOM     16  N   UNL A   1      28.290  27.542  23.509  1.00  0.00    -0.209 NA
ATOM     17  O   UNL A   1      30.367  28.071  22.791  1.00  0.00    -0.436 OA
ATOM     18  C   UNL A   1      28.287  28.830  23.068  1.00  0.00     0.110 A 
ATOM     19  C   UNL A   1      29.542  29.159  22.585  1.00  0.00     0.155 A 
ATOM     20  C   UNL A   1      27.282  29.804  23.125  1.00  0.00     0.032 A 
ATOM     21  C   UNL A   1      29.860  30.410  22.065  1.00  0.00     0.049 A 
ATOM     22  C   UNL A   1      27.584  31.092  22.673  1.00  0.00     0.003 A 
ATOM     23  C   UNL A   1      28.843  31.381  22.133  1.00  0.00     0.004 A 
ENDBRANCH  11  15
BRANCH  14  24
ATOM     24  N   UNL A   1      31.023  22.429  23.155  1.00  0.00    -0.322 N 
ATOM     25  C   UNL A   1      32.184  21.781  22.760  1.00  0.00     0.255 C 
ATOM     26  H   UNL A   1      30.187  22.003  22.856  1.00  0.00     0.170 HD
ATOM     27  O   UNL A   1      32.162  20.972  21.835  1.00  0.00    -0.269 OA
BRANCH  25  28
ATOM     28  C   UNL A   1      33.459  21.987  23.492  1.00  0.00     0.040 A 
ATOM     29  C   UNL A   1      33.818  21.102  24.517  1.00  0.00     0.015 A 
ATOM     30  C   UNL A   1      34.327  23.025  23.124  1.00  0.00     0.015 A 
ATOM     31  C   UNL A   1      35.078  21.209  25.117  1.00  0.00     0.016 A 
ATOM     32  C   UNL A   1      35.587  23.124  23.718  1.00  0.00     0.016 A 
ATOM     33  C   UNL A   1      35.961  22.209  24.702  1.00  0.00     0.018 A 
ATOM     34  Br  UNL A   1      37.687  22.316  25.464  1.00  0.00    -0.051 Br
ENDBRANCH  25  28
ENDBRANCH  14  24
ENDBRANCH   8   9
ENDBRANCH   7   8
ENDBRANCH   5   7
ENDBRANCH   2   3
ENDBRANCH   1   2
BRANCH   1  35
ATOM     35  C   UNL A   1      31.941  32.598  27.053  1.00  0.00     0.023 C 
BRANCH  35  36
ATOM     36  C   UNL A   1      33.152  33.479  27.326  1.00  0.00     0.116 C 
BRANCH  36  37
ATOM     37  N   UNL A   1      32.857  34.628  28.175  1.00  0.00    -0.352 N 
ATOM     38  C   UNL A   1      33.474  34.953  29.363  1.00  0.00     0.251 C 
ATOM     39  H   UNL A   1      32.144  35.232  27.867  1.00  0.00     0.163 HD
ATOM     40  O   UNL A   1      33.077  35.880  30.060  1.00  0.00    -0.269 OA
BRANCH  38  41
ATOM     41  C   UNL A   1      34.614  34.116  29.790  1.00  0.00     0.039 A 
ATOM     42  C   UNL A   1      35.903  34.458  29.378  1.00  0.00     0.014 A 
ATOM     43  C   UNL A   1      34.405  33.099  30.727  1.00  0.00     0.014 A 
ATOM     44  C   UNL A   1      36.998  33.822  29.970  1.00  0.00     0.010 A 
ATOM     45  C   UNL A   1      35.497  32.529  31.368  1.00  0.00     0.010 A 
ATOM     46  C   UNL A   1      36.805  32.885  30.999  1.00  0.00    -0.014 A 
BRANCH  46  47
ATOM     47  C   UNL A   1      37.955  32.260  31.702  1.00  0.00     0.031 A 
ATOM     48  C   UNL A   1      38.400  32.805  33.033  1.00  0.00     0.074 A 
ATOM     49  C   UNL A   1      38.641  31.257  31.119  1.00  0.00     0.049 A 
ATOM     50  N   UNL A   1      39.418  32.447  33.773  1.00  0.00    -0.248 NA
ATOM     51  C   UNL A   1      37.618  33.921  33.589  1.00  0.00     0.031 C 
ATOM     52  C   UNL A   1      38.349  30.677  29.806  1.00  0.00     0.029 A 
ATOM     53  N   UNL A   1      39.734  30.550  31.554  1.00  0.00    -0.354 N 
ATOM     54  C   UNL A   1      39.409  33.306  34.865  1.00  0.00     0.074 A 
ATOM     55  C   UNL A   1      38.324  34.240  34.663  1.00  0.00     0.031 C 
ATOM     56  C   UNL A   1      39.220  29.685  29.557  1.00  0.00     0.029 A 
ATOM     57  C   UNL A   1      40.156  29.581  30.673  1.00  0.00     0.049 A 
ATOM     58  H   UNL A   1      40.177  30.720  32.417  1.00  0.00     0.167 HD
ATOM     59  C   UNL A   1      40.211  33.302  35.956  1.00  0.00     0.031 A 
ATOM     60  C   UNL A   1      41.178  28.707  30.754  1.00  0.00     0.031 A 
ATOM     61  C   UNL A   1      41.276  32.359  36.167  1.00  0.00     0.049 A 
ATOM     62  C   UNL A   1      42.048  28.708  31.982  1.00  0.00     0.074 A 
ATOM     63  C   UNL A   1      42.111  32.234  37.263  1.00  0.00     0.029 A 
ATOM     64  N   UNL A   1      41.647  31.374  35.265  1.00  0.00    -0.354 N 
ATOM     65  N   UNL A   1      41.981  29.487  33.036  1.00  0.00    -0.248 NA
ATOM     66  C   UNL A   1      43.120  27.705  32.038  1.00  0.00     0.031 C 
ATOM     67  C   UNL A   1      43.015  31.198  37.006  1.00  0.00     0.029 A 
ATOM     68  C   UNL A   1      42.709  30.645  35.773  1.00  0.00     0.049 A 
ATOM     69  H   UNL A   1      41.219  31.216  34.393  1.00  0.00     0.167 HD
ATOM     70  C   UNL A   1      42.987  29.050  33.892  1.00  0.00     0.074 A 
ATOM     71  C   UNL A   1      43.635  27.931  33.239  1.00  0.00     0.031 C 
ATOM     72  C   UNL A   1      43.341  29.533  35.109  1.00  0.00     0.031 A 
BRANCH  59  73
ATOM     73  C   UNL A   1      39.958  34.354  37.003  1.00  0.00    -0.014 A 
ATOM     74  C   UNL A   1      40.558  35.624  36.912  1.00  0.00     0.010 A 
ATOM     75  C   UNL A   1      39.102  34.078  38.084  1.00  0.00     0.010 A 
ATOM     76  C   UNL A   1      40.348  36.580  37.908  1.00  0.00     0.020 A 
ATOM     77  C   UNL A   1      38.864  35.043  39.067  1.00  0.00     0.020 A 
ATOM     78  C   UNL A   1      39.506  36.281  38.984  1.00  0.00     0.054 A 
BRANCH  78  79
ATOM     79  S   UNL A   1      39.244  37.543  40.258  1.00  0.00     0.124 S 
ATOM     80  O   UNL A   1      40.545  38.206  40.296  1.00  0.00    -0.237 OA
ATOM     81  O   UNL A   1      38.152  38.339  39.703  1.00  0.00    -0.237 OA
ATOM     82  O   UNL A   1      38.904  36.768  41.449  1.00  0.00    -0.744 OA
ENDBRANCH  78  79
ENDBRANCH  59  73
BRANCH  60  83
ATOM     83  C   UNL A   1      41.420  27.739  29.648  1.00  0.00    -0.014 A 
ATOM     84  C   UNL A   1      40.521  26.684  29.411  1.00  0.00     0.010 A 
ATOM     85  C   UNL A   1      42.545  27.876  28.812  1.00  0.00     0.010 A 
ATOM     86  C   UNL A   1      40.749  25.775  28.375  1.00  0.00     0.020 A 
ATOM     87  C   UNL A   1      42.762  26.985  27.758  1.00  0.00     0.020 A 
ATOM     88  C   UNL A   1      41.868  25.932  27.552  1.00  0.00     0.054 A 
BRANCH  88  89
ATOM     89  S   UNL A   1      42.115  24.773  26.177  1.00  0.00     0.124 S 
ATOM     90  O   UNL A   1      43.533  24.449  26.304  1.00  0.00    -0.237 OA
ATOM     91  O   UNL A   1      41.187  23.693  26.503  1.00  0.00    -0.237 OA
ATOM     92  O   UNL A   1      41.755  25.559  24.999  1.00  0.00    -0.744 OA
ENDBRANCH  88  89
ENDBRANCH  60  83
BRANCH  72  93
ATOM     93  C   UNL A   1      44.460  28.835  35.832  1.00  0.00    -0.014 A 
ATOM     94  C   UNL A   1      45.792  29.264  35.700  1.00  0.00     0.010 A 
ATOM     95  C   UNL A   1      44.163  27.774  36.708  1.00  0.00     0.010 A 
ATOM     96  C   UNL A   1      46.812  28.626  36.410  1.00  0.00     0.020 A 
ATOM     97  C   UNL A   1      45.177  27.150  37.440  1.00  0.00     0.020 A 
ATOM     98  C   UNL A   1      46.498  27.572  37.275  1.00  0.00     0.054 A 
BRANCH  98  99
ATOM     99  S   UNL A   1      47.834  26.793  38.223  1.00  0.00     0.124 S 
ATOM    100  O   UNL A   1      47.338  25.428  38.379  1.00  0.00    -0.237 OA
ATOM    101  O   UNL A   1      48.987  26.946  37.340  1.00  0.00    -0.237 OA
ATOM    102  O   UNL A   1      47.890  27.580  39.454  1.00  0.00    -0.744 OA
ENDBRANCH  98  99
ENDBRANCH  72  93
ENDBRANCH  46  47
ENDBRANCH  38  41
ENDBRANCH  36  37
ENDBRANCH  35  36
ENDBRANCH   1  35
TORSDOF 19
ENDMDL
