MODEL 1
REMARK VINA RESULT:     -11.4      0.000      0.000
REMARK SMILES CC[C@@H]1CC[C@](C[C@@H]2CCCc3ccccc32)(C(=O)NCCCCNC(=O)c2ccc(-c3c4nc(c(-c5ccc(S(=O)(=O)[O-])cc5)c5ccc([nH]5)c(-c5ccc(S(=O)(=O)[O-])cc5)c5nc(c(-c6ccc(S(=O)(=O)[O-])cc6)c6ccc3[nH]6)C=C5)C=C4)cc2)C1
REMARK SMILES IDX 23 1 22 2 21 3 20 4 18 5 19 6 6 8 3 9 4 10 88 11 5 12 2 13
REMARK SMILES IDX 1 14 7 15 8 16 9 17 17 18 10 19 12 20 16 21 11 22 13 23
REMARK SMILES IDX 15 24 14 25 24 26 25 27 26 28 27 30 28 31 29 32 87 33 30 34
REMARK SMILES IDX 86 35 31 36 32 37 33 38 80 39 34 40 85 41 79 42 81 43 35 44
REMARK SMILES IDX 84 45 78 46 77 47 36 49 66 50 47 51 65 52 48 53 51 54 64 55
REMARK SMILES IDX 82 56 49 57 50 58 63 60 83 61 52 62 37 63 38 64 46 65 39 66
REMARK SMILES IDX 45 67 40 68 41 69 42 70 43 71 44 72 67 73 68 74 76 75 69 76
REMARK SMILES IDX 75 77 70 78 71 79 72 80 73 81 74 82 53 83 54 84 62 85 55 86
REMARK SMILES IDX 61 87 56 88 57 89 58 90 59 91 60 92
REMARK H PARENT 20 7 25 29 81 48 51 59
REMARK Flexibility Score: inf
ROOT
ATOM      1  C   UNL A   1      32.406  28.443  26.414  1.00  0.00     0.023 C 
ENDROOT
BRANCH   1   2
ATOM      2  C   UNL A   1      31.406  27.605  27.194  1.00  0.00     0.023 C 
BRANCH   2   3
ATOM      3  C   UNL A   1      30.721  26.494  26.407  1.00  0.00     0.116 C 
BRANCH   3   4
ATOM      4  N   UNL A   1      31.008  25.164  26.895  1.00  0.00    -0.356 N 
ATOM      5  C   UNL A   1      31.828  24.172  26.452  1.00  0.00     0.226 C 
ATOM      6  O   UNL A   1      31.966  23.230  27.244  1.00  0.00    -0.274 OA
ATOM      7  H   UNL A   1      30.511  24.928  27.711  1.00  0.00     0.163 HD
BRANCH   5   8
ATOM      8  C   UNL A   1      32.502  24.143  25.036  1.00  0.00     0.050 C 
ATOM      9  C   UNL A   1      34.647  23.148  24.354  1.00  0.00    -0.010 C 
ATOM     10  C   UNL A   1      34.949  24.507  24.965  1.00  0.00     0.005 C 
ATOM     11  C   UNL A   1      33.201  22.808  24.746  1.00  0.00     0.020 C 
ATOM     12  C   UNL A   1      33.606  25.224  25.029  1.00  0.00     0.017 C 
BRANCH   9  13
ATOM     13  C   UNL A   1      35.648  22.047  24.712  1.00  0.00     0.000 C 
ATOM     14  C   UNL A   1      34.952  20.742  25.073  1.00  0.00     0.004 C 
ENDBRANCH   9  13
BRANCH   8  15
ATOM     15  C   UNL A   1      31.339  24.409  24.002  1.00  0.00     0.025 C 
BRANCH  15  16
ATOM     16  C   UNL A   1      31.418  25.273  22.700  1.00  0.00     0.020 C 
ATOM     17  C   UNL A   1      32.646  25.112  21.791  1.00  0.00     0.009 C 
ATOM     18  C   UNL A   1      30.981  26.707  22.853  1.00  0.00    -0.042 A 
ATOM     19  C   UNL A   1      33.748  26.150  21.933  1.00  0.00     0.005 C 
ATOM     20  C   UNL A   1      31.882  27.769  22.712  1.00  0.00    -0.045 A 
ATOM     21  C   UNL A   1      29.636  26.979  23.172  1.00  0.00     0.004 A 
ATOM     22  C   UNL A   1      33.283  27.582  22.195  1.00  0.00     0.036 C 
ATOM     23  C   UNL A   1      31.445  29.073  23.004  1.00  0.00     0.004 A 
ATOM     24  C   UNL A   1      29.208  28.280  23.422  1.00  0.00     0.000 A 
ATOM     25  C   UNL A   1      30.120  29.325  23.365  1.00  0.00     0.000 A 
ENDBRANCH  15  16
ENDBRANCH   8  15
ENDBRANCH   5   8
ENDBRANCH   3   4
ENDBRANCH   2   3
ENDBRANCH   1   2
BRANCH   1  26
ATOM     26  C   UNL A   1      33.685  28.798  27.157  1.00  0.00     0.116 C 
BRANCH  26  27
ATOM     27  N   UNL A   1      33.691  30.135  27.745  1.00  0.00    -0.352 N 
ATOM     28  C   UNL A   1      34.729  30.785  28.369  1.00  0.00     0.251 C 
ATOM     29  H   UNL A   1      32.843  30.632  27.689  1.00  0.00     0.163 HD
ATOM     30  O   UNL A   1      34.573  31.905  28.848  1.00  0.00    -0.269 OA
BRANCH  28  31
ATOM     31  C   UNL A   1      36.018  30.081  28.500  1.00  0.00     0.039 A 
ATOM     32  C   UNL A   1      36.921  30.129  27.438  1.00  0.00     0.014 A 
ATOM     33  C   UNL A   1      36.374  29.502  29.721  1.00  0.00     0.014 A 
ATOM     34  C   UNL A   1      38.227  29.678  27.634  1.00  0.00     0.010 A 
ATOM     35  C   UNL A   1      37.696  29.145  29.940  1.00  0.00     0.010 A 
ATOM     36  C   UNL A   1      38.639  29.234  28.902  1.00  0.00    -0.014 A 
BRANCH  36  37
ATOM     37  C   UNL A   1      40.049  28.861  29.172  1.00  0.00     0.031 A 
ATOM     38  C   UNL A   1      40.986  29.875  29.770  1.00  0.00     0.074 A 
ATOM     39  C   UNL A   1      40.507  27.649  28.798  1.00  0.00     0.049 A 
ATOM     40  N   UNL A   1      42.268  29.777  30.002  1.00  0.00    -0.248 NA
ATOM     41  C   UNL A   1      40.413  31.187  30.118  1.00  0.00     0.031 C 
ATOM     42  C   UNL A   1      39.715  26.601  28.147  1.00  0.00     0.029 A 
ATOM     43  N   UNL A   1      41.758  27.095  28.905  1.00  0.00    -0.354 N 
ATOM     44  C   UNL A   1      42.659  31.019  30.486  1.00  0.00     0.074 A 
ATOM     45  C   UNL A   1      41.491  31.870  30.470  1.00  0.00     0.031 C 
ATOM     46  C   UNL A   1      40.492  25.525  27.939  1.00  0.00     0.029 A 
ATOM     47  C   UNL A   1      41.842  25.814  28.408  1.00  0.00     0.049 A 
ATOM     48  H   UNL A   1      42.525  27.570  29.300  1.00  0.00     0.167 HD
ATOM     49  C   UNL A   1      43.877  31.411  30.927  1.00  0.00     0.031 A 
ATOM     50  C   UNL A   1      42.889  24.971  28.338  1.00  0.00     0.031 A 
ATOM     51  C   UNL A   1      45.026  30.549  30.982  1.00  0.00     0.049 A 
ATOM     52  C   UNL A   1      44.222  25.414  28.877  1.00  0.00     0.074 A 
ATOM     53  C   UNL A   1      46.282  30.822  31.494  1.00  0.00     0.029 A 
ATOM     54  N   UNL A   1      45.056  29.244  30.517  1.00  0.00    -0.354 N 
ATOM     55  N   UNL A   1      44.552  26.567  29.411  1.00  0.00    -0.248 NA
ATOM     56  C   UNL A   1      45.320  24.438  28.822  1.00  0.00     0.031 C 
ATOM     57  C   UNL A   1      47.083  29.692  31.303  1.00  0.00     0.029 A 
ATOM     58  C   UNL A   1      46.313  28.702  30.715  1.00  0.00     0.049 A 
ATOM     59  H   UNL A   1      44.296  28.772  30.106  1.00  0.00     0.167 HD
ATOM     60  C   UNL A   1      45.887  26.445  29.776  1.00  0.00     0.074 A 
ATOM     61  C   UNL A   1      46.300  25.104  29.418  1.00  0.00     0.031 C 
ATOM     62  C   UNL A   1      46.700  27.362  30.357  1.00  0.00     0.031 A 
BRANCH  49  63
ATOM     63  C   UNL A   1      44.023  32.835  31.389  1.00  0.00    -0.014 A 
ATOM     64  C   UNL A   1      43.822  33.184  32.738  1.00  0.00     0.010 A 
ATOM     65  C   UNL A   1      44.392  33.834  30.471  1.00  0.00     0.010 A 
ATOM     66  C   UNL A   1      43.946  34.512  33.150  1.00  0.00     0.020 A 
ATOM     67  C   UNL A   1      44.544  35.160  30.885  1.00  0.00     0.020 A 
ATOM     68  C   UNL A   1      44.302  35.493  32.219  1.00  0.00     0.054 A 
BRANCH  68  69
ATOM     69  S   UNL A   1      44.480  37.207  32.786  1.00  0.00     0.124 S 
ATOM     70  O   UNL A   1      45.577  37.092  33.745  1.00  0.00    -0.237 OA
ATOM     71  O   UNL A   1      44.797  37.923  31.553  1.00  0.00    -0.237 OA
ATOM     72  O   UNL A   1      43.175  37.517  33.365  1.00  0.00    -0.744 OA
ENDBRANCH  68  69
ENDBRANCH  49  63
BRANCH  50  73
ATOM     73  C   UNL A   1      42.718  23.611  27.756  1.00  0.00    -0.014 A 
ATOM     74  C   UNL A   1      42.296  22.540  28.563  1.00  0.00     0.010 A 
ATOM     75  C   UNL A   1      42.977  23.379  26.393  1.00  0.00     0.010 A 
ATOM     76  C   UNL A   1      42.160  21.256  28.025  1.00  0.00     0.020 A 
ATOM     77  C   UNL A   1      42.819  22.103  25.845  1.00  0.00     0.020 A 
ATOM     78  C   UNL A   1      42.424  21.046  26.669  1.00  0.00     0.054 A 
BRANCH  78  79
ATOM     79  S   UNL A   1      42.203  19.381  25.981  1.00  0.00     0.124 S 
ATOM     80  O   UNL A   1      40.759  19.330  25.768  1.00  0.00    -0.237 OA
ATOM     81  O   UNL A   1      43.020  19.427  24.772  1.00  0.00    -0.237 OA
ATOM     82  O   UNL A   1      42.712  18.507  27.035  1.00  0.00    -0.744 OA
ENDBRANCH  78  79
ENDBRANCH  50  73
BRANCH  62  83
ATOM     83  C   UNL A   1      48.106  26.935  30.676  1.00  0.00    -0.014 A 
ATOM     84  C   UNL A   1      49.165  27.200  29.790  1.00  0.00     0.010 A 
ATOM     85  C   UNL A   1      48.377  26.311  31.908  1.00  0.00     0.010 A 
ATOM     86  C   UNL A   1      50.469  26.823  30.120  1.00  0.00     0.020 A 
ATOM     87  C   UNL A   1      49.683  25.955  32.251  1.00  0.00     0.020 A 
ATOM     88  C   UNL A   1      50.719  26.202  31.349  1.00  0.00     0.054 A 
BRANCH  88  89
ATOM     89  S   UNL A   1      52.426  25.763  31.775  1.00  0.00     0.124 S 
ATOM     90  O   UNL A   1      52.287  24.370  32.191  1.00  0.00    -0.237 OA
ATOM     91  O   UNL A   1      53.138  25.976  30.517  1.00  0.00    -0.237 OA
ATOM     92  O   UNL A   1      52.769  26.702  32.842  1.00  0.00    -0.744 OA
ENDBRANCH  88  89
ENDBRANCH  62  83
ENDBRANCH  36  37
ENDBRANCH  28  31
ENDBRANCH  26  27
ENDBRANCH   1  26
TORSDOF 17
ENDMDL
MODEL 2
REMARK VINA RESULT:     -11.3      0.795      3.085
REMARK SMILES CC[C@@H]1CC[C@](C[C@@H]2CCCc3ccccc32)(C(=O)NCCCCNC(=O)c2ccc(-c3c4nc(c(-c5ccc(S(=O)(=O)[O-])cc5)c5ccc([nH]5)c(-c5ccc(S(=O)(=O)[O-])cc5)c5nc(c(-c6ccc(S(=O)(=O)[O-])cc6)c6ccc3[nH]6)C=C5)C=C4)cc2)C1
REMARK SMILES IDX 23 1 22 2 21 3 20 4 18 5 19 6 6 8 3 9 4 10 88 11 5 12 2 13
REMARK SMILES IDX 1 14 7 15 8 16 9 17 17 18 10 19 12 20 16 21 11 22 13 23
REMARK SMILES IDX 15 24 14 25 24 26 25 27 26 28 27 30 28 31 29 32 87 33 30 34
REMARK SMILES IDX 86 35 31 36 32 37 33 38 80 39 34 40 85 41 79 42 81 43 35 44
REMARK SMILES IDX 84 45 78 46 77 47 36 49 66 50 47 51 65 52 48 53 51 54 64 55
REMARK SMILES IDX 82 56 49 57 50 58 63 60 83 61 52 62 37 63 38 64 46 65 39 66
REMARK SMILES IDX 45 67 40 68 41 69 42 70 43 71 44 72 67 73 68 74 76 75 69 76
REMARK SMILES IDX 75 77 70 78 71 79 72 80 73 81 74 82 53 83 54 84 62 85 55 86
REMARK SMILES IDX 61 87 56 88 57 89 58 90 59 91 60 92
REMARK H PARENT 20 7 25 29 81 48 51 59
REMARK Flexibility Score: inf
ROOT
ATOM      1  C   UNL A   1      32.281  28.732  26.429  1.00  0.00     0.023 C 
ENDROOT
BRANCH   1   2
ATOM      2  C   UNL A   1      31.610  27.532  27.076  1.00  0.00     0.023 C 
BRANCH   2   3
ATOM      3  C   UNL A   1      30.684  26.728  26.171  1.00  0.00     0.116 C 
BRANCH   3   4
ATOM      4  N   UNL A   1      30.385  25.402  26.662  1.00  0.00    -0.356 N 
ATOM      5  C   UNL A   1      30.889  24.171  26.372  1.00  0.00     0.226 C 
ATOM      6  O   UNL A   1      30.524  23.273  27.141  1.00  0.00    -0.274 OA
ATOM      7  H   UNL A   1      29.676  25.385  27.344  1.00  0.00     0.163 HD
BRANCH   5   8
ATOM      8  C   UNL A   1      31.798  23.855  25.132  1.00  0.00     0.050 C 
ATOM      9  C   UNL A   1      32.858  25.406  23.544  1.00  0.00    -0.010 C 
ATOM     10  C   UNL A   1      31.416  25.216  23.102  1.00  0.00     0.005 C 
ATOM     11  C   UNL A   1      32.948  24.859  24.976  1.00  0.00     0.020 C 
ATOM     12  C   UNL A   1      30.920  23.998  23.870  1.00  0.00     0.017 C 
BRANCH   9  13
ATOM     13  C   UNL A   1      33.388  26.836  23.406  1.00  0.00     0.000 C 
ATOM     14  C   UNL A   1      32.345  27.773  22.813  1.00  0.00     0.004 C 
ENDBRANCH   9  13
BRANCH   8  15
ATOM     15  C   UNL A   1      32.350  22.394  25.366  1.00  0.00     0.025 C 
BRANCH  15  16
ATOM     16  C   UNL A   1      33.041  21.470  24.311  1.00  0.00     0.020 C 
ATOM     17  C   UNL A   1      32.413  20.098  24.019  1.00  0.00     0.009 C 
ATOM     18  C   UNL A   1      34.546  21.426  24.382  1.00  0.00    -0.042 A 
ATOM     19  C   UNL A   1      33.028  18.897  24.719  1.00  0.00     0.005 C 
ATOM     20  C   UNL A   1      35.232  20.260  24.743  1.00  0.00    -0.045 A 
ATOM     21  C   UNL A   1      35.276  22.598  24.104  1.00  0.00     0.004 A 
ATOM     22  C   UNL A   1      34.549  18.925  24.876  1.00  0.00     0.036 C 
ATOM     23  C   UNL A   1      36.624  20.320  24.927  1.00  0.00     0.004 A 
ATOM     24  C   UNL A   1      36.659  22.634  24.255  1.00  0.00     0.000 A 
ATOM     25  C   UNL A   1      37.331  21.501  24.694  1.00  0.00     0.000 A 
ENDBRANCH  15  16
ENDBRANCH   8  15
ENDBRANCH   5   8
ENDBRANCH   3   4
ENDBRANCH   2   3
ENDBRANCH   1   2
BRANCH   1  26
ATOM     26  C   UNL A   1      33.617  29.141  27.034  1.00  0.00     0.116 C 
BRANCH  26  27
ATOM     27  N   UNL A   1      33.609  30.445  27.689  1.00  0.00    -0.352 N 
ATOM     28  C   UNL A   1      34.626  31.053  28.387  1.00  0.00     0.251 C 
ATOM     29  H   UNL A   1      32.769  30.954  27.624  1.00  0.00     0.163 HD
ATOM     30  O   UNL A   1      34.459  32.148  28.916  1.00  0.00    -0.269 OA
BRANCH  28  31
ATOM     31  C   UNL A   1      35.902  30.329  28.534  1.00  0.00     0.039 A 
ATOM     32  C   UNL A   1      36.814  30.354  27.479  1.00  0.00     0.014 A 
ATOM     33  C   UNL A   1      36.241  29.756  29.762  1.00  0.00     0.014 A 
ATOM     34  C   UNL A   1      38.112  29.885  27.688  1.00  0.00     0.010 A 
ATOM     35  C   UNL A   1      37.556  29.381  29.995  1.00  0.00     0.010 A 
ATOM     36  C   UNL A   1      38.507  29.446  28.963  1.00  0.00    -0.014 A 
BRANCH  36  37
ATOM     37  C   UNL A   1      39.909  29.053  29.246  1.00  0.00     0.031 A 
ATOM     38  C   UNL A   1      40.854  30.054  29.854  1.00  0.00     0.074 A 
ATOM     39  C   UNL A   1      40.355  27.836  28.876  1.00  0.00     0.049 A 
ATOM     40  N   UNL A   1      42.133  29.938  30.099  1.00  0.00    -0.248 NA
ATOM     41  C   UNL A   1      40.295  31.374  30.198  1.00  0.00     0.031 C 
ATOM     42  C   UNL A   1      39.554  26.799  28.216  1.00  0.00     0.029 A 
ATOM     43  N   UNL A   1      41.597  27.264  28.995  1.00  0.00    -0.354 N 
ATOM     44  C   UNL A   1      42.535  31.174  30.588  1.00  0.00     0.074 A 
ATOM     45  C   UNL A   1      41.379  32.041  30.562  1.00  0.00     0.031 C 
ATOM     46  C   UNL A   1      40.318  25.712  28.015  1.00  0.00     0.029 A 
ATOM     47  C   UNL A   1      41.668  25.983  28.498  1.00  0.00     0.049 A 
ATOM     48  H   UNL A   1      42.366  27.728  29.398  1.00  0.00     0.167 HD
ATOM     49  C   UNL A   1      43.754  31.549  31.042  1.00  0.00     0.031 A 
ATOM     50  C   UNL A   1      42.704  25.125  28.437  1.00  0.00     0.031 A 
ATOM     51  C   UNL A   1      44.891  30.671  31.108  1.00  0.00     0.049 A 
ATOM     52  C   UNL A   1      44.037  25.549  28.990  1.00  0.00     0.074 A 
ATOM     53  C   UNL A   1      46.145  30.926  31.633  1.00  0.00     0.029 A 
ATOM     54  N   UNL A   1      44.907  29.367  30.642  1.00  0.00    -0.354 N 
ATOM     55  N   UNL A   1      44.377  26.698  29.528  1.00  0.00    -0.248 NA
ATOM     56  C   UNL A   1      45.122  24.559  28.945  1.00  0.00     0.031 C 
ATOM     57  C   UNL A   1      46.933  29.786  31.449  1.00  0.00     0.029 A 
ATOM     58  C   UNL A   1      46.155  28.807  30.852  1.00  0.00     0.049 A 
ATOM     59  H   UNL A   1      44.145  28.905  30.223  1.00  0.00     0.167 HD
ATOM     60  C   UNL A   1      45.708  26.557  29.907  1.00  0.00     0.074 A 
ATOM     61  C   UNL A   1      46.105  25.211  29.552  1.00  0.00     0.031 C 
ATOM     62  C   UNL A   1      46.527  27.462  30.497  1.00  0.00     0.031 A 
BRANCH  49  63
ATOM     63  C   UNL A   1      43.915  32.971  31.507  1.00  0.00    -0.014 A 
ATOM     64  C   UNL A   1      43.693  33.324  32.851  1.00  0.00     0.010 A 
ATOM     65  C   UNL A   1      44.319  33.962  30.596  1.00  0.00     0.010 A 
ATOM     66  C   UNL A   1      43.831  34.650  33.266  1.00  0.00     0.020 A 
ATOM     67  C   UNL A   1      44.485  35.286  31.013  1.00  0.00     0.020 A 
ATOM     68  C   UNL A   1      44.223  35.624  32.342  1.00  0.00     0.054 A 
BRANCH  68  69
ATOM     69  S   UNL A   1      44.418  37.335  32.912  1.00  0.00     0.124 S 
ATOM     70  O   UNL A   1      45.779  37.319  33.444  1.00  0.00    -0.237 OA
ATOM     71  O   UNL A   1      44.233  38.106  31.686  1.00  0.00    -0.237 OA
ATOM     72  O   UNL A   1      43.361  37.491  33.908  1.00  0.00    -0.744 OA
ENDBRANCH  68  69
ENDBRANCH  49  63
BRANCH  50  73
ATOM     73  C   UNL A   1      42.520  23.769  27.852  1.00  0.00    -0.014 A 
ATOM     74  C   UNL A   1      41.805  22.782  28.555  1.00  0.00     0.010 A 
ATOM     75  C   UNL A   1      43.060  23.454  26.592  1.00  0.00     0.010 A 
ATOM     76  C   UNL A   1      41.654  21.499  28.020  1.00  0.00     0.020 A 
ATOM     77  C   UNL A   1      42.890  22.180  26.042  1.00  0.00     0.020 A 
ATOM     78  C   UNL A   1      42.198  21.206  26.767  1.00  0.00     0.054 A 
BRANCH  78  79
ATOM     79  S   UNL A   1      41.956  19.547  26.071  1.00  0.00     0.124 S 
ATOM     80  O   UNL A   1      42.766  19.605  24.858  1.00  0.00    -0.237 OA
ATOM     81  O   UNL A   1      42.465  18.681  27.132  1.00  0.00    -0.237 OA
ATOM     82  O   UNL A   1      40.513  19.475  25.858  1.00  0.00    -0.744 OA
ENDBRANCH  78  79
ENDBRANCH  50  73
BRANCH  62  83
ATOM     83  C   UNL A   1      47.923  27.015  30.830  1.00  0.00    -0.014 A 
ATOM     84  C   UNL A   1      49.015  27.381  30.022  1.00  0.00     0.010 A 
ATOM     85  C   UNL A   1      48.151  26.269  32.000  1.00  0.00     0.010 A 
ATOM     86  C   UNL A   1      50.309  26.981  30.366  1.00  0.00     0.020 A 
ATOM     87  C   UNL A   1      49.446  25.890  32.360  1.00  0.00     0.020 A 
ATOM     88  C   UNL A   1      50.516  26.238  31.533  1.00  0.00     0.054 A 
BRANCH  88  89
ATOM     89  S   UNL A   1      52.209  25.771  31.984  1.00  0.00     0.124 S 
ATOM     90  O   UNL A   1      52.001  24.497  32.667  1.00  0.00    -0.237 OA
ATOM     91  O   UNL A   1      52.876  25.688  30.688  1.00  0.00    -0.237 OA
ATOM     92  O   UNL A   1      52.656  26.871  32.837  1.00  0.00    -0.744 OA
ENDBRANCH  88  89
ENDBRANCH  62  83
ENDBRANCH  36  37
ENDBRANCH  28  31
ENDBRANCH  26  27
ENDBRANCH   1  26
TORSDOF 17
ENDMDL
MODEL 3
REMARK VINA RESULT:     -11.1      3.464      8.020
REMARK SMILES CC[C@@H]1CC[C@](C[C@@H]2CCCc3ccccc32)(C(=O)NCCCCNC(=O)c2ccc(-c3c4nc(c(-c5ccc(S(=O)(=O)[O-])cc5)c5ccc([nH]5)c(-c5ccc(S(=O)(=O)[O-])cc5)c5nc(c(-c6ccc(S(=O)(=O)[O-])cc6)c6ccc3[nH]6)C=C5)C=C4)cc2)C1
REMARK SMILES IDX 23 1 22 2 21 3 20 4 18 5 19 6 6 8 3 9 4 10 88 11 5 12 2 13
REMARK SMILES IDX 1 14 7 15 8 16 9 17 17 18 10 19 12 20 16 21 11 22 13 23
REMARK SMILES IDX 15 24 14 25 24 26 25 27 26 28 27 30 28 31 29 32 87 33 30 34
REMARK SMILES IDX 86 35 31 36 32 37 33 38 80 39 34 40 85 41 79 42 81 43 35 44
REMARK SMILES IDX 84 45 78 46 77 47 36 49 66 50 47 51 65 52 48 53 51 54 64 55
REMARK SMILES IDX 82 56 49 57 50 58 63 60 83 61 52 62 37 63 38 64 46 65 39 66
REMARK SMILES IDX 45 67 40 68 41 69 42 70 43 71 44 72 67 73 68 74 76 75 69 76
REMARK SMILES IDX 75 77 70 78 71 79 72 80 73 81 74 82 53 83 54 84 62 85 55 86
REMARK SMILES IDX 61 87 56 88 57 89 58 90 59 91 60 92
REMARK H PARENT 20 7 25 29 81 48 51 59
REMARK Flexibility Score: inf
ROOT
ATOM      1  C   UNL A   1      38.491  19.071  25.340  1.00  0.00     0.023 C 
ENDROOT
BRANCH   1   2
ATOM      2  C   UNL A   1      37.262  19.913  25.038  1.00  0.00     0.023 C 
BRANCH   2   3
ATOM      3  C   UNL A   1      37.468  21.422  25.093  1.00  0.00     0.116 C 
BRANCH   3   4
ATOM      4  N   UNL A   1      37.002  22.123  23.917  1.00  0.00    -0.356 N 
ATOM      5  C   UNL A   1      35.818  22.716  23.602  1.00  0.00     0.226 C 
ATOM      6  O   UNL A   1      35.845  23.397  22.569  1.00  0.00    -0.274 OA
ATOM      7  H   UNL A   1      37.674  22.184  23.202  1.00  0.00     0.163 HD
BRANCH   5   8
ATOM      8  C   UNL A   1      34.485  22.520  24.405  1.00  0.00     0.050 C 
ATOM      9  C   UNL A   1      32.804  20.732  24.216  1.00  0.00    -0.010 C 
ATOM     10  C   UNL A   1      32.519  21.743  23.117  1.00  0.00     0.005 C 
ATOM     11  C   UNL A   1      34.213  21.047  24.740  1.00  0.00     0.020 C 
ATOM     12  C   UNL A   1      33.326  22.980  23.493  1.00  0.00     0.017 C 
BRANCH   9  13
ATOM     13  C   UNL A   1      32.622  19.270  23.804  1.00  0.00     0.000 C 
ATOM     14  C   UNL A   1      33.777  18.398  24.277  1.00  0.00     0.004 C 
ENDBRANCH   9  13
BRANCH   8  15
ATOM     15  C   UNL A   1      34.644  23.378  25.720  1.00  0.00     0.025 C 
BRANCH  15  16
ATOM     16  C   UNL A   1      33.497  23.985  26.592  1.00  0.00     0.020 C 
ATOM     17  C   UNL A   1      32.466  23.028  27.211  1.00  0.00     0.009 C 
ATOM     18  C   UNL A   1      32.878  25.249  26.051  1.00  0.00    -0.042 A 
ATOM     19  C   UNL A   1      31.139  22.881  26.483  1.00  0.00     0.005 C 
ATOM     20  C   UNL A   1      31.547  25.289  25.617  1.00  0.00    -0.045 A 
ATOM     21  C   UNL A   1      33.670  26.410  25.958  1.00  0.00     0.004 A 
ATOM     22  C   UNL A   1      30.584  24.156  25.849  1.00  0.00     0.036 C 
ATOM     23  C   UNL A   1      31.071  26.456  24.994  1.00  0.00     0.004 A 
ATOM     24  C   UNL A   1      33.173  27.571  25.373  1.00  0.00     0.000 A 
ATOM     25  C   UNL A   1      31.881  27.585  24.865  1.00  0.00     0.000 A 
ENDBRANCH  15  16
ENDBRANCH   8  15
ENDBRANCH   5   8
ENDBRANCH   3   4
ENDBRANCH   2   3
ENDBRANCH   1   2
BRANCH   1  26
ATOM     26  C   UNL A   1      39.709  19.840  25.829  1.00  0.00     0.116 C 
BRANCH  26  27
ATOM     27  N   UNL A   1      40.918  19.032  25.968  1.00  0.00    -0.352 N 
ATOM     28  C   UNL A   1      42.182  19.445  26.319  1.00  0.00     0.251 C 
ATOM     29  H   UNL A   1      40.815  18.071  25.786  1.00  0.00     0.163 HD
ATOM     30  O   UNL A   1      43.114  18.648  26.362  1.00  0.00    -0.269 OA
BRANCH  28  31
ATOM     31  C   UNL A   1      42.400  20.879  26.584  1.00  0.00     0.039 A 
ATOM     32  C   UNL A   1      42.513  21.308  27.907  1.00  0.00     0.014 A 
ATOM     33  C   UNL A   1      42.631  21.757  25.522  1.00  0.00     0.014 A 
ATOM     34  C   UNL A   1      42.956  22.606  28.167  1.00  0.00     0.010 A 
ATOM     35  C   UNL A   1      43.162  23.011  25.784  1.00  0.00     0.010 A 
ATOM     36  C   UNL A   1      43.336  23.448  27.108  1.00  0.00    -0.014 A 
BRANCH  36  37
ATOM     37  C   UNL A   1      43.922  24.788  27.356  1.00  0.00     0.031 A 
ATOM     38  C   UNL A   1      43.036  25.915  27.812  1.00  0.00     0.074 A 
ATOM     39  C   UNL A   1      45.224  25.013  27.087  1.00  0.00     0.049 A 
ATOM     40  N   UNL A   1      43.334  27.174  28.001  1.00  0.00    -0.248 NA
ATOM     41  C   UNL A   1      41.618  25.592  28.051  1.00  0.00     0.031 C 
ATOM     42  C   UNL A   1      46.174  24.019  26.576  1.00  0.00     0.029 A 
ATOM     43  N   UNL A   1      45.975  26.156  27.199  1.00  0.00    -0.354 N 
ATOM     44  C   UNL A   1      42.139  27.795  28.343  1.00  0.00     0.074 A 
ATOM     45  C   UNL A   1      41.104  26.789  28.289  1.00  0.00     0.031 C 
ATOM     46  C   UNL A   1      47.383  24.589  26.445  1.00  0.00     0.029 A 
ATOM     47  C   UNL A   1      47.291  25.993  26.829  1.00  0.00     0.049 A 
ATOM     48  H   UNL A   1      45.607  27.013  27.514  1.00  0.00     0.167 HD
ATOM     49  C   UNL A   1      41.927  29.085  28.694  1.00  0.00     0.031 A 
ATOM     50  C   UNL A   1      48.306  26.878  26.801  1.00  0.00     0.031 A 
ATOM     51  C   UNL A   1      42.967  30.073  28.789  1.00  0.00     0.049 A 
ATOM     52  C   UNL A   1      48.054  28.294  27.240  1.00  0.00     0.074 A 
ATOM     53  C   UNL A   1      42.871  31.383  29.221  1.00  0.00     0.029 A 
ATOM     54  N   UNL A   1      44.294  29.855  28.455  1.00  0.00    -0.354 N 
ATOM     55  N   UNL A   1      46.932  28.844  27.642  1.00  0.00    -0.248 NA
ATOM     56  C   UNL A   1      49.207  29.206  27.238  1.00  0.00     0.031 C 
ATOM     57  C   UNL A   1      44.135  31.970  29.111  1.00  0.00     0.029 A 
ATOM     58  C   UNL A   1      45.026  31.012  28.656  1.00  0.00     0.049 A 
ATOM     59  H   UNL A   1      44.662  29.004  28.124  1.00  0.00     0.167 HD
ATOM     60  C   UNL A   1      47.250  30.158  27.965  1.00  0.00     0.074 A 
ATOM     61  C   UNL A   1      48.670  30.317  27.725  1.00  0.00     0.031 C 
ATOM     62  C   UNL A   1      46.440  31.146  28.418  1.00  0.00     0.031 A 
BRANCH  49  63
ATOM     63  C   UNL A   1      40.514  29.496  29.006  1.00  0.00    -0.014 A 
ATOM     64  C   UNL A   1      39.555  29.631  27.985  1.00  0.00     0.010 A 
ATOM     65  C   UNL A   1      40.131  29.724  30.340  1.00  0.00     0.010 A 
ATOM     66  C   UNL A   1      38.250  30.027  28.288  1.00  0.00     0.020 A 
ATOM     67  C   UNL A   1      38.820  30.095  30.650  1.00  0.00     0.020 A 
ATOM     68  C   UNL A   1      37.892  30.261  29.620  1.00  0.00     0.054 A 
BRANCH  68  69
ATOM     69  S   UNL A   1      36.186  30.751  29.988  1.00  0.00     0.124 S 
ATOM     70  O   UNL A   1      35.900  29.966  31.187  1.00  0.00    -0.237 OA
ATOM     71  O   UNL A   1      36.302  32.193  30.195  1.00  0.00    -0.237 OA
ATOM     72  O   UNL A   1      35.446  30.355  28.792  1.00  0.00    -0.744 OA
ENDBRANCH  68  69
ENDBRANCH  49  63
BRANCH  50  73
ATOM     73  C   UNL A   1      49.663  26.446  26.365  1.00  0.00    -0.014 A 
ATOM     74  C   UNL A   1      50.544  25.839  27.277  1.00  0.00     0.010 A 
ATOM     75  C   UNL A   1      50.082  26.641  25.037  1.00  0.00     0.010 A 
ATOM     76  C   UNL A   1      51.828  25.458  26.877  1.00  0.00     0.020 A 
ATOM     77  C   UNL A   1      51.356  26.238  24.625  1.00  0.00     0.020 A 
ATOM     78  C   UNL A   1      52.226  25.661  25.553  1.00  0.00     0.054 A 
BRANCH  78  79
ATOM     79  S   UNL A   1      53.883  25.122  25.043  1.00  0.00     0.124 S 
ATOM     80  O   UNL A   1      53.686  23.690  24.838  1.00  0.00    -0.237 OA
ATOM     81  O   UNL A   1      54.115  25.909  23.835  1.00  0.00    -0.237 OA
ATOM     82  O   UNL A   1      54.724  25.482  26.182  1.00  0.00    -0.744 OA
ENDBRANCH  78  79
ENDBRANCH  50  73
BRANCH  62  83
ATOM     83  C   UNL A   1      47.074  32.475  28.722  1.00  0.00    -0.014 A 
ATOM     84  C   UNL A   1      47.612  32.750  29.992  1.00  0.00     0.010 A 
ATOM     85  C   UNL A   1      47.185  33.438  27.703  1.00  0.00     0.010 A 
ATOM     86  C   UNL A   1      48.224  33.979  30.244  1.00  0.00     0.020 A 
ATOM     87  C   UNL A   1      47.820  34.658  27.945  1.00  0.00     0.020 A 
ATOM     88  C   UNL A   1      48.325  34.926  29.219  1.00  0.00     0.054 A 
BRANCH  88  89
ATOM     89  S   UNL A   1      49.166  36.496  29.557  1.00  0.00     0.124 S 
ATOM     90  O   UNL A   1      48.644  37.355  28.497  1.00  0.00    -0.237 OA
ATOM     91  O   UNL A   1      48.714  36.820  30.908  1.00  0.00    -0.237 OA
ATOM     92  O   UNL A   1      50.584  36.160  29.446  1.00  0.00    -0.744 OA
ENDBRANCH  88  89
ENDBRANCH  62  83
ENDBRANCH  36  37
ENDBRANCH  28  31
ENDBRANCH  26  27
ENDBRANCH   1  26
TORSDOF 17
ENDMDL
