MODEL 1
REMARK VINA RESULT:     -12.4      0.000      0.000
REMARK SMILES CC(C)[C@H](NC(=O)[C@H]1CC(=O)N(c2ccc(F)cc2)C1)C(=O)N1CCC[C@@H]1C(=O)NCCCCNC(=O)c1ccc(-c2c3nc(c(-c4ccc(S(=O)(=O)[O-])cc4)c4ccc([nH]4)c(-c4ccc(S(=O)(=O)[O-])cc4)c4nc(c(-c5ccc(S(=O)(=O)[O-])cc5)c5ccc2[nH]5)C=C4)C=C3)cc1
REMARK SMILES IDX 31 1 30 2 28 3 29 4 27 6 23 7 24 8 25 9 26 10 21 11 22 12
REMARK SMILES IDX 4 13 2 14 1 15 3 16 5 17 6 18 7 20 8 21 9 22 20 23 10 24
REMARK SMILES IDX 12 25 11 26 13 27 14 28 19 29 15 30 18 31 16 32 17 33 32 34
REMARK SMILES IDX 33 35 34 36 35 37 36 38 37 40 38 41 39 42 97 43 40 44 96 45
REMARK SMILES IDX 41 46 42 47 43 48 90 49 44 50 95 51 89 52 91 53 45 54 94 55
REMARK SMILES IDX 88 56 87 57 46 59 76 60 57 61 75 62 58 63 61 64 74 65 92 66
REMARK SMILES IDX 59 67 60 68 73 70 93 71 62 72 47 73 48 74 56 75 49 76 55 77
REMARK SMILES IDX 50 78 51 79 52 80 53 81 54 82 77 83 78 84 86 85 79 86 85 87
REMARK SMILES IDX 80 88 81 89 82 90 83 91 84 92 63 93 64 94 72 95 65 96 71 97
REMARK SMILES IDX 66 98 67 99 68 100 69 101 70 102
REMARK H PARENT 30 5 5 19 35 39 91 58 61 69
REMARK Flexibility Score: inf
ROOT
ATOM      1  C   UNL A   1      33.764  28.835  26.797  1.00  0.00     0.116 C 
ENDROOT
BRANCH   1   2
ATOM      2  N   UNL A   1      33.936  28.750  25.368  1.00  0.00    -0.354 N 
ATOM      3  C   UNL A   1      32.981  28.757  24.381  1.00  0.00     0.242 C 
ATOM      4  O   UNL A   1      33.391  28.923  23.226  1.00  0.00    -0.273 OA
ATOM      5  H   UNL A   1      34.867  28.678  25.056  1.00  0.00     0.163 HD
BRANCH   3   6
ATOM      6  C   UNL A   1      31.476  28.400  24.624  1.00  0.00     0.174 C 
ATOM      7  N   UNL A   1      31.019  26.996  24.618  1.00  0.00    -0.329 N 
ATOM      8  C   UNL A   1      29.722  26.909  23.981  1.00  0.00     0.120 C 
ATOM      9  C   UNL A   1      29.738  28.005  22.939  1.00  0.00     0.024 C 
ATOM     10  C   UNL A   1      30.601  29.101  23.561  1.00  0.00     0.037 C 
BRANCH   7  11
ATOM     11  C   UNL A   1      31.384  26.105  25.636  1.00  0.00     0.246 C 
ATOM     12  O   UNL A   1      31.270  26.392  26.826  1.00  0.00    -0.272 OA
BRANCH  11  13
ATOM     13  C   UNL A   1      32.210  24.826  25.181  1.00  0.00     0.174 C 
BRANCH  13  14
ATOM     14  C   UNL A   1      31.109  23.809  24.753  1.00  0.00     0.015 C 
ATOM     15  C   UNL A   1      31.262  23.166  23.365  1.00  0.00     0.010 C 
ATOM     16  C   UNL A   1      30.669  22.842  25.860  1.00  0.00     0.010 C 
ENDBRANCH  13  14
BRANCH  13  17
ATOM     17  N   UNL A   1      33.171  24.327  26.192  1.00  0.00    -0.344 N 
ATOM     18  C   UNL A   1      34.050  23.292  26.308  1.00  0.00     0.226 C 
ATOM     19  H   UNL A   1      33.179  24.896  26.995  1.00  0.00     0.164 HD
ATOM     20  O   UNL A   1      34.611  23.217  27.410  1.00  0.00    -0.275 OA
BRANCH  18  21
ATOM     21  C   UNL A   1      34.444  22.276  25.228  1.00  0.00     0.107 C 
ATOM     22  C   UNL A   1      35.864  21.731  25.443  1.00  0.00     0.116 C 
ATOM     23  C   UNL A   1      33.628  21.028  25.141  1.00  0.00     0.139 C 
ATOM     24  C   UNL A   1      35.817  20.280  25.000  1.00  0.00     0.227 C 
ATOM     25  N   UNL A   1      34.484  19.937  24.775  1.00  0.00    -0.312 N 
ATOM     26  O   UNL A   1      36.809  19.572  24.904  1.00  0.00    -0.274 OA
BRANCH  25  27
ATOM     27  C   UNL A   1      33.940  18.623  24.684  1.00  0.00     0.044 A 
ATOM     28  C   UNL A   1      34.579  17.605  23.961  1.00  0.00     0.029 A 
ATOM     29  C   UNL A   1      32.810  18.280  25.451  1.00  0.00     0.029 A 
ATOM     30  C   UNL A   1      34.141  16.278  24.065  1.00  0.00     0.041 A 
ATOM     31  C   UNL A   1      32.376  16.956  25.557  1.00  0.00     0.041 A 
ATOM     32  C   UNL A   1      33.059  15.963  24.877  1.00  0.00     0.123 A 
ATOM     33  F   UNL A   1      32.690  14.685  25.028  1.00  0.00    -0.207 F 
ENDBRANCH  25  27
ENDBRANCH  18  21
ENDBRANCH  13  17
ENDBRANCH  11  13
ENDBRANCH   7  11
ENDBRANCH   3   6
ENDBRANCH   1   2
BRANCH   1  34
ATOM     34  C   UNL A   1      32.569  29.610  27.325  1.00  0.00     0.023 C 
BRANCH  34  35
ATOM     35  C   UNL A   1      32.550  31.099  26.957  1.00  0.00     0.023 C 
BRANCH  35  36
ATOM     36  C   UNL A   1      33.496  32.035  27.720  1.00  0.00     0.116 C 
BRANCH  36  37
ATOM     37  N   UNL A   1      33.003  33.393  27.897  1.00  0.00    -0.352 N 
ATOM     38  C   UNL A   1      33.506  34.400  28.696  1.00  0.00     0.251 C 
ATOM     39  H   UNL A   1      32.203  33.626  27.374  1.00  0.00     0.163 HD
ATOM     40  O   UNL A   1      32.946  35.492  28.728  1.00  0.00    -0.269 OA
BRANCH  38  41
ATOM     41  C   UNL A   1      34.680  34.138  29.560  1.00  0.00     0.039 A 
ATOM     42  C   UNL A   1      34.465  33.662  30.857  1.00  0.00     0.014 A 
ATOM     43  C   UNL A   1      35.981  34.297  29.078  1.00  0.00     0.014 A 
ATOM     44  C   UNL A   1      35.552  33.249  31.632  1.00  0.00     0.010 A 
ATOM     45  C   UNL A   1      37.058  33.830  29.828  1.00  0.00     0.010 A 
ATOM     46  C   UNL A   1      36.853  33.281  31.102  1.00  0.00    -0.014 A 
BRANCH  46  47
ATOM     47  C   UNL A   1      38.001  32.697  31.841  1.00  0.00     0.031 A 
ATOM     48  C   UNL A   1      38.694  31.466  31.324  1.00  0.00     0.074 A 
ATOM     49  C   UNL A   1      38.369  33.236  33.022  1.00  0.00     0.049 A 
ATOM     50  N   UNL A   1      39.677  30.790  31.859  1.00  0.00    -0.248 NA
ATOM     51  C   UNL A   1      38.205  30.911  30.051  1.00  0.00     0.031 C 
ATOM     52  C   UNL A   1      37.741  34.401  33.653  1.00  0.00     0.029 A 
ATOM     53  N   UNL A   1      39.348  32.869  33.911  1.00  0.00    -0.354 N 
ATOM     54  C   UNL A   1      39.927  29.733  30.990  1.00  0.00     0.074 A 
ATOM     55  C   UNL A   1      38.956  29.826  29.922  1.00  0.00     0.031 C 
ATOM     56  C   UNL A   1      38.362  34.661  34.816  1.00  0.00     0.029 A 
ATOM     57  C   UNL A   1      39.403  33.663  35.035  1.00  0.00     0.049 A 
ATOM     58  H   UNL A   1      39.956  32.110  33.760  1.00  0.00     0.167 HD
ATOM     59  C   UNL A   1      40.891  28.785  31.065  1.00  0.00     0.031 A 
ATOM     60  C   UNL A   1      40.194  33.589  36.124  1.00  0.00     0.031 A 
ATOM     61  C   UNL A   1      41.848  28.692  32.138  1.00  0.00     0.049 A 
ATOM     62  C   UNL A   1      41.236  32.506  36.196  1.00  0.00     0.074 A 
ATOM     63  C   UNL A   1      42.890  27.793  32.283  1.00  0.00     0.029 A 
ATOM     64  N   UNL A   1      41.876  29.519  33.250  1.00  0.00    -0.354 N 
ATOM     65  N   UNL A   1      41.508  31.563  35.324  1.00  0.00    -0.248 NA
ATOM     66  C   UNL A   1      42.089  32.483  37.393  1.00  0.00     0.031 C 
ATOM     67  C   UNL A   1      43.512  28.040  33.509  1.00  0.00     0.029 A 
ATOM     68  C   UNL A   1      42.904  29.138  34.096  1.00  0.00     0.049 A 
ATOM     69  H   UNL A   1      41.259  30.269  33.412  1.00  0.00     0.167 HD
ATOM     70  C   UNL A   1      42.585  30.859  35.851  1.00  0.00     0.074 A 
ATOM     71  C   UNL A   1      42.926  31.495  37.107  1.00  0.00     0.031 C 
ATOM     72  C   UNL A   1      43.235  29.784  35.341  1.00  0.00     0.031 A 
BRANCH  59  73
ATOM     73  C   UNL A   1      40.971  27.773  29.952  1.00  0.00    -0.014 A 
ATOM     74  C   UNL A   1      39.873  26.947  29.648  1.00  0.00     0.010 A 
ATOM     75  C   UNL A   1      42.123  27.703  29.146  1.00  0.00     0.010 A 
ATOM     76  C   UNL A   1      39.933  26.056  28.574  1.00  0.00     0.020 A 
ATOM     77  C   UNL A   1      42.175  26.832  28.054  1.00  0.00     0.020 A 
ATOM     78  C   UNL A   1      41.083  26.008  27.779  1.00  0.00     0.054 A 
BRANCH  78  79
ATOM     79  S   UNL A   1      41.104  24.885  26.355  1.00  0.00     0.124 S 
ATOM     80  O   UNL A   1      42.400  24.228  26.507  1.00  0.00    -0.237 OA
ATOM     81  O   UNL A   1      39.938  24.041  26.597  1.00  0.00    -0.237 OA
ATOM     82  O   UNL A   1      40.994  25.779  25.204  1.00  0.00    -0.744 OA
ENDBRANCH  78  79
ENDBRANCH  59  73
BRANCH  60  83
ATOM     83  C   UNL A   1      40.036  34.568  37.237  1.00  0.00    -0.014 A 
ATOM     84  C   UNL A   1      39.152  34.310  38.301  1.00  0.00     0.010 A 
ATOM     85  C   UNL A   1      40.755  35.777  37.228  1.00  0.00     0.010 A 
ATOM     86  C   UNL A   1      38.962  35.257  39.312  1.00  0.00     0.020 A 
ATOM     87  C   UNL A   1      40.593  36.712  38.255  1.00  0.00     0.020 A 
ATOM     88  C   UNL A   1      39.683  36.454  39.281  1.00  0.00     0.054 A 
BRANCH  88  89
ATOM     89  S   UNL A   1      39.434  37.662  40.611  1.00  0.00     0.124 S 
ATOM     90  O   UNL A   1      38.290  38.423  40.121  1.00  0.00    -0.237 OA
ATOM     91  O   UNL A   1      39.178  36.807  41.768  1.00  0.00    -0.237 OA
ATOM     92  O   UNL A   1      40.701  38.390  40.653  1.00  0.00    -0.744 OA
ENDBRANCH  88  89
ENDBRANCH  60  83
BRANCH  72  93
ATOM     93  C   UNL A   1      44.410  29.251  36.118  1.00  0.00    -0.014 A 
ATOM     94  C   UNL A   1      44.263  28.205  37.046  1.00  0.00     0.010 A 
ATOM     95  C   UNL A   1      45.694  29.773  35.873  1.00  0.00     0.010 A 
ATOM     96  C   UNL A   1      45.371  27.717  37.742  1.00  0.00     0.020 A 
ATOM     97  C   UNL A   1      46.810  29.265  36.541  1.00  0.00     0.020 A 
ATOM     98  C   UNL A   1      46.639  28.249  37.484  1.00  0.00     0.054 A 
BRANCH  98  99
ATOM     99  S   UNL A   1      48.067  27.569  38.371  1.00  0.00     0.124 S 
ATOM    100  O   UNL A   1      47.477  26.430  39.069  1.00  0.00    -0.237 OA
ATOM    101  O   UNL A   1      48.986  27.233  37.285  1.00  0.00    -0.237 OA
ATOM    102  O   UNL A   1      48.501  28.668  39.228  1.00  0.00    -0.744 OA
ENDBRANCH  98  99
ENDBRANCH  72  93
ENDBRANCH  46  47
ENDBRANCH  38  41
ENDBRANCH  36  37
ENDBRANCH  35  36
ENDBRANCH  34  35
ENDBRANCH   1  34
TORSDOF 20
ENDMDL
MODEL 2
REMARK VINA RESULT:     -12.1      0.545      7.711
REMARK SMILES CC(C)[C@H](NC(=O)[C@H]1CC(=O)N(c2ccc(F)cc2)C1)C(=O)N1CCC[C@@H]1C(=O)NCCCCNC(=O)c1ccc(-c2c3nc(c(-c4ccc(S(=O)(=O)[O-])cc4)c4ccc([nH]4)c(-c4ccc(S(=O)(=O)[O-])cc4)c4nc(c(-c5ccc(S(=O)(=O)[O-])cc5)c5ccc2[nH]5)C=C4)C=C3)cc1
REMARK SMILES IDX 31 1 30 2 28 3 29 4 27 6 23 7 24 8 25 9 26 10 21 11 22 12
REMARK SMILES IDX 4 13 2 14 1 15 3 16 5 17 6 18 7 20 8 21 9 22 20 23 10 24
REMARK SMILES IDX 12 25 11 26 13 27 14 28 19 29 15 30 18 31 16 32 17 33 32 34
REMARK SMILES IDX 33 35 34 36 35 37 36 38 37 40 38 41 39 42 97 43 40 44 96 45
REMARK SMILES IDX 41 46 42 47 43 48 90 49 44 50 95 51 89 52 91 53 45 54 94 55
REMARK SMILES IDX 88 56 87 57 46 59 76 60 57 61 75 62 58 63 61 64 74 65 92 66
REMARK SMILES IDX 59 67 60 68 73 70 93 71 62 72 47 73 48 74 56 75 49 76 55 77
REMARK SMILES IDX 50 78 51 79 52 80 53 81 54 82 77 83 78 84 86 85 79 86 85 87
REMARK SMILES IDX 80 88 81 89 82 90 83 91 84 92 63 93 64 94 72 95 65 96 71 97
REMARK SMILES IDX 66 98 67 99 68 100 69 101 70 102
REMARK H PARENT 30 5 5 19 35 39 91 58 61 69
REMARK Flexibility Score: inf
ROOT
ATOM      1  C   UNL A   1      33.497  28.840  26.637  1.00  0.00     0.116 C 
ENDROOT
BRANCH   1   2
ATOM      2  N   UNL A   1      33.647  28.757  25.206  1.00  0.00    -0.354 N 
ATOM      3  C   UNL A   1      32.674  28.732  24.236  1.00  0.00     0.242 C 
ATOM      4  O   UNL A   1      33.059  28.908  23.073  1.00  0.00    -0.273 OA
ATOM      5  H   UNL A   1      34.573  28.713  24.877  1.00  0.00     0.163 HD
BRANCH   3   6
ATOM      6  C   UNL A   1      31.186  28.328  24.505  1.00  0.00     0.174 C 
ATOM      7  N   UNL A   1      30.775  26.909  24.518  1.00  0.00    -0.329 N 
ATOM      8  C   UNL A   1      29.471  26.775  23.903  1.00  0.00     0.120 C 
ATOM      9  C   UNL A   1      29.436  27.863  22.852  1.00  0.00     0.024 C 
ATOM     10  C   UNL A   1      30.272  28.991  23.451  1.00  0.00     0.037 C 
BRANCH   7  11
ATOM     11  C   UNL A   1      31.185  26.039  25.537  1.00  0.00     0.246 C 
ATOM     12  O   UNL A   1      31.065  26.325  26.727  1.00  0.00    -0.272 OA
BRANCH  11  13
ATOM     13  C   UNL A   1      32.065  24.798  25.081  1.00  0.00     0.174 C 
BRANCH  13  14
ATOM     14  C   UNL A   1      31.008  23.728  24.669  1.00  0.00     0.015 C 
ATOM     15  C   UNL A   1      31.182  23.080  23.286  1.00  0.00     0.010 C 
ATOM     16  C   UNL A   1      30.619  22.752  25.787  1.00  0.00     0.010 C 
ENDBRANCH  13  14
BRANCH  13  17
ATOM     17  N   UNL A   1      33.058  24.349  26.086  1.00  0.00    -0.344 N 
ATOM     18  C   UNL A   1      33.958  23.335  26.216  1.00  0.00     0.226 C 
ATOM     19  H   UNL A   1      33.071  24.943  26.871  1.00  0.00     0.164 HD
ATOM     20  O   UNL A   1      34.545  23.306  27.307  1.00  0.00    -0.275 OA
BRANCH  18  21
ATOM     21  C   UNL A   1      34.350  22.293  25.160  1.00  0.00     0.107 C 
ATOM     22  C   UNL A   1      35.762  21.737  25.397  1.00  0.00     0.116 C 
ATOM     23  C   UNL A   1      33.520  21.053  25.091  1.00  0.00     0.139 C 
ATOM     24  C   UNL A   1      35.701  20.278  24.983  1.00  0.00     0.227 C 
ATOM     25  N   UNL A   1      34.367  19.945  24.754  1.00  0.00    -0.312 N 
ATOM     26  O   UNL A   1      36.686  19.556  24.910  1.00  0.00    -0.274 OA
BRANCH  25  27
ATOM     27  C   UNL A   1      33.808  18.636  24.684  1.00  0.00     0.044 A 
ATOM     28  C   UNL A   1      34.254  17.689  23.752  1.00  0.00     0.029 A 
ATOM     29  C   UNL A   1      32.886  18.217  25.663  1.00  0.00     0.029 A 
ATOM     30  C   UNL A   1      33.844  16.352  23.846  1.00  0.00     0.041 A 
ATOM     31  C   UNL A   1      32.480  16.884  25.758  1.00  0.00     0.041 A 
ATOM     32  C   UNL A   1      32.979  15.957  24.859  1.00  0.00     0.123 A 
ATOM     33  F   UNL A   1      32.648  14.667  24.987  1.00  0.00    -0.207 F 
ENDBRANCH  25  27
ENDBRANCH  18  21
ENDBRANCH  13  17
ENDBRANCH  11  13
ENDBRANCH   7  11
ENDBRANCH   3   6
ENDBRANCH   1   2
BRANCH   1  34
ATOM     34  C   UNL A   1      32.359  29.683  27.186  1.00  0.00     0.023 C 
BRANCH  34  35
ATOM     35  C   UNL A   1      32.475  31.187  26.906  1.00  0.00     0.023 C 
BRANCH  35  36
ATOM     36  C   UNL A   1      33.366  32.021  27.835  1.00  0.00     0.116 C 
BRANCH  36  37
ATOM     37  N   UNL A   1      32.990  33.421  27.951  1.00  0.00    -0.352 N 
ATOM     38  C   UNL A   1      33.598  34.425  28.677  1.00  0.00     0.251 C 
ATOM     39  H   UNL A   1      32.192  33.690  27.441  1.00  0.00     0.163 HD
ATOM     40  O   UNL A   1      33.128  35.558  28.666  1.00  0.00    -0.269 OA
BRANCH  38  41
ATOM     41  C   UNL A   1      34.778  34.115  29.517  1.00  0.00     0.039 A 
ATOM     42  C   UNL A   1      34.572  33.557  30.783  1.00  0.00     0.014 A 
ATOM     43  C   UNL A   1      36.076  34.309  29.039  1.00  0.00     0.014 A 
ATOM     44  C   UNL A   1      35.665  33.102  31.525  1.00  0.00     0.010 A 
ATOM     45  C   UNL A   1      37.158  33.800  29.753  1.00  0.00     0.010 A 
ATOM     46  C   UNL A   1      36.963  33.172  30.991  1.00  0.00    -0.014 A 
BRANCH  46  47
ATOM     47  C   UNL A   1      38.118  32.548  31.687  1.00  0.00     0.031 A 
ATOM     48  C   UNL A   1      38.612  33.108  32.993  1.00  0.00     0.074 A 
ATOM     49  C   UNL A   1      38.767  31.523  31.099  1.00  0.00     0.049 A 
ATOM     50  N   UNL A   1      39.633  32.726  33.717  1.00  0.00    -0.248 NA
ATOM     51  C   UNL A   1      37.877  34.256  33.548  1.00  0.00     0.031 C 
ATOM     52  C   UNL A   1      38.413  30.926  29.808  1.00  0.00     0.029 A 
ATOM     53  N   UNL A   1      39.869  30.809  31.499  1.00  0.00    -0.354 N 
ATOM     54  C   UNL A   1      39.662  33.583  34.811  1.00  0.00     0.074 A 
ATOM     55  C   UNL A   1      38.592  34.539  34.629  1.00  0.00     0.031 C 
ATOM     56  C   UNL A   1      39.270  29.928  29.533  1.00  0.00     0.029 A 
ATOM     57  C   UNL A   1      40.257  29.838  30.604  1.00  0.00     0.049 A 
ATOM     58  H   UNL A   1      40.339  30.976  32.348  1.00  0.00     0.167 HD
ATOM     59  C   UNL A   1      40.493  33.562  35.880  1.00  0.00     0.031 A 
ATOM     60  C   UNL A   1      41.295  28.979  30.635  1.00  0.00     0.031 A 
ATOM     61  C   UNL A   1      41.564  32.615  36.050  1.00  0.00     0.049 A 
ATOM     62  C   UNL A   1      42.222  28.999  31.821  1.00  0.00     0.074 A 
ATOM     63  C   UNL A   1      42.435  32.485  37.119  1.00  0.00     0.029 A 
ATOM     64  N   UNL A   1      41.917  31.642  35.128  1.00  0.00    -0.354 N 
ATOM     65  N   UNL A   1      42.184  29.766  32.885  1.00  0.00    -0.248 NA
ATOM     66  C   UNL A   1      43.324  28.027  31.820  1.00  0.00     0.031 C 
ATOM     67  C   UNL A   1      43.348  31.471  36.817  1.00  0.00     0.029 A 
ATOM     68  C   UNL A   1      43.005  30.922  35.592  1.00  0.00     0.049 A 
ATOM     69  H   UNL A   1      41.459  31.484  34.270  1.00  0.00     0.167 HD
ATOM     70  C   UNL A   1      43.234  29.345  33.694  1.00  0.00     0.074 A 
ATOM     71  C   UNL A   1      43.877  28.245  33.005  1.00  0.00     0.031 C 
ATOM     72  C   UNL A   1      43.630  29.825  34.898  1.00  0.00     0.031 A 
BRANCH  59  73
ATOM     73  C   UNL A   1      40.274  34.588  36.962  1.00  0.00    -0.014 A 
ATOM     74  C   UNL A   1      41.036  35.771  36.999  1.00  0.00     0.010 A 
ATOM     75  C   UNL A   1      39.242  34.410  37.901  1.00  0.00     0.010 A 
ATOM     76  C   UNL A   1      40.784  36.746  37.967  1.00  0.00     0.020 A 
ATOM     77  C   UNL A   1      38.969  35.397  38.854  1.00  0.00     0.020 A 
ATOM     78  C   UNL A   1      39.747  36.555  38.886  1.00  0.00     0.054 A 
BRANCH  78  79
ATOM     79  S   UNL A   1      39.405  37.868  40.090  1.00  0.00     0.124 S 
ATOM     80  O   UNL A   1      40.576  38.728  39.940  1.00  0.00    -0.237 OA
ATOM     81  O   UNL A   1      38.148  38.427  39.603  1.00  0.00    -0.237 OA
ATOM     82  O   UNL A   1      39.315  37.158  41.364  1.00  0.00    -0.744 OA
ENDBRANCH  78  79
ENDBRANCH  59  73
BRANCH  60  83
ATOM     83  C   UNL A   1      41.518  28.026  29.511  1.00  0.00    -0.014 A 
ATOM     84  C   UNL A   1      40.724  26.873  29.379  1.00  0.00     0.010 A 
ATOM     85  C   UNL A   1      42.544  28.257  28.576  1.00  0.00     0.010 A 
ATOM     86  C   UNL A   1      40.976  25.951  28.358  1.00  0.00     0.020 A 
ATOM     87  C   UNL A   1      42.777  27.355  27.535  1.00  0.00     0.020 A 
ATOM     88  C   UNL A   1      42.003  26.197  27.443  1.00  0.00     0.054 A 
BRANCH  88  89
ATOM     89  S   UNL A   1      42.302  24.997  26.116  1.00  0.00     0.124 S 
ATOM     90  O   UNL A   1      41.327  23.955  26.423  1.00  0.00    -0.237 OA
ATOM     91  O   UNL A   1      42.033  25.782  24.915  1.00  0.00    -0.237 OA
ATOM     92  O   UNL A   1      43.701  24.620  26.304  1.00  0.00    -0.744 OA
ENDBRANCH  88  89
ENDBRANCH  60  83
BRANCH  72  93
ATOM     93  C   UNL A   1      44.788  29.137  35.573  1.00  0.00    -0.014 A 
ATOM     94  C   UNL A   1      44.592  28.036  36.425  1.00  0.00     0.010 A 
ATOM     95  C   UNL A   1      46.101  29.569  35.304  1.00  0.00     0.010 A 
ATOM     96  C   UNL A   1      45.684  27.405  37.026  1.00  0.00     0.020 A 
ATOM     97  C   UNL A   1      47.197  28.920  35.876  1.00  0.00     0.020 A 
ATOM     98  C   UNL A   1      46.980  27.850  36.746  1.00  0.00     0.054 A 
BRANCH  98  99
ATOM     99  S   UNL A   1      48.382  26.986  37.506  1.00  0.00     0.124 S 
ATOM    100  O   UNL A   1      47.712  25.957  38.298  1.00  0.00    -0.237 OA
ATOM    101  O   UNL A   1      49.124  26.501  36.345  1.00  0.00    -0.237 OA
ATOM    102  O   UNL A   1      49.054  28.026  38.279  1.00  0.00    -0.744 OA
ENDBRANCH  98  99
ENDBRANCH  72  93
ENDBRANCH  46  47
ENDBRANCH  38  41
ENDBRANCH  36  37
ENDBRANCH  35  36
ENDBRANCH  34  35
ENDBRANCH   1  34
TORSDOF 20
ENDMDL
MODEL 3
REMARK VINA RESULT:     -12.1      5.951     10.388
REMARK SMILES CC(C)[C@H](NC(=O)[C@H]1CC(=O)N(c2ccc(F)cc2)C1)C(=O)N1CCC[C@@H]1C(=O)NCCCCNC(=O)c1ccc(-c2c3nc(c(-c4ccc(S(=O)(=O)[O-])cc4)c4ccc([nH]4)c(-c4ccc(S(=O)(=O)[O-])cc4)c4nc(c(-c5ccc(S(=O)(=O)[O-])cc5)c5ccc2[nH]5)C=C4)C=C3)cc1
REMARK SMILES IDX 31 1 30 2 28 3 29 4 27 6 23 7 24 8 25 9 26 10 21 11 22 12
REMARK SMILES IDX 4 13 2 14 1 15 3 16 5 17 6 18 7 20 8 21 9 22 20 23 10 24
REMARK SMILES IDX 12 25 11 26 13 27 14 28 19 29 15 30 18 31 16 32 17 33 32 34
REMARK SMILES IDX 33 35 34 36 35 37 36 38 37 40 38 41 39 42 97 43 40 44 96 45
REMARK SMILES IDX 41 46 42 47 43 48 90 49 44 50 95 51 89 52 91 53 45 54 94 55
REMARK SMILES IDX 88 56 87 57 46 59 76 60 57 61 75 62 58 63 61 64 74 65 92 66
REMARK SMILES IDX 59 67 60 68 73 70 93 71 62 72 47 73 48 74 56 75 49 76 55 77
REMARK SMILES IDX 50 78 51 79 52 80 53 81 54 82 77 83 78 84 86 85 79 86 85 87
REMARK SMILES IDX 80 88 81 89 82 90 83 91 84 92 63 93 64 94 72 95 65 96 71 97
REMARK SMILES IDX 66 98 67 99 68 100 69 101 70 102
REMARK H PARENT 30 5 5 19 35 39 91 58 61 69
REMARK Flexibility Score: inf
ROOT
ATOM      1  C   UNL A   1      33.302  29.496  26.710  1.00  0.00     0.116 C 
ENDROOT
BRANCH   1   2
ATOM      2  N   UNL A   1      33.586  29.313  25.308  1.00  0.00    -0.354 N 
ATOM      3  C   UNL A   1      32.710  29.232  24.253  1.00  0.00     0.242 C 
ATOM      4  O   UNL A   1      33.208  29.322  23.124  1.00  0.00    -0.273 OA
ATOM      5  H   UNL A   1      34.539  29.234  25.075  1.00  0.00     0.163 HD
BRANCH   3   6
ATOM      6  C   UNL A   1      31.195  28.867  24.404  1.00  0.00     0.174 C 
ATOM      7  N   UNL A   1      30.605  27.750  23.639  1.00  0.00    -0.329 N 
ATOM      8  C   UNL A   1      29.269  28.106  23.211  1.00  0.00     0.120 C 
ATOM      9  C   UNL A   1      29.329  29.602  22.994  1.00  0.00     0.024 C 
ATOM     10  C   UNL A   1      30.330  30.093  24.038  1.00  0.00     0.037 C 
BRANCH   7  11
ATOM     11  C   UNL A   1      30.943  26.418  23.914  1.00  0.00     0.246 C 
ATOM     12  O   UNL A   1      30.552  25.487  23.212  1.00  0.00    -0.272 OA
BRANCH  11  13
ATOM     13  C   UNL A   1      31.614  26.146  25.329  1.00  0.00     0.174 C 
BRANCH  13  14
ATOM     14  C   UNL A   1      33.023  25.585  24.967  1.00  0.00     0.015 C 
ATOM     15  C   UNL A   1      33.513  25.821  23.529  1.00  0.00     0.010 C 
ATOM     16  C   UNL A   1      34.091  25.796  26.048  1.00  0.00     0.010 C 
ENDBRANCH  13  14
BRANCH  13  17
ATOM     17  N   UNL A   1      30.809  25.294  26.235  1.00  0.00    -0.344 N 
ATOM     18  C   UNL A   1      30.548  23.965  26.386  1.00  0.00     0.226 C 
ATOM     19  H   UNL A   1      30.337  25.831  26.911  1.00  0.00     0.164 HD
ATOM     20  O   UNL A   1      29.718  23.702  27.267  1.00  0.00    -0.275 OA
BRANCH  18  21
ATOM     21  C   UNL A   1      31.200  22.795  25.638  1.00  0.00     0.107 C 
ATOM     22  C   UNL A   1      31.080  22.948  24.114  1.00  0.00     0.116 C 
ATOM     23  C   UNL A   1      32.669  22.603  25.829  1.00  0.00     0.139 C 
ATOM     24  C   UNL A   1      32.365  22.376  23.543  1.00  0.00     0.227 C 
ATOM     25  N   UNL A   1      33.241  22.133  24.600  1.00  0.00    -0.312 N 
ATOM     26  O   UNL A   1      32.555  22.208  22.347  1.00  0.00    -0.274 OA
BRANCH  25  27
ATOM     27  C   UNL A   1      34.649  21.927  24.519  1.00  0.00     0.044 A 
ATOM     28  C   UNL A   1      35.525  22.949  24.127  1.00  0.00     0.029 A 
ATOM     29  C   UNL A   1      35.206  20.720  24.981  1.00  0.00     0.029 A 
ATOM     30  C   UNL A   1      36.910  22.788  24.263  1.00  0.00     0.041 A 
ATOM     31  C   UNL A   1      36.587  20.561  25.120  1.00  0.00     0.041 A 
ATOM     32  C   UNL A   1      37.428  21.606  24.778  1.00  0.00     0.123 A 
ATOM     33  F   UNL A   1      38.746  21.485  24.972  1.00  0.00    -0.207 F 
ENDBRANCH  25  27
ENDBRANCH  18  21
ENDBRANCH  13  17
ENDBRANCH  11  13
ENDBRANCH   7  11
ENDBRANCH   3   6
ENDBRANCH   1   2
BRANCH   1  34
ATOM     34  C   UNL A   1      33.677  30.824  27.344  1.00  0.00     0.023 C 
BRANCH  34  35
ATOM     35  C   UNL A   1      35.177  31.147  27.328  1.00  0.00     0.023 C 
BRANCH  35  36
ATOM     36  C   UNL A   1      35.810  31.666  28.625  1.00  0.00     0.116 C 
BRANCH  36  37
ATOM     37  N   UNL A   1      35.615  30.813  29.787  1.00  0.00    -0.352 N 
ATOM     38  C   UNL A   1      36.537  30.031  30.452  1.00  0.00     0.251 C 
ATOM     39  H   UNL A   1      34.700  30.790  30.148  1.00  0.00     0.163 HD
ATOM     40  O   UNL A   1      36.187  29.359  31.417  1.00  0.00    -0.269 OA
BRANCH  38  41
ATOM     41  C   UNL A   1      37.932  29.957  29.959  1.00  0.00     0.039 A 
ATOM     42  C   UNL A   1      38.976  30.162  30.866  1.00  0.00     0.014 A 
ATOM     43  C   UNL A   1      38.213  29.622  28.633  1.00  0.00     0.014 A 
ATOM     44  C   UNL A   1      40.296  29.933  30.467  1.00  0.00     0.010 A 
ATOM     45  C   UNL A   1      39.522  29.336  28.253  1.00  0.00     0.010 A 
ATOM     46  C   UNL A   1      40.573  29.467  29.171  1.00  0.00    -0.014 A 
BRANCH  46  47
ATOM     47  C   UNL A   1      41.946  29.060  28.776  1.00  0.00     0.031 A 
ATOM     48  C   UNL A   1      43.047  30.082  28.686  1.00  0.00     0.074 A 
ATOM     49  C   UNL A   1      42.180  27.779  28.424  1.00  0.00     0.049 A 
ATOM     50  N   UNL A   1      44.290  29.921  28.312  1.00  0.00    -0.248 NA
ATOM     51  C   UNL A   1      42.701  31.468  29.043  1.00  0.00     0.031 C 
ATOM     52  C   UNL A   1      41.181  26.706  28.422  1.00  0.00     0.029 A 
ATOM     53  N   UNL A   1      43.325  27.162  27.986  1.00  0.00    -0.354 N 
ATOM     54  C   UNL A   1      44.875  31.180  28.390  1.00  0.00     0.074 A 
ATOM     55  C   UNL A   1      43.838  32.103  28.794  1.00  0.00     0.031 C 
ATOM     56  C   UNL A   1      41.762  25.563  28.020  1.00  0.00     0.029 A 
ATOM     57  C   UNL A   1      43.160  25.826  27.698  1.00  0.00     0.049 A 
ATOM     58  H   UNL A   1      44.185  27.631  27.887  1.00  0.00     0.167 HD
ATOM     59  C   UNL A   1      46.164  31.529  28.165  1.00  0.00     0.031 A 
ATOM     60  C   UNL A   1      44.032  24.917  27.218  1.00  0.00     0.031 A 
ATOM     61  C   UNL A   1      47.189  30.606  27.752  1.00  0.00     0.049 A 
ATOM     62  C   UNL A   1      45.451  25.341  26.947  1.00  0.00     0.074 A 
ATOM     63  C   UNL A   1      48.534  30.855  27.540  1.00  0.00     0.029 A 
ATOM     64  N   UNL A   1      46.984  29.262  27.482  1.00  0.00    -0.354 N 
ATOM     65  N   UNL A   1      46.004  26.520  27.104  1.00  0.00    -0.248 NA
ATOM     66  C   UNL A   1      46.369  24.307  26.448  1.00  0.00     0.031 C 
ATOM     67  C   UNL A   1      49.130  29.675  27.088  1.00  0.00     0.029 A 
ATOM     68  C   UNL A   1      48.173  28.673  27.084  1.00  0.00     0.049 A 
ATOM     69  H   UNL A   1      46.122  28.794  27.564  1.00  0.00     0.167 HD
ATOM     70  C   UNL A   1      47.341  26.361  26.757  1.00  0.00     0.074 A 
ATOM     71  C   UNL A   1      47.518  24.969  26.400  1.00  0.00     0.031 C 
ATOM     72  C   UNL A   1      48.334  27.284  26.737  1.00  0.00     0.031 A 
BRANCH  59  73
ATOM     73  C   UNL A   1      46.548  32.972  28.371  1.00  0.00    -0.014 A 
ATOM     74  C   UNL A   1      46.459  33.899  27.316  1.00  0.00     0.010 A 
ATOM     75  C   UNL A   1      46.920  33.424  29.650  1.00  0.00     0.010 A 
ATOM     76  C   UNL A   1      46.757  35.247  27.531  1.00  0.00     0.020 A 
ATOM     77  C   UNL A   1      47.191  34.778  29.875  1.00  0.00     0.020 A 
ATOM     78  C   UNL A   1      47.116  35.679  28.812  1.00  0.00     0.054 A 
BRANCH  78  79
ATOM     79  S   UNL A   1      47.434  37.446  29.071  1.00  0.00     0.124 S 
ATOM     80  O   UNL A   1      48.070  37.827  27.813  1.00  0.00    -0.237 OA
ATOM     81  O   UNL A   1      46.094  37.983  29.286  1.00  0.00    -0.237 OA
ATOM     82  O   UNL A   1      48.308  37.475  30.242  1.00  0.00    -0.744 OA
ENDBRANCH  78  79
ENDBRANCH  59  73
BRANCH  60  83
ATOM     83  C   UNL A   1      43.594  23.516  26.961  1.00  0.00    -0.014 A 
ATOM     84  C   UNL A   1      43.552  23.005  25.651  1.00  0.00     0.010 A 
ATOM     85  C   UNL A   1      43.196  22.688  28.027  1.00  0.00     0.010 A 
ATOM     86  C   UNL A   1      43.083  21.710  25.409  1.00  0.00     0.020 A 
ATOM     87  C   UNL A   1      42.760  21.382  27.793  1.00  0.00     0.020 A 
ATOM     88  C   UNL A   1      42.688  20.906  26.482  1.00  0.00     0.054 A 
BRANCH  88  89
ATOM     89  S   UNL A   1      42.101  19.224  26.147  1.00  0.00     0.124 S 
ATOM     90  O   UNL A   1      40.678  19.441  25.905  1.00  0.00    -0.237 OA
ATOM     91  O   UNL A   1      42.891  18.841  24.979  1.00  0.00    -0.237 OA
ATOM     92  O   UNL A   1      42.425  18.498  27.374  1.00  0.00    -0.744 OA
ENDBRANCH  88  89
ENDBRANCH  60  83
BRANCH  72  93
ATOM     93  C   UNL A   1      49.713  26.811  26.357  1.00  0.00    -0.014 A 
ATOM     94  C   UNL A   1      50.583  26.245  27.306  1.00  0.00     0.010 A 
ATOM     95  C   UNL A   1      50.123  26.888  25.013  1.00  0.00     0.010 A 
ATOM     96  C   UNL A   1      51.850  25.800  26.924  1.00  0.00     0.020 A 
ATOM     97  C   UNL A   1      51.377  26.413  24.621  1.00  0.00     0.020 A 
ATOM     98  C   UNL A   1      52.239  25.885  25.584  1.00  0.00     0.054 A 
BRANCH  98  99
ATOM     99  S   UNL A   1      53.874  25.261  25.108  1.00  0.00     0.124 S 
ATOM    100  O   UNL A   1      54.214  26.125  23.981  1.00  0.00    -0.237 OA
ATOM    101  O   UNL A   1      54.661  25.472  26.321  1.00  0.00    -0.237 OA
ATOM    102  O   UNL A   1      53.627  23.862  24.768  1.00  0.00    -0.744 OA
ENDBRANCH  98  99
ENDBRANCH  72  93
ENDBRANCH  46  47
ENDBRANCH  38  41
ENDBRANCH  36  37
ENDBRANCH  35  36
ENDBRANCH  34  35
ENDBRANCH   1  34
TORSDOF 20
ENDMDL
