MODEL 1
REMARK VINA RESULT:     -10.4      0.000      0.000
REMARK SMILES O=C(Cc1cccc(-c2ccn(C(F)F)c(=O)c2)c1)NCCCCNC(=O)c1ccc(-c2c3nc(c(-c4ccc(S(=O)(=O)[O-])cc4)c4ccc([nH]4)c(-c4ccc(S(=O)(=O)[O-])cc4)c4nc(c(-c5ccc(S(=O)(=O)[O-])cc5)c5ccc2[nH]5)C=C4)C=C3)cc1
REMARK SMILES IDX 22 1 21 2 20 3 1 4 2 5 3 7 4 8 5 9 19 10 6 11 8 12 7 13 9 14
REMARK SMILES IDX 10 15 18 16 11 17 16 18 12 19 17 20 13 21 14 22 15 23 23 24
REMARK SMILES IDX 24 25 25 26 26 27 27 29 28 30 29 31 87 32 30 33 86 34 31 35
REMARK SMILES IDX 32 36 33 37 80 38 34 39 85 40 79 41 81 42 35 43 84 44 78 45
REMARK SMILES IDX 77 46 36 48 66 49 47 50 65 51 48 52 51 53 64 54 82 55 49 56
REMARK SMILES IDX 50 57 63 59 83 60 52 61 37 62 38 63 46 64 39 65 45 66 40 67
REMARK SMILES IDX 41 68 42 69 43 70 44 71 67 72 68 73 76 74 69 75 75 76 70 77
REMARK SMILES IDX 71 78 72 79 73 80 74 81 53 82 54 83 62 84 55 85 61 86 56 87
REMARK SMILES IDX 57 88 58 89 59 90 60 91
REMARK H PARENT 20 6 25 28 81 47 51 58
REMARK Flexibility Score: inf
ROOT
ATOM      1  C   UNL A   1      35.189  22.473  26.563  1.00  0.00     0.023 C 
ENDROOT
BRANCH   1   2
ATOM      2  C   UNL A   1      34.116  21.404  26.357  1.00  0.00     0.116 C 
BRANCH   2   3
ATOM      3  N   UNL A   1      32.875  21.976  25.877  1.00  0.00    -0.356 N 
ATOM      4  O   UNL A   1      32.088  22.699  27.913  1.00  0.00    -0.275 OA
ATOM      5  C   UNL A   1      31.964  22.611  26.695  1.00  0.00     0.224 C 
ATOM      6  H   UNL A   1      32.672  21.907  24.916  1.00  0.00     0.163 HD
BRANCH   5   7
ATOM      7  C   UNL A   1      30.763  23.181  25.952  1.00  0.00     0.135 C 
BRANCH   7   8
ATOM      8  C   UNL A   1      31.094  24.404  25.127  1.00  0.00    -0.038 A 
ATOM      9  C   UNL A   1      30.743  24.475  23.774  1.00  0.00     0.004 A 
ATOM     10  C   UNL A   1      31.755  25.499  25.704  1.00  0.00     0.013 A 
ATOM     11  C   UNL A   1      31.044  25.612  23.021  1.00  0.00     0.001 A 
ATOM     12  C   UNL A   1      32.030  26.659  24.968  1.00  0.00    -0.018 A 
ATOM     13  C   UNL A   1      31.679  26.704  23.616  1.00  0.00     0.009 A 
BRANCH  12  14
ATOM     14  C   UNL A   1      32.637  27.809  25.664  1.00  0.00    -0.011 A 
ATOM     15  C   UNL A   1      33.899  27.730  26.376  1.00  0.00     0.027 A 
ATOM     16  C   UNL A   1      31.933  28.953  25.716  1.00  0.00     0.080 A 
ATOM     17  C   UNL A   1      34.346  28.770  27.091  1.00  0.00     0.095 A 
ATOM     18  C   UNL A   1      32.422  30.122  26.496  1.00  0.00     0.255 A 
ATOM     19  N   UNL A   1      33.623  29.947  27.161  1.00  0.00    -0.258 N 
ATOM     20  O   UNL A   1      31.726  31.133  26.515  1.00  0.00    -0.269 OA
BRANCH  19  21
ATOM     21  C   UNL A   1      34.124  31.076  27.906  1.00  0.00     0.451 C 
ATOM     22  F   UNL A   1      34.839  30.663  28.977  1.00  0.00    -0.185 F 
ATOM     23  F   UNL A   1      34.931  31.839  27.127  1.00  0.00    -0.185 F 
ENDBRANCH  19  21
ENDBRANCH  12  14
ENDBRANCH   7   8
ENDBRANCH   5   7
ENDBRANCH   2   3
ENDBRANCH   1   2
BRANCH   1  24
ATOM     24  C   UNL A   1      35.435  23.397  25.364  1.00  0.00     0.023 C 
BRANCH  24  25
ATOM     25  C   UNL A   1      36.857  23.935  25.228  1.00  0.00     0.116 C 
BRANCH  25  26
ATOM     26  N   UNL A   1      37.862  22.947  25.587  1.00  0.00    -0.352 N 
ATOM     27  C   UNL A   1      39.052  23.099  26.260  1.00  0.00     0.251 C 
ATOM     28  H   UNL A   1      37.659  22.026  25.304  1.00  0.00     0.163 HD
ATOM     29  O   UNL A   1      39.845  22.162  26.299  1.00  0.00    -0.269 OA
BRANCH  27  30
ATOM     30  C   UNL A   1      39.398  24.385  26.911  1.00  0.00     0.039 A 
ATOM     31  C   UNL A   1      38.949  24.632  28.213  1.00  0.00     0.014 A 
ATOM     32  C   UNL A   1      40.144  25.357  26.244  1.00  0.00     0.014 A 
ATOM     33  C   UNL A   1      39.305  25.819  28.866  1.00  0.00     0.010 A 
ATOM     34  C   UNL A   1      40.565  26.497  26.925  1.00  0.00     0.010 A 
ATOM     35  C   UNL A   1      40.149  26.749  28.239  1.00  0.00    -0.014 A 
BRANCH  35  36
ATOM     36  C   UNL A   1      40.634  27.971  28.935  1.00  0.00     0.031 A 
ATOM     37  C   UNL A   1      42.002  28.004  29.570  1.00  0.00     0.074 A 
ATOM     38  C   UNL A   1      39.805  29.026  29.079  1.00  0.00     0.049 A 
ATOM     39  N   UNL A   1      42.560  28.960  30.271  1.00  0.00    -0.248 NA
ATOM     40  C   UNL A   1      42.836  26.800  29.428  1.00  0.00     0.031 C 
ATOM     41  C   UNL A   1      38.436  29.101  28.566  1.00  0.00     0.029 A 
ATOM     42  N   UNL A   1      39.987  30.232  29.710  1.00  0.00    -0.354 N 
ATOM     43  C   UNL A   1      43.808  28.476  30.646  1.00  0.00     0.074 A 
ATOM     44  C   UNL A   1      43.897  27.118  30.157  1.00  0.00     0.031 C 
ATOM     45  C   UNL A   1      37.911  30.295  28.885  1.00  0.00     0.029 A 
ATOM     46  C   UNL A   1      38.888  31.056  29.656  1.00  0.00     0.049 A 
ATOM     47  H   UNL A   1      40.828  30.483  30.160  1.00  0.00     0.167 HD
ATOM     48  C   UNL A   1      44.802  29.111  31.316  1.00  0.00     0.031 A 
ATOM     49  C   UNL A   1      38.681  32.285  30.171  1.00  0.00     0.031 A 
ATOM     50  C   UNL A   1      44.713  30.463  31.807  1.00  0.00     0.049 A 
ATOM     51  C   UNL A   1      39.789  32.962  30.931  1.00  0.00     0.074 A 
ATOM     52  C   UNL A   1      45.685  31.209  32.450  1.00  0.00     0.029 A 
ATOM     53  N   UNL A   1      43.589  31.269  31.714  1.00  0.00    -0.354 N 
ATOM     54  N   UNL A   1      40.991  32.514  31.207  1.00  0.00    -0.248 NA
ATOM     55  C   UNL A   1      39.519  34.315  31.435  1.00  0.00     0.031 C 
ATOM     56  C   UNL A   1      45.128  32.443  32.804  1.00  0.00     0.029 A 
ATOM     57  C   UNL A   1      43.832  32.492  32.318  1.00  0.00     0.049 A 
ATOM     58  H   UNL A   1      42.742  31.011  31.283  1.00  0.00     0.167 HD
ATOM     59  C   UNL A   1      41.630  33.544  31.890  1.00  0.00     0.074 A 
ATOM     60  C   UNL A   1      40.688  34.640  31.971  1.00  0.00     0.031 C 
ATOM     61  C   UNL A   1      42.887  33.578  32.399  1.00  0.00     0.031 A 
BRANCH  48  62
ATOM     62  C   UNL A   1      46.082  28.350  31.558  1.00  0.00    -0.014 A 
ATOM     63  C   UNL A   1      46.237  27.533  32.693  1.00  0.00     0.010 A 
ATOM     64  C   UNL A   1      47.122  28.403  30.612  1.00  0.00     0.010 A 
ATOM     65  C   UNL A   1      47.417  26.813  32.896  1.00  0.00     0.020 A 
ATOM     66  C   UNL A   1      48.293  27.660  30.794  1.00  0.00     0.020 A 
ATOM     67  C   UNL A   1      48.439  26.880  31.942  1.00  0.00     0.054 A 
BRANCH  67  68
ATOM     68  S   UNL A   1      49.943  25.902  32.212  1.00  0.00     0.124 S 
ATOM     69  O   UNL A   1      49.892  24.954  31.101  1.00  0.00    -0.237 OA
ATOM     70  O   UNL A   1      50.997  26.910  32.128  1.00  0.00    -0.237 OA
ATOM     71  O   UNL A   1      49.746  25.319  33.537  1.00  0.00    -0.744 OA
ENDBRANCH  67  68
ENDBRANCH  48  62
BRANCH  49  72
ATOM     72  C   UNL A   1      37.367  32.959  29.977  1.00  0.00    -0.014 A 
ATOM     73  C   UNL A   1      37.122  33.735  28.830  1.00  0.00     0.010 A 
ATOM     74  C   UNL A   1      36.348  32.817  30.936  1.00  0.00     0.010 A 
ATOM     75  C   UNL A   1      35.890  34.373  28.656  1.00  0.00     0.020 A 
ATOM     76  C   UNL A   1      35.104  33.427  30.750  1.00  0.00     0.020 A 
ATOM     77  C   UNL A   1      34.887  34.211  29.616  1.00  0.00     0.054 A 
BRANCH  77  78
ATOM     78  S   UNL A   1      33.280  35.007  29.345  1.00  0.00     0.124 S 
ATOM     79  O   UNL A   1      33.672  36.334  28.881  1.00  0.00    -0.237 OA
ATOM     80  O   UNL A   1      32.666  34.139  28.343  1.00  0.00    -0.237 OA
ATOM     81  O   UNL A   1      32.652  34.964  30.664  1.00  0.00    -0.744 OA
ENDBRANCH  77  78
ENDBRANCH  49  72
BRANCH  61  82
ATOM     82  C   UNL A   1      43.335  34.855  33.064  1.00  0.00    -0.014 A 
ATOM     83  C   UNL A   1      43.079  35.102  34.425  1.00  0.00     0.010 A 
ATOM     84  C   UNL A   1      44.071  35.799  32.325  1.00  0.00     0.010 A 
ATOM     85  C   UNL A   1      43.520  36.286  35.023  1.00  0.00     0.020 A 
ATOM     86  C   UNL A   1      44.541  36.969  32.927  1.00  0.00     0.020 A 
ATOM     87  C   UNL A   1      44.250  37.211  34.270  1.00  0.00     0.054 A 
BRANCH  87  88
ATOM     88  S   UNL A   1      44.847  38.719  35.083  1.00  0.00     0.124 S 
ATOM     89  O   UNL A   1      44.821  38.335  36.492  1.00  0.00    -0.237 OA
ATOM     90  O   UNL A   1      46.178  38.889  34.503  1.00  0.00    -0.237 OA
ATOM     91  O   UNL A   1      43.870  39.733  34.696  1.00  0.00    -0.744 OA
ENDBRANCH  87  88
ENDBRANCH  61  82
ENDBRANCH  35  36
ENDBRANCH  27  30
ENDBRANCH  25  26
ENDBRANCH  24  25
ENDBRANCH   1  24
TORSDOF 17
ENDMDL
MODEL 2
REMARK VINA RESULT:     -10.0      4.061     10.811
REMARK SMILES O=C(Cc1cccc(-c2ccn(C(F)F)c(=O)c2)c1)NCCCCNC(=O)c1ccc(-c2c3nc(c(-c4ccc(S(=O)(=O)[O-])cc4)c4ccc([nH]4)c(-c4ccc(S(=O)(=O)[O-])cc4)c4nc(c(-c5ccc(S(=O)(=O)[O-])cc5)c5ccc2[nH]5)C=C4)C=C3)cc1
REMARK SMILES IDX 22 1 21 2 20 3 1 4 2 5 3 7 4 8 5 9 19 10 6 11 8 12 7 13 9 14
REMARK SMILES IDX 10 15 18 16 11 17 16 18 12 19 17 20 13 21 14 22 15 23 23 24
REMARK SMILES IDX 24 25 25 26 26 27 27 29 28 30 29 31 87 32 30 33 86 34 31 35
REMARK SMILES IDX 32 36 33 37 80 38 34 39 85 40 79 41 81 42 35 43 84 44 78 45
REMARK SMILES IDX 77 46 36 48 66 49 47 50 65 51 48 52 51 53 64 54 82 55 49 56
REMARK SMILES IDX 50 57 63 59 83 60 52 61 37 62 38 63 46 64 39 65 45 66 40 67
REMARK SMILES IDX 41 68 42 69 43 70 44 71 67 72 68 73 76 74 69 75 75 76 70 77
REMARK SMILES IDX 71 78 72 79 73 80 74 81 53 82 54 83 62 84 55 85 61 86 56 87
REMARK SMILES IDX 57 88 58 89 59 90 60 91
REMARK H PARENT 20 6 25 28 81 47 51 58
REMARK Flexibility Score: inf
ROOT
ATOM      1  C   UNL A   1      34.013  34.829  29.682  1.00  0.00     0.023 C 
ENDROOT
BRANCH   1   2
ATOM      2  C   UNL A   1      33.483  34.862  31.116  1.00  0.00     0.116 C 
BRANCH   2   3
ATOM      3  N   UNL A   1      34.257  34.009  31.993  1.00  0.00    -0.356 N 
ATOM      4  O   UNL A   1      34.361  35.457  33.777  1.00  0.00    -0.275 OA
ATOM      5  C   UNL A   1      34.613  34.364  33.278  1.00  0.00     0.224 C 
ATOM      6  H   UNL A   1      34.544  33.131  31.655  1.00  0.00     0.163 HD
BRANCH   5   7
ATOM      7  C   UNL A   1      35.376  33.280  34.027  1.00  0.00     0.135 C 
BRANCH   7   8
ATOM      8  C   UNL A   1      36.877  33.395  33.884  1.00  0.00    -0.038 A 
ATOM      9  C   UNL A   1      37.492  34.645  33.748  1.00  0.00     0.004 A 
ATOM     10  C   UNL A   1      37.686  32.249  33.891  1.00  0.00     0.013 A 
ATOM     11  C   UNL A   1      38.880  34.743  33.624  1.00  0.00     0.001 A 
ATOM     12  C   UNL A   1      39.082  32.338  33.804  1.00  0.00    -0.018 A 
ATOM     13  C   UNL A   1      39.674  33.595  33.659  1.00  0.00     0.009 A 
BRANCH  12  14
ATOM     14  C   UNL A   1      39.876  31.100  33.919  1.00  0.00    -0.011 A 
ATOM     15  C   UNL A   1      41.146  31.034  34.619  1.00  0.00     0.027 A 
ATOM     16  C   UNL A   1      39.441  30.013  33.259  1.00  0.00     0.080 A 
ATOM     17  C   UNL A   1      41.883  29.917  34.591  1.00  0.00     0.095 A 
ATOM     18  C   UNL A   1      40.243  28.760  33.229  1.00  0.00     0.255 A 
ATOM     19  N   UNL A   1      41.451  28.797  33.905  1.00  0.00    -0.258 N 
ATOM     20  O   UNL A   1      39.798  27.806  32.597  1.00  0.00    -0.269 OA
BRANCH  19  21
ATOM     21  C   UNL A   1      42.233  27.585  33.904  1.00  0.00     0.451 C 
ATOM     22  F   UNL A   1      41.567  26.586  34.526  1.00  0.00    -0.185 F 
ATOM     23  F   UNL A   1      42.497  27.191  32.633  1.00  0.00    -0.185 F 
ENDBRANCH  19  21
ENDBRANCH  12  14
ENDBRANCH   7   8
ENDBRANCH   5   7
ENDBRANCH   2   3
ENDBRANCH   1   2
BRANCH   1  24
ATOM     24  C   UNL A   1      35.065  33.750  29.395  1.00  0.00     0.023 C 
BRANCH  24  25
ATOM     25  C   UNL A   1      35.025  33.149  27.993  1.00  0.00     0.116 C 
BRANCH  25  26
ATOM     26  N   UNL A   1      34.122  32.013  27.899  1.00  0.00    -0.352 N 
ATOM     27  C   UNL A   1      34.389  30.665  27.917  1.00  0.00     0.251 C 
ATOM     28  H   UNL A   1      33.169  32.247  27.809  1.00  0.00     0.163 HD
ATOM     29  O   UNL A   1      33.495  29.870  27.639  1.00  0.00    -0.269 OA
BRANCH  27  30
ATOM     30  C   UNL A   1      35.747  30.163  28.238  1.00  0.00     0.039 A 
ATOM     31  C   UNL A   1      36.713  30.118  27.227  1.00  0.00     0.014 A 
ATOM     32  C   UNL A   1      36.071  29.718  29.520  1.00  0.00     0.014 A 
ATOM     33  C   UNL A   1      38.016  29.694  27.518  1.00  0.00     0.010 A 
ATOM     34  C   UNL A   1      37.386  29.378  29.824  1.00  0.00     0.010 A 
ATOM     35  C   UNL A   1      38.375  29.353  28.832  1.00  0.00    -0.014 A 
BRANCH  35  36
ATOM     36  C   UNL A   1      39.772  28.998  29.203  1.00  0.00     0.031 A 
ATOM     37  C   UNL A   1      40.680  30.016  29.846  1.00  0.00     0.074 A 
ATOM     38  C   UNL A   1      40.256  27.782  28.876  1.00  0.00     0.049 A 
ATOM     39  N   UNL A   1      41.942  29.898  30.175  1.00  0.00    -0.248 NA
ATOM     40  C   UNL A   1      40.109  31.343  30.124  1.00  0.00     0.031 C 
ATOM     41  C   UNL A   1      39.502  26.726  28.197  1.00  0.00     0.029 A 
ATOM     42  N   UNL A   1      41.502  27.233  29.057  1.00  0.00    -0.354 N 
ATOM     43  C   UNL A   1      42.313  31.130  30.704  1.00  0.00     0.074 A 
ATOM     44  C   UNL A   1      41.164  32.001  30.586  1.00  0.00     0.031 C 
ATOM     45  C   UNL A   1      40.292  25.652  28.039  1.00  0.00     0.029 A 
ATOM     46  C   UNL A   1      41.618  25.953  28.568  1.00  0.00     0.049 A 
ATOM     47  H   UNL A   1      42.243  27.712  29.497  1.00  0.00     0.167 HD
ATOM     48  C   UNL A   1      43.493  31.498  31.260  1.00  0.00     0.031 A 
ATOM     49  C   UNL A   1      42.673  25.113  28.539  1.00  0.00     0.031 A 
ATOM     50  C   UNL A   1      44.639  30.633  31.375  1.00  0.00     0.049 A 
ATOM     51  C   UNL A   1      43.980  25.550  29.141  1.00  0.00     0.074 A 
ATOM     52  C   UNL A   1      45.861  30.898  31.970  1.00  0.00     0.029 A 
ATOM     53  N   UNL A   1      44.710  29.338  30.884  1.00  0.00    -0.354 N 
ATOM     54  N   UNL A   1      44.285  26.695  29.706  1.00  0.00    -0.248 NA
ATOM     55  C   UNL A   1      45.082  24.578  29.116  1.00  0.00     0.031 C 
ATOM     56  C   UNL A   1      46.692  29.789  31.781  1.00  0.00     0.029 A 
ATOM     57  C   UNL A   1      45.964  28.804  31.132  1.00  0.00     0.049 A 
ATOM     58  H   UNL A   1      43.976  28.866  30.426  1.00  0.00     0.167 HD
ATOM     59  C   UNL A   1      45.603  26.567  30.132  1.00  0.00     0.074 A 
ATOM     60  C   UNL A   1      46.031  25.232  29.772  1.00  0.00     0.031 C 
ATOM     61  C   UNL A   1      46.386  27.475  30.767  1.00  0.00     0.031 A 
BRANCH  48  62
ATOM     62  C   UNL A   1      43.609  32.904  31.794  1.00  0.00    -0.014 A 
ATOM     63  C   UNL A   1      43.924  33.980  30.943  1.00  0.00     0.010 A 
ATOM     64  C   UNL A   1      43.341  33.167  33.150  1.00  0.00     0.010 A 
ATOM     65  C   UNL A   1      44.005  35.283  31.443  1.00  0.00     0.020 A 
ATOM     66  C   UNL A   1      43.389  34.473  33.649  1.00  0.00     0.020 A 
ATOM     67  C   UNL A   1      43.735  35.521  32.795  1.00  0.00     0.054 A 
BRANCH  67  68
ATOM     68  S   UNL A   1      43.806  37.228  33.406  1.00  0.00     0.124 S 
ATOM     69  O   UNL A   1      45.054  37.226  34.167  1.00  0.00    -0.237 OA
ATOM     70  O   UNL A   1      43.827  38.007  32.170  1.00  0.00    -0.237 OA
ATOM     71  O   UNL A   1      42.590  37.363  34.204  1.00  0.00    -0.744 OA
ENDBRANCH  67  68
ENDBRANCH  48  62
BRANCH  49  72
ATOM     72  C   UNL A   1      42.530  23.765  27.923  1.00  0.00    -0.014 A 
ATOM     73  C   UNL A   1      42.767  23.574  26.550  1.00  0.00     0.010 A 
ATOM     74  C   UNL A   1      42.166  22.659  28.713  1.00  0.00     0.010 A 
ATOM     75  C   UNL A   1      42.623  22.308  25.975  1.00  0.00     0.020 A 
ATOM     76  C   UNL A   1      42.052  21.385  28.148  1.00  0.00     0.020 A 
ATOM     77  C   UNL A   1      42.270  21.220  26.779  1.00  0.00     0.054 A 
BRANCH  77  78
ATOM     78  S   UNL A   1      42.138  19.578  26.021  1.00  0.00     0.124 S 
ATOM     79  O   UNL A   1      43.057  19.690  24.892  1.00  0.00    -0.237 OA
ATOM     80  O   UNL A   1      42.565  18.697  27.104  1.00  0.00    -0.237 OA
ATOM     81  O   UNL A   1      40.723  19.479  25.668  1.00  0.00    -0.744 OA
ENDBRANCH  77  78
ENDBRANCH  49  72
BRANCH  61  82
ATOM     82  C   UNL A   1      47.780  27.047  31.148  1.00  0.00    -0.014 A 
ATOM     83  C   UNL A   1      48.023  26.295  32.312  1.00  0.00     0.010 A 
ATOM     84  C   UNL A   1      48.857  27.358  30.298  1.00  0.00     0.010 A 
ATOM     85  C   UNL A   1      49.323  25.894  32.634  1.00  0.00     0.020 A 
ATOM     86  C   UNL A   1      50.153  26.932  30.600  1.00  0.00     0.020 A 
ATOM     87  C   UNL A   1      50.379  26.214  31.775  1.00  0.00     0.054 A 
BRANCH  87  88
ATOM     88  S   UNL A   1      52.049  25.644  32.197  1.00  0.00     0.124 S 
ATOM     89  O   UNL A   1      52.402  26.528  33.304  1.00  0.00    -0.237 OA
ATOM     90  O   UNL A   1      51.828  24.244  32.556  1.00  0.00    -0.237 OA
ATOM     91  O   UNL A   1      52.809  25.853  30.967  1.00  0.00    -0.744 OA
ENDBRANCH  87  88
ENDBRANCH  61  82
ENDBRANCH  35  36
ENDBRANCH  27  30
ENDBRANCH  25  26
ENDBRANCH  24  25
ENDBRANCH   1  24
TORSDOF 17
ENDMDL
MODEL 3
REMARK VINA RESULT:      -9.9      3.195      3.974
REMARK SMILES O=C(Cc1cccc(-c2ccn(C(F)F)c(=O)c2)c1)NCCCCNC(=O)c1ccc(-c2c3nc(c(-c4ccc(S(=O)(=O)[O-])cc4)c4ccc([nH]4)c(-c4ccc(S(=O)(=O)[O-])cc4)c4nc(c(-c5ccc(S(=O)(=O)[O-])cc5)c5ccc2[nH]5)C=C4)C=C3)cc1
REMARK SMILES IDX 22 1 21 2 20 3 1 4 2 5 3 7 4 8 5 9 19 10 6 11 8 12 7 13 9 14
REMARK SMILES IDX 10 15 18 16 11 17 16 18 12 19 17 20 13 21 14 22 15 23 23 24
REMARK SMILES IDX 24 25 25 26 26 27 27 29 28 30 29 31 87 32 30 33 86 34 31 35
REMARK SMILES IDX 32 36 33 37 80 38 34 39 85 40 79 41 81 42 35 43 84 44 78 45
REMARK SMILES IDX 77 46 36 48 66 49 47 50 65 51 48 52 51 53 64 54 82 55 49 56
REMARK SMILES IDX 50 57 63 59 83 60 52 61 37 62 38 63 46 64 39 65 45 66 40 67
REMARK SMILES IDX 41 68 42 69 43 70 44 71 67 72 68 73 76 74 69 75 75 76 70 77
REMARK SMILES IDX 71 78 72 79 73 80 74 81 53 82 54 83 62 84 55 85 61 86 56 87
REMARK SMILES IDX 57 88 58 89 59 90 60 91
REMARK H PARENT 20 6 25 28 81 47 51 58
REMARK Flexibility Score: inf
ROOT
ATOM      1  C   UNL A   1      35.172  21.729  26.270  1.00  0.00     0.023 C 
ENDROOT
BRANCH   1   2
ATOM      2  C   UNL A   1      34.756  21.035  24.972  1.00  0.00     0.116 C 
BRANCH   2   3
ATOM      3  N   UNL A   1      33.856  21.856  24.190  1.00  0.00    -0.356 N 
ATOM      4  O   UNL A   1      32.054  20.429  24.238  1.00  0.00    -0.275 OA
ATOM      5  C   UNL A   1      32.554  21.500  23.906  1.00  0.00     0.224 C 
ATOM      6  H   UNL A   1      34.192  22.713  23.841  1.00  0.00     0.163 HD
BRANCH   5   7
ATOM      7  C   UNL A   1      31.786  22.552  23.116  1.00  0.00     0.135 C 
BRANCH   7   8
ATOM      8  C   UNL A   1      31.169  23.623  23.986  1.00  0.00    -0.038 A 
ATOM      9  C   UNL A   1      31.182  23.512  25.381  1.00  0.00     0.004 A 
ATOM     10  C   UNL A   1      30.575  24.757  23.411  1.00  0.00     0.013 A 
ATOM     11  C   UNL A   1      30.617  24.511  26.177  1.00  0.00     0.001 A 
ATOM     12  C   UNL A   1      30.038  25.782  24.200  1.00  0.00    -0.018 A 
ATOM     13  C   UNL A   1      30.052  25.646  25.591  1.00  0.00     0.009 A 
BRANCH  12  14
ATOM     14  C   UNL A   1      29.520  26.991  23.531  1.00  0.00    -0.011 A 
ATOM     15  C   UNL A   1      30.372  27.944  22.845  1.00  0.00     0.027 A 
ATOM     16  C   UNL A   1      28.209  27.260  23.652  1.00  0.00     0.080 A 
ATOM     17  C   UNL A   1      29.866  29.084  22.358  1.00  0.00     0.095 A 
ATOM     18  C   UNL A   1      27.630  28.517  23.105  1.00  0.00     0.255 A 
ATOM     19  N   UNL A   1      28.521  29.378  22.488  1.00  0.00    -0.258 N 
ATOM     20  O   UNL A   1      26.427  28.712  23.260  1.00  0.00    -0.269 OA
BRANCH  19  21
ATOM     21  C   UNL A   1      27.975  30.592  21.934  1.00  0.00     0.451 C 
ATOM     22  F   UNL A   1      27.755  31.505  22.908  1.00  0.00    -0.185 F 
ATOM     23  F   UNL A   1      28.834  31.132  21.034  1.00  0.00    -0.185 F 
ENDBRANCH  19  21
ENDBRANCH  12  14
ENDBRANCH   7   8
ENDBRANCH   5   7
ENDBRANCH   2   3
ENDBRANCH   1   2
BRANCH   1  24
ATOM     24  C   UNL A   1      35.445  23.233  26.152  1.00  0.00     0.023 C 
BRANCH  24  25
ATOM     25  C   UNL A   1      36.918  23.635  26.134  1.00  0.00     0.116 C 
BRANCH  25  26
ATOM     26  N   UNL A   1      37.809  22.488  26.224  1.00  0.00    -0.352 N 
ATOM     27  C   UNL A   1      39.167  22.436  26.427  1.00  0.00     0.251 C 
ATOM     28  H   UNL A   1      37.369  21.613  26.123  1.00  0.00     0.163 HD
ATOM     29  O   UNL A   1      39.757  21.368  26.286  1.00  0.00    -0.269 OA
BRANCH  27  30
ATOM     30  C   UNL A   1      39.930  23.656  26.785  1.00  0.00     0.039 A 
ATOM     31  C   UNL A   1      40.048  24.686  25.844  1.00  0.00     0.014 A 
ATOM     32  C   UNL A   1      40.546  23.787  28.030  1.00  0.00     0.014 A 
ATOM     33  C   UNL A   1      40.722  25.868  26.178  1.00  0.00     0.010 A 
ATOM     34  C   UNL A   1      41.141  24.994  28.385  1.00  0.00     0.010 A 
ATOM     35  C   UNL A   1      41.245  26.048  27.468  1.00  0.00    -0.014 A 
BRANCH  35  36
ATOM     36  C   UNL A   1      41.876  27.327  27.893  1.00  0.00     0.031 A 
ATOM     37  C   UNL A   1      43.370  27.513  27.806  1.00  0.00     0.074 A 
ATOM     38  C   UNL A   1      41.113  28.291  28.448  1.00  0.00     0.049 A 
ATOM     39  N   UNL A   1      44.094  28.535  28.193  1.00  0.00    -0.248 NA
ATOM     40  C   UNL A   1      44.154  26.402  27.246  1.00  0.00     0.031 C 
ATOM     41  C   UNL A   1      39.664  28.213  28.647  1.00  0.00     0.029 A 
ATOM     42  N   UNL A   1      41.450  29.520  28.959  1.00  0.00    -0.354 N 
ATOM     43  C   UNL A   1      45.413  28.191  27.916  1.00  0.00     0.074 A 
ATOM     44  C   UNL A   1      45.395  26.842  27.396  1.00  0.00     0.031 C 
ATOM     45  C   UNL A   1      39.236  29.351  29.216  1.00  0.00     0.029 A 
ATOM     46  C   UNL A   1      40.380  30.224  29.459  1.00  0.00     0.049 A 
ATOM     47  H   UNL A   1      42.373  29.866  28.967  1.00  0.00     0.167 HD
ATOM     48  C   UNL A   1      46.536  28.939  28.058  1.00  0.00     0.031 A 
ATOM     49  C   UNL A   1      40.319  31.433  30.053  1.00  0.00     0.031 A 
ATOM     50  C   UNL A   1      46.554  30.282  28.579  1.00  0.00     0.049 A 
ATOM     51  C   UNL A   1      41.580  32.235  30.222  1.00  0.00     0.074 A 
ATOM     52  C   UNL A   1      47.634  31.138  28.711  1.00  0.00     0.029 A 
ATOM     53  N   UNL A   1      45.445  30.965  29.056  1.00  0.00    -0.354 N 
ATOM     54  N   UNL A   1      42.808  31.921  29.881  1.00  0.00    -0.248 NA
ATOM     55  C   UNL A   1      41.446  33.562  30.840  1.00  0.00     0.031 C 
ATOM     56  C   UNL A   1      47.191  32.312  29.328  1.00  0.00     0.029 A 
ATOM     57  C   UNL A   1      45.821  32.217  29.515  1.00  0.00     0.049 A 
ATOM     58  H   UNL A   1      44.526  30.612  29.068  1.00  0.00     0.167 HD
ATOM     59  C   UNL A   1      43.587  33.024  30.216  1.00  0.00     0.074 A 
ATOM     60  C   UNL A   1      42.691  34.017  30.770  1.00  0.00     0.031 C 
ATOM     61  C   UNL A   1      44.924  33.198  30.071  1.00  0.00     0.031 A 
BRANCH  48  62
ATOM     62  C   UNL A   1      47.847  28.321  27.639  1.00  0.00    -0.014 A 
ATOM     63  C   UNL A   1      48.590  27.523  28.530  1.00  0.00     0.010 A 
ATOM     64  C   UNL A   1      48.315  28.487  26.323  1.00  0.00     0.010 A 
ATOM     65  C   UNL A   1      49.791  26.936  28.124  1.00  0.00     0.020 A 
ATOM     66  C   UNL A   1      49.500  27.875  25.903  1.00  0.00     0.020 A 
ATOM     67  C   UNL A   1      50.239  27.114  26.811  1.00  0.00     0.054 A 
BRANCH  67  68
ATOM     68  S   UNL A   1      51.780  26.304  26.302  1.00  0.00     0.124 S 
ATOM     69  O   UNL A   1      52.791  27.165  26.912  1.00  0.00    -0.237 OA
ATOM     70  O   UNL A   1      51.650  24.974  26.893  1.00  0.00    -0.237 OA
ATOM     71  O   UNL A   1      51.728  26.342  24.843  1.00  0.00    -0.744 OA
ENDBRANCH  67  68
ENDBRANCH  48  62
BRANCH  49  72
ATOM     72  C   UNL A   1      39.010  31.962  30.526  1.00  0.00    -0.014 A 
ATOM     73  C   UNL A   1      38.534  31.655  31.813  1.00  0.00     0.010 A 
ATOM     74  C   UNL A   1      38.235  32.788  29.691  1.00  0.00     0.010 A 
ATOM     75  C   UNL A   1      37.299  32.146  32.249  1.00  0.00     0.020 A 
ATOM     76  C   UNL A   1      37.016  33.309  30.136  1.00  0.00     0.020 A 
ATOM     77  C   UNL A   1      36.550  32.974  31.408  1.00  0.00     0.054 A 
BRANCH  77  78
ATOM     78  S   UNL A   1      34.976  33.642  32.013  1.00  0.00     0.124 S 
ATOM     79  O   UNL A   1      34.098  33.435  30.866  1.00  0.00    -0.237 OA
ATOM     80  O   UNL A   1      34.707  32.804  33.179  1.00  0.00    -0.237 OA
ATOM     81  O   UNL A   1      35.293  35.036  32.317  1.00  0.00    -0.744 OA
ENDBRANCH  77  78
ENDBRANCH  49  72
BRANCH  61  82
ATOM     82  C   UNL A   1      45.502  34.527  30.488  1.00  0.00    -0.014 A 
ATOM     83  C   UNL A   1      46.013  34.729  31.783  1.00  0.00     0.010 A 
ATOM     84  C   UNL A   1      45.582  35.573  29.550  1.00  0.00     0.010 A 
ATOM     85  C   UNL A   1      46.561  35.965  32.140  1.00  0.00     0.020 A 
ATOM     86  C   UNL A   1      46.158  36.798  29.894  1.00  0.00     0.020 A 
ATOM     87  C   UNL A   1      46.631  36.991  31.193  1.00  0.00     0.054 A 
BRANCH  87  88
ATOM     88  S   UNL A   1      47.386  38.570  31.672  1.00  0.00     0.124 S 
ATOM     89  O   UNL A   1      48.741  38.162  32.033  1.00  0.00    -0.237 OA
ATOM     90  O   UNL A   1      47.274  39.362  30.449  1.00  0.00    -0.237 OA
ATOM     91  O   UNL A   1      46.556  39.029  32.783  1.00  0.00    -0.744 OA
ENDBRANCH  87  88
ENDBRANCH  61  82
ENDBRANCH  35  36
ENDBRANCH  27  30
ENDBRANCH  25  26
ENDBRANCH  24  25
ENDBRANCH   1  24
TORSDOF 17
ENDMDL
