MODEL 1
REMARK VINA RESULT:     -10.4      0.000      0.000
REMARK SMILES CC[C@@H](C)N(C)C(=O)N1[C@@H](C(=O)NCCCCNC(=O)c2ccc(-c3c4nc(c(-c5ccc(S(=O)(=O)[O-])cc5)c5ccc([nH]5)c(-c5ccc(S(=O)(=O)[O-])cc5)c5nc(c(-c6ccc(S(=O)(=O)[O-])cc6)c6ccc3[nH]6)C=C5)C=C4)cc2)CC[C@H]2CCCC[C@H]21
REMARK SMILES IDX 15 1 14 2 13 3 11 4 12 5 10 7 9 8 88 9 81 10 83 11 87 12
REMARK SMILES IDX 82 13 84 14 86 15 85 16 7 17 8 18 5 19 6 20 3 21 4 22 2 23
REMARK SMILES IDX 1 24 16 25 17 26 18 27 19 28 20 30 21 31 22 32 80 33 23 34
REMARK SMILES IDX 79 35 24 36 25 37 26 38 73 39 27 40 78 41 72 42 74 43 28 44
REMARK SMILES IDX 77 45 71 46 70 47 29 49 59 50 40 51 58 52 41 53 44 54 57 55
REMARK SMILES IDX 75 56 42 57 43 58 56 60 76 61 45 62 30 63 31 64 39 65 32 66
REMARK SMILES IDX 38 67 33 68 34 69 35 70 36 71 37 72 60 73 61 74 69 75 62 76
REMARK SMILES IDX 68 77 63 78 64 79 65 80 66 81 67 82 46 83 47 84 55 85 48 86
REMARK SMILES IDX 54 87 49 88 50 89 51 90 52 91 53 92
REMARK H PARENT 13 6 18 29 74 48 44 59
REMARK Flexibility Score: inf
ROOT
ATOM      1  C   UNL A   1      32.427  28.900  24.962  1.00  0.00     0.023 C 
ENDROOT
BRANCH   1   2
ATOM      2  C   UNL A   1      31.365  27.810  24.896  1.00  0.00     0.116 C 
BRANCH   2   3
ATOM      3  N   UNL A   1      31.599  26.907  23.786  1.00  0.00    -0.354 N 
ATOM      4  C   UNL A   1      31.775  25.556  23.797  1.00  0.00     0.242 C 
ATOM      5  O   UNL A   1      32.088  25.007  22.736  1.00  0.00    -0.273 OA
ATOM      6  H   UNL A   1      31.635  27.330  22.897  1.00  0.00     0.163 HD
BRANCH   4   7
ATOM      7  C   UNL A   1      31.750  24.743  25.112  1.00  0.00     0.176 C 
ATOM      8  N   UNL A   1      33.018  24.095  25.531  1.00  0.00    -0.309 N 
ATOM      9  C   UNL A   1      32.908  23.140  26.650  1.00  0.00     0.091 C 
ATOM     10  C   UNL A   1      30.589  23.727  24.959  1.00  0.00     0.036 C 
ATOM     11  C   UNL A   1      31.843  22.061  26.409  1.00  0.00     0.012 C 
ATOM     12  C   UNL A   1      34.187  22.465  27.178  1.00  0.00     0.025 C 
ATOM     13  C   UNL A   1      30.495  22.707  26.085  1.00  0.00     0.008 C 
ATOM     14  C   UNL A   1      32.270  21.005  25.375  1.00  0.00     0.006 C 
ATOM     15  C   UNL A   1      34.607  21.190  26.440  1.00  0.00     0.002 C 
ATOM     16  C   UNL A   1      33.779  20.834  25.211  1.00  0.00     0.000 C 
BRANCH   8  17
ATOM     17  C   UNL A   1      34.272  24.470  25.087  1.00  0.00     0.320 C 
ATOM     18  O   UNL A   1      34.772  25.505  25.530  1.00  0.00    -0.248 OA
BRANCH  17  19
ATOM     19  N   UNL A   1      34.958  23.703  24.168  1.00  0.00    -0.325 N 
ATOM     20  C   UNL A   1      34.412  23.174  22.926  1.00  0.00     0.149 C 
BRANCH  19  21
ATOM     21  C   UNL A   1      36.438  23.604  24.290  1.00  0.00     0.083 C 
ATOM     22  C   UNL A   1      36.991  22.275  23.759  1.00  0.00     0.031 C 
BRANCH  21  23
ATOM     23  C   UNL A   1      36.901  23.941  25.727  1.00  0.00     0.021 C 
ATOM     24  C   UNL A   1      38.213  23.289  26.135  1.00  0.00     0.006 C 
ENDBRANCH  21  23
ENDBRANCH  19  21
ENDBRANCH  17  19
ENDBRANCH   8  17
ENDBRANCH   4   7
ENDBRANCH   2   3
ENDBRANCH   1   2
BRANCH   1  25
ATOM     25  C   UNL A   1      33.731  28.463  25.627  1.00  0.00     0.023 C 
BRANCH  25  26
ATOM     26  C   UNL A   1      33.746  28.583  27.148  1.00  0.00     0.116 C 
BRANCH  26  27
ATOM     27  N   UNL A   1      33.632  29.958  27.606  1.00  0.00    -0.352 N 
ATOM     28  C   UNL A   1      34.558  30.714  28.290  1.00  0.00     0.251 C 
ATOM     29  H   UNL A   1      32.782  30.409  27.398  1.00  0.00     0.163 HD
ATOM     30  O   UNL A   1      34.259  31.808  28.742  1.00  0.00    -0.269 OA
BRANCH  28  31
ATOM     31  C   UNL A   1      35.913  30.158  28.495  1.00  0.00     0.039 A 
ATOM     32  C   UNL A   1      36.827  30.200  27.441  1.00  0.00     0.014 A 
ATOM     33  C   UNL A   1      36.285  29.642  29.739  1.00  0.00     0.014 A 
ATOM     34  C   UNL A   1      38.142  29.786  27.657  1.00  0.00     0.010 A 
ATOM     35  C   UNL A   1      37.612  29.296  29.971  1.00  0.00     0.010 A 
ATOM     36  C   UNL A   1      38.554  29.366  28.933  1.00  0.00    -0.014 A 
BRANCH  36  37
ATOM     37  C   UNL A   1      39.968  29.001  29.203  1.00  0.00     0.031 A 
ATOM     38  C   UNL A   1      40.908  30.017  29.793  1.00  0.00     0.074 A 
ATOM     39  C   UNL A   1      40.420  27.779  28.859  1.00  0.00     0.049 A 
ATOM     40  N   UNL A   1      42.187  29.908  30.042  1.00  0.00    -0.248 NA
ATOM     41  C   UNL A   1      40.342  31.335  30.124  1.00  0.00     0.031 C 
ATOM     42  C   UNL A   1      39.618  26.720  28.239  1.00  0.00     0.029 A 
ATOM     43  N   UNL A   1      41.668  27.221  28.975  1.00  0.00    -0.354 N 
ATOM     44  C   UNL A   1      42.582  31.142  30.543  1.00  0.00     0.074 A 
ATOM     45  C   UNL A   1      41.418  32.001  30.519  1.00  0.00     0.031 C 
ATOM     46  C   UNL A   1      40.389  25.636  28.052  1.00  0.00     0.029 A 
ATOM     47  C   UNL A   1      41.745  25.932  28.502  1.00  0.00     0.049 A 
ATOM     48  H   UNL A   1      42.438  27.699  29.361  1.00  0.00     0.167 HD
ATOM     49  C   UNL A   1      43.797  31.521  31.004  1.00  0.00     0.031 A 
ATOM     50  C   UNL A   1      42.790  25.085  28.431  1.00  0.00     0.031 A 
ATOM     51  C   UNL A   1      44.949  30.661  31.044  1.00  0.00     0.049 A 
ATOM     52  C   UNL A   1      44.132  25.532  28.947  1.00  0.00     0.074 A 
ATOM     53  C   UNL A   1      46.211  30.936  31.539  1.00  0.00     0.029 A 
ATOM     54  N   UNL A   1      44.980  29.357  30.572  1.00  0.00    -0.354 N 
ATOM     55  N   UNL A   1      44.468  26.685  29.475  1.00  0.00    -0.248 NA
ATOM     56  C   UNL A   1      45.230  24.560  28.867  1.00  0.00     0.031 C 
ATOM     57  C   UNL A   1      47.019  29.814  31.328  1.00  0.00     0.029 A 
ATOM     58  C   UNL A   1      46.244  28.822  30.748  1.00  0.00     0.049 A 
ATOM     59  H   UNL A   1      44.216  28.883  30.171  1.00  0.00     0.167 HD
ATOM     60  C   UNL A   1      45.812  26.565  29.815  1.00  0.00     0.074 A 
ATOM     61  C   UNL A   1      46.220  25.226  29.449  1.00  0.00     0.031 C 
ATOM     62  C   UNL A   1      46.632  27.483  30.382  1.00  0.00     0.031 A 
BRANCH  49  63
ATOM     63  C   UNL A   1      43.942  32.932  31.509  1.00  0.00    -0.014 A 
ATOM     64  C   UNL A   1      43.792  33.229  32.877  1.00  0.00     0.010 A 
ATOM     65  C   UNL A   1      44.281  33.965  30.618  1.00  0.00     0.010 A 
ATOM     66  C   UNL A   1      43.944  34.538  33.337  1.00  0.00     0.020 A 
ATOM     67  C   UNL A   1      44.461  35.272  31.079  1.00  0.00     0.020 A 
ATOM     68  C   UNL A   1      44.277  35.553  32.435  1.00  0.00     0.054 A 
BRANCH  68  69
ATOM     69  S   UNL A   1      44.503  37.238  33.066  1.00  0.00     0.124 S 
ATOM     70  O   UNL A   1      45.475  37.031  34.136  1.00  0.00    -0.237 OA
ATOM     71  O   UNL A   1      45.002  37.955  31.896  1.00  0.00    -0.237 OA
ATOM     72  O   UNL A   1      43.165  37.626  33.506  1.00  0.00    -0.744 OA
ENDBRANCH  68  69
ENDBRANCH  49  63
BRANCH  50  73
ATOM     73  C   UNL A   1      42.612  23.723  27.859  1.00  0.00    -0.014 A 
ATOM     74  C   UNL A   1      43.002  23.446  26.537  1.00  0.00     0.010 A 
ATOM     75  C   UNL A   1      42.043  22.694  28.632  1.00  0.00     0.010 A 
ATOM     76  C   UNL A   1      42.801  22.176  25.990  1.00  0.00     0.020 A 
ATOM     77  C   UNL A   1      41.867  21.415  28.098  1.00  0.00     0.020 A 
ATOM     78  C   UNL A   1      42.233  21.168  26.774  1.00  0.00     0.054 A 
BRANCH  78  79
ATOM     79  S   UNL A   1      42.011  19.517  26.055  1.00  0.00     0.124 S 
ATOM     80  O   UNL A   1      40.567  19.465  25.855  1.00  0.00    -0.237 OA
ATOM     81  O   UNL A   1      42.818  19.590  24.838  1.00  0.00    -0.237 OA
ATOM     82  O   UNL A   1      42.535  18.623  27.086  1.00  0.00    -0.744 OA
ENDBRANCH  78  79
ENDBRANCH  50  73
BRANCH  62  83
ATOM     83  C   UNL A   1      48.046  27.061  30.675  1.00  0.00    -0.014 A 
ATOM     84  C   UNL A   1      49.100  27.385  29.802  1.00  0.00     0.010 A 
ATOM     85  C   UNL A   1      48.331  26.376  31.871  1.00  0.00     0.010 A 
ATOM     86  C   UNL A   1      50.410  27.006  30.106  1.00  0.00     0.020 A 
ATOM     87  C   UNL A   1      49.643  26.018  32.190  1.00  0.00     0.020 A 
ATOM     88  C   UNL A   1      50.673  26.324  31.298  1.00  0.00     0.054 A 
BRANCH  88  89
ATOM     89  S   UNL A   1      52.387  25.882  31.692  1.00  0.00     0.124 S 
ATOM     90  O   UNL A   1      53.046  26.036  30.397  1.00  0.00    -0.237 OA
ATOM     91  O   UNL A   1      52.751  26.871  32.703  1.00  0.00    -0.237 OA
ATOM     92  O   UNL A   1      52.287  24.508  32.180  1.00  0.00    -0.744 OA
ENDBRANCH  88  89
ENDBRANCH  62  83
ENDBRANCH  36  37
ENDBRANCH  28  31
ENDBRANCH  26  27
ENDBRANCH  25  26
ENDBRANCH   1  25
TORSDOF 18
ENDMDL
MODEL 2
REMARK VINA RESULT:     -10.3      3.301      9.124
REMARK SMILES CC[C@@H](C)N(C)C(=O)N1[C@@H](C(=O)NCCCCNC(=O)c2ccc(-c3c4nc(c(-c5ccc(S(=O)(=O)[O-])cc5)c5ccc([nH]5)c(-c5ccc(S(=O)(=O)[O-])cc5)c5nc(c(-c6ccc(S(=O)(=O)[O-])cc6)c6ccc3[nH]6)C=C5)C=C4)cc2)CC[C@H]2CCCC[C@H]21
REMARK SMILES IDX 15 1 14 2 13 3 11 4 12 5 10 7 9 8 88 9 81 10 83 11 87 12
REMARK SMILES IDX 82 13 84 14 86 15 85 16 7 17 8 18 5 19 6 20 3 21 4 22 2 23
REMARK SMILES IDX 1 24 16 25 17 26 18 27 19 28 20 30 21 31 22 32 80 33 23 34
REMARK SMILES IDX 79 35 24 36 25 37 26 38 73 39 27 40 78 41 72 42 74 43 28 44
REMARK SMILES IDX 77 45 71 46 70 47 29 49 59 50 40 51 58 52 41 53 44 54 57 55
REMARK SMILES IDX 75 56 42 57 43 58 56 60 76 61 45 62 30 63 31 64 39 65 32 66
REMARK SMILES IDX 38 67 33 68 34 69 35 70 36 71 37 72 60 73 61 74 69 75 62 76
REMARK SMILES IDX 68 77 63 78 64 79 65 80 66 81 67 82 46 83 47 84 55 85 48 86
REMARK SMILES IDX 54 87 49 88 50 89 51 90 52 91 53 92
REMARK H PARENT 13 6 18 29 74 48 44 59
REMARK Flexibility Score: inf
ROOT
ATOM      1  C   UNL A   1      37.164  20.831  25.176  1.00  0.00     0.023 C 
ENDROOT
BRANCH   1   2
ATOM      2  C   UNL A   1      36.977  22.037  24.264  1.00  0.00     0.116 C 
BRANCH   2   3
ATOM      3  N   UNL A   1      36.800  23.257  25.028  1.00  0.00    -0.354 N 
ATOM      4  C   UNL A   1      35.665  23.770  25.580  1.00  0.00     0.242 C 
ATOM      5  O   UNL A   1      35.727  24.897  26.084  1.00  0.00    -0.273 OA
ATOM      6  H   UNL A   1      37.615  23.791  25.167  1.00  0.00     0.163 HD
BRANCH   4   7
ATOM      7  C   UNL A   1      34.300  23.054  25.449  1.00  0.00     0.176 C 
ATOM      8  N   UNL A   1      33.373  23.555  24.404  1.00  0.00    -0.309 N 
ATOM      9  C   UNL A   1      32.000  23.015  24.458  1.00  0.00     0.091 C 
ATOM     10  C   UNL A   1      33.669  23.083  26.865  1.00  0.00     0.036 C 
ATOM     11  C   UNL A   1      31.348  23.184  25.838  1.00  0.00     0.012 C 
ATOM     12  C   UNL A   1      30.991  23.446  23.378  1.00  0.00     0.025 C 
ATOM     13  C   UNL A   1      32.236  22.573  26.924  1.00  0.00     0.008 C 
ATOM     14  C   UNL A   1      30.933  24.634  26.142  1.00  0.00     0.006 C 
ATOM     15  C   UNL A   1      30.238  24.749  23.665  1.00  0.00     0.002 C 
ATOM     16  C   UNL A   1      30.679  25.505  24.914  1.00  0.00     0.000 C 
BRANCH   8  17
ATOM     17  C   UNL A   1      33.757  24.307  23.311  1.00  0.00     0.320 C 
ATOM     18  O   UNL A   1      34.287  23.736  22.356  1.00  0.00    -0.248 OA
BRANCH  17  19
ATOM     19  N   UNL A   1      33.552  25.671  23.281  1.00  0.00    -0.325 N 
ATOM     20  C   UNL A   1      33.622  26.567  24.427  1.00  0.00     0.149 C 
BRANCH  19  21
ATOM     21  C   UNL A   1      33.510  26.353  21.959  1.00  0.00     0.083 C 
ATOM     22  C   UNL A   1      33.715  27.870  22.065  1.00  0.00     0.031 C 
BRANCH  21  23
ATOM     23  C   UNL A   1      32.245  25.951  21.165  1.00  0.00     0.021 C 
ATOM     24  C   UNL A   1      32.515  25.486  19.743  1.00  0.00     0.006 C 
ENDBRANCH  21  23
ENDBRANCH  19  21
ENDBRANCH  17  19
ENDBRANCH   8  17
ENDBRANCH   4   7
ENDBRANCH   2   3
ENDBRANCH   1   2
BRANCH   1  25
ATOM     25  C   UNL A   1      38.476  20.079  24.957  1.00  0.00     0.023 C 
BRANCH  25  26
ATOM     26  C   UNL A   1      39.583  20.419  25.950  1.00  0.00     0.116 C 
BRANCH  26  27
ATOM     27  N   UNL A   1      40.509  19.318  26.160  1.00  0.00    -0.352 N 
ATOM     28  C   UNL A   1      41.868  19.370  26.379  1.00  0.00     0.251 C 
ATOM     29  H   UNL A   1      40.113  18.417  26.145  1.00  0.00     0.163 HD
ATOM     30  O   UNL A   1      42.538  18.350  26.386  1.00  0.00    -0.269 OA
BRANCH  28  31
ATOM     31  C   UNL A   1      42.504  20.691  26.573  1.00  0.00     0.039 A 
ATOM     32  C   UNL A   1      42.966  21.389  25.456  1.00  0.00     0.014 A 
ATOM     33  C   UNL A   1      42.599  21.249  27.851  1.00  0.00     0.014 A 
ATOM     34  C   UNL A   1      43.462  22.684  25.615  1.00  0.00     0.010 A 
ATOM     35  C   UNL A   1      43.029  22.564  27.997  1.00  0.00     0.010 A 
ATOM     36  C   UNL A   1      43.462  23.295  26.880  1.00  0.00    -0.014 A 
BRANCH  36  37
ATOM     37  C   UNL A   1      43.908  24.701  27.055  1.00  0.00     0.031 A 
ATOM     38  C   UNL A   1      45.349  25.068  26.823  1.00  0.00     0.074 A 
ATOM     39  C   UNL A   1      43.031  25.631  27.483  1.00  0.00     0.049 A 
ATOM     40  N   UNL A   1      45.939  26.224  26.985  1.00  0.00    -0.248 NA
ATOM     41  C   UNL A   1      46.247  23.992  26.374  1.00  0.00     0.031 C 
ATOM     42  C   UNL A   1      41.617  25.390  27.786  1.00  0.00     0.029 A 
ATOM     43  N   UNL A   1      43.202  26.967  27.747  1.00  0.00    -0.354 N 
ATOM     44  C   UNL A   1      47.277  26.012  26.674  1.00  0.00     0.074 A 
ATOM     45  C   UNL A   1      47.421  24.607  26.360  1.00  0.00     0.031 C 
ATOM     46  C   UNL A   1      41.047  26.544  28.169  1.00  0.00     0.029 A 
ATOM     47  C   UNL A   1      42.057  27.597  28.177  1.00  0.00     0.049 A 
ATOM     48  H   UNL A   1      44.063  27.431  27.637  1.00  0.00     0.167 HD
ATOM     49  C   UNL A   1      48.290  26.909  26.630  1.00  0.00     0.031 A 
ATOM     50  C   UNL A   1      41.846  28.875  28.545  1.00  0.00     0.031 A 
ATOM     51  C   UNL A   1      48.142  28.308  26.925  1.00  0.00     0.049 A 
ATOM     52  C   UNL A   1      42.990  29.852  28.491  1.00  0.00     0.074 A 
ATOM     53  C   UNL A   1      49.097  29.307  26.861  1.00  0.00     0.029 A 
ATOM     54  N   UNL A   1      46.962  28.909  27.340  1.00  0.00    -0.354 N 
ATOM     55  N   UNL A   1      44.235  29.643  28.133  1.00  0.00    -0.248 NA
ATOM     56  C   UNL A   1      42.698  31.238  28.879  1.00  0.00     0.031 C 
ATOM     57  C   UNL A   1      48.508  30.504  27.277  1.00  0.00     0.029 A 
ATOM     58  C   UNL A   1      47.171  30.261  27.552  1.00  0.00     0.049 A 
ATOM     59  H   UNL A   1      46.105  28.443  27.466  1.00  0.00     0.167 HD
ATOM     60  C   UNL A   1      44.866  30.879  28.228  1.00  0.00     0.074 A 
ATOM     61  C   UNL A   1      43.865  31.830  28.660  1.00  0.00     0.031 C 
ATOM     62  C   UNL A   1      46.160  31.196  27.977  1.00  0.00     0.031 A 
BRANCH  49  63
ATOM     63  C   UNL A   1      49.654  26.402  26.242  1.00  0.00    -0.014 A 
ATOM     64  C   UNL A   1      50.202  26.697  24.980  1.00  0.00     0.010 A 
ATOM     65  C   UNL A   1      50.417  25.665  27.166  1.00  0.00     0.010 A 
ATOM     66  C   UNL A   1      51.474  26.234  24.637  1.00  0.00     0.020 A 
ATOM     67  C   UNL A   1      51.702  25.224  26.835  1.00  0.00     0.020 A 
ATOM     68  C   UNL A   1      52.217  25.500  25.566  1.00  0.00     0.054 A 
BRANCH  68  69
ATOM     69  S   UNL A   1      53.880  24.943  25.106  1.00  0.00     0.124 S 
ATOM     70  O   UNL A   1      54.667  25.353  26.265  1.00  0.00    -0.237 OA
ATOM     71  O   UNL A   1      53.702  23.502  24.945  1.00  0.00    -0.237 OA
ATOM     72  O   UNL A   1      54.161  25.674  23.872  1.00  0.00    -0.744 OA
ENDBRANCH  68  69
ENDBRANCH  49  63
BRANCH  50  73
ATOM     73  C   UNL A   1      40.494  29.313  28.987  1.00  0.00    -0.014 A 
ATOM     74  C   UNL A   1      40.212  29.493  30.353  1.00  0.00     0.010 A 
ATOM     75  C   UNL A   1      39.477  29.546  28.044  1.00  0.00     0.010 A 
ATOM     76  C   UNL A   1      38.932  29.869  30.769  1.00  0.00     0.020 A 
ATOM     77  C   UNL A   1      38.204  29.951  28.454  1.00  0.00     0.020 A 
ATOM     78  C   UNL A   1      37.934  30.094  29.816  1.00  0.00     0.054 A 
BRANCH  78  79
ATOM     79  S   UNL A   1      36.289  30.614  30.375  1.00  0.00     0.124 S 
ATOM     80  O   UNL A   1      35.886  29.492  31.217  1.00  0.00    -0.237 OA
ATOM     81  O   UNL A   1      36.573  31.864  31.078  1.00  0.00    -0.237 OA
ATOM     82  O   UNL A   1      35.539  30.766  29.130  1.00  0.00    -0.744 OA
ENDBRANCH  78  79
ENDBRANCH  50  73
BRANCH  62  83
ATOM     83  C   UNL A   1      46.562  32.638  28.129  1.00  0.00    -0.014 A 
ATOM     84  C   UNL A   1      47.079  33.127  29.342  1.00  0.00     0.010 A 
ATOM     85  C   UNL A   1      46.470  33.502  27.023  1.00  0.00     0.010 A 
ATOM     86  C   UNL A   1      47.470  34.463  29.454  1.00  0.00     0.020 A 
ATOM     87  C   UNL A   1      46.885  34.833  27.124  1.00  0.00     0.020 A 
ATOM     88  C   UNL A   1      47.370  35.308  28.344  1.00  0.00     0.054 A 
BRANCH  88  89
ATOM     89  S   UNL A   1      47.925  37.028  28.501  1.00  0.00     0.124 S 
ATOM     90  O   UNL A   1      47.040  37.539  29.545  1.00  0.00    -0.237 OA
ATOM     91  O   UNL A   1      49.327  36.879  28.883  1.00  0.00    -0.237 OA
ATOM     92  O   UNL A   1      47.705  37.587  27.169  1.00  0.00    -0.744 OA
ENDBRANCH  88  89
ENDBRANCH  62  83
ENDBRANCH  36  37
ENDBRANCH  28  31
ENDBRANCH  26  27
ENDBRANCH  25  26
ENDBRANCH   1  25
TORSDOF 18
ENDMDL
MODEL 3
REMARK VINA RESULT:     -10.1      3.995      5.515
REMARK SMILES CC[C@@H](C)N(C)C(=O)N1[C@@H](C(=O)NCCCCNC(=O)c2ccc(-c3c4nc(c(-c5ccc(S(=O)(=O)[O-])cc5)c5ccc([nH]5)c(-c5ccc(S(=O)(=O)[O-])cc5)c5nc(c(-c6ccc(S(=O)(=O)[O-])cc6)c6ccc3[nH]6)C=C5)C=C4)cc2)CC[C@H]2CCCC[C@H]21
REMARK SMILES IDX 15 1 14 2 13 3 11 4 12 5 10 7 9 8 88 9 81 10 83 11 87 12
REMARK SMILES IDX 82 13 84 14 86 15 85 16 7 17 8 18 5 19 6 20 3 21 4 22 2 23
REMARK SMILES IDX 1 24 16 25 17 26 18 27 19 28 20 30 21 31 22 32 80 33 23 34
REMARK SMILES IDX 79 35 24 36 25 37 26 38 73 39 27 40 78 41 72 42 74 43 28 44
REMARK SMILES IDX 77 45 71 46 70 47 29 49 59 50 40 51 58 52 41 53 44 54 57 55
REMARK SMILES IDX 75 56 42 57 43 58 56 60 76 61 45 62 30 63 31 64 39 65 32 66
REMARK SMILES IDX 38 67 33 68 34 69 35 70 36 71 37 72 60 73 61 74 69 75 62 76
REMARK SMILES IDX 68 77 63 78 64 79 65 80 66 81 67 82 46 83 47 84 55 85 48 86
REMARK SMILES IDX 54 87 49 88 50 89 51 90 52 91 53 92
REMARK H PARENT 13 6 18 29 74 48 44 59
REMARK Flexibility Score: inf
ROOT
ATOM      1  C   UNL A   1      31.846  29.501  27.257  1.00  0.00     0.023 C 
ENDROOT
BRANCH   1   2
ATOM      2  C   UNL A   1      32.245  28.031  27.250  1.00  0.00     0.116 C 
BRANCH   2   3
ATOM      3  N   UNL A   1      31.090  27.168  27.094  1.00  0.00    -0.354 N 
ATOM      4  C   UNL A   1      31.032  25.876  26.664  1.00  0.00     0.242 C 
ATOM      5  O   UNL A   1      29.916  25.377  26.490  1.00  0.00    -0.273 OA
ATOM      6  H   UNL A   1      30.225  27.573  27.333  1.00  0.00     0.163 HD
BRANCH   4   7
ATOM      7  C   UNL A   1      32.302  25.099  26.248  1.00  0.00     0.176 C 
ATOM      8  N   UNL A   1      32.569  24.969  24.794  1.00  0.00    -0.309 N 
ATOM      9  C   UNL A   1      33.646  24.030  24.424  1.00  0.00     0.091 C 
ATOM     10  C   UNL A   1      32.208  23.724  26.958  1.00  0.00     0.036 C 
ATOM     11  C   UNL A   1      33.452  22.634  25.031  1.00  0.00     0.012 C 
ATOM     12  C   UNL A   1      34.019  23.878  22.938  1.00  0.00     0.025 C 
ATOM     13  C   UNL A   1      33.287  22.731  26.549  1.00  0.00     0.008 C 
ATOM     14  C   UNL A   1      32.333  21.825  24.352  1.00  0.00     0.006 C 
ATOM     15  C   UNL A   1      33.184  22.861  22.153  1.00  0.00     0.002 C 
ATOM     16  C   UNL A   1      32.021  22.234  22.914  1.00  0.00     0.000 C 
BRANCH   8  17
ATOM     17  C   UNL A   1      32.030  25.791  23.823  1.00  0.00     0.320 C 
ATOM     18  O   UNL A   1      31.153  25.339  23.085  1.00  0.00    -0.248 OA
BRANCH  17  19
ATOM     19  N   UNL A   1      32.461  27.094  23.677  1.00  0.00    -0.325 N 
ATOM     20  C   UNL A   1      33.816  27.573  23.911  1.00  0.00     0.149 C 
BRANCH  19  21
ATOM     21  C   UNL A   1      31.569  28.062  22.982  1.00  0.00     0.083 C 
ATOM     22  C   UNL A   1      32.336  29.235  22.359  1.00  0.00     0.031 C 
BRANCH  21  23
ATOM     23  C   UNL A   1      30.401  28.498  23.897  1.00  0.00     0.021 C 
ATOM     24  C   UNL A   1      29.853  29.885  23.600  1.00  0.00     0.006 C 
ENDBRANCH  21  23
ENDBRANCH  19  21
ENDBRANCH  17  19
ENDBRANCH   8  17
ENDBRANCH   4   7
ENDBRANCH   2   3
ENDBRANCH   1   2
BRANCH   1  25
ATOM     25  C   UNL A   1      32.883  30.434  26.632  1.00  0.00     0.023 C 
BRANCH  25  26
ATOM     26  C   UNL A   1      33.716  31.227  27.633  1.00  0.00     0.116 C 
BRANCH  26  27
ATOM     27  N   UNL A   1      33.217  32.578  27.836  1.00  0.00    -0.352 N 
ATOM     28  C   UNL A   1      33.656  33.529  28.730  1.00  0.00     0.251 C 
ATOM     29  H   UNL A   1      32.469  32.849  27.256  1.00  0.00     0.163 HD
ATOM     30  O   UNL A   1      33.036  34.569  28.889  1.00  0.00    -0.269 OA
BRANCH  28  31
ATOM     31  C   UNL A   1      34.875  33.252  29.518  1.00  0.00     0.039 A 
ATOM     32  C   UNL A   1      34.799  32.359  30.589  1.00  0.00     0.014 A 
ATOM     33  C   UNL A   1      36.094  33.838  29.167  1.00  0.00     0.014 A 
ATOM     34  C   UNL A   1      35.965  32.001  31.267  1.00  0.00     0.010 A 
ATOM     35  C   UNL A   1      37.263  33.427  29.798  1.00  0.00     0.010 A 
ATOM     36  C   UNL A   1      37.210  32.503  30.854  1.00  0.00    -0.014 A 
BRANCH  36  37
ATOM     37  C   UNL A   1      38.470  32.069  31.508  1.00  0.00     0.031 A 
ATOM     38  C   UNL A   1      38.877  32.666  32.828  1.00  0.00     0.074 A 
ATOM     39  C   UNL A   1      39.277  31.186  30.886  1.00  0.00     0.049 A 
ATOM     40  N   UNL A   1      39.967  32.462  33.522  1.00  0.00    -0.248 NA
ATOM     41  C   UNL A   1      37.951  33.637  33.434  1.00  0.00     0.031 C 
ATOM     42  C   UNL A   1      39.015  30.569  29.582  1.00  0.00     0.029 A 
ATOM     43  N   UNL A   1      40.487  30.660  31.262  1.00  0.00    -0.354 N 
ATOM     44  C   UNL A   1      39.865  33.287  34.636  1.00  0.00     0.074 A 
ATOM     45  C   UNL A   1      38.631  34.030  34.502  1.00  0.00     0.031 C 
ATOM     46  C   UNL A   1      40.021  29.731  29.282  1.00  0.00     0.029 A 
ATOM     47  C   UNL A   1      41.016  29.779  30.348  1.00  0.00     0.049 A 
ATOM     48  H   UNL A   1      40.935  30.891  32.108  1.00  0.00     0.167 HD
ATOM     49  C   UNL A   1      40.711  33.400  35.687  1.00  0.00     0.031 A 
ATOM     50  C   UNL A   1      42.176  29.094  30.361  1.00  0.00     0.031 A 
ATOM     51  C   UNL A   1      41.929  32.649  35.827  1.00  0.00     0.049 A 
ATOM     52  C   UNL A   1      43.100  29.240  31.540  1.00  0.00     0.074 A 
ATOM     53  C   UNL A   1      42.827  32.656  36.879  1.00  0.00     0.029 A 
ATOM     54  N   UNL A   1      42.420  31.754  34.888  1.00  0.00    -0.354 N 
ATOM     55  N   UNL A   1      42.954  29.979  32.614  1.00  0.00    -0.248 NA
ATOM     56  C   UNL A   1      44.339  28.450  31.514  1.00  0.00     0.031 C 
ATOM     57  C   UNL A   1      43.884  31.798  36.558  1.00  0.00     0.029 A 
ATOM     58  C   UNL A   1      43.617  31.218  35.328  1.00  0.00     0.049 A 
ATOM     59  H   UNL A   1      41.982  31.535  34.034  1.00  0.00     0.167 HD
ATOM     60  C   UNL A   1      44.070  29.722  33.403  1.00  0.00     0.074 A 
ATOM     61  C   UNL A   1      44.872  28.749  32.692  1.00  0.00     0.031 C 
ATOM     62  C   UNL A   1      44.400  30.245  34.609  1.00  0.00     0.031 A 
BRANCH  49  63
ATOM     63  C   UNL A   1      40.343  34.373  36.776  1.00  0.00    -0.014 A 
ATOM     64  C   UNL A   1      40.857  35.682  36.779  1.00  0.00     0.010 A 
ATOM     65  C   UNL A   1      39.434  33.992  37.779  1.00  0.00     0.010 A 
ATOM     66  C   UNL A   1      40.497  36.581  37.786  1.00  0.00     0.020 A 
ATOM     67  C   UNL A   1      39.050  34.897  38.772  1.00  0.00     0.020 A 
ATOM     68  C   UNL A   1      39.596  36.183  38.777  1.00  0.00     0.054 A 
BRANCH  68  69
ATOM     69  S   UNL A   1      39.119  37.382  40.051  1.00  0.00     0.124 S 
ATOM     70  O   UNL A   1      38.194  38.245  39.321  1.00  0.00    -0.237 OA
ATOM     71  O   UNL A   1      38.512  36.537  41.076  1.00  0.00    -0.237 OA
ATOM     72  O   UNL A   1      40.384  38.006  40.431  1.00  0.00    -0.744 OA
ENDBRANCH  68  69
ENDBRANCH  49  63
BRANCH  50  73
ATOM     73  C   UNL A   1      42.528  28.196  29.227  1.00  0.00    -0.014 A 
ATOM     74  C   UNL A   1      43.279  28.677  28.141  1.00  0.00     0.010 A 
ATOM     75  C   UNL A   1      42.105  26.854  29.224  1.00  0.00     0.010 A 
ATOM     76  C   UNL A   1      43.578  27.843  27.061  1.00  0.00     0.020 A 
ATOM     77  C   UNL A   1      42.427  26.009  28.159  1.00  0.00     0.020 A 
ATOM     78  C   UNL A   1      43.148  26.513  27.075  1.00  0.00     0.054 A 
BRANCH  78  79
ATOM     79  S   UNL A   1      43.575  25.438  25.677  1.00  0.00     0.124 S 
ATOM     80  O   UNL A   1      42.431  25.624  24.791  1.00  0.00    -0.237 OA
ATOM     81  O   UNL A   1      44.838  26.009  25.212  1.00  0.00    -0.237 OA
ATOM     82  O   UNL A   1      43.688  24.115  26.288  1.00  0.00    -0.744 OA
ENDBRANCH  78  79
ENDBRANCH  50  73
BRANCH  62  83
ATOM     83  C   UNL A   1      45.665  29.750  35.256  1.00  0.00    -0.014 A 
ATOM     84  C   UNL A   1      46.892  30.408  35.058  1.00  0.00     0.010 A 
ATOM     85  C   UNL A   1      45.613  28.640  36.120  1.00  0.00     0.010 A 
ATOM     86  C   UNL A   1      48.050  29.947  35.688  1.00  0.00     0.020 A 
ATOM     87  C   UNL A   1      46.764  28.192  36.772  1.00  0.00     0.020 A 
ATOM     88  C   UNL A   1      47.979  28.841  36.542  1.00  0.00     0.054 A 
BRANCH  88  89
ATOM     89  S   UNL A   1      49.487  28.289  37.384  1.00  0.00     0.124 S 
ATOM     90  O   UNL A   1      49.811  27.065  36.656  1.00  0.00    -0.237 OA
ATOM     91  O   UNL A   1      50.402  29.407  37.171  1.00  0.00    -0.237 OA
ATOM     92  O   UNL A   1      49.060  28.096  38.768  1.00  0.00    -0.744 OA
ENDBRANCH  88  89
ENDBRANCH  62  83
ENDBRANCH  36  37
ENDBRANCH  28  31
ENDBRANCH  26  27
ENDBRANCH  25  26
ENDBRANCH   1  25
TORSDOF 18
ENDMDL
