MODEL 1
REMARK VINA RESULT:     -11.4      0.000      0.000
REMARK SMILES O=C(NCCCCNC(=O)[C@H]1[C@H]2CC[C@H](CC2)[C@@H]1C(=O)Nc1ccc(Cc2ccncc2)cc1)c1ccc(-c2c3nc(c(-c4ccc(S(=O)(=O)[O-])cc4)c4ccc([nH]4)c(-c4ccc(S(=O)(=O)[O-])cc4)c4nc(c(-c5ccc(S(=O)(=O)[O-])cc5)c5ccc2[nH]5)C=C4)C=C3)cc1
REMARK SMILES IDX 6 1 5 2 4 3 3 4 1 5 2 6 35 8 36 9 94 10 37 11 93 12 38 13
REMARK SMILES IDX 39 14 40 15 87 16 41 17 92 18 86 19 88 20 42 21 91 22 85 23
REMARK SMILES IDX 84 24 43 26 73 27 54 28 72 29 55 30 58 31 71 32 89 33 56 34
REMARK SMILES IDX 57 35 70 37 90 38 59 39 44 40 45 41 53 42 46 43 52 44 47 45
REMARK SMILES IDX 48 46 49 47 50 48 51 49 74 50 75 51 83 52 76 53 82 54 77 55
REMARK SMILES IDX 78 56 79 57 80 58 81 59 60 60 61 61 69 62 62 63 68 64 63 65
REMARK SMILES IDX 64 66 65 67 66 68 67 69 7 70 8 71 9 72 10 74 11 75 12 76
REMARK SMILES IDX 18 77 13 78 17 79 15 80 14 81 16 82 19 83 20 84 21 85 22 87
REMARK SMILES IDX 23 88 34 89 24 90 33 91 25 92 26 93 27 94 28 95 32 96 29 97
REMARK SMILES IDX 31 98 30 99
REMARK H PARENT 3 7 88 25 58 36 8 73 21 86
REMARK Flexibility Score: inf
ROOT
ATOM      1  C   UNL A   1      34.531  23.913  23.532  1.00  0.00     0.023 C 
ENDROOT
BRANCH   1   2
ATOM      2  C   UNL A   1      35.993  23.447  23.573  1.00  0.00     0.023 C 
BRANCH   2   3
ATOM      3  C   UNL A   1      36.784  23.775  24.840  1.00  0.00     0.116 C 
BRANCH   3   4
ATOM      4  N   UNL A   1      37.653  22.697  25.282  1.00  0.00    -0.352 N 
ATOM      5  O   UNL A   1      39.375  21.640  26.253  1.00  0.00    -0.269 OA
ATOM      6  C   UNL A   1      38.757  22.698  26.106  1.00  0.00     0.251 C 
ATOM      7  H   UNL A   1      37.410  21.810  24.931  1.00  0.00     0.163 HD
BRANCH   6   8
ATOM      8  C   UNL A   1      39.247  23.925  26.787  1.00  0.00     0.039 A 
ATOM      9  C   UNL A   1      38.906  24.245  28.104  1.00  0.00     0.014 A 
ATOM     10  C   UNL A   1      40.089  24.794  26.076  1.00  0.00     0.014 A 
ATOM     11  C   UNL A   1      39.277  25.481  28.650  1.00  0.00     0.010 A 
ATOM     12  C   UNL A   1      40.519  26.001  26.647  1.00  0.00     0.010 A 
ATOM     13  C   UNL A   1      40.090  26.376  27.928  1.00  0.00    -0.014 A 
BRANCH  13  14
ATOM     14  C   UNL A   1      40.582  27.633  28.556  1.00  0.00     0.031 A 
ATOM     15  C   UNL A   1      41.934  27.735  29.219  1.00  0.00     0.074 A 
ATOM     16  C   UNL A   1      39.757  28.697  28.563  1.00  0.00     0.049 A 
ATOM     17  N   UNL A   1      42.477  28.759  29.832  1.00  0.00    -0.248 NA
ATOM     18  C   UNL A   1      42.794  26.547  29.178  1.00  0.00     0.031 C 
ATOM     19  C   UNL A   1      38.427  28.731  27.948  1.00  0.00     0.029 A 
ATOM     20  N   UNL A   1      39.898  29.940  29.125  1.00  0.00    -0.354 N 
ATOM     21  C   UNL A   1      43.741  28.339  30.242  1.00  0.00     0.074 A 
ATOM     22  C   UNL A   1      43.883  26.967  29.809  1.00  0.00     0.031 C 
ATOM     23  C   UNL A   1      37.870  29.927  28.177  1.00  0.00     0.029 A 
ATOM     24  C   UNL A   1      38.768  30.713  29.016  1.00  0.00     0.049 A 
ATOM     25  H   UNL A   1      40.725  30.246  29.562  1.00  0.00     0.167 HD
ATOM     26  C   UNL A   1      44.685  29.022  30.937  1.00  0.00     0.031 A 
ATOM     27  C   UNL A   1      38.452  31.897  29.572  1.00  0.00     0.031 A 
ATOM     28  C   UNL A   1      44.496  30.356  31.452  1.00  0.00     0.049 A 
ATOM     29  C   UNL A   1      39.460  32.594  30.434  1.00  0.00     0.074 A 
ATOM     30  C   UNL A   1      45.386  31.138  32.168  1.00  0.00     0.029 A 
ATOM     31  N   UNL A   1      43.321  31.086  31.343  1.00  0.00    -0.354 N 
ATOM     32  N   UNL A   1      40.666  32.201  30.763  1.00  0.00    -0.248 NA
ATOM     33  C   UNL A   1      39.071  33.894  30.991  1.00  0.00     0.031 C 
ATOM     34  C   UNL A   1      44.722  32.304  32.561  1.00  0.00     0.029 A 
ATOM     35  C   UNL A   1      43.448  32.290  32.016  1.00  0.00     0.049 A 
ATOM     36  H   UNL A   1      42.516  30.792  30.860  1.00  0.00     0.167 HD
ATOM     37  C   UNL A   1      41.196  33.222  31.541  1.00  0.00     0.074 A 
ATOM     38  C   UNL A   1      40.176  34.247  31.637  1.00  0.00     0.031 C 
ATOM     39  C   UNL A   1      42.423  33.304  32.110  1.00  0.00     0.031 A 
BRANCH  26  40
ATOM     40  C   UNL A   1      45.981  28.309  31.252  1.00  0.00    -0.014 A 
ATOM     41  C   UNL A   1      47.135  28.496  30.469  1.00  0.00     0.010 A 
ATOM     42  C   UNL A   1      46.053  27.456  32.370  1.00  0.00     0.010 A 
ATOM     43  C   UNL A   1      48.314  27.801  30.763  1.00  0.00     0.020 A 
ATOM     44  C   UNL A   1      47.236  26.780  32.685  1.00  0.00     0.020 A 
ATOM     45  C   UNL A   1      48.353  26.938  31.863  1.00  0.00     0.054 A 
BRANCH  45  46
ATOM     46  S   UNL A   1      49.885  26.024  32.201  1.00  0.00     0.124 S 
ATOM     47  O   UNL A   1      50.866  27.103  32.288  1.00  0.00    -0.237 OA
ATOM     48  O   UNL A   1      49.585  25.349  33.462  1.00  0.00    -0.237 OA
ATOM     49  O   UNL A   1      50.030  25.143  31.045  1.00  0.00    -0.744 OA
ENDBRANCH  45  46
ENDBRANCH  26  40
BRANCH  27  50
ATOM     50  C   UNL A   1      37.091  32.447  29.338  1.00  0.00    -0.014 A 
ATOM     51  C   UNL A   1      36.109  32.379  30.338  1.00  0.00     0.010 A 
ATOM     52  C   UNL A   1      36.818  33.152  28.150  1.00  0.00     0.010 A 
ATOM     53  C   UNL A   1      34.882  33.027  30.163  1.00  0.00     0.020 A 
ATOM     54  C   UNL A   1      35.605  33.825  27.984  1.00  0.00     0.020 A 
ATOM     55  C   UNL A   1      34.645  33.758  28.994  1.00  0.00     0.054 A 
BRANCH  55  56
ATOM     56  S   UNL A   1      33.094  34.687  28.846  1.00  0.00     0.124 S 
ATOM     57  O   UNL A   1      33.557  35.971  28.329  1.00  0.00    -0.237 OA
ATOM     58  O   UNL A   1      32.327  33.867  27.911  1.00  0.00    -0.237 OA
ATOM     59  O   UNL A   1      32.575  34.711  30.211  1.00  0.00    -0.744 OA
ENDBRANCH  55  56
ENDBRANCH  27  50
BRANCH  39  60
ATOM     60  C   UNL A   1      42.769  34.567  32.851  1.00  0.00    -0.014 A 
ATOM     61  C   UNL A   1      42.632  34.665  34.247  1.00  0.00     0.010 A 
ATOM     62  C   UNL A   1      43.330  35.644  32.139  1.00  0.00     0.010 A 
ATOM     63  C   UNL A   1      43.046  35.820  34.916  1.00  0.00     0.020 A 
ATOM     64  C   UNL A   1      43.770  36.789  32.807  1.00  0.00     0.020 A 
ATOM     65  C   UNL A   1      43.621  36.871  34.192  1.00  0.00     0.054 A 
BRANCH  65  66
ATOM     66  S   UNL A   1      44.231  38.322  35.092  1.00  0.00     0.124 S 
ATOM     67  O   UNL A   1      45.667  38.262  34.830  1.00  0.00    -0.237 OA
ATOM     68  O   UNL A   1      43.520  39.422  34.445  1.00  0.00    -0.237 OA
ATOM     69  O   UNL A   1      43.840  38.064  36.476  1.00  0.00    -0.744 OA
ENDBRANCH  65  66
ENDBRANCH  39  60
ENDBRANCH  13  14
ENDBRANCH   6   8
ENDBRANCH   3   4
ENDBRANCH   2   3
ENDBRANCH   1   2
BRANCH   1  70
ATOM     70  C   UNL A   1      34.188  25.115  24.418  1.00  0.00     0.116 C 
BRANCH  70  71
ATOM     71  N   UNL A   1      34.439  26.391  23.771  1.00  0.00    -0.356 N 
ATOM     72  C   UNL A   1      33.891  27.625  23.946  1.00  0.00     0.224 C 
ATOM     73  H   UNL A   1      35.136  26.358  23.077  1.00  0.00     0.163 HD
ATOM     74  O   UNL A   1      34.333  28.531  23.234  1.00  0.00    -0.275 OA
BRANCH  72  75
ATOM     75  C   UNL A   1      32.797  27.882  24.987  1.00  0.00     0.094 C 
ATOM     76  C   UNL A   1      33.509  27.909  26.375  1.00  0.00     0.002 C 
ATOM     77  C   UNL A   1      32.005  29.214  24.799  1.00  0.00     0.094 C 
ATOM     78  C   UNL A   1      34.323  29.213  26.587  1.00  0.00     0.005 C 
ATOM     79  C   UNL A   1      32.419  27.871  27.453  1.00  0.00     0.005 C 
ATOM     80  C   UNL A   1      31.983  29.999  26.150  1.00  0.00     0.002 C 
ATOM     81  C   UNL A   1      33.431  30.450  26.414  1.00  0.00     0.005 C 
ATOM     82  C   UNL A   1      31.551  29.128  27.349  1.00  0.00     0.005 C 
BRANCH  77  83
ATOM     83  C   UNL A   1      30.576  29.002  24.281  1.00  0.00     0.228 C 
ATOM     84  O   UNL A   1      29.880  29.965  23.934  1.00  0.00    -0.274 OA
ATOM     85  N   UNL A   1      29.983  27.780  24.153  1.00  0.00    -0.326 N 
ATOM     86  H   UNL A   1      29.118  27.832  23.686  1.00  0.00     0.169 HD
BRANCH  85  87
ATOM     87  C   UNL A   1      30.309  26.465  24.527  1.00  0.00     0.041 A 
ATOM     88  C   UNL A   1      30.641  25.562  23.515  1.00  0.00     0.026 A 
ATOM     89  C   UNL A   1      30.279  25.979  25.821  1.00  0.00     0.026 A 
ATOM     90  C   UNL A   1      30.851  24.207  23.805  1.00  0.00     0.006 A 
ATOM     91  C   UNL A   1      30.413  24.625  26.114  1.00  0.00     0.006 A 
ATOM     92  C   UNL A   1      30.683  23.712  25.105  1.00  0.00    -0.043 A 
BRANCH  92  93
ATOM     93  C   UNL A   1      30.805  22.249  25.456  1.00  0.00     0.071 C 
BRANCH  93  94
ATOM     94  C   UNL A   1      32.226  21.785  25.635  1.00  0.00    -0.041 A 
ATOM     95  C   UNL A   1      33.037  22.306  26.650  1.00  0.00     0.024 A 
ATOM     96  C   UNL A   1      32.768  20.832  24.782  1.00  0.00     0.024 A 
ATOM     97  C   UNL A   1      34.356  21.893  26.740  1.00  0.00     0.111 A 
ATOM     98  C   UNL A   1      34.088  20.478  24.969  1.00  0.00     0.111 A 
ATOM     99  N   UNL A   1      34.906  20.992  25.909  1.00  0.00    -0.265 NA
ENDBRANCH  93  94
ENDBRANCH  92  93
ENDBRANCH  85  87
ENDBRANCH  77  83
ENDBRANCH  72  75
ENDBRANCH  70  71
ENDBRANCH   1  70
TORSDOF 18
ENDMDL
MODEL 2
REMARK VINA RESULT:     -11.1      3.363      5.562
REMARK SMILES O=C(NCCCCNC(=O)[C@H]1[C@H]2CC[C@H](CC2)[C@@H]1C(=O)Nc1ccc(Cc2ccncc2)cc1)c1ccc(-c2c3nc(c(-c4ccc(S(=O)(=O)[O-])cc4)c4ccc([nH]4)c(-c4ccc(S(=O)(=O)[O-])cc4)c4nc(c(-c5ccc(S(=O)(=O)[O-])cc5)c5ccc2[nH]5)C=C4)C=C3)cc1
REMARK SMILES IDX 6 1 5 2 4 3 3 4 1 5 2 6 35 8 36 9 94 10 37 11 93 12 38 13
REMARK SMILES IDX 39 14 40 15 87 16 41 17 92 18 86 19 88 20 42 21 91 22 85 23
REMARK SMILES IDX 84 24 43 26 73 27 54 28 72 29 55 30 58 31 71 32 89 33 56 34
REMARK SMILES IDX 57 35 70 37 90 38 59 39 44 40 45 41 53 42 46 43 52 44 47 45
REMARK SMILES IDX 48 46 49 47 50 48 51 49 74 50 75 51 83 52 76 53 82 54 77 55
REMARK SMILES IDX 78 56 79 57 80 58 81 59 60 60 61 61 69 62 62 63 68 64 63 65
REMARK SMILES IDX 64 66 65 67 66 68 67 69 7 70 8 71 9 72 10 74 11 75 12 76
REMARK SMILES IDX 18 77 13 78 17 79 15 80 14 81 16 82 19 83 20 84 21 85 22 87
REMARK SMILES IDX 23 88 34 89 24 90 33 91 25 92 26 93 27 94 28 95 32 96 29 97
REMARK SMILES IDX 31 98 30 99
REMARK H PARENT 3 7 88 25 58 36 8 73 21 86
REMARK Flexibility Score: inf
ROOT
ATOM      1  C   UNL A   1      38.674  21.627  25.710  1.00  0.00     0.023 C 
ENDROOT
BRANCH   1   2
ATOM      2  C   UNL A   1      39.022  22.879  26.526  1.00  0.00     0.023 C 
BRANCH   2   3
ATOM      3  C   UNL A   1      40.480  23.036  26.956  1.00  0.00     0.116 C 
BRANCH   3   4
ATOM      4  N   UNL A   1      41.295  23.770  26.001  1.00  0.00    -0.352 N 
ATOM      5  O   UNL A   1      42.408  25.461  25.040  1.00  0.00    -0.269 OA
ATOM      6  C   UNL A   1      41.811  25.046  26.036  1.00  0.00     0.251 C 
ATOM      7  H   UNL A   1      41.517  23.265  25.186  1.00  0.00     0.163 HD
BRANCH   6   8
ATOM      8  C   UNL A   1      41.643  25.946  27.208  1.00  0.00     0.039 A 
ATOM      9  C   UNL A   1      40.590  25.812  28.118  1.00  0.00     0.014 A 
ATOM     10  C   UNL A   1      42.584  26.968  27.407  1.00  0.00     0.014 A 
ATOM     11  C   UNL A   1      40.397  26.771  29.122  1.00  0.00     0.010 A 
ATOM     12  C   UNL A   1      42.431  27.888  28.455  1.00  0.00     0.010 A 
ATOM     13  C   UNL A   1      41.317  27.822  29.304  1.00  0.00    -0.014 A 
BRANCH  13  14
ATOM     14  C   UNL A   1      41.175  28.767  30.445  1.00  0.00     0.031 A 
ATOM     15  C   UNL A   1      41.995  28.648  31.707  1.00  0.00     0.074 A 
ATOM     16  C   UNL A   1      40.241  29.733  30.349  1.00  0.00     0.049 A 
ATOM     17  N   UNL A   1      41.953  29.383  32.791  1.00  0.00    -0.248 NA
ATOM     18  C   UNL A   1      43.000  27.580  31.755  1.00  0.00     0.031 C 
ATOM     19  C   UNL A   1      39.389  29.963  29.180  1.00  0.00     0.029 A 
ATOM     20  N   UNL A   1      39.834  30.682  31.252  1.00  0.00    -0.354 N 
ATOM     21  C   UNL A   1      42.928  28.871  33.644  1.00  0.00     0.074 A 
ATOM     22  C   UNL A   1      43.543  27.761  32.952  1.00  0.00     0.031 C 
ATOM     23  C   UNL A   1      38.552  30.974  29.440  1.00  0.00     0.029 A 
ATOM     24  C   UNL A   1      38.756  31.414  30.816  1.00  0.00     0.049 A 
ATOM     25  H   UNL A   1      40.269  30.823  32.123  1.00  0.00     0.167 HD
ATOM     26  C   UNL A   1      43.261  29.269  34.897  1.00  0.00     0.031 A 
ATOM     27  C   UNL A   1      37.973  32.299  31.459  1.00  0.00     0.031 A 
ATOM     28  C   UNL A   1      42.575  30.312  35.619  1.00  0.00     0.049 A 
ATOM     29  C   UNL A   1      38.279  32.650  32.882  1.00  0.00     0.074 A 
ATOM     30  C   UNL A   1      42.831  30.792  36.892  1.00  0.00     0.029 A 
ATOM     31  N   UNL A   1      41.468  31.003  35.147  1.00  0.00    -0.354 N 
ATOM     32  N   UNL A   1      39.237  32.191  33.650  1.00  0.00    -0.248 NA
ATOM     33  C   UNL A   1      37.409  33.641  33.524  1.00  0.00     0.031 C 
ATOM     34  C   UNL A   1      41.831  31.714  37.219  1.00  0.00     0.029 A 
ATOM     35  C   UNL A   1      41.003  31.874  36.120  1.00  0.00     0.049 A 
ATOM     36  H   UNL A   1      41.070  30.890  34.254  1.00  0.00     0.167 HD
ATOM     37  C   UNL A   1      39.107  32.863  34.859  1.00  0.00     0.074 A 
ATOM     38  C   UNL A   1      37.973  33.755  34.720  1.00  0.00     0.031 C 
ATOM     39  C   UNL A   1      39.869  32.756  35.974  1.00  0.00     0.031 A 
BRANCH  26  40
ATOM     40  C   UNL A   1      44.370  28.521  35.603  1.00  0.00    -0.014 A 
ATOM     41  C   UNL A   1      44.111  27.372  36.373  1.00  0.00     0.010 A 
ATOM     42  C   UNL A   1      45.702  28.959  35.470  1.00  0.00     0.010 A 
ATOM     43  C   UNL A   1      45.151  26.714  37.042  1.00  0.00     0.020 A 
ATOM     44  C   UNL A   1      46.748  28.290  36.113  1.00  0.00     0.020 A 
ATOM     45  C   UNL A   1      46.461  27.185  36.917  1.00  0.00     0.054 A 
BRANCH  45  46
ATOM     46  S   UNL A   1      47.785  26.333  37.821  1.00  0.00     0.124 S 
ATOM     47  O   UNL A   1      48.166  27.336  38.812  1.00  0.00    -0.237 OA
ATOM     48  O   UNL A   1      47.104  25.155  38.354  1.00  0.00    -0.237 OA
ATOM     49  O   UNL A   1      48.789  26.059  36.796  1.00  0.00    -0.744 OA
ENDBRANCH  45  46
ENDBRANCH  26  40
BRANCH  27  50
ATOM     50  C   UNL A   1      36.805  32.865  30.735  1.00  0.00    -0.014 A 
ATOM     51  C   UNL A   1      35.503  32.423  31.019  1.00  0.00     0.010 A 
ATOM     52  C   UNL A   1      36.988  33.941  29.844  1.00  0.00     0.010 A 
ATOM     53  C   UNL A   1      34.403  33.062  30.440  1.00  0.00     0.020 A 
ATOM     54  C   UNL A   1      35.890  34.600  29.289  1.00  0.00     0.020 A 
ATOM     55  C   UNL A   1      34.603  34.156  29.592  1.00  0.00     0.054 A 
BRANCH  55  56
ATOM     56  S   UNL A   1      33.154  35.041  28.951  1.00  0.00     0.124 S 
ATOM     57  O   UNL A   1      32.358  35.233  30.159  1.00  0.00    -0.237 OA
ATOM     58  O   UNL A   1      33.751  36.249  28.387  1.00  0.00    -0.237 OA
ATOM     59  O   UNL A   1      32.593  34.116  27.970  1.00  0.00    -0.744 OA
ENDBRANCH  55  56
ENDBRANCH  27  50
BRANCH  39  60
ATOM     60  C   UNL A   1      39.547  33.662  37.131  1.00  0.00    -0.014 A 
ATOM     61  C   UNL A   1      38.742  33.234  38.202  1.00  0.00     0.010 A 
ATOM     62  C   UNL A   1      40.143  34.936  37.188  1.00  0.00     0.010 A 
ATOM     63  C   UNL A   1      38.535  34.067  39.304  1.00  0.00     0.020 A 
ATOM     64  C   UNL A   1      39.961  35.760  38.300  1.00  0.00     0.020 A 
ATOM     65  C   UNL A   1      39.154  35.322  39.350  1.00  0.00     0.054 A 
BRANCH  65  66
ATOM     66  S   UNL A   1      38.943  36.348  40.831  1.00  0.00     0.124 S 
ATOM     67  O   UNL A   1      40.281  36.317  41.416  1.00  0.00    -0.237 OA
ATOM     68  O   UNL A   1      38.531  37.634  40.272  1.00  0.00    -0.237 OA
ATOM     69  O   UNL A   1      37.912  35.649  41.595  1.00  0.00    -0.744 OA
ENDBRANCH  65  66
ENDBRANCH  39  60
ENDBRANCH  13  14
ENDBRANCH   6   8
ENDBRANCH   3   4
ENDBRANCH   2   3
ENDBRANCH   1   2
BRANCH   1  70
ATOM     70  C   UNL A   1      37.595  21.806  24.637  1.00  0.00     0.116 C 
BRANCH  70  71
ATOM     71  N   UNL A   1      36.891  23.073  24.740  1.00  0.00    -0.356 N 
ATOM     72  C   UNL A   1      35.576  23.399  24.609  1.00  0.00     0.224 C 
ATOM     73  H   UNL A   1      37.475  23.840  24.943  1.00  0.00     0.163 HD
ATOM     74  O   UNL A   1      35.283  24.587  24.766  1.00  0.00    -0.275 OA
BRANCH  72  75
ATOM     75  C   UNL A   1      34.510  22.342  24.303  1.00  0.00     0.094 C 
ATOM     76  C   UNL A   1      34.712  21.200  25.346  1.00  0.00     0.002 C 
ATOM     77  C   UNL A   1      33.035  22.848  24.386  1.00  0.00     0.094 C 
ATOM     78  C   UNL A   1      34.217  21.607  26.759  1.00  0.00     0.005 C 
ATOM     79  C   UNL A   1      33.863  20.006  24.892  1.00  0.00     0.005 C 
ATOM     80  C   UNL A   1      32.206  21.879  25.289  1.00  0.00     0.002 C 
ATOM     81  C   UNL A   1      32.747  22.047  26.719  1.00  0.00     0.005 C 
ATOM     82  C   UNL A   1      32.382  20.394  24.906  1.00  0.00     0.005 C 
BRANCH  77  83
ATOM     83  C   UNL A   1      32.368  23.000  23.012  1.00  0.00     0.228 C 
ATOM     84  O   UNL A   1      32.374  22.065  22.200  1.00  0.00    -0.274 OA
ATOM     85  N   UNL A   1      31.727  24.129  22.594  1.00  0.00    -0.326 N 
ATOM     86  H   UNL A   1      31.252  23.995  21.741  1.00  0.00     0.169 HD
BRANCH  85  87
ATOM     87  C   UNL A   1      31.580  25.437  23.087  1.00  0.00     0.041 A 
ATOM     88  C   UNL A   1      30.402  25.748  23.769  1.00  0.00     0.026 A 
ATOM     89  C   UNL A   1      32.493  26.459  22.904  1.00  0.00     0.026 A 
ATOM     90  C   UNL A   1      30.136  27.064  24.173  1.00  0.00     0.006 A 
ATOM     91  C   UNL A   1      32.210  27.781  23.234  1.00  0.00     0.006 A 
ATOM     92  C   UNL A   1      31.015  28.108  23.859  1.00  0.00    -0.043 A 
BRANCH  92  93
ATOM     93  C   UNL A   1      30.734  29.555  24.187  1.00  0.00     0.071 C 
BRANCH  93  94
ATOM     94  C   UNL A   1      29.684  30.182  23.309  1.00  0.00    -0.041 A 
ATOM     95  C   UNL A   1      29.675  29.974  21.925  1.00  0.00     0.024 A 
ATOM     96  C   UNL A   1      28.701  30.995  23.859  1.00  0.00     0.024 A 
ATOM     97  C   UNL A   1      28.726  30.618  21.151  1.00  0.00     0.111 A 
ATOM     98  C   UNL A   1      27.792  31.575  23.000  1.00  0.00     0.111 A 
ATOM     99  N   UNL A   1      27.783  31.429  21.661  1.00  0.00    -0.265 NA
ENDBRANCH  93  94
ENDBRANCH  92  93
ENDBRANCH  85  87
ENDBRANCH  77  83
ENDBRANCH  72  75
ENDBRANCH  70  71
ENDBRANCH   1  70
TORSDOF 18
ENDMDL
MODEL 3
REMARK VINA RESULT:     -11.0      1.400      2.342
REMARK SMILES O=C(NCCCCNC(=O)[C@H]1[C@H]2CC[C@H](CC2)[C@@H]1C(=O)Nc1ccc(Cc2ccncc2)cc1)c1ccc(-c2c3nc(c(-c4ccc(S(=O)(=O)[O-])cc4)c4ccc([nH]4)c(-c4ccc(S(=O)(=O)[O-])cc4)c4nc(c(-c5ccc(S(=O)(=O)[O-])cc5)c5ccc2[nH]5)C=C4)C=C3)cc1
REMARK SMILES IDX 6 1 5 2 4 3 3 4 1 5 2 6 35 8 36 9 94 10 37 11 93 12 38 13
REMARK SMILES IDX 39 14 40 15 87 16 41 17 92 18 86 19 88 20 42 21 91 22 85 23
REMARK SMILES IDX 84 24 43 26 73 27 54 28 72 29 55 30 58 31 71 32 89 33 56 34
REMARK SMILES IDX 57 35 70 37 90 38 59 39 44 40 45 41 53 42 46 43 52 44 47 45
REMARK SMILES IDX 48 46 49 47 50 48 51 49 74 50 75 51 83 52 76 53 82 54 77 55
REMARK SMILES IDX 78 56 79 57 80 58 81 59 60 60 61 61 69 62 62 63 68 64 63 65
REMARK SMILES IDX 64 66 65 67 66 68 67 69 7 70 8 71 9 72 10 74 11 75 12 76
REMARK SMILES IDX 18 77 13 78 17 79 15 80 14 81 16 82 19 83 20 84 21 85 22 87
REMARK SMILES IDX 23 88 34 89 24 90 33 91 25 92 26 93 27 94 28 95 32 96 29 97
REMARK SMILES IDX 31 98 30 99
REMARK H PARENT 3 7 88 25 58 36 8 73 21 86
REMARK Flexibility Score: inf
ROOT
ATOM      1  C   UNL A   1      34.408  24.417  26.195  1.00  0.00     0.023 C 
ENDROOT
BRANCH   1   2
ATOM      2  C   UNL A   1      35.409  23.456  25.538  1.00  0.00     0.023 C 
BRANCH   2   3
ATOM      3  C   UNL A   1      36.831  23.979  25.333  1.00  0.00     0.116 C 
BRANCH   3   4
ATOM      4  N   UNL A   1      37.858  22.968  25.520  1.00  0.00    -0.352 N 
ATOM      5  O   UNL A   1      39.806  22.022  26.099  1.00  0.00    -0.269 OA
ATOM      6  C   UNL A   1      39.076  23.014  26.161  1.00  0.00     0.251 C 
ATOM      7  H   UNL A   1      37.645  22.095  25.116  1.00  0.00     0.163 HD
BRANCH   6   8
ATOM      8  C   UNL A   1      39.551  24.221  26.888  1.00  0.00     0.039 A 
ATOM      9  C   UNL A   1      39.205  24.489  28.216  1.00  0.00     0.014 A 
ATOM     10  C   UNL A   1      40.386  25.124  26.211  1.00  0.00     0.014 A 
ATOM     11  C   UNL A   1      39.562  25.709  28.807  1.00  0.00     0.010 A 
ATOM     12  C   UNL A   1      40.804  26.313  26.827  1.00  0.00     0.010 A 
ATOM     13  C   UNL A   1      40.368  26.637  28.120  1.00  0.00    -0.014 A 
BRANCH  13  14
ATOM     14  C   UNL A   1      40.845  27.875  28.794  1.00  0.00     0.031 A 
ATOM     15  C   UNL A   1      42.188  27.962  29.478  1.00  0.00     0.074 A 
ATOM     16  C   UNL A   1      40.015  28.935  28.825  1.00  0.00     0.049 A 
ATOM     17  N   UNL A   1      42.719  28.967  30.131  1.00  0.00    -0.248 NA
ATOM     18  C   UNL A   1      43.054  26.780  29.410  1.00  0.00     0.031 C 
ATOM     19  C   UNL A   1      38.693  28.983  28.194  1.00  0.00     0.029 A 
ATOM     20  N   UNL A   1      40.143  30.159  29.429  1.00  0.00    -0.354 N 
ATOM     21  C   UNL A   1      43.979  28.540  30.543  1.00  0.00     0.074 A 
ATOM     22  C   UNL A   1      44.133  27.183  30.068  1.00  0.00     0.031 C 
ATOM     23  C   UNL A   1      38.128  30.168  28.454  1.00  0.00     0.029 A 
ATOM     24  C   UNL A   1      39.011  30.931  29.330  1.00  0.00     0.049 A 
ATOM     25  H   UNL A   1      40.963  30.455  29.886  1.00  0.00     0.167 HD
ATOM     26  C   UNL A   1      44.911  29.205  31.272  1.00  0.00     0.031 A 
ATOM     27  C   UNL A   1      38.682  32.095  29.920  1.00  0.00     0.031 A 
ATOM     28  C   UNL A   1      44.709  30.520  31.827  1.00  0.00     0.049 A 
ATOM     29  C   UNL A   1      39.675  32.768  30.816  1.00  0.00     0.074 A 
ATOM     30  C   UNL A   1      45.586  31.282  32.580  1.00  0.00     0.029 A 
ATOM     31  N   UNL A   1      43.532  31.248  31.726  1.00  0.00    -0.354 N 
ATOM     32  N   UNL A   1      40.879  32.370  31.148  1.00  0.00    -0.248 NA
ATOM     33  C   UNL A   1      39.273  34.048  31.410  1.00  0.00     0.031 C 
ATOM     34  C   UNL A   1      44.911  32.433  33.002  1.00  0.00     0.029 A 
ATOM     35  C   UNL A   1      43.644  32.431  32.440  1.00  0.00     0.049 A 
ATOM     36  H   UNL A   1      42.734  30.966  31.224  1.00  0.00     0.167 HD
ATOM     37  C   UNL A   1      41.394  33.368  31.966  1.00  0.00     0.074 A 
ATOM     38  C   UNL A   1      40.368  34.384  32.081  1.00  0.00     0.031 C 
ATOM     39  C   UNL A   1      42.614  33.436  32.553  1.00  0.00     0.031 A 
BRANCH  26  40
ATOM     40  C   UNL A   1      46.206  28.487  31.581  1.00  0.00    -0.014 A 
ATOM     41  C   UNL A   1      47.355  28.665  30.787  1.00  0.00     0.010 A 
ATOM     42  C   UNL A   1      46.283  27.640  32.703  1.00  0.00     0.010 A 
ATOM     43  C   UNL A   1      48.533  27.965  31.076  1.00  0.00     0.020 A 
ATOM     44  C   UNL A   1      47.466  26.961  33.012  1.00  0.00     0.020 A 
ATOM     45  C   UNL A   1      48.576  27.108  32.180  1.00  0.00     0.054 A 
BRANCH  45  46
ATOM     46  S   UNL A   1      50.107  26.189  32.512  1.00  0.00     0.124 S 
ATOM     47  O   UNL A   1      50.752  26.196  31.201  1.00  0.00    -0.237 OA
ATOM     48  O   UNL A   1      50.758  27.006  33.533  1.00  0.00    -0.237 OA
ATOM     49  O   UNL A   1      49.638  24.882  32.967  1.00  0.00    -0.744 OA
ENDBRANCH  45  46
ENDBRANCH  26  40
BRANCH  27  50
ATOM     50  C   UNL A   1      37.322  32.646  29.685  1.00  0.00    -0.014 A 
ATOM     51  C   UNL A   1      36.299  32.454  30.627  1.00  0.00     0.010 A 
ATOM     52  C   UNL A   1      37.086  33.474  28.570  1.00  0.00     0.010 A 
ATOM     53  C   UNL A   1      35.069  33.098  30.468  1.00  0.00     0.020 A 
ATOM     54  C   UNL A   1      35.868  34.142  28.425  1.00  0.00     0.020 A 
ATOM     55  C   UNL A   1      34.867  33.950  29.376  1.00  0.00     0.054 A 
BRANCH  55  56
ATOM     56  S   UNL A   1      33.305  34.865  29.260  1.00  0.00     0.124 S 
ATOM     57  O   UNL A   1      32.791  34.763  30.622  1.00  0.00    -0.237 OA
ATOM     58  O   UNL A   1      33.752  36.194  28.850  1.00  0.00    -0.237 OA
ATOM     59  O   UNL A   1      32.551  34.131  28.248  1.00  0.00    -0.744 OA
ENDBRANCH  55  56
ENDBRANCH  27  50
BRANCH  39  60
ATOM     60  C   UNL A   1      42.944  34.677  33.338  1.00  0.00    -0.014 A 
ATOM     61  C   UNL A   1      42.765  34.737  34.732  1.00  0.00     0.010 A 
ATOM     62  C   UNL A   1      43.533  35.769  32.675  1.00  0.00     0.010 A 
ATOM     63  C   UNL A   1      43.164  35.871  35.444  1.00  0.00     0.020 A 
ATOM     64  C   UNL A   1      43.959  36.891  33.387  1.00  0.00     0.020 A 
ATOM     65  C   UNL A   1      43.768  36.937  34.768  1.00  0.00     0.054 A 
BRANCH  65  66
ATOM     66  S   UNL A   1      44.359  38.358  35.727  1.00  0.00     0.124 S 
ATOM     67  O   UNL A   1      43.708  38.148  37.018  1.00  0.00    -0.237 OA
ATOM     68  O   UNL A   1      45.808  38.171  35.715  1.00  0.00    -0.237 OA
ATOM     69  O   UNL A   1      43.880  39.512  34.970  1.00  0.00    -0.744 OA
ENDBRANCH  65  66
ENDBRANCH  39  60
ENDBRANCH  13  14
ENDBRANCH   6   8
ENDBRANCH   3   4
ENDBRANCH   2   3
ENDBRANCH   1   2
BRANCH   1  70
ATOM     70  C   UNL A   1      33.983  25.621  25.349  1.00  0.00     0.116 C 
BRANCH  70  71
ATOM     71  N   UNL A   1      33.697  26.804  26.142  1.00  0.00    -0.356 N 
ATOM     72  C   UNL A   1      32.730  27.756  26.043  1.00  0.00     0.224 C 
ATOM     73  H   UNL A   1      34.319  26.943  26.892  1.00  0.00     0.163 HD
ATOM     74  O   UNL A   1      32.746  28.651  26.891  1.00  0.00    -0.275 OA
BRANCH  72  75
ATOM     75  C   UNL A   1      31.660  27.708  24.947  1.00  0.00     0.094 C 
ATOM     76  C   UNL A   1      32.048  28.802  23.905  1.00  0.00     0.002 C 
ATOM     77  C   UNL A   1      31.525  26.336  24.214  1.00  0.00     0.094 C 
ATOM     78  C   UNL A   1      33.265  28.377  23.040  1.00  0.00     0.005 C 
ATOM     79  C   UNL A   1      30.856  28.980  22.958  1.00  0.00     0.005 C 
ATOM     80  C   UNL A   1      31.570  26.568  22.669  1.00  0.00     0.002 C 
ATOM     81  C   UNL A   1      32.999  27.037  22.342  1.00  0.00     0.005 C 
ATOM     82  C   UNL A   1      30.606  27.677  22.195  1.00  0.00     0.005 C 
BRANCH  77  83
ATOM     83  C   UNL A   1      30.256  25.564  24.601  1.00  0.00     0.228 C 
ATOM     84  O   UNL A   1      29.210  26.165  24.878  1.00  0.00    -0.274 OA
ATOM     85  N   UNL A   1      30.177  24.203  24.655  1.00  0.00    -0.326 N 
ATOM     86  H   UNL A   1      29.254  23.888  24.794  1.00  0.00     0.169 HD
BRANCH  85  87
ATOM     87  C   UNL A   1      31.093  23.142  24.560  1.00  0.00     0.041 A 
ATOM     88  C   UNL A   1      31.377  22.419  25.720  1.00  0.00     0.026 A 
ATOM     89  C   UNL A   1      31.779  22.789  23.413  1.00  0.00     0.026 A 
ATOM     90  C   UNL A   1      32.376  21.435  25.725  1.00  0.00     0.006 A 
ATOM     91  C   UNL A   1      32.822  21.866  23.419  1.00  0.00     0.006 A 
ATOM     92  C   UNL A   1      33.150  21.186  24.584  1.00  0.00    -0.043 A 
BRANCH  92  93
ATOM     93  C   UNL A   1      34.297  20.206  24.559  1.00  0.00     0.071 C 
BRANCH  93  94
ATOM     94  C   UNL A   1      33.863  18.765  24.583  1.00  0.00    -0.041 A 
ATOM     95  C   UNL A   1      32.576  18.401  24.997  1.00  0.00     0.024 A 
ATOM     96  C   UNL A   1      34.741  17.759  24.202  1.00  0.00     0.024 A 
ATOM     97  C   UNL A   1      32.241  17.059  25.060  1.00  0.00     0.111 A 
ATOM     98  C   UNL A   1      34.301  16.454  24.285  1.00  0.00     0.111 A 
ATOM     99  N   UNL A   1      33.084  16.070  24.720  1.00  0.00    -0.265 NA
ENDBRANCH  93  94
ENDBRANCH  92  93
ENDBRANCH  85  87
ENDBRANCH  77  83
ENDBRANCH  72  75
ENDBRANCH  70  71
ENDBRANCH   1  70
TORSDOF 18
ENDMDL
