MODEL 1
REMARK VINA RESULT:     -10.1      0.000      0.000
REMARK SMILES O=C(COc1ccc(S(=O)(=O)NC[C@@H]2CCCO2)cc1)NCCCCNC(=O)c1ccc(-c2c3nc(c(-c4ccc(S(=O)(=O)[O-])cc4)c4ccc([nH]4)c(-c4ccc(S(=O)(=O)[O-])cc4)c4nc(c(-c5ccc(S(=O)(=O)[O-])cc5)c5ccc2[nH]5)C=C4)C=C3)cc1
REMARK SMILES IDX 22 1 21 2 1 3 2 4 3 6 4 7 5 8 6 9 20 10 7 11 19 12 8 13 9 14
REMARK SMILES IDX 10 15 11 16 12 17 13 19 14 20 15 21 18 22 16 23 17 24 23 25
REMARK SMILES IDX 24 26 25 27 26 28 27 29 28 31 29 32 30 33 88 34 31 35 87 36
REMARK SMILES IDX 32 37 33 38 34 39 81 40 35 41 86 42 80 43 82 44 36 45 85 46
REMARK SMILES IDX 79 47 78 48 37 50 67 51 48 52 66 53 49 54 52 55 65 56 83 57
REMARK SMILES IDX 50 58 51 59 64 61 84 62 53 63 38 64 39 65 47 66 40 67 46 68
REMARK SMILES IDX 41 69 42 70 43 71 44 72 45 73 68 74 69 75 77 76 70 77 76 78
REMARK SMILES IDX 71 79 72 80 73 81 74 82 75 83 54 84 55 85 63 86 56 87 62 88
REMARK SMILES IDX 57 89 58 90 59 91 60 92 61 93
REMARK H PARENT 21 5 12 18 26 30 82 49 52 60
REMARK Flexibility Score: inf
ROOT
ATOM      1  C   UNL A   1      35.840  20.306  24.839  1.00  0.00     0.116 C 
ENDROOT
BRANCH   1   2
ATOM      2  N   UNL A   1      34.812  21.294  25.077  1.00  0.00    -0.353 N 
ATOM      3  O   UNL A   1      33.232  19.828  25.879  1.00  0.00    -0.271 OA
ATOM      4  C   UNL A   1      33.607  20.978  25.670  1.00  0.00     0.257 C 
ATOM      5  H   UNL A   1      34.976  22.226  24.804  1.00  0.00     0.163 HD
BRANCH   4   6
ATOM      6  C   UNL A   1      32.784  22.195  26.103  1.00  0.00     0.329 C 
BRANCH   6   7
ATOM      7  O   UNL A   1      31.433  22.216  25.644  1.00  0.00    -0.484 OA
BRANCH   7   8
ATOM      8  C   UNL A   1      30.982  23.415  25.157  1.00  0.00     0.120 A 
ATOM      9  C   UNL A   1      30.970  23.539  23.766  1.00  0.00     0.048 A 
ATOM     10  C   UNL A   1      30.633  24.515  25.947  1.00  0.00     0.048 A 
ATOM     11  C   UNL A   1      30.617  24.752  23.168  1.00  0.00     0.025 A 
ATOM     12  C   UNL A   1      30.265  25.727  25.356  1.00  0.00     0.025 A 
ATOM     13  C   UNL A   1      30.278  25.850  23.968  1.00  0.00     0.082 A 
BRANCH  13  14
ATOM     14  S   UNL A   1      29.926  27.415  23.204  1.00  0.00     0.240 S 
ATOM     15  O   UNL A   1      30.604  27.452  21.925  1.00  0.00    -0.207 OA
ATOM     16  O   UNL A   1      28.498  27.620  23.289  1.00  0.00    -0.207 OA
BRANCH  14  17
ATOM     17  N   UNL A   1      30.611  28.605  24.172  1.00  0.00    -0.209 NA
ATOM     18  H   UNL A   1      30.749  28.172  25.085  1.00  0.00     0.141 HD
BRANCH  17  19
ATOM     19  C   UNL A   1      31.871  29.290  23.864  1.00  0.00     0.130 C 
BRANCH  19  20
ATOM     20  C   UNL A   1      33.060  28.915  24.743  1.00  0.00     0.133 C 
ATOM     21  C   UNL A   1      33.459  27.451  24.722  1.00  0.00     0.036 C 
ATOM     22  O   UNL A   1      32.700  29.213  26.117  1.00  0.00    -0.377 OA
ATOM     23  C   UNL A   1      33.929  27.219  26.134  1.00  0.00     0.031 C 
ATOM     24  C   UNL A   1      32.911  28.027  26.901  1.00  0.00     0.160 C 
ENDBRANCH  19  20
ENDBRANCH  17  19
ENDBRANCH  14  17
ENDBRANCH  13  14
ENDBRANCH   7   8
ENDBRANCH   6   7
ENDBRANCH   4   6
ENDBRANCH   1   2
BRANCH   1  25
ATOM     25  C   UNL A   1      37.251  20.883  24.857  1.00  0.00     0.023 C 
BRANCH  25  26
ATOM     26  C   UNL A   1      38.362  19.860  25.096  1.00  0.00     0.023 C 
BRANCH  26  27
ATOM     27  C   UNL A   1      39.401  20.245  26.144  1.00  0.00     0.116 C 
BRANCH  27  28
ATOM     28  N   UNL A   1      40.613  19.443  26.069  1.00  0.00    -0.352 N 
ATOM     29  C   UNL A   1      41.929  19.839  26.133  1.00  0.00     0.251 C 
ATOM     30  H   UNL A   1      40.470  18.475  25.956  1.00  0.00     0.163 HD
ATOM     31  O   UNL A   1      42.820  19.025  25.910  1.00  0.00    -0.269 OA
BRANCH  29  32
ATOM     32  C   UNL A   1      42.273  21.248  26.437  1.00  0.00     0.039 A 
ATOM     33  C   UNL A   1      42.565  21.599  27.758  1.00  0.00     0.014 A 
ATOM     34  C   UNL A   1      42.311  22.218  25.433  1.00  0.00     0.014 A 
ATOM     35  C   UNL A   1      42.969  22.905  28.057  1.00  0.00     0.010 A 
ATOM     36  C   UNL A   1      42.787  23.497  25.719  1.00  0.00     0.010 A 
ATOM     37  C   UNL A   1      43.124  23.855  27.033  1.00  0.00    -0.014 A 
BRANCH  37  38
ATOM     38  C   UNL A   1      43.651  25.217  27.317  1.00  0.00     0.031 A 
ATOM     39  C   UNL A   1      45.104  25.537  27.085  1.00  0.00     0.074 A 
ATOM     40  C   UNL A   1      42.836  26.152  27.847  1.00  0.00     0.049 A 
ATOM     41  N   UNL A   1      45.755  26.646  27.331  1.00  0.00    -0.248 NA
ATOM     42  C   UNL A   1      45.940  24.463  26.524  1.00  0.00     0.031 C 
ATOM     43  C   UNL A   1      41.417  25.962  28.159  1.00  0.00     0.029 A 
ATOM     44  N   UNL A   1      43.085  27.450  28.224  1.00  0.00    -0.354 N 
ATOM     45  C   UNL A   1      47.074  26.401  26.967  1.00  0.00     0.074 A 
ATOM     46  C   UNL A   1      47.142  25.022  26.535  1.00  0.00     0.031 C 
ATOM     47  C   UNL A   1      40.918  27.104  28.656  1.00  0.00     0.029 A 
ATOM     48  C   UNL A   1      41.986  28.096  28.742  1.00  0.00     0.049 A 
ATOM     49  H   UNL A   1      43.966  27.877  28.132  1.00  0.00     0.167 HD
ATOM     50  C   UNL A   1      48.129  27.252  26.970  1.00  0.00     0.031 A 
ATOM     51  C   UNL A   1      41.851  29.341  29.241  1.00  0.00     0.031 A 
ATOM     52  C   UNL A   1      48.060  28.624  27.400  1.00  0.00     0.049 A 
ATOM     53  C   UNL A   1      43.041  30.259  29.257  1.00  0.00     0.074 A 
ATOM     54  C   UNL A   1      49.065  29.576  27.398  1.00  0.00     0.029 A 
ATOM     55  N   UNL A   1      46.927  29.240  27.911  1.00  0.00    -0.354 N 
ATOM     56  N   UNL A   1      44.267  30.027  28.851  1.00  0.00    -0.248 NA
ATOM     57  C   UNL A   1      42.829  31.613  29.787  1.00  0.00     0.031 C 
ATOM     58  C   UNL A   1      48.555  30.751  27.962  1.00  0.00     0.029 A 
ATOM     59  C   UNL A   1      47.214  30.552  28.251  1.00  0.00     0.049 A 
ATOM     60  H   UNL A   1      46.049  28.808  28.015  1.00  0.00     0.167 HD
ATOM     61  C   UNL A   1      44.964  31.214  29.051  1.00  0.00     0.074 A 
ATOM     62  C   UNL A   1      44.019  32.166  29.599  1.00  0.00     0.031 C 
ATOM     63  C   UNL A   1      46.267  31.490  28.800  1.00  0.00     0.031 A 
BRANCH  50  64
ATOM     64  C   UNL A   1      49.457  26.714  26.501  1.00  0.00    -0.014 A 
ATOM     65  C   UNL A   1      50.281  25.961  27.359  1.00  0.00     0.010 A 
ATOM     66  C   UNL A   1      49.872  26.929  25.174  1.00  0.00     0.010 A 
ATOM     67  C   UNL A   1      51.514  25.477  26.914  1.00  0.00     0.020 A 
ATOM     68  C   UNL A   1      51.090  26.419  24.715  1.00  0.00     0.020 A 
ATOM     69  C   UNL A   1      51.913  25.713  25.595  1.00  0.00     0.054 A 
BRANCH  69  70
ATOM     70  S   UNL A   1      53.512  25.060  25.043  1.00  0.00     0.124 S 
ATOM     71  O   UNL A   1      54.440  25.739  25.944  1.00  0.00    -0.237 OA
ATOM     72  O   UNL A   1      53.364  23.624  25.258  1.00  0.00    -0.237 OA
ATOM     73  O   UNL A   1      53.592  25.474  23.644  1.00  0.00    -0.744 OA
ENDBRANCH  69  70
ENDBRANCH  50  64
BRANCH  51  74
ATOM     74  C   UNL A   1      40.529  29.791  29.763  1.00  0.00    -0.014 A 
ATOM     75  C   UNL A   1      40.275  29.815  31.145  1.00  0.00     0.010 A 
ATOM     76  C   UNL A   1      39.522  30.212  28.876  1.00  0.00     0.010 A 
ATOM     77  C   UNL A   1      39.034  30.237  31.629  1.00  0.00     0.020 A 
ATOM     78  C   UNL A   1      38.290  30.664  29.357  1.00  0.00     0.020 A 
ATOM     79  C   UNL A   1      38.050  30.663  30.732  1.00  0.00     0.054 A 
BRANCH  79  80
ATOM     80  S   UNL A   1      36.467  31.260  31.387  1.00  0.00     0.124 S 
ATOM     81  O   UNL A   1      35.694  31.469  30.168  1.00  0.00    -0.237 OA
ATOM     82  O   UNL A   1      36.034  30.147  32.229  1.00  0.00    -0.237 OA
ATOM     83  O   UNL A   1      36.834  32.473  32.114  1.00  0.00    -0.744 OA
ENDBRANCH  79  80
ENDBRANCH  51  74
BRANCH  63  84
ATOM     84  C   UNL A   1      46.749  32.889  29.083  1.00  0.00    -0.014 A 
ATOM     85  C   UNL A   1      47.311  33.236  30.324  1.00  0.00     0.010 A 
ATOM     86  C   UNL A   1      46.689  33.861  28.066  1.00  0.00     0.010 A 
ATOM     87  C   UNL A   1      47.774  34.534  30.554  1.00  0.00     0.020 A 
ATOM     88  C   UNL A   1      47.178  35.152  28.281  1.00  0.00     0.020 A 
ATOM     89  C   UNL A   1      47.706  35.484  29.531  1.00  0.00     0.054 A 
BRANCH  89  90
ATOM     90  S   UNL A   1      48.354  37.149  29.840  1.00  0.00     0.124 S 
ATOM     91  O   UNL A   1      47.412  37.985  29.101  1.00  0.00    -0.237 OA
ATOM     92  O   UNL A   1      48.282  37.255  31.295  1.00  0.00    -0.237 OA
ATOM     93  O   UNL A   1      49.708  37.103  29.291  1.00  0.00    -0.744 OA
ENDBRANCH  89  90
ENDBRANCH  63  84
ENDBRANCH  37  38
ENDBRANCH  29  32
ENDBRANCH  27  28
ENDBRANCH  26  27
ENDBRANCH  25  26
ENDBRANCH   1  25
TORSDOF 20
ENDMDL
MODEL 2
REMARK VINA RESULT:     -10.0      5.825      7.974
REMARK SMILES O=C(COc1ccc(S(=O)(=O)NC[C@@H]2CCCO2)cc1)NCCCCNC(=O)c1ccc(-c2c3nc(c(-c4ccc(S(=O)(=O)[O-])cc4)c4ccc([nH]4)c(-c4ccc(S(=O)(=O)[O-])cc4)c4nc(c(-c5ccc(S(=O)(=O)[O-])cc5)c5ccc2[nH]5)C=C4)C=C3)cc1
REMARK SMILES IDX 22 1 21 2 1 3 2 4 3 6 4 7 5 8 6 9 20 10 7 11 19 12 8 13 9 14
REMARK SMILES IDX 10 15 11 16 12 17 13 19 14 20 15 21 18 22 16 23 17 24 23 25
REMARK SMILES IDX 24 26 25 27 26 28 27 29 28 31 29 32 30 33 88 34 31 35 87 36
REMARK SMILES IDX 32 37 33 38 34 39 81 40 35 41 86 42 80 43 82 44 36 45 85 46
REMARK SMILES IDX 79 47 78 48 37 50 67 51 48 52 66 53 49 54 52 55 65 56 83 57
REMARK SMILES IDX 50 58 51 59 64 61 84 62 53 63 38 64 39 65 47 66 40 67 46 68
REMARK SMILES IDX 41 69 42 70 43 71 44 72 45 73 68 74 69 75 77 76 70 77 76 78
REMARK SMILES IDX 71 79 72 80 73 81 74 82 75 83 54 84 55 85 63 86 56 87 62 88
REMARK SMILES IDX 57 89 58 90 59 91 60 92 61 93
REMARK H PARENT 21 5 12 18 26 30 82 49 52 60
REMARK Flexibility Score: inf
ROOT
ATOM      1  C   UNL A   1      37.626  21.666  24.897  1.00  0.00     0.116 C 
ENDROOT
BRANCH   1   2
ATOM      2  N   UNL A   1      36.363  21.221  25.444  1.00  0.00    -0.353 N 
ATOM      3  O   UNL A   1      35.499  23.319  25.821  1.00  0.00    -0.271 OA
ATOM      4  C   UNL A   1      35.356  22.101  25.782  1.00  0.00     0.257 C 
ATOM      5  H   UNL A   1      36.218  20.257  25.581  1.00  0.00     0.163 HD
BRANCH   4   6
ATOM      6  C   UNL A   1      34.007  21.430  26.058  1.00  0.00     0.329 C 
BRANCH   6   7
ATOM      7  O   UNL A   1      33.133  21.326  24.934  1.00  0.00    -0.484 OA
BRANCH   7   8
ATOM      8  C   UNL A   1      32.829  22.502  24.298  1.00  0.00     0.120 A 
ATOM      9  C   UNL A   1      33.289  22.617  22.985  1.00  0.00     0.048 A 
ATOM     10  C   UNL A   1      32.188  23.590  24.899  1.00  0.00     0.048 A 
ATOM     11  C   UNL A   1      33.115  23.810  22.277  1.00  0.00     0.025 A 
ATOM     12  C   UNL A   1      31.997  24.782  24.193  1.00  0.00     0.025 A 
ATOM     13  C   UNL A   1      32.481  24.897  22.890  1.00  0.00     0.082 A 
BRANCH  13  14
ATOM     14  S   UNL A   1      32.351  26.440  22.020  1.00  0.00     0.240 S 
ATOM     15  O   UNL A   1      33.687  26.867  21.663  1.00  0.00    -0.207 OA
ATOM     16  O   UNL A   1      31.333  26.275  21.008  1.00  0.00    -0.207 OA
BRANCH  14  17
ATOM     17  N   UNL A   1      31.733  27.568  23.101  1.00  0.00    -0.209 NA
ATOM     18  H   UNL A   1      32.309  28.403  22.988  1.00  0.00     0.141 HD
BRANCH  17  19
ATOM     19  C   UNL A   1      30.344  28.041  23.090  1.00  0.00     0.130 C 
BRANCH  19  20
ATOM     20  C   UNL A   1      30.140  29.484  22.641  1.00  0.00     0.133 C 
ATOM     21  C   UNL A   1      29.359  30.367  23.597  1.00  0.00     0.036 C 
ATOM     22  O   UNL A   1      29.377  29.455  21.408  1.00  0.00    -0.377 OA
ATOM     23  C   UNL A   1      28.607  31.278  22.663  1.00  0.00     0.031 C 
ATOM     24  C   UNL A   1      28.229  30.303  21.573  1.00  0.00     0.160 C 
ENDBRANCH  19  20
ENDBRANCH  17  19
ENDBRANCH  14  17
ENDBRANCH  13  14
ENDBRANCH   7   8
ENDBRANCH   6   7
ENDBRANCH   4   6
ENDBRANCH   1   2
BRANCH   1  25
ATOM     25  C   UNL A   1      38.762  21.664  25.914  1.00  0.00     0.023 C 
BRANCH  25  26
ATOM     26  C   UNL A   1      39.075  23.027  26.531  1.00  0.00     0.023 C 
BRANCH  26  27
ATOM     27  C   UNL A   1      40.488  23.194  27.082  1.00  0.00     0.116 C 
BRANCH  27  28
ATOM     28  N   UNL A   1      41.416  23.755  26.112  1.00  0.00    -0.352 N 
ATOM     29  C   UNL A   1      41.910  25.036  26.013  1.00  0.00     0.251 C 
ATOM     30  H   UNL A   1      41.739  23.126  25.427  1.00  0.00     0.163 HD
ATOM     31  O   UNL A   1      42.581  25.354  25.036  1.00  0.00    -0.269 OA
BRANCH  29  32
ATOM     32  C   UNL A   1      41.607  26.038  27.062  1.00  0.00     0.039 A 
ATOM     33  C   UNL A   1      40.610  25.751  27.999  1.00  0.00     0.014 A 
ATOM     34  C   UNL A   1      42.298  27.250  27.128  1.00  0.00     0.014 A 
ATOM     35  C   UNL A   1      40.360  26.645  29.044  1.00  0.00     0.010 A 
ATOM     36  C   UNL A   1      42.102  28.103  28.213  1.00  0.00     0.010 A 
ATOM     37  C   UNL A   1      41.133  27.810  29.185  1.00  0.00    -0.014 A 
BRANCH  37  38
ATOM     38  C   UNL A   1      40.953  28.721  30.348  1.00  0.00     0.031 A 
ATOM     39  C   UNL A   1      41.801  28.560  31.582  1.00  0.00     0.074 A 
ATOM     40  C   UNL A   1      39.981  29.655  30.321  1.00  0.00     0.049 A 
ATOM     41  N   UNL A   1      41.746  29.218  32.713  1.00  0.00    -0.248 NA
ATOM     42  C   UNL A   1      42.829  27.508  31.550  1.00  0.00     0.031 C 
ATOM     43  C   UNL A   1      39.062  29.891  29.204  1.00  0.00     0.029 A 
ATOM     44  N   UNL A   1      39.596  30.578  31.264  1.00  0.00    -0.354 N 
ATOM     45  C   UNL A   1      42.720  28.654  33.528  1.00  0.00     0.074 A 
ATOM     46  C   UNL A   1      43.314  27.565  32.782  1.00  0.00     0.031 C 
ATOM     47  C   UNL A   1      38.239  30.905  29.516  1.00  0.00     0.029 A 
ATOM     48  C   UNL A   1      38.538  31.364  30.869  1.00  0.00     0.049 A 
ATOM     49  H   UNL A   1      40.036  30.668  32.139  1.00  0.00     0.167 HD
ATOM     50  C   UNL A   1      43.103  29.022  34.775  1.00  0.00     0.031 A 
ATOM     51  C   UNL A   1      37.872  32.337  31.522  1.00  0.00     0.031 A 
ATOM     52  C   UNL A   1      42.512  30.105  35.516  1.00  0.00     0.049 A 
ATOM     53  C   UNL A   1      38.299  32.712  32.915  1.00  0.00     0.074 A 
ATOM     54  C   UNL A   1      42.862  30.582  36.768  1.00  0.00     0.029 A 
ATOM     55  N   UNL A   1      41.448  30.879  35.077  1.00  0.00    -0.354 N 
ATOM     56  N   UNL A   1      39.264  32.206  33.645  1.00  0.00    -0.248 NA
ATOM     57  C   UNL A   1      37.554  33.797  33.568  1.00  0.00     0.031 C 
ATOM     58  C   UNL A   1      41.972  31.606  37.110  1.00  0.00     0.029 A 
ATOM     59  C   UNL A   1      41.111  31.813  36.044  1.00  0.00     0.049 A 
ATOM     60  H   UNL A   1      40.999  30.780  34.207  1.00  0.00     0.167 HD
ATOM     61  C   UNL A   1      39.261  32.930  34.832  1.00  0.00     0.074 A 
ATOM     62  C   UNL A   1      38.208  33.919  34.715  1.00  0.00     0.031 C 
ATOM     63  C   UNL A   1      40.059  32.791  35.919  1.00  0.00     0.031 A 
BRANCH  50  64
ATOM     64  C   UNL A   1      44.213  28.233  35.422  1.00  0.00    -0.014 A 
ATOM     65  C   UNL A   1      45.562  28.589  35.237  1.00  0.00     0.010 A 
ATOM     66  C   UNL A   1      43.905  27.143  36.259  1.00  0.00     0.010 A 
ATOM     67  C   UNL A   1      46.581  27.842  35.835  1.00  0.00     0.020 A 
ATOM     68  C   UNL A   1      44.919  26.415  36.884  1.00  0.00     0.020 A 
ATOM     69  C   UNL A   1      46.253  26.757  36.652  1.00  0.00     0.054 A 
BRANCH  69  70
ATOM     70  S   UNL A   1      47.597  25.816  37.425  1.00  0.00     0.124 S 
ATOM     71  O   UNL A   1      47.263  24.446  37.043  1.00  0.00    -0.237 OA
ATOM     72  O   UNL A   1      48.786  26.374  36.787  1.00  0.00    -0.237 OA
ATOM     73  O   UNL A   1      47.458  26.115  38.848  1.00  0.00    -0.744 OA
ENDBRANCH  69  70
ENDBRANCH  50  64
BRANCH  51  74
ATOM     74  C   UNL A   1      36.731  33.029  30.859  1.00  0.00    -0.014 A 
ATOM     75  C   UNL A   1      35.418  32.860  31.329  1.00  0.00     0.010 A 
ATOM     76  C   UNL A   1      36.958  33.875  29.758  1.00  0.00     0.010 A 
ATOM     77  C   UNL A   1      34.351  33.511  30.703  1.00  0.00     0.020 A 
ATOM     78  C   UNL A   1      35.898  34.553  29.148  1.00  0.00     0.020 A 
ATOM     79  C   UNL A   1      34.599  34.356  29.618  1.00  0.00     0.054 A 
BRANCH  79  80
ATOM     80  S   UNL A   1      33.206  35.235  28.857  1.00  0.00     0.124 S 
ATOM     81  O   UNL A   1      33.883  36.291  28.113  1.00  0.00    -0.237 OA
ATOM     82  O   UNL A   1      32.579  34.191  28.049  1.00  0.00    -0.237 OA
ATOM     83  O   UNL A   1      32.416  35.681  30.003  1.00  0.00    -0.744 OA
ENDBRANCH  79  80
ENDBRANCH  51  74
BRANCH  63  84
ATOM     84  C   UNL A   1      39.854  33.751  37.062  1.00  0.00    -0.014 A 
ATOM     85  C   UNL A   1      40.437  35.030  37.061  1.00  0.00     0.010 A 
ATOM     86  C   UNL A   1      39.014  33.384  38.131  1.00  0.00     0.010 A 
ATOM     87  C   UNL A   1      40.212  35.912  38.121  1.00  0.00     0.020 A 
ATOM     88  C   UNL A   1      38.761  34.273  39.178  1.00  0.00     0.020 A 
ATOM     89  C   UNL A   1      39.374  35.528  39.173  1.00  0.00     0.054 A 
BRANCH  89  90
ATOM     90  S   UNL A   1      39.061  36.708  40.514  1.00  0.00     0.124 S 
ATOM     91  O   UNL A   1      40.387  36.852  41.109  1.00  0.00    -0.237 OA
ATOM     92  O   UNL A   1      38.561  37.880  39.800  1.00  0.00    -0.237 OA
ATOM     93  O   UNL A   1      38.074  36.028  41.352  1.00  0.00    -0.744 OA
ENDBRANCH  89  90
ENDBRANCH  63  84
ENDBRANCH  37  38
ENDBRANCH  29  32
ENDBRANCH  27  28
ENDBRANCH  26  27
ENDBRANCH  25  26
ENDBRANCH   1  25
TORSDOF 20
ENDMDL
MODEL 3
REMARK VINA RESULT:      -9.9      4.781      8.656
REMARK SMILES O=C(COc1ccc(S(=O)(=O)NC[C@@H]2CCCO2)cc1)NCCCCNC(=O)c1ccc(-c2c3nc(c(-c4ccc(S(=O)(=O)[O-])cc4)c4ccc([nH]4)c(-c4ccc(S(=O)(=O)[O-])cc4)c4nc(c(-c5ccc(S(=O)(=O)[O-])cc5)c5ccc2[nH]5)C=C4)C=C3)cc1
REMARK SMILES IDX 22 1 21 2 1 3 2 4 3 6 4 7 5 8 6 9 20 10 7 11 19 12 8 13 9 14
REMARK SMILES IDX 10 15 11 16 12 17 13 19 14 20 15 21 18 22 16 23 17 24 23 25
REMARK SMILES IDX 24 26 25 27 26 28 27 29 28 31 29 32 30 33 88 34 31 35 87 36
REMARK SMILES IDX 32 37 33 38 34 39 81 40 35 41 86 42 80 43 82 44 36 45 85 46
REMARK SMILES IDX 79 47 78 48 37 50 67 51 48 52 66 53 49 54 52 55 65 56 83 57
REMARK SMILES IDX 50 58 51 59 64 61 84 62 53 63 38 64 39 65 47 66 40 67 46 68
REMARK SMILES IDX 41 69 42 70 43 71 44 72 45 73 68 74 69 75 77 76 70 77 76 78
REMARK SMILES IDX 71 79 72 80 73 81 74 82 75 83 54 84 55 85 63 86 56 87 62 88
REMARK SMILES IDX 57 89 58 90 59 91 60 92 61 93
REMARK H PARENT 21 5 12 18 26 30 82 49 52 60
REMARK Flexibility Score: inf
ROOT
ATOM      1  C   UNL A   1      44.282  23.713  26.378  1.00  0.00     0.116 C 
ENDROOT
BRANCH   1   2
ATOM      2  N   UNL A   1      45.149  24.584  27.141  1.00  0.00    -0.353 N 
ATOM      3  O   UNL A   1      47.131  23.709  26.367  1.00  0.00    -0.271 OA
ATOM      4  C   UNL A   1      46.521  24.567  27.000  1.00  0.00     0.257 C 
ATOM      5  H   UNL A   1      44.746  25.211  27.784  1.00  0.00     0.163 HD
BRANCH   4   6
ATOM      6  C   UNL A   1      47.233  25.752  27.660  1.00  0.00     0.329 C 
BRANCH   6   7
ATOM      7  O   UNL A   1      47.642  26.792  26.774  1.00  0.00    -0.484 OA
BRANCH   7   8
ATOM      8  C   UNL A   1      46.840  27.903  26.739  1.00  0.00     0.120 A 
ATOM      9  C   UNL A   1      47.497  29.129  26.858  1.00  0.00     0.048 A 
ATOM     10  C   UNL A   1      45.443  27.875  26.687  1.00  0.00     0.048 A 
ATOM     11  C   UNL A   1      46.766  30.319  26.927  1.00  0.00     0.025 A 
ATOM     12  C   UNL A   1      44.705  29.061  26.741  1.00  0.00     0.025 A 
ATOM     13  C   UNL A   1      45.367  30.280  26.884  1.00  0.00     0.082 A 
BRANCH  13  14
ATOM     14  S   UNL A   1      44.442  31.785  27.071  1.00  0.00     0.240 S 
ATOM     15  O   UNL A   1      43.848  32.107  25.791  1.00  0.00    -0.207 OA
ATOM     16  O   UNL A   1      43.621  31.637  28.251  1.00  0.00    -0.207 OA
BRANCH  14  17
ATOM     17  N   UNL A   1      45.542  33.001  27.437  1.00  0.00    -0.209 NA
ATOM     18  H   UNL A   1      46.090  33.142  26.588  1.00  0.00     0.141 HD
BRANCH  17  19
ATOM     19  C   UNL A   1      45.162  34.343  27.891  1.00  0.00     0.130 C 
BRANCH  19  20
ATOM     20  C   UNL A   1      43.821  34.859  27.378  1.00  0.00     0.133 C 
ATOM     21  C   UNL A   1      43.819  36.284  26.856  1.00  0.00     0.036 C 
ATOM     22  O   UNL A   1      42.890  34.838  28.490  1.00  0.00    -0.377 OA
ATOM     23  C   UNL A   1      42.451  36.776  27.249  1.00  0.00     0.031 C 
ATOM     24  C   UNL A   1      42.313  36.148  28.615  1.00  0.00     0.160 C 
ENDBRANCH  19  20
ENDBRANCH  17  19
ENDBRANCH  14  17
ENDBRANCH  13  14
ENDBRANCH   7   8
ENDBRANCH   6   7
ENDBRANCH   4   6
ENDBRANCH   1   2
BRANCH   1  25
ATOM     25  C   UNL A   1      43.228  23.012  27.228  1.00  0.00     0.023 C 
BRANCH  25  26
ATOM     26  C   UNL A   1      42.300  22.074  26.457  1.00  0.00     0.023 C 
BRANCH  26  27
ATOM     27  C   UNL A   1      41.069  21.589  27.217  1.00  0.00     0.116 C 
BRANCH  27  28
ATOM     28  N   UNL A   1      39.844  21.682  26.439  1.00  0.00    -0.352 N 
ATOM     29  C   UNL A   1      38.984  22.746  26.286  1.00  0.00     0.251 C 
ATOM     30  H   UNL A   1      39.592  20.865  25.952  1.00  0.00     0.163 HD
ATOM     31  O   UNL A   1      37.920  22.588  25.695  1.00  0.00    -0.269 OA
BRANCH  29  32
ATOM     32  C   UNL A   1      39.323  24.071  26.858  1.00  0.00     0.039 A 
ATOM     33  C   UNL A   1      38.926  24.360  28.166  1.00  0.00     0.014 A 
ATOM     34  C   UNL A   1      40.030  25.021  26.117  1.00  0.00     0.014 A 
ATOM     35  C   UNL A   1      39.303  25.572  28.755  1.00  0.00     0.010 A 
ATOM     36  C   UNL A   1      40.469  26.194  26.729  1.00  0.00     0.010 A 
ATOM     37  C   UNL A   1      40.113  26.482  28.056  1.00  0.00    -0.014 A 
BRANCH  37  38
ATOM     38  C   UNL A   1      40.610  27.728  28.701  1.00  0.00     0.031 A 
ATOM     39  C   UNL A   1      42.002  27.789  29.271  1.00  0.00     0.074 A 
ATOM     40  C   UNL A   1      39.785  28.786  28.833  1.00  0.00     0.049 A 
ATOM     41  N   UNL A   1      42.586  28.765  29.921  1.00  0.00    -0.248 NA
ATOM     42  C   UNL A   1      42.841  26.591  29.108  1.00  0.00     0.031 C 
ATOM     43  C   UNL A   1      38.398  28.845  28.362  1.00  0.00     0.029 A 
ATOM     44  N   UNL A   1      39.989  30.016  29.411  1.00  0.00    -0.354 N 
ATOM     45  C   UNL A   1      43.851  28.296  30.255  1.00  0.00     0.074 A 
ATOM     46  C   UNL A   1      43.930  26.930  29.783  1.00  0.00     0.031 C 
ATOM     47  C   UNL A   1      37.887  30.053  28.648  1.00  0.00     0.029 A 
ATOM     48  C   UNL A   1      38.888  30.841  29.361  1.00  0.00     0.049 A 
ATOM     49  H   UNL A   1      40.842  30.283  29.822  1.00  0.00     0.167 HD
ATOM     50  C   UNL A   1      44.863  28.947  30.877  1.00  0.00     0.031 A 
ATOM     51  C   UNL A   1      38.697  32.085  29.842  1.00  0.00     0.031 A 
ATOM     52  C   UNL A   1      44.783  30.306  31.345  1.00  0.00     0.049 A 
ATOM     53  C   UNL A   1      39.827  32.780  30.551  1.00  0.00     0.074 A 
ATOM     54  C   UNL A   1      45.770  31.067  31.948  1.00  0.00     0.029 A 
ATOM     55  N   UNL A   1      43.653  31.106  31.269  1.00  0.00    -0.354 N 
ATOM     56  N   UNL A   1      41.037  32.340  30.802  1.00  0.00    -0.248 NA
ATOM     57  C   UNL A   1      39.571  34.145  31.031  1.00  0.00     0.031 C 
ATOM     58  C   UNL A   1      45.220  32.308  32.287  1.00  0.00     0.029 A 
ATOM     59  C   UNL A   1      43.910  32.345  31.836  1.00  0.00     0.049 A 
ATOM     60  H   UNL A   1      42.795  30.835  30.870  1.00  0.00     0.167 HD
ATOM     61  C   UNL A   1      41.695  33.384  31.444  1.00  0.00     0.074 A 
ATOM     62  C   UNL A   1      40.753  34.481  31.529  1.00  0.00     0.031 C 
ATOM     63  C   UNL A   1      42.964  33.429  31.918  1.00  0.00     0.031 A 
BRANCH  50  64
ATOM     64  C   UNL A   1      46.148  28.189  31.096  1.00  0.00    -0.014 A 
ATOM     65  C   UNL A   1      47.257  28.378  30.250  1.00  0.00     0.010 A 
ATOM     66  C   UNL A   1      46.264  27.303  32.183  1.00  0.00     0.010 A 
ATOM     67  C   UNL A   1      48.438  27.660  30.458  1.00  0.00     0.020 A 
ATOM     68  C   UNL A   1      47.454  26.608  32.414  1.00  0.00     0.020 A 
ATOM     69  C   UNL A   1      48.528  26.776  31.537  1.00  0.00     0.054 A 
BRANCH  69  70
ATOM     70  S   UNL A   1      50.078  25.870  31.789  1.00  0.00     0.124 S 
ATOM     71  O   UNL A   1      49.646  24.768  32.645  1.00  0.00    -0.237 OA
ATOM     72  O   UNL A   1      50.456  25.499  30.429  1.00  0.00    -0.237 OA
ATOM     73  O   UNL A   1      50.952  26.849  32.432  1.00  0.00    -0.744 OA
ENDBRANCH  69  70
ENDBRANCH  50  64
BRANCH  51  74
ATOM     74  C   UNL A   1      37.378  32.755  29.663  1.00  0.00    -0.014 A 
ATOM     75  C   UNL A   1      36.452  32.810  30.720  1.00  0.00     0.010 A 
ATOM     76  C   UNL A   1      37.048  33.356  28.435  1.00  0.00     0.010 A 
ATOM     77  C   UNL A   1      35.216  33.439  30.546  1.00  0.00     0.020 A 
ATOM     78  C   UNL A   1      35.826  34.013  28.267  1.00  0.00     0.020 A 
ATOM     79  C   UNL A   1      34.913  34.040  29.322  1.00  0.00     0.054 A 
BRANCH  79  80
ATOM     80  S   UNL A   1      33.325  34.900  29.138  1.00  0.00     0.124 S 
ATOM     81  O   UNL A   1      32.792  34.844  30.494  1.00  0.00    -0.237 OA
ATOM     82  O   UNL A   1      33.736  36.223  28.672  1.00  0.00    -0.237 OA
ATOM     83  O   UNL A   1      32.613  34.094  28.149  1.00  0.00    -0.744 OA
ENDBRANCH  79  80
ENDBRANCH  51  74
BRANCH  63  84
ATOM     84  C   UNL A   1      43.428  34.719  32.543  1.00  0.00    -0.014 A 
ATOM     85  C   UNL A   1      43.145  35.029  33.885  1.00  0.00     0.010 A 
ATOM     86  C   UNL A   1      44.211  35.612  31.786  1.00  0.00     0.010 A 
ATOM     87  C   UNL A   1      43.608  36.220  34.449  1.00  0.00     0.020 A 
ATOM     88  C   UNL A   1      44.702  36.790  32.355  1.00  0.00     0.020 A 
ATOM     89  C   UNL A   1      44.384  37.093  33.681  1.00  0.00     0.054 A 
BRANCH  89  90
ATOM     90  S   UNL A   1      45.011  38.612  34.450  1.00  0.00     0.124 S 
ATOM     91  O   UNL A   1      43.933  38.950  35.376  1.00  0.00    -0.237 OA
ATOM     92  O   UNL A   1      46.256  38.166  35.071  1.00  0.00    -0.237 OA
ATOM     93  O   UNL A   1      45.176  39.529  33.325  1.00  0.00    -0.744 OA
ENDBRANCH  89  90
ENDBRANCH  63  84
ENDBRANCH  37  38
ENDBRANCH  29  32
ENDBRANCH  27  28
ENDBRANCH  26  27
ENDBRANCH  25  26
ENDBRANCH   1  25
TORSDOF 20
ENDMDL
