MODEL 1
REMARK VINA RESULT:     -12.4      0.000      0.000
REMARK SMILES Cn1cc(C[C@@H](NC(=O)OCC2c3ccccc3-c3ccccc32)C(=O)NCCCCNC(=O)c2ccc(-c3c4nc(c(-c5ccc(S(=O)(=O)[O-])cc5)c5ccc([nH]5)c(-c5ccc(S(=O)(=O)[O-])cc5)c5nc(c(-c6ccc(S(=O)(=O)[O-])cc6)c6ccc3[nH]6)C=C5)C=C4)cc2)c2ccccc21
REMARK SMILES IDX 29 1 28 2 27 3 25 4 26 5 6 7 5 8 4 9 1 10 2 11 3 12 100 13
REMARK SMILES IDX 95 14 99 15 96 16 98 17 97 18 7 19 8 20 9 22 10 23 11 24
REMARK SMILES IDX 12 25 13 26 24 27 14 28 18 29 19 30 23 31 15 32 17 33 20 34
REMARK SMILES IDX 22 35 16 36 21 37 30 38 31 39 32 40 33 41 34 43 35 44 36 45
REMARK SMILES IDX 94 46 37 47 93 48 38 49 39 50 40 51 87 52 41 53 92 54 86 55
REMARK SMILES IDX 88 56 42 57 91 58 85 59 84 60 43 62 73 63 54 64 72 65 55 66
REMARK SMILES IDX 58 67 71 68 89 69 56 70 57 71 70 73 90 74 59 75 44 76 45 77
REMARK SMILES IDX 53 78 46 79 52 80 47 81 48 82 49 83 50 84 51 85 74 86 75 87
REMARK SMILES IDX 83 88 76 89 82 90 77 91 78 92 79 93 80 94 81 95 60 96 61 97
REMARK SMILES IDX 69 98 62 99 68 100 63 101 64 102 65 103 66 104 67 105
REMARK H PARENT 27 6 7 21 32 42 88 61 58 72
REMARK Flexibility Score: inf
ROOT
ATOM      1  C   UNL A   1      33.027  26.792  25.726  1.00  0.00     0.023 C 
ENDROOT
BRANCH   1   2
ATOM      2  C   UNL A   1      34.143  25.753  25.758  1.00  0.00     0.116 C 
BRANCH   2   3
ATOM      3  N   UNL A   1      33.770  24.582  26.530  1.00  0.00    -0.354 N 
ATOM      4  C   UNL A   1      32.739  23.700  26.346  1.00  0.00     0.243 C 
ATOM      5  O   UNL A   1      32.629  22.767  27.148  1.00  0.00    -0.273 OA
ATOM      6  H   UNL A   1      34.348  24.392  27.305  1.00  0.00     0.163 HD
BRANCH   4   7
ATOM      7  C   UNL A   1      31.667  23.937  25.261  1.00  0.00     0.179 C 
BRANCH   7   8
ATOM      8  C   UNL A   1      31.836  22.842  24.170  1.00  0.00     0.073 C 
BRANCH   8   9
ATOM      9  C   UNL A   1      32.738  21.680  24.492  1.00  0.00    -0.020 A 
ATOM     10  C   UNL A   1      33.355  18.167  25.135  1.00  0.00     0.149 C 
ATOM     11  N   UNL A   1      33.407  19.600  24.950  1.00  0.00    -0.350 N 
ATOM     12  C   UNL A   1      32.312  20.413  24.840  1.00  0.00     0.090 A 
ATOM     13  C   UNL A   1      34.563  20.326  24.773  1.00  0.00     0.048 A 
ATOM     14  C   UNL A   1      34.172  21.614  24.395  1.00  0.00     0.003 A 
ATOM     15  C   UNL A   1      35.913  19.950  24.874  1.00  0.00     0.027 A 
ATOM     16  C   UNL A   1      35.183  22.528  24.023  1.00  0.00     0.010 A 
ATOM     17  C   UNL A   1      36.889  20.905  24.579  1.00  0.00     0.002 A 
ATOM     18  C   UNL A   1      36.531  22.175  24.147  1.00  0.00     0.001 A 
ENDBRANCH   8   9
ENDBRANCH   7   8
BRANCH   7  19
ATOM     19  N   UNL A   1      30.282  24.101  25.706  1.00  0.00    -0.309 N 
ATOM     20  C   UNL A   1      29.539  25.217  25.907  1.00  0.00     0.407 C 
ATOM     21  H   UNL A   1      29.809  23.257  25.891  1.00  0.00     0.167 HD
ATOM     22  O   UNL A   1      28.735  25.257  26.837  1.00  0.00    -0.225 OA
BRANCH  20  23
ATOM     23  O   UNL A   1      29.743  26.213  25.012  1.00  0.00    -0.449 OA
BRANCH  23  24
ATOM     24  C   UNL A   1      28.711  26.367  24.008  1.00  0.00     0.248 C 
BRANCH  24  25
ATOM     25  C   UNL A   1      29.091  27.331  22.861  1.00  0.00     0.088 C 
ATOM     26  C   UNL A   1      28.721  28.780  23.162  1.00  0.00    -0.029 A 
ATOM     27  C   UNL A   1      30.588  27.447  22.606  1.00  0.00    -0.029 A 
ATOM     28  C   UNL A   1      27.456  29.330  23.316  1.00  0.00     0.005 A 
ATOM     29  C   UNL A   1      29.881  29.583  23.191  1.00  0.00    -0.014 A 
ATOM     30  C   UNL A   1      31.031  28.754  22.899  1.00  0.00    -0.014 A 
ATOM     31  C   UNL A   1      31.474  26.464  22.195  1.00  0.00     0.005 A 
ATOM     32  C   UNL A   1      27.360  30.709  23.516  1.00  0.00     0.000 A 
ATOM     33  C   UNL A   1      29.784  30.948  23.399  1.00  0.00     0.009 A 
ATOM     34  C   UNL A   1      32.381  29.060  22.869  1.00  0.00     0.009 A 
ATOM     35  C   UNL A   1      32.836  26.768  22.178  1.00  0.00     0.000 A 
ATOM     36  C   UNL A   1      28.512  31.510  23.561  1.00  0.00     0.001 A 
ATOM     37  C   UNL A   1      33.286  28.050  22.525  1.00  0.00     0.001 A 
ENDBRANCH  24  25
ENDBRANCH  23  24
ENDBRANCH  20  23
ENDBRANCH   7  19
ENDBRANCH   4   7
ENDBRANCH   2   3
ENDBRANCH   1   2
BRANCH   1  38
ATOM     38  C   UNL A   1      33.166  27.886  26.784  1.00  0.00     0.023 C 
BRANCH  38  39
ATOM     39  C   UNL A   1      34.021  29.080  26.370  1.00  0.00     0.116 C 
BRANCH  39  40
ATOM     40  N   UNL A   1      33.800  30.261  27.193  1.00  0.00    -0.352 N 
ATOM     41  C   UNL A   1      34.630  30.780  28.159  1.00  0.00     0.251 C 
ATOM     42  H   UNL A   1      32.958  30.746  27.038  1.00  0.00     0.163 HD
ATOM     43  O   UNL A   1      34.273  31.724  28.855  1.00  0.00    -0.269 OA
BRANCH  41  44
ATOM     44  C   UNL A   1      35.947  30.148  28.366  1.00  0.00     0.039 A 
ATOM     45  C   UNL A   1      36.859  30.124  27.310  1.00  0.00     0.014 A 
ATOM     46  C   UNL A   1      36.300  29.670  29.631  1.00  0.00     0.014 A 
ATOM     47  C   UNL A   1      38.163  29.685  27.544  1.00  0.00     0.010 A 
ATOM     48  C   UNL A   1      37.614  29.290  29.875  1.00  0.00     0.010 A 
ATOM     49  C   UNL A   1      38.560  29.304  28.837  1.00  0.00    -0.014 A 
BRANCH  49  50
ATOM     50  C   UNL A   1      39.967  28.937  29.132  1.00  0.00     0.031 A 
ATOM     51  C   UNL A   1      40.894  29.948  29.742  1.00  0.00     0.074 A 
ATOM     52  C   UNL A   1      40.426  27.721  28.775  1.00  0.00     0.049 A 
ATOM     53  N   UNL A   1      42.172  29.841  30.001  1.00  0.00    -0.248 NA
ATOM     54  C   UNL A   1      40.319  31.260  30.078  1.00  0.00     0.031 C 
ATOM     55  C   UNL A   1      39.637  26.670  28.128  1.00  0.00     0.029 A 
ATOM     56  N   UNL A   1      41.677  27.168  28.897  1.00  0.00    -0.354 N 
ATOM     57  C   UNL A   1      42.558  31.075  30.509  1.00  0.00     0.074 A 
ATOM     58  C   UNL A   1      41.389  31.928  30.483  1.00  0.00     0.031 C 
ATOM     59  C   UNL A   1      40.417  25.593  27.931  1.00  0.00     0.029 A 
ATOM     60  C   UNL A   1      41.765  25.887  28.406  1.00  0.00     0.049 A 
ATOM     61  H   UNL A   1      42.440  27.644  29.298  1.00  0.00     0.167 HD
ATOM     62  C   UNL A   1      43.771  31.460  30.971  1.00  0.00     0.031 A 
ATOM     63  C   UNL A   1      42.812  25.044  28.343  1.00  0.00     0.031 A 
ATOM     64  C   UNL A   1      44.925  30.604  31.019  1.00  0.00     0.049 A 
ATOM     65  C   UNL A   1      44.145  25.485  28.882  1.00  0.00     0.074 A 
ATOM     66  C   UNL A   1      46.180  30.880  31.530  1.00  0.00     0.029 A 
ATOM     67  N   UNL A   1      44.963  29.303  30.541  1.00  0.00    -0.354 N 
ATOM     68  N   UNL A   1      44.473  26.636  29.418  1.00  0.00    -0.248 NA
ATOM     69  C   UNL A   1      45.244  24.512  28.817  1.00  0.00     0.031 C 
ATOM     70  C   UNL A   1      46.989  29.756  31.332  1.00  0.00     0.029 A 
ATOM     71  C   UNL A   1      46.225  28.768  30.732  1.00  0.00     0.049 A 
ATOM     72  H   UNL A   1      44.206  28.830  30.128  1.00  0.00     0.167 HD
ATOM     73  C   UNL A   1      45.812  26.518  29.773  1.00  0.00     0.074 A 
ATOM     74  C   UNL A   1      46.229  25.182  29.400  1.00  0.00     0.031 C 
ATOM     75  C   UNL A   1      46.621  27.435  30.357  1.00  0.00     0.031 A 
BRANCH  62  76
ATOM     76  C   UNL A   1      43.904  32.875  31.461  1.00  0.00    -0.014 A 
ATOM     77  C   UNL A   1      44.328  33.901  30.597  1.00  0.00     0.010 A 
ATOM     78  C   UNL A   1      43.583  33.189  32.794  1.00  0.00     0.010 A 
ATOM     79  C   UNL A   1      44.474  35.207  31.069  1.00  0.00     0.020 A 
ATOM     80  C   UNL A   1      43.707  34.499  33.264  1.00  0.00     0.020 A 
ATOM     81  C   UNL A   1      44.171  35.496  32.403  1.00  0.00     0.054 A 
BRANCH  81  82
ATOM     82  S   UNL A   1      44.363  37.201  32.992  1.00  0.00     0.124 S 
ATOM     83  O   UNL A   1      44.210  37.963  31.755  1.00  0.00    -0.237 OA
ATOM     84  O   UNL A   1      43.271  37.337  33.951  1.00  0.00    -0.237 OA
ATOM     85  O   UNL A   1      45.704  37.217  33.574  1.00  0.00    -0.744 OA
ENDBRANCH  81  82
ENDBRANCH  62  76
BRANCH  63  86
ATOM     86  C   UNL A   1      42.635  23.685  27.768  1.00  0.00    -0.014 A 
ATOM     87  C   UNL A   1      42.455  22.576  28.614  1.00  0.00     0.010 A 
ATOM     88  C   UNL A   1      42.623  23.494  26.374  1.00  0.00     0.010 A 
ATOM     89  C   UNL A   1      42.277  21.298  28.077  1.00  0.00     0.020 A 
ATOM     90  C   UNL A   1      42.425  22.221  25.834  1.00  0.00     0.020 A 
ATOM     91  C   UNL A   1      42.262  21.129  26.689  1.00  0.00     0.054 A 
BRANCH  91  92
ATOM     92  S   UNL A   1      41.969  19.471  26.011  1.00  0.00     0.124 S 
ATOM     93  O   UNL A   1      42.285  18.617  27.151  1.00  0.00    -0.237 OA
ATOM     94  O   UNL A   1      40.559  19.526  25.633  1.00  0.00    -0.237 OA
ATOM     95  O   UNL A   1      42.903  19.394  24.888  1.00  0.00    -0.744 OA
ENDBRANCH  91  92
ENDBRANCH  63  86
BRANCH  75  96
ATOM     96  C   UNL A   1      48.035  27.019  30.653  1.00  0.00    -0.014 A 
ATOM     97  C   UNL A   1      49.091  27.393  29.804  1.00  0.00     0.010 A 
ATOM     98  C   UNL A   1      48.318  26.310  31.834  1.00  0.00     0.010 A 
ATOM     99  C   UNL A   1      50.406  27.049  30.123  1.00  0.00     0.020 A 
ATOM    100  C   UNL A   1      49.634  25.981  32.166  1.00  0.00     0.020 A 
ATOM    101  C   UNL A   1      50.670  26.345  31.302  1.00  0.00     0.054 A 
BRANCH 101 102
ATOM    102  S   UNL A   1      52.391  25.963  31.730  1.00  0.00     0.124 S 
ATOM    103  O   UNL A   1      52.707  27.022  32.687  1.00  0.00    -0.237 OA
ATOM    104  O   UNL A   1      52.294  24.618  32.291  1.00  0.00    -0.237 OA
ATOM    105  O   UNL A   1      53.092  26.049  30.451  1.00  0.00    -0.744 OA
ENDBRANCH 101 102
ENDBRANCH  75  96
ENDBRANCH  49  50
ENDBRANCH  41  44
ENDBRANCH  39  40
ENDBRANCH  38  39
ENDBRANCH   1  38
TORSDOF 20
ENDMDL
MODEL 2
REMARK VINA RESULT:     -12.3      4.353      9.628
REMARK SMILES Cn1cc(C[C@@H](NC(=O)OCC2c3ccccc3-c3ccccc32)C(=O)NCCCCNC(=O)c2ccc(-c3c4nc(c(-c5ccc(S(=O)(=O)[O-])cc5)c5ccc([nH]5)c(-c5ccc(S(=O)(=O)[O-])cc5)c5nc(c(-c6ccc(S(=O)(=O)[O-])cc6)c6ccc3[nH]6)C=C5)C=C4)cc2)c2ccccc21
REMARK SMILES IDX 29 1 28 2 27 3 25 4 26 5 6 7 5 8 4 9 1 10 2 11 3 12 100 13
REMARK SMILES IDX 95 14 99 15 96 16 98 17 97 18 7 19 8 20 9 22 10 23 11 24
REMARK SMILES IDX 12 25 13 26 24 27 14 28 18 29 19 30 23 31 15 32 17 33 20 34
REMARK SMILES IDX 22 35 16 36 21 37 30 38 31 39 32 40 33 41 34 43 35 44 36 45
REMARK SMILES IDX 94 46 37 47 93 48 38 49 39 50 40 51 87 52 41 53 92 54 86 55
REMARK SMILES IDX 88 56 42 57 91 58 85 59 84 60 43 62 73 63 54 64 72 65 55 66
REMARK SMILES IDX 58 67 71 68 89 69 56 70 57 71 70 73 90 74 59 75 44 76 45 77
REMARK SMILES IDX 53 78 46 79 52 80 47 81 48 82 49 83 50 84 51 85 74 86 75 87
REMARK SMILES IDX 83 88 76 89 82 90 77 91 78 92 79 93 80 94 81 95 60 96 61 97
REMARK SMILES IDX 69 98 62 99 68 100 63 101 64 102 65 103 66 104 67 105
REMARK H PARENT 27 6 7 21 32 42 88 61 58 72
REMARK Flexibility Score: inf
ROOT
ATOM      1  C   UNL A   1      34.366  29.260  26.964  1.00  0.00     0.023 C 
ENDROOT
BRANCH   1   2
ATOM      2  C   UNL A   1      33.698  28.491  25.830  1.00  0.00     0.116 C 
BRANCH   2   3
ATOM      3  N   UNL A   1      34.198  28.900  24.530  1.00  0.00    -0.354 N 
ATOM      4  C   UNL A   1      33.936  28.389  23.286  1.00  0.00     0.243 C 
ATOM      5  O   UNL A   1      34.491  28.917  22.318  1.00  0.00    -0.273 OA
ATOM      6  H   UNL A   1      34.822  29.662  24.544  1.00  0.00     0.163 HD
BRANCH   4   7
ATOM      7  C   UNL A   1      33.088  27.111  23.109  1.00  0.00     0.179 C 
BRANCH   7   8
ATOM      8  C   UNL A   1      31.847  27.225  24.037  1.00  0.00     0.073 C 
BRANCH   8   9
ATOM      9  C   UNL A   1      30.696  28.066  23.551  1.00  0.00    -0.020 A 
ATOM     10  C   UNL A   1      29.292  30.782  21.603  1.00  0.00     0.149 C 
ATOM     11  N   UNL A   1      29.565  29.671  22.487  1.00  0.00    -0.350 N 
ATOM     12  C   UNL A   1      30.815  29.253  22.854  1.00  0.00     0.090 A 
ATOM     13  C   UNL A   1      28.607  28.830  23.008  1.00  0.00     0.048 A 
ATOM     14  C   UNL A   1      29.290  27.765  23.603  1.00  0.00     0.003 A 
ATOM     15  C   UNL A   1      27.204  28.897  22.972  1.00  0.00     0.027 A 
ATOM     16  C   UNL A   1      28.525  26.688  24.103  1.00  0.00     0.010 A 
ATOM     17  C   UNL A   1      26.478  27.853  23.550  1.00  0.00     0.002 A 
ATOM     18  C   UNL A   1      27.128  26.755  24.098  1.00  0.00     0.001 A 
ENDBRANCH   8   9
ENDBRANCH   7   8
BRANCH   7  19
ATOM     19  N   UNL A   1      32.753  26.709  21.741  1.00  0.00    -0.309 N 
ATOM     20  C   UNL A   1      32.759  25.491  21.147  1.00  0.00     0.407 C 
ATOM     21  H   UNL A   1      32.476  27.449  21.154  1.00  0.00     0.167 HD
ATOM     22  O   UNL A   1      33.104  25.387  19.971  1.00  0.00    -0.225 OA
BRANCH  20  23
ATOM     23  O   UNL A   1      32.343  24.466  21.928  1.00  0.00    -0.449 OA
BRANCH  23  24
ATOM     24  C   UNL A   1      33.192  23.293  21.919  1.00  0.00     0.248 C 
BRANCH  24  25
ATOM     25  C   UNL A   1      33.437  22.686  23.318  1.00  0.00     0.088 C 
ATOM     26  C   UNL A   1      34.821  23.013  23.870  1.00  0.00    -0.029 A 
ATOM     27  C   UNL A   1      32.534  23.241  24.413  1.00  0.00    -0.029 A 
ATOM     28  C   UNL A   1      36.057  22.609  23.387  1.00  0.00     0.005 A 
ATOM     29  C   UNL A   1      34.705  23.764  25.060  1.00  0.00    -0.014 A 
ATOM     30  C   UNL A   1      33.302  23.944  25.364  1.00  0.00    -0.014 A 
ATOM     31  C   UNL A   1      31.155  23.161  24.520  1.00  0.00     0.005 A 
ATOM     32  C   UNL A   1      37.196  22.976  24.107  1.00  0.00     0.000 A 
ATOM     33  C   UNL A   1      35.836  24.135  25.766  1.00  0.00     0.009 A 
ATOM     34  C   UNL A   1      32.683  24.650  26.382  1.00  0.00     0.009 A 
ATOM     35  C   UNL A   1      30.529  23.883  25.536  1.00  0.00     0.000 A 
ATOM     36  C   UNL A   1      37.088  23.735  25.284  1.00  0.00     0.001 A 
ATOM     37  C   UNL A   1      31.285  24.632  26.451  1.00  0.00     0.001 A 
ENDBRANCH  24  25
ENDBRANCH  23  24
ENDBRANCH  20  23
ENDBRANCH   7  19
ENDBRANCH   4   7
ENDBRANCH   2   3
ENDBRANCH   1   2
BRANCH   1  38
ATOM     38  C   UNL A   1      33.574  30.477  27.441  1.00  0.00     0.023 C 
BRANCH  38  39
ATOM     39  C   UNL A   1      34.368  31.777  27.513  1.00  0.00     0.116 C 
BRANCH  39  40
ATOM     40  N   UNL A   1      33.565  32.924  27.912  1.00  0.00    -0.352 N 
ATOM     41  C   UNL A   1      33.713  33.705  29.034  1.00  0.00     0.251 C 
ATOM     42  H   UNL A   1      32.829  33.170  27.306  1.00  0.00     0.163 HD
ATOM     43  O   UNL A   1      32.897  34.580  29.305  1.00  0.00    -0.269 OA
BRANCH  41  44
ATOM     44  C   UNL A   1      34.857  33.439  29.927  1.00  0.00     0.039 A 
ATOM     45  C   UNL A   1      34.743  32.440  30.895  1.00  0.00     0.014 A 
ATOM     46  C   UNL A   1      36.064  34.117  29.734  1.00  0.00     0.014 A 
ATOM     47  C   UNL A   1      35.871  32.065  31.626  1.00  0.00     0.010 A 
ATOM     48  C   UNL A   1      37.198  33.702  30.421  1.00  0.00     0.010 A 
ATOM     49  C   UNL A   1      37.114  32.665  31.366  1.00  0.00    -0.014 A 
BRANCH  49  50
ATOM     50  C   UNL A   1      38.347  32.209  32.053  1.00  0.00     0.031 A 
ATOM     51  C   UNL A   1      39.282  31.256  31.366  1.00  0.00     0.074 A 
ATOM     52  C   UNL A   1      38.578  32.589  33.326  1.00  0.00     0.049 A 
ATOM     53  N   UNL A   1      40.364  30.687  31.829  1.00  0.00    -0.248 NA
ATOM     54  C   UNL A   1      38.942  30.871  29.986  1.00  0.00     0.031 C 
ATOM     55  C   UNL A   1      37.718  33.469  34.120  1.00  0.00     0.029 A 
ATOM     56  N   UNL A   1      39.606  32.272  34.179  1.00  0.00    -0.354 N 
ATOM     57  C   UNL A   1      40.821  29.860  30.810  1.00  0.00     0.074 A 
ATOM     58  C   UNL A   1      39.877  29.971  29.719  1.00  0.00     0.031 C 
ATOM     59  C   UNL A   1      38.265  33.639  35.336  1.00  0.00     0.029 A 
ATOM     60  C   UNL A   1      39.495  32.856  35.419  1.00  0.00     0.049 A 
ATOM     61  H   UNL A   1      40.352  31.681  33.928  1.00  0.00     0.167 HD
ATOM     62  C   UNL A   1      41.935  29.091  30.778  1.00  0.00     0.031 A 
ATOM     63  C   UNL A   1      40.290  32.770  36.501  1.00  0.00     0.031 A 
ATOM     64  C   UNL A   1      42.884  29.000  31.854  1.00  0.00     0.049 A 
ATOM     65  C   UNL A   1      41.533  31.927  36.435  1.00  0.00     0.074 A 
ATOM     66  C   UNL A   1      44.077  28.300  31.892  1.00  0.00     0.029 A 
ATOM     67  N   UNL A   1      42.751  29.633  33.080  1.00  0.00    -0.354 N 
ATOM     68  N   UNL A   1      41.982  31.203  35.438  1.00  0.00    -0.248 NA
ATOM     69  C   UNL A   1      42.381  31.896  37.635  1.00  0.00     0.031 C 
ATOM     70  C   UNL A   1      44.650  28.483  33.155  1.00  0.00     0.029 A 
ATOM     71  C   UNL A   1      43.832  29.328  33.888  1.00  0.00     0.049 A 
ATOM     72  H   UNL A   1      41.999  30.213  33.338  1.00  0.00     0.167 HD
ATOM     73  C   UNL A   1      43.176  30.647  35.883  1.00  0.00     0.074 A 
ATOM     74  C   UNL A   1      43.383  31.126  37.234  1.00  0.00     0.031 C 
ATOM     75  C   UNL A   1      44.024  29.816  35.229  1.00  0.00     0.031 A 
BRANCH  62  76
ATOM     76  C   UNL A   1      42.180  28.286  29.532  1.00  0.00    -0.014 A 
ATOM     77  C   UNL A   1      42.958  28.803  28.480  1.00  0.00     0.010 A 
ATOM     78  C   UNL A   1      41.644  26.990  29.418  1.00  0.00     0.010 A 
ATOM     79  C   UNL A   1      43.156  28.058  27.316  1.00  0.00     0.020 A 
ATOM     80  C   UNL A   1      41.860  26.233  28.264  1.00  0.00     0.020 A 
ATOM     81  C   UNL A   1      42.598  26.780  27.212  1.00  0.00     0.054 A 
BRANCH  81  82
ATOM     82  S   UNL A   1      42.875  25.828  25.693  1.00  0.00     0.124 S 
ATOM     83  O   UNL A   1      44.152  26.367  25.232  1.00  0.00    -0.237 OA
ATOM     84  O   UNL A   1      42.914  24.451  26.176  1.00  0.00    -0.237 OA
ATOM     85  O   UNL A   1      41.720  26.161  24.861  1.00  0.00    -0.744 OA
ENDBRANCH  81  82
ENDBRANCH  62  76
BRANCH  63  86
ATOM     86  C   UNL A   1      39.947  33.525  37.734  1.00  0.00    -0.014 A 
ATOM     87  C   UNL A   1      40.459  34.819  37.938  1.00  0.00     0.010 A 
ATOM     88  C   UNL A   1      39.089  32.967  38.700  1.00  0.00     0.010 A 
ATOM     89  C   UNL A   1      40.130  35.538  39.090  1.00  0.00     0.020 A 
ATOM     90  C   UNL A   1      38.742  33.691  39.843  1.00  0.00     0.020 A 
ATOM     91  C   UNL A   1      39.272  34.968  40.036  1.00  0.00     0.054 A 
BRANCH  91  92
ATOM     92  S   UNL A   1      38.808  35.941  41.497  1.00  0.00     0.124 S 
ATOM     93  O   UNL A   1      39.925  35.685  42.399  1.00  0.00    -0.237 OA
ATOM     94  O   UNL A   1      38.723  37.298  40.962  1.00  0.00    -0.237 OA
ATOM     95  O   UNL A   1      37.528  35.359  41.898  1.00  0.00    -0.744 OA
ENDBRANCH  91  92
ENDBRANCH  63  86
BRANCH  75  96
ATOM     96  C   UNL A   1      45.269  29.388  35.955  1.00  0.00    -0.014 A 
ATOM     97  C   UNL A   1      45.288  28.212  36.724  1.00  0.00     0.010 A 
ATOM     98  C   UNL A   1      46.451  30.134  35.804  1.00  0.00     0.010 A 
ATOM     99  C   UNL A   1      46.468  27.798  37.346  1.00  0.00     0.020 A 
ATOM    100  C   UNL A   1      47.638  29.711  36.407  1.00  0.00     0.020 A 
ATOM    101  C   UNL A   1      47.636  28.549  37.183  1.00  0.00     0.054 A 
BRANCH 101 102
ATOM    102  S   UNL A   1      49.173  27.959  37.945  1.00  0.00     0.124 S 
ATOM    103  O   UNL A   1      48.691  26.871  38.794  1.00  0.00    -0.237 OA
ATOM    104  O   UNL A   1      49.969  27.550  36.792  1.00  0.00    -0.237 OA
ATOM    105  O   UNL A   1      49.677  29.130  38.659  1.00  0.00    -0.744 OA
ENDBRANCH 101 102
ENDBRANCH  75  96
ENDBRANCH  49  50
ENDBRANCH  41  44
ENDBRANCH  39  40
ENDBRANCH  38  39
ENDBRANCH   1  38
TORSDOF 20
ENDMDL
MODEL 3
REMARK VINA RESULT:     -11.4      2.653      8.204
REMARK SMILES Cn1cc(C[C@@H](NC(=O)OCC2c3ccccc3-c3ccccc32)C(=O)NCCCCNC(=O)c2ccc(-c3c4nc(c(-c5ccc(S(=O)(=O)[O-])cc5)c5ccc([nH]5)c(-c5ccc(S(=O)(=O)[O-])cc5)c5nc(c(-c6ccc(S(=O)(=O)[O-])cc6)c6ccc3[nH]6)C=C5)C=C4)cc2)c2ccccc21
REMARK SMILES IDX 29 1 28 2 27 3 25 4 26 5 6 7 5 8 4 9 1 10 2 11 3 12 100 13
REMARK SMILES IDX 95 14 99 15 96 16 98 17 97 18 7 19 8 20 9 22 10 23 11 24
REMARK SMILES IDX 12 25 13 26 24 27 14 28 18 29 19 30 23 31 15 32 17 33 20 34
REMARK SMILES IDX 22 35 16 36 21 37 30 38 31 39 32 40 33 41 34 43 35 44 36 45
REMARK SMILES IDX 94 46 37 47 93 48 38 49 39 50 40 51 87 52 41 53 92 54 86 55
REMARK SMILES IDX 88 56 42 57 91 58 85 59 84 60 43 62 73 63 54 64 72 65 55 66
REMARK SMILES IDX 58 67 71 68 89 69 56 70 57 71 70 73 90 74 59 75 44 76 45 77
REMARK SMILES IDX 53 78 46 79 52 80 47 81 48 82 49 83 50 84 51 85 74 86 75 87
REMARK SMILES IDX 83 88 76 89 82 90 77 91 78 92 79 93 80 94 81 95 60 96 61 97
REMARK SMILES IDX 69 98 62 99 68 100 63 101 64 102 65 103 66 104 67 105
REMARK H PARENT 27 6 7 21 32 42 88 61 58 72
REMARK Flexibility Score: inf
ROOT
ATOM      1  C   UNL A   1      34.869  23.534  26.377  1.00  0.00     0.023 C 
ENDROOT
BRANCH   1   2
ATOM      2  C   UNL A   1      34.330  22.749  25.186  1.00  0.00     0.116 C 
BRANCH   2   3
ATOM      3  N   UNL A   1      33.584  23.595  24.272  1.00  0.00    -0.354 N 
ATOM      4  C   UNL A   1      32.245  23.616  23.989  1.00  0.00     0.243 C 
ATOM      5  O   UNL A   1      31.843  24.442  23.163  1.00  0.00    -0.273 OA
ATOM      6  H   UNL A   1      34.125  24.256  23.779  1.00  0.00     0.163 HD
BRANCH   4   7
ATOM      7  C   UNL A   1      31.287  22.556  24.574  1.00  0.00     0.179 C 
BRANCH   7   8
ATOM      8  C   UNL A   1      32.143  21.368  25.092  1.00  0.00     0.073 C 
BRANCH   8   9
ATOM      9  C   UNL A   1      32.245  20.152  24.209  1.00  0.00    -0.020 A 
ATOM     10  C   UNL A   1      32.362  18.530  20.969  1.00  0.00     0.149 C 
ATOM     11  N   UNL A   1      32.313  18.889  22.368  1.00  0.00    -0.350 N 
ATOM     12  C   UNL A   1      32.021  20.138  22.845  1.00  0.00     0.090 A 
ATOM     13  C   UNL A   1      32.638  18.044  23.407  1.00  0.00     0.048 A 
ATOM     14  C   UNL A   1      32.692  18.831  24.561  1.00  0.00     0.003 A 
ATOM     15  C   UNL A   1      32.927  16.669  23.420  1.00  0.00     0.027 A 
ATOM     16  C   UNL A   1      33.137  18.221  25.755  1.00  0.00     0.010 A 
ATOM     17  C   UNL A   1      33.284  16.081  24.636  1.00  0.00     0.002 A 
ATOM     18  C   UNL A   1      33.400  16.848  25.788  1.00  0.00     0.001 A 
ENDBRANCH   8   9
ENDBRANCH   7   8
BRANCH   7  19
ATOM     19  N   UNL A   1      30.285  23.013  25.540  1.00  0.00    -0.309 N 
ATOM     20  C   UNL A   1      30.408  23.780  26.651  1.00  0.00     0.407 C 
ATOM     21  H   UNL A   1      29.367  22.711  25.351  1.00  0.00     0.167 HD
ATOM     22  O   UNL A   1      29.719  23.536  27.641  1.00  0.00    -0.225 OA
BRANCH  20  23
ATOM     23  O   UNL A   1      31.294  24.799  26.553  1.00  0.00    -0.449 OA
BRANCH  23  24
ATOM     24  C   UNL A   1      30.716  26.102  26.299  1.00  0.00     0.248 C 
BRANCH  24  25
ATOM     25  C   UNL A   1      31.500  26.945  25.268  1.00  0.00     0.088 C 
ATOM     26  C   UNL A   1      30.594  27.832  24.419  1.00  0.00    -0.029 A 
ATOM     27  C   UNL A   1      32.443  27.973  25.880  1.00  0.00    -0.029 A 
ATOM     28  C   UNL A   1      29.633  27.445  23.496  1.00  0.00     0.005 A 
ATOM     29  C   UNL A   1      30.911  29.191  24.626  1.00  0.00    -0.014 A 
ATOM     30  C   UNL A   1      32.012  29.278  25.560  1.00  0.00    -0.014 A 
ATOM     31  C   UNL A   1      33.551  27.759  26.684  1.00  0.00     0.005 A 
ATOM     32  C   UNL A   1      28.972  28.444  22.778  1.00  0.00     0.000 A 
ATOM     33  C   UNL A   1      30.247  30.180  23.920  1.00  0.00     0.009 A 
ATOM     34  C   UNL A   1      32.639  30.379  26.118  1.00  0.00     0.009 A 
ATOM     35  C   UNL A   1      34.174  28.868  27.258  1.00  0.00     0.000 A 
ATOM     36  C   UNL A   1      29.273  29.799  22.991  1.00  0.00     0.001 A 
ATOM     37  C   UNL A   1      33.713  30.165  26.989  1.00  0.00     0.001 A 
ENDBRANCH  24  25
ENDBRANCH  23  24
ENDBRANCH  20  23
ENDBRANCH   7  19
ENDBRANCH   4   7
ENDBRANCH   2   3
ENDBRANCH   1   2
BRANCH   1  38
ATOM     38  C   UNL A   1      36.200  24.235  26.108  1.00  0.00     0.023 C 
BRANCH  38  39
ATOM     39  C   UNL A   1      37.074  23.577  25.044  1.00  0.00     0.116 C 
BRANCH  39  40
ATOM     40  N   UNL A   1      37.943  22.536  25.575  1.00  0.00    -0.352 N 
ATOM     41  C   UNL A   1      39.076  22.693  26.338  1.00  0.00     0.251 C 
ATOM     42  H   UNL A   1      37.688  21.609  25.363  1.00  0.00     0.163 HD
ATOM     43  O   UNL A   1      39.777  21.731  26.631  1.00  0.00    -0.269 OA
BRANCH  41  44
ATOM     44  C   UNL A   1      39.450  24.055  26.764  1.00  0.00     0.039 A 
ATOM     45  C   UNL A   1      39.258  24.425  28.096  1.00  0.00     0.014 A 
ATOM     46  C   UNL A   1      40.075  24.921  25.862  1.00  0.00     0.014 A 
ATOM     47  C   UNL A   1      39.765  25.645  28.546  1.00  0.00     0.010 A 
ATOM     48  C   UNL A   1      40.630  26.107  26.326  1.00  0.00     0.010 A 
ATOM     49  C   UNL A   1      40.489  26.475  27.674  1.00  0.00    -0.014 A 
BRANCH  49  50
ATOM     50  C   UNL A   1      41.129  27.724  28.156  1.00  0.00     0.031 A 
ATOM     51  C   UNL A   1      42.625  27.853  28.148  1.00  0.00     0.074 A 
ATOM     52  C   UNL A   1      40.365  28.705  28.676  1.00  0.00     0.049 A 
ATOM     53  N   UNL A   1      43.369  28.830  28.598  1.00  0.00    -0.248 NA
ATOM     54  C   UNL A   1      43.386  26.725  27.588  1.00  0.00     0.031 C 
ATOM     55  C   UNL A   1      38.905  28.677  28.787  1.00  0.00     0.029 A 
ATOM     56  N   UNL A   1      40.715  29.917  29.218  1.00  0.00    -0.354 N 
ATOM     57  C   UNL A   1      44.683  28.427  28.396  1.00  0.00     0.074 A 
ATOM     58  C   UNL A   1      44.635  27.100  27.822  1.00  0.00     0.031 C 
ATOM     59  C   UNL A   1      38.483  29.827  29.342  1.00  0.00     0.029 A 
ATOM     60  C   UNL A   1      39.642  30.658  29.654  1.00  0.00     0.049 A 
ATOM     61  H   UNL A   1      41.647  30.226  29.289  1.00  0.00     0.167 HD
ATOM     62  C   UNL A   1      45.827  29.106  28.650  1.00  0.00     0.031 A 
ATOM     63  C   UNL A   1      39.595  31.868  30.241  1.00  0.00     0.031 A 
ATOM     64  C   UNL A   1      45.872  30.434  29.199  1.00  0.00     0.049 A 
ATOM     65  C   UNL A   1      40.876  32.613  30.494  1.00  0.00     0.074 A 
ATOM     66  C   UNL A   1      46.978  31.231  29.432  1.00  0.00     0.029 A 
ATOM     67  N   UNL A   1      44.761  31.161  29.598  1.00  0.00    -0.354 N 
ATOM     68  N   UNL A   1      42.107  32.241  30.237  1.00  0.00    -0.248 NA
ATOM     69  C   UNL A   1      40.762  33.943  31.108  1.00  0.00     0.031 C 
ATOM     70  C   UNL A   1      46.538  32.431  30.002  1.00  0.00     0.029 A 
ATOM     71  C   UNL A   1      45.156  32.394  30.089  1.00  0.00     0.049 A 
ATOM     72  H   UNL A   1      43.830  30.848  29.540  1.00  0.00     0.167 HD
ATOM     73  C   UNL A   1      42.913  33.299  30.637  1.00  0.00     0.074 A 
ATOM     74  C   UNL A   1      42.031  34.330  31.145  1.00  0.00     0.031 C 
ATOM     75  C   UNL A   1      44.263  33.408  30.587  1.00  0.00     0.031 A 
BRANCH  62  76
ATOM     76  C   UNL A   1      47.123  28.413  28.335  1.00  0.00    -0.014 A 
ATOM     77  C   UNL A   1      47.770  28.620  27.102  1.00  0.00     0.010 A 
ATOM     78  C   UNL A   1      47.714  27.563  29.286  1.00  0.00     0.010 A 
ATOM     79  C   UNL A   1      48.959  27.950  26.808  1.00  0.00     0.020 A 
ATOM     80  C   UNL A   1      48.916  26.910  29.005  1.00  0.00     0.020 A 
ATOM     81  C   UNL A   1      49.521  27.092  27.758  1.00  0.00     0.054 A 
BRANCH  81  82
ATOM     82  S   UNL A   1      51.070  26.239  27.356  1.00  0.00     0.124 S 
ATOM     83  O   UNL A   1      50.671  24.837  27.447  1.00  0.00    -0.237 OA
ATOM     84  O   UNL A   1      51.365  26.720  26.009  1.00  0.00    -0.237 OA
ATOM     85  O   UNL A   1      51.994  26.694  28.393  1.00  0.00    -0.744 OA
ENDBRANCH  81  82
ENDBRANCH  62  76
BRANCH  63  86
ATOM     86  C   UNL A   1      38.283  32.463  30.608  1.00  0.00    -0.014 A 
ATOM     87  C   UNL A   1      37.752  32.268  31.895  1.00  0.00     0.010 A 
ATOM     88  C   UNL A   1      37.568  33.244  29.682  1.00  0.00     0.010 A 
ATOM     89  C   UNL A   1      36.525  32.834  32.248  1.00  0.00     0.020 A 
ATOM     90  C   UNL A   1      36.350  33.829  30.038  1.00  0.00     0.020 A 
ATOM     91  C   UNL A   1      35.831  33.612  31.316  1.00  0.00     0.054 A 
BRANCH  91  92
ATOM     92  S   UNL A   1      34.267  34.389  31.813  1.00  0.00     0.124 S 
ATOM     93  O   UNL A   1      34.728  35.627  32.431  1.00  0.00    -0.237 OA
ATOM     94  O   UNL A   1      33.567  34.539  30.539  1.00  0.00    -0.237 OA
ATOM     95  O   UNL A   1      33.678  33.411  32.726  1.00  0.00    -0.744 OA
ENDBRANCH  91  92
ENDBRANCH  63  86
BRANCH  75  96
ATOM     96  C   UNL A   1      44.872  34.695  31.071  1.00  0.00    -0.014 A 
ATOM     97  C   UNL A   1      45.283  34.841  32.406  1.00  0.00     0.010 A 
ATOM     98  C   UNL A   1      45.100  35.741  30.159  1.00  0.00     0.010 A 
ATOM     99  C   UNL A   1      45.900  36.022  32.827  1.00  0.00     0.020 A 
ATOM    100  C   UNL A   1      45.734  36.915  30.571  1.00  0.00     0.020 A 
ATOM    101  C   UNL A   1      46.121  37.052  31.907  1.00  0.00     0.054 A 
BRANCH 101 102
ATOM    102  S   UNL A   1      46.981  38.551  32.459  1.00  0.00     0.124 S 
ATOM    103  O   UNL A   1      46.952  38.400  33.911  1.00  0.00    -0.237 OA
ATOM    104  O   UNL A   1      48.297  38.415  31.840  1.00  0.00    -0.237 OA
ATOM    105  O   UNL A   1      46.159  39.636  31.928  1.00  0.00    -0.744 OA
ENDBRANCH 101 102
ENDBRANCH  75  96
ENDBRANCH  49  50
ENDBRANCH  41  44
ENDBRANCH  39  40
ENDBRANCH  38  39
ENDBRANCH   1  38
TORSDOF 20
ENDMDL
