MODEL 1
REMARK VINA RESULT:     -11.4      0.000      0.000
REMARK SMILES CCOc1ccc(NC(=O)Nc2cccc(C(=O)NCCCCNC(=O)c3ccc(-c4c5nc(c(-c6ccc(S(=O)(=O)[O-])cc6)c6ccc([nH]6)c(-c6ccc(S(=O)(=O)[O-])cc6)c6nc(c(-c7ccc(S(=O)(=O)[O-])cc7)c7ccc4[nH]7)C=C6)C=C5)cc3)c2)cc1
REMARK SMILES IDX 21 1 20 2 19 3 17 4 18 5 16 7 12 8 13 9 87 10 14 11 15 12
REMARK SMILES IDX 11 13 8 14 9 15 10 17 7 19 4 20 5 21 89 22 6 23 88 24 3 25
REMARK SMILES IDX 2 26 1 27 22 28 23 29 24 30 25 31 26 33 27 34 28 35 86 36
REMARK SMILES IDX 29 37 85 38 30 39 31 40 32 41 79 42 33 43 84 44 78 45 80 46
REMARK SMILES IDX 34 47 83 48 77 49 76 50 35 52 65 53 46 54 64 55 47 56 50 57
REMARK SMILES IDX 63 58 81 59 48 60 49 61 62 63 82 64 51 65 36 66 37 67 45 68
REMARK SMILES IDX 38 69 44 70 39 71 40 72 41 73 42 74 43 75 66 76 67 77 75 78
REMARK SMILES IDX 68 79 74 80 69 81 70 82 71 83 72 84 73 85 52 86 53 87 61 88
REMARK SMILES IDX 54 89 60 90 55 91 56 92 57 93 58 94 59 95
REMARK H PARENT 19 6 8 16 11 18 24 32 80 51 50 62
REMARK Flexibility Score: inf
ROOT
ATOM      1  C   UNL A   1      31.584  28.567  25.707  1.00  0.00     0.023 C 
ENDROOT
BRANCH   1   2
ATOM      2  C   UNL A   1      30.828  27.359  25.163  1.00  0.00     0.116 C 
BRANCH   2   3
ATOM      3  N   UNL A   1      30.815  26.272  26.116  1.00  0.00    -0.352 N 
ATOM      4  C   UNL A   1      31.476  25.073  26.178  1.00  0.00     0.251 C 
ATOM      5  O   UNL A   1      31.254  24.379  27.174  1.00  0.00    -0.269 OA
ATOM      6  H   UNL A   1      30.208  26.425  26.876  1.00  0.00     0.163 HD
BRANCH   4   7
ATOM      7  C   UNL A   1      32.463  24.580  25.168  1.00  0.00     0.041 A 
ATOM      8  C   UNL A   1      34.690  24.138  24.304  1.00  0.00     0.043 A 
ATOM      9  C   UNL A   1      34.158  23.432  23.225  1.00  0.00     0.026 A 
ATOM     10  C   UNL A   1      33.841  24.802  25.195  1.00  0.00     0.040 A 
ATOM     11  C   UNL A   1      32.782  23.247  23.142  1.00  0.00     0.003 A 
ATOM     12  C   UNL A   1      31.948  23.788  24.125  1.00  0.00     0.014 A 
BRANCH   8  13
ATOM     13  N   UNL A   1      36.081  24.080  24.499  1.00  0.00    -0.308 N 
ATOM     14  N   UNL A   1      36.402  22.467  26.239  1.00  0.00    -0.308 N 
ATOM     15  C   UNL A   1      36.816  23.524  25.494  1.00  0.00     0.323 C 
ATOM     16  H   UNL A   1      36.874  22.394  27.099  1.00  0.00     0.171 HD
ATOM     17  O   UNL A   1      37.936  23.992  25.723  1.00  0.00    -0.248 OA
ATOM     18  H   UNL A   1      36.611  24.517  23.793  1.00  0.00     0.171 HD
BRANCH  14  19
ATOM     19  C   UNL A   1      35.442  21.451  26.049  1.00  0.00     0.043 A 
ATOM     20  C   UNL A   1      33.255  19.784  25.501  1.00  0.00     0.119 A 
ATOM     21  C   UNL A   1      34.456  19.605  24.824  1.00  0.00     0.048 A 
ATOM     22  C   UNL A   1      33.191  20.685  26.557  1.00  0.00     0.048 A 
ATOM     23  C   UNL A   1      35.554  20.422  25.117  1.00  0.00     0.030 A 
ATOM     24  C   UNL A   1      34.287  21.508  26.840  1.00  0.00     0.030 A 
BRANCH  20  25
ATOM     25  O   UNL A   1      32.203  18.991  25.142  1.00  0.00    -0.494 OA
BRANCH  25  26
ATOM     26  C   UNL A   1      32.548  17.961  24.204  1.00  0.00     0.226 C 
ATOM     27  C   UNL A   1      32.710  16.633  24.926  1.00  0.00     0.049 C 
ENDBRANCH  25  26
ENDBRANCH  20  25
ENDBRANCH  14  19
ENDBRANCH   8  13
ENDBRANCH   4   7
ENDBRANCH   2   3
ENDBRANCH   1   2
BRANCH   1  28
ATOM     28  C   UNL A   1      33.099  28.371  25.700  1.00  0.00     0.023 C 
BRANCH  28  29
ATOM     29  C   UNL A   1      33.763  28.556  27.061  1.00  0.00     0.116 C 
BRANCH  29  30
ATOM     30  N   UNL A   1      33.618  29.905  27.591  1.00  0.00    -0.352 N 
ATOM     31  C   UNL A   1      34.545  30.647  28.287  1.00  0.00     0.251 C 
ATOM     32  H   UNL A   1      32.749  30.339  27.432  1.00  0.00     0.163 HD
ATOM     33  O   UNL A   1      34.246  31.730  28.766  1.00  0.00    -0.269 OA
BRANCH  31  34
ATOM     34  C   UNL A   1      35.899  30.084  28.476  1.00  0.00     0.039 A 
ATOM     35  C   UNL A   1      36.818  30.175  27.430  1.00  0.00     0.014 A 
ATOM     36  C   UNL A   1      36.269  29.535  29.706  1.00  0.00     0.014 A 
ATOM     37  C   UNL A   1      38.138  29.773  27.641  1.00  0.00     0.010 A 
ATOM     38  C   UNL A   1      37.598  29.202  29.935  1.00  0.00     0.010 A 
ATOM     39  C   UNL A   1      38.546  29.316  28.905  1.00  0.00    -0.014 A 
BRANCH  39  40
ATOM     40  C   UNL A   1      39.958  28.948  29.175  1.00  0.00     0.031 A 
ATOM     41  C   UNL A   1      40.896  29.965  29.766  1.00  0.00     0.074 A 
ATOM     42  C   UNL A   1      40.412  27.729  28.823  1.00  0.00     0.049 A 
ATOM     43  N   UNL A   1      42.178  29.865  29.999  1.00  0.00    -0.248 NA
ATOM     44  C   UNL A   1      40.322  31.276  30.113  1.00  0.00     0.031 C 
ATOM     45  C   UNL A   1      39.611  26.669  28.204  1.00  0.00     0.029 A 
ATOM     46  N   UNL A   1      41.665  27.177  28.929  1.00  0.00    -0.354 N 
ATOM     47  C   UNL A   1      42.568  31.102  30.499  1.00  0.00     0.074 A 
ATOM     48  C   UNL A   1      41.397  31.951  30.490  1.00  0.00     0.031 C 
ATOM     49  C   UNL A   1      40.387  25.590  28.006  1.00  0.00     0.029 A 
ATOM     50  C   UNL A   1      41.745  25.891  28.448  1.00  0.00     0.049 A 
ATOM     51  H   UNL A   1      42.434  27.657  29.313  1.00  0.00     0.167 HD
ATOM     52  C   UNL A   1      43.787  31.491  30.944  1.00  0.00     0.031 A 
ATOM     53  C   UNL A   1      42.795  25.050  28.367  1.00  0.00     0.031 A 
ATOM     54  C   UNL A   1      44.943  30.638  30.973  1.00  0.00     0.049 A 
ATOM     55  C   UNL A   1      44.137  25.503  28.875  1.00  0.00     0.074 A 
ATOM     56  C   UNL A   1      46.208  30.919  31.459  1.00  0.00     0.029 A 
ATOM     57  N   UNL A   1      44.975  29.334  30.502  1.00  0.00    -0.354 N 
ATOM     58  N   UNL A   1      44.471  26.659  29.399  1.00  0.00    -0.248 NA
ATOM     59  C   UNL A   1      45.240  24.537  28.791  1.00  0.00     0.031 C 
ATOM     60  C   UNL A   1      47.017  29.800  31.241  1.00  0.00     0.029 A 
ATOM     61  C   UNL A   1      46.242  28.803  30.669  1.00  0.00     0.049 A 
ATOM     62  H   UNL A   1      44.211  28.856  30.106  1.00  0.00     0.167 HD
ATOM     63  C   UNL A   1      45.816  26.546  29.736  1.00  0.00     0.074 A 
ATOM     64  C   UNL A   1      46.229  25.207  29.366  1.00  0.00     0.031 C 
ATOM     65  C   UNL A   1      46.634  27.466  30.303  1.00  0.00     0.031 A 
BRANCH  52  66
ATOM     66  C   UNL A   1      43.926  32.906  31.438  1.00  0.00    -0.014 A 
ATOM     67  C   UNL A   1      44.052  33.186  32.811  1.00  0.00     0.010 A 
ATOM     68  C   UNL A   1      43.970  33.967  30.515  1.00  0.00     0.010 A 
ATOM     69  C   UNL A   1      44.178  34.504  33.256  1.00  0.00     0.020 A 
ATOM     70  C   UNL A   1      44.125  35.285  30.954  1.00  0.00     0.020 A 
ATOM     71  C   UNL A   1      44.210  35.546  32.324  1.00  0.00     0.054 A 
BRANCH  71  72
ATOM     72  S   UNL A   1      44.399  37.245  32.928  1.00  0.00     0.124 S 
ATOM     73  O   UNL A   1      45.648  37.159  33.680  1.00  0.00    -0.237 OA
ATOM     74  O   UNL A   1      44.462  38.021  31.692  1.00  0.00    -0.237 OA
ATOM     75  O   UNL A   1      43.201  37.462  33.736  1.00  0.00    -0.744 OA
ENDBRANCH  71  72
ENDBRANCH  52  66
BRANCH  53  76
ATOM     76  C   UNL A   1      42.618  23.687  27.796  1.00  0.00    -0.014 A 
ATOM     77  C   UNL A   1      42.276  22.606  28.629  1.00  0.00     0.010 A 
ATOM     78  C   UNL A   1      42.788  23.461  26.419  1.00  0.00     0.010 A 
ATOM     79  C   UNL A   1      42.132  21.321  28.099  1.00  0.00     0.020 A 
ATOM     80  C   UNL A   1      42.618  22.182  25.881  1.00  0.00     0.020 A 
ATOM     81  C   UNL A   1      42.306  21.117  26.727  1.00  0.00     0.054 A 
BRANCH  81  82
ATOM     82  S   UNL A   1      42.074  19.448  26.053  1.00  0.00     0.124 S 
ATOM     83  O   UNL A   1      40.622  19.370  25.931  1.00  0.00    -0.237 OA
ATOM     84  O   UNL A   1      42.813  19.509  24.795  1.00  0.00    -0.237 OA
ATOM     85  O   UNL A   1      42.667  18.584  27.072  1.00  0.00    -0.744 OA
ENDBRANCH  81  82
ENDBRANCH  53  76
BRANCH  65  86
ATOM     86  C   UNL A   1      48.049  27.048  30.598  1.00  0.00    -0.014 A 
ATOM     87  C   UNL A   1      49.103  27.376  29.729  1.00  0.00     0.010 A 
ATOM     88  C   UNL A   1      48.332  26.372  31.799  1.00  0.00     0.010 A 
ATOM     89  C   UNL A   1      50.415  27.010  30.043  1.00  0.00     0.020 A 
ATOM     90  C   UNL A   1      49.645  26.026  32.129  1.00  0.00     0.020 A 
ATOM     91  C   UNL A   1      50.677  26.337  31.242  1.00  0.00     0.054 A 
BRANCH  91  92
ATOM     92  S   UNL A   1      52.393  25.918  31.651  1.00  0.00     0.124 S 
ATOM     93  O   UNL A   1      53.049  26.019  30.349  1.00  0.00    -0.237 OA
ATOM     94  O   UNL A   1      52.755  26.950  32.619  1.00  0.00    -0.237 OA
ATOM     95  O   UNL A   1      52.298  24.565  32.198  1.00  0.00    -0.744 OA
ENDBRANCH  91  92
ENDBRANCH  65  86
ENDBRANCH  39  40
ENDBRANCH  31  34
ENDBRANCH  29  30
ENDBRANCH  28  29
ENDBRANCH   1  28
TORSDOF 18
ENDMDL
MODEL 2
REMARK VINA RESULT:     -10.9      2.710      3.781
REMARK SMILES CCOc1ccc(NC(=O)Nc2cccc(C(=O)NCCCCNC(=O)c3ccc(-c4c5nc(c(-c6ccc(S(=O)(=O)[O-])cc6)c6ccc([nH]6)c(-c6ccc(S(=O)(=O)[O-])cc6)c6nc(c(-c7ccc(S(=O)(=O)[O-])cc7)c7ccc4[nH]7)C=C6)C=C5)cc3)c2)cc1
REMARK SMILES IDX 21 1 20 2 19 3 17 4 18 5 16 7 12 8 13 9 87 10 14 11 15 12
REMARK SMILES IDX 11 13 8 14 9 15 10 17 7 19 4 20 5 21 89 22 6 23 88 24 3 25
REMARK SMILES IDX 2 26 1 27 22 28 23 29 24 30 25 31 26 33 27 34 28 35 86 36
REMARK SMILES IDX 29 37 85 38 30 39 31 40 32 41 79 42 33 43 84 44 78 45 80 46
REMARK SMILES IDX 34 47 83 48 77 49 76 50 35 52 65 53 46 54 64 55 47 56 50 57
REMARK SMILES IDX 63 58 81 59 48 60 49 61 62 63 82 64 51 65 36 66 37 67 45 68
REMARK SMILES IDX 38 69 44 70 39 71 40 72 41 73 42 74 43 75 66 76 67 77 75 78
REMARK SMILES IDX 68 79 74 80 69 81 70 82 71 83 72 84 73 85 52 86 53 87 61 88
REMARK SMILES IDX 54 89 60 90 55 91 56 92 57 93 58 94 59 95
REMARK H PARENT 19 6 8 16 11 18 24 32 80 51 50 62
REMARK Flexibility Score: inf
ROOT
ATOM      1  C   UNL A   1      32.233  26.670  26.386  1.00  0.00     0.023 C 
ENDROOT
BRANCH   1   2
ATOM      2  C   UNL A   1      30.842  26.247  25.922  1.00  0.00     0.116 C 
BRANCH   2   3
ATOM      3  N   UNL A   1      30.339  25.141  26.703  1.00  0.00    -0.352 N 
ATOM      4  C   UNL A   1      30.376  23.781  26.532  1.00  0.00     0.251 C 
ATOM      5  O   UNL A   1      29.869  23.105  27.430  1.00  0.00    -0.269 OA
ATOM      6  H   UNL A   1      29.876  25.420  27.525  1.00  0.00     0.163 HD
BRANCH   4   7
ATOM      7  C   UNL A   1      31.019  23.074  25.380  1.00  0.00     0.041 A 
ATOM      8  C   UNL A   1      31.917  22.905  23.129  1.00  0.00     0.043 A 
ATOM      9  C   UNL A   1      32.399  21.623  23.392  1.00  0.00     0.026 A 
ATOM     10  C   UNL A   1      31.133  23.567  24.079  1.00  0.00     0.040 A 
ATOM     11  C   UNL A   1      32.246  21.083  24.665  1.00  0.00     0.003 A 
ATOM     12  C   UNL A   1      31.592  21.819  25.657  1.00  0.00     0.014 A 
BRANCH   8  13
ATOM     13  N   UNL A   1      32.317  23.519  21.930  1.00  0.00    -0.308 N 
ATOM     14  N   UNL A   1      34.142  24.944  22.536  1.00  0.00    -0.308 N 
ATOM     15  C   UNL A   1      33.135  24.577  21.703  1.00  0.00     0.323 C 
ATOM     16  H   UNL A   1      34.417  25.881  22.417  1.00  0.00     0.171 HD
ATOM     17  O   UNL A   1      32.968  25.232  20.671  1.00  0.00    -0.248 OA
ATOM     18  H   UNL A   1      31.939  23.111  21.117  1.00  0.00     0.171 HD
BRANCH  14  19
ATOM     19  C   UNL A   1      34.881  24.276  23.534  1.00  0.00     0.043 A 
ATOM     20  C   UNL A   1      36.733  23.134  25.303  1.00  0.00     0.119 A 
ATOM     21  C   UNL A   1      35.806  24.060  25.766  1.00  0.00     0.048 A 
ATOM     22  C   UNL A   1      36.638  22.660  23.999  1.00  0.00     0.048 A 
ATOM     23  C   UNL A   1      34.865  24.610  24.886  1.00  0.00     0.030 A 
ATOM     24  C   UNL A   1      35.704  23.220  23.121  1.00  0.00     0.030 A 
BRANCH  20  25
ATOM     25  O   UNL A   1      37.658  22.667  26.193  1.00  0.00    -0.494 OA
BRANCH  25  26
ATOM     26  C   UNL A   1      38.544  23.679  26.691  1.00  0.00     0.226 C 
ATOM     27  C   UNL A   1      39.972  23.159  26.704  1.00  0.00     0.049 C 
ENDBRANCH  25  26
ENDBRANCH  20  25
ENDBRANCH  14  19
ENDBRANCH   8  13
ENDBRANCH   4   7
ENDBRANCH   2   3
ENDBRANCH   1   2
BRANCH   1  28
ATOM     28  C   UNL A   1      32.811  27.816  25.558  1.00  0.00     0.023 C 
BRANCH  28  29
ATOM     29  C   UNL A   1      34.019  28.501  26.191  1.00  0.00     0.116 C 
BRANCH  29  30
ATOM     30  N   UNL A   1      33.774  29.895  26.534  1.00  0.00    -0.352 N 
ATOM     31  C   UNL A   1      34.506  30.703  27.374  1.00  0.00     0.251 C 
ATOM     32  H   UNL A   1      32.987  30.310  26.112  1.00  0.00     0.163 HD
ATOM     33  O   UNL A   1      34.118  31.827  27.652  1.00  0.00    -0.269 OA
BRANCH  31  34
ATOM     34  C   UNL A   1      35.749  30.163  27.963  1.00  0.00     0.039 A 
ATOM     35  C   UNL A   1      36.946  30.309  27.260  1.00  0.00     0.014 A 
ATOM     36  C   UNL A   1      35.734  29.582  29.233  1.00  0.00     0.014 A 
ATOM     37  C   UNL A   1      38.146  29.929  27.863  1.00  0.00     0.010 A 
ATOM     38  C   UNL A   1      36.935  29.270  29.858  1.00  0.00     0.010 A 
ATOM     39  C   UNL A   1      38.153  29.439  29.180  1.00  0.00    -0.014 A 
BRANCH  39  40
ATOM     40  C   UNL A   1      39.421  29.092  29.868  1.00  0.00     0.031 A 
ATOM     41  C   UNL A   1      39.865  29.890  31.064  1.00  0.00     0.074 A 
ATOM     42  C   UNL A   1      40.204  28.112  29.377  1.00  0.00     0.049 A 
ATOM     43  N   UNL A   1      40.973  29.798  31.751  1.00  0.00    -0.248 NA
ATOM     44  C   UNL A   1      38.955  30.950  31.531  1.00  0.00     0.031 C 
ATOM     45  C   UNL A   1      39.905  27.293  28.199  1.00  0.00     0.029 A 
ATOM     46  N   UNL A   1      41.422  27.642  29.805  1.00  0.00    -0.354 N 
ATOM     47  C   UNL A   1      40.904  30.798  32.714  1.00  0.00     0.074 A 
ATOM     48  C   UNL A   1      39.668  31.515  32.493  1.00  0.00     0.031 C 
ATOM     49  C   UNL A   1      40.899  26.409  28.013  1.00  0.00     0.029 A 
ATOM     50  C   UNL A   1      41.923  26.621  29.032  1.00  0.00     0.049 A 
ATOM     51  H   UNL A   1      41.892  28.003  30.591  1.00  0.00     0.167 HD
ATOM     52  C   UNL A   1      41.781  31.081  33.706  1.00  0.00     0.031 A 
ATOM     53  C   UNL A   1      43.079  25.936  29.129  1.00  0.00     0.031 A 
ATOM     54  C   UNL A   1      42.998  30.352  33.937  1.00  0.00     0.049 A 
ATOM     55  C   UNL A   1      44.034  26.264  30.244  1.00  0.00     0.074 A 
ATOM     56  C   UNL A   1      43.925  30.523  34.950  1.00  0.00     0.029 A 
ATOM     57  N   UNL A   1      43.456  29.307  33.148  1.00  0.00    -0.354 N 
ATOM     58  N   UNL A   1      43.922  27.176  31.182  1.00  0.00    -0.248 NA
ATOM     59  C   UNL A   1      45.264  25.466  30.322  1.00  0.00     0.031 C 
ATOM     60  C   UNL A   1      44.965  29.611  34.748  1.00  0.00     0.029 A 
ATOM     61  C   UNL A   1      44.660  28.836  33.641  1.00  0.00     0.049 A 
ATOM     62  H   UNL A   1      42.993  28.954  32.353  1.00  0.00     0.167 HD
ATOM     63  C   UNL A   1      45.053  27.038  31.979  1.00  0.00     0.074 A 
ATOM     64  C   UNL A   1      45.829  25.950  31.420  1.00  0.00     0.031 C 
ATOM     65  C   UNL A   1      45.415  27.747  33.077  1.00  0.00     0.031 A 
BRANCH  52  66
ATOM     66  C   UNL A   1      41.450  32.232  34.618  1.00  0.00    -0.014 A 
ATOM     67  C   UNL A   1      40.717  32.033  35.801  1.00  0.00     0.010 A 
ATOM     68  C   UNL A   1      41.911  33.524  34.306  1.00  0.00     0.010 A 
ATOM     69  C   UNL A   1      40.415  33.110  36.637  1.00  0.00     0.020 A 
ATOM     70  C   UNL A   1      41.634  34.601  35.154  1.00  0.00     0.020 A 
ATOM     71  C   UNL A   1      40.873  34.388  36.306  1.00  0.00     0.054 A 
BRANCH  71  72
ATOM     72  S   UNL A   1      40.486  35.765  37.421  1.00  0.00     0.124 S 
ATOM     73  O   UNL A   1      39.673  35.107  38.440  1.00  0.00    -0.237 OA
ATOM     74  O   UNL A   1      41.808  36.204  37.860  1.00  0.00    -0.237 OA
ATOM     75  O   UNL A   1      39.770  36.711  36.569  1.00  0.00    -0.744 OA
ENDBRANCH  71  72
ENDBRANCH  52  66
BRANCH  53  76
ATOM     76  C   UNL A   1      43.392  24.858  28.152  1.00  0.00    -0.014 A 
ATOM     77  C   UNL A   1      43.114  23.513  28.461  1.00  0.00     0.010 A 
ATOM     78  C   UNL A   1      43.968  25.166  26.907  1.00  0.00     0.010 A 
ATOM     79  C   UNL A   1      43.429  22.498  27.554  1.00  0.00     0.020 A 
ATOM     80  C   UNL A   1      44.260  24.156  25.986  1.00  0.00     0.020 A 
ATOM     81  C   UNL A   1      44.002  22.826  26.322  1.00  0.00     0.054 A 
BRANCH  81  82
ATOM     82  S   UNL A   1      44.365  21.495  25.142  1.00  0.00     0.124 S 
ATOM     83  O   UNL A   1      45.719  21.111  25.528  1.00  0.00    -0.237 OA
ATOM     84  O   UNL A   1      43.320  20.518  25.436  1.00  0.00    -0.237 OA
ATOM     85  O   UNL A   1      44.245  22.152  23.842  1.00  0.00    -0.744 OA
ENDBRANCH  81  82
ENDBRANCH  53  76
BRANCH  65  86
ATOM     86  C   UNL A   1      46.686  27.344  33.773  1.00  0.00    -0.014 A 
ATOM     87  C   UNL A   1      47.916  27.943  33.451  1.00  0.00     0.010 A 
ATOM     88  C   UNL A   1      46.633  26.397  34.813  1.00  0.00     0.010 A 
ATOM     89  C   UNL A   1      49.078  27.580  34.138  1.00  0.00     0.020 A 
ATOM     90  C   UNL A   1      47.788  26.051  35.519  1.00  0.00     0.020 A 
ATOM     91  C   UNL A   1      49.006  26.636  35.168  1.00  0.00     0.054 A 
BRANCH  91  92
ATOM     92  S   UNL A   1      50.518  26.220  36.079  1.00  0.00     0.124 S 
ATOM     93  O   UNL A   1      50.251  24.846  36.498  1.00  0.00    -0.237 OA
ATOM     94  O   UNL A   1      51.558  26.378  35.066  1.00  0.00    -0.237 OA
ATOM     95  O   UNL A   1      50.554  27.205  37.159  1.00  0.00    -0.744 OA
ENDBRANCH  91  92
ENDBRANCH  65  86
ENDBRANCH  39  40
ENDBRANCH  31  34
ENDBRANCH  29  30
ENDBRANCH  28  29
ENDBRANCH   1  28
TORSDOF 18
ENDMDL
MODEL 3
REMARK VINA RESULT:     -10.9      4.692     10.591
REMARK SMILES CCOc1ccc(NC(=O)Nc2cccc(C(=O)NCCCCNC(=O)c3ccc(-c4c5nc(c(-c6ccc(S(=O)(=O)[O-])cc6)c6ccc([nH]6)c(-c6ccc(S(=O)(=O)[O-])cc6)c6nc(c(-c7ccc(S(=O)(=O)[O-])cc7)c7ccc4[nH]7)C=C6)C=C5)cc3)c2)cc1
REMARK SMILES IDX 21 1 20 2 19 3 17 4 18 5 16 7 12 8 13 9 87 10 14 11 15 12
REMARK SMILES IDX 11 13 8 14 9 15 10 17 7 19 4 20 5 21 89 22 6 23 88 24 3 25
REMARK SMILES IDX 2 26 1 27 22 28 23 29 24 30 25 31 26 33 27 34 28 35 86 36
REMARK SMILES IDX 29 37 85 38 30 39 31 40 32 41 79 42 33 43 84 44 78 45 80 46
REMARK SMILES IDX 34 47 83 48 77 49 76 50 35 52 65 53 46 54 64 55 47 56 50 57
REMARK SMILES IDX 63 58 81 59 48 60 49 61 62 63 82 64 51 65 36 66 37 67 45 68
REMARK SMILES IDX 38 69 44 70 39 71 40 72 41 73 42 74 43 75 66 76 67 77 75 78
REMARK SMILES IDX 68 79 74 80 69 81 70 82 71 83 72 84 73 85 52 86 53 87 61 88
REMARK SMILES IDX 54 89 60 90 55 91 56 92 57 93 58 94 59 95
REMARK H PARENT 19 6 8 16 11 18 24 32 80 51 50 62
REMARK Flexibility Score: inf
ROOT
ATOM      1  C   UNL A   1      36.325  23.818  25.329  1.00  0.00     0.023 C 
ENDROOT
BRANCH   1   2
ATOM      2  C   UNL A   1      35.387  22.865  24.594  1.00  0.00     0.116 C 
BRANCH   2   3
ATOM      3  N   UNL A   1      34.853  23.469  23.395  1.00  0.00    -0.352 N 
ATOM      4  C   UNL A   1      33.881  24.410  23.174  1.00  0.00     0.251 C 
ATOM      5  O   UNL A   1      33.694  24.736  21.999  1.00  0.00    -0.269 OA
ATOM      6  H   UNL A   1      35.274  23.139  22.569  1.00  0.00     0.163 HD
BRANCH   4   7
ATOM      7  C   UNL A   1      33.081  25.090  24.240  1.00  0.00     0.041 A 
ATOM      8  C   UNL A   1      32.755  26.584  26.128  1.00  0.00     0.043 A 
ATOM      9  C   UNL A   1      31.373  26.403  26.063  1.00  0.00     0.026 A 
ATOM     10  C   UNL A   1      33.599  25.838  25.299  1.00  0.00     0.040 A 
ATOM     11  C   UNL A   1      30.834  25.613  25.053  1.00  0.00     0.003 A 
ATOM     12  C   UNL A   1      31.681  24.992  24.130  1.00  0.00     0.014 A 
BRANCH   8  13
ATOM     13  N   UNL A   1      33.241  27.586  26.984  1.00  0.00    -0.308 N 
ATOM     14  N   UNL A   1      33.570  29.499  25.583  1.00  0.00    -0.308 N 
ATOM     15  C   UNL A   1      33.813  28.786  26.713  1.00  0.00     0.323 C 
ATOM     16  H   UNL A   1      34.277  30.153  25.382  1.00  0.00     0.171 HD
ATOM     17  O   UNL A   1      34.582  29.268  27.549  1.00  0.00    -0.248 OA
ATOM     18  H   UNL A   1      33.153  27.383  27.944  1.00  0.00     0.171 HD
BRANCH  14  19
ATOM     19  C   UNL A   1      32.526  29.506  24.635  1.00  0.00     0.043 A 
ATOM     20  C   UNL A   1      30.448  29.045  22.809  1.00  0.00     0.119 A 
ATOM     21  C   UNL A   1      30.212  29.784  23.963  1.00  0.00     0.048 A 
ATOM     22  C   UNL A   1      31.748  28.671  22.488  1.00  0.00     0.048 A 
ATOM     23  C   UNL A   1      31.257  30.035  24.860  1.00  0.00     0.030 A 
ATOM     24  C   UNL A   1      32.788  28.914  23.392  1.00  0.00     0.030 A 
BRANCH  20  25
ATOM     25  O   UNL A   1      29.383  28.789  21.994  1.00  0.00    -0.494 OA
BRANCH  25  26
ATOM     26  C   UNL A   1      28.241  29.617  22.257  1.00  0.00     0.226 C 
ATOM     27  C   UNL A   1      28.149  30.722  21.217  1.00  0.00     0.049 C 
ENDBRANCH  25  26
ENDBRANCH  20  25
ENDBRANCH  14  19
ENDBRANCH   8  13
ENDBRANCH   4   7
ENDBRANCH   2   3
ENDBRANCH   1   2
BRANCH   1  28
ATOM     28  C   UNL A   1      37.656  23.170  25.701  1.00  0.00     0.023 C 
BRANCH  28  29
ATOM     29  C   UNL A   1      38.577  24.059  26.532  1.00  0.00     0.116 C 
BRANCH  29  30
ATOM     30  N   UNL A   1      39.980  23.938  26.161  1.00  0.00    -0.352 N 
ATOM     31  C   UNL A   1      41.029  24.744  26.539  1.00  0.00     0.251 C 
ATOM     32  H   UNL A   1      40.204  23.187  25.566  1.00  0.00     0.163 HD
ATOM     33  O   UNL A   1      42.142  24.585  26.061  1.00  0.00    -0.269 OA
BRANCH  31  34
ATOM     34  C   UNL A   1      40.769  25.832  27.505  1.00  0.00     0.039 A 
ATOM     35  C   UNL A   1      39.793  25.643  28.485  1.00  0.00     0.014 A 
ATOM     36  C   UNL A   1      41.539  26.997  27.479  1.00  0.00     0.014 A 
ATOM     37  C   UNL A   1      39.633  26.603  29.487  1.00  0.00     0.010 A 
ATOM     38  C   UNL A   1      41.426  27.916  28.515  1.00  0.00     0.010 A 
ATOM     39  C   UNL A   1      40.472  27.729  29.529  1.00  0.00    -0.014 A 
BRANCH  39  40
ATOM     40  C   UNL A   1      40.367  28.729  30.620  1.00  0.00     0.031 A 
ATOM     41  C   UNL A   1      41.242  28.599  31.839  1.00  0.00     0.074 A 
ATOM     42  C   UNL A   1      39.442  29.706  30.550  1.00  0.00     0.049 A 
ATOM     43  N   UNL A   1      41.245  29.318  32.930  1.00  0.00    -0.248 NA
ATOM     44  C   UNL A   1      42.220  27.499  31.840  1.00  0.00     0.031 C 
ATOM     45  C   UNL A   1      38.506  29.912  29.441  1.00  0.00     0.029 A 
ATOM     46  N   UNL A   1      39.129  30.706  31.437  1.00  0.00    -0.354 N 
ATOM     47  C   UNL A   1      42.206  28.746  33.755  1.00  0.00     0.074 A 
ATOM     48  C   UNL A   1      42.732  27.593  33.058  1.00  0.00     0.031 C 
ATOM     49  C   UNL A   1      37.741  30.985  29.704  1.00  0.00     0.029 A 
ATOM     50  C   UNL A   1      38.104  31.519  31.013  1.00  0.00     0.049 A 
ATOM     51  H   UNL A   1      39.594  30.829  32.296  1.00  0.00     0.167 HD
ATOM     52  C   UNL A   1      42.629  29.156  34.975  1.00  0.00     0.031 A 
ATOM     53  C   UNL A   1      37.519  32.575  31.613  1.00  0.00     0.031 A 
ATOM     54  C   UNL A   1      42.121  30.315  35.655  1.00  0.00     0.049 A 
ATOM     55  C   UNL A   1      38.010  33.014  32.965  1.00  0.00     0.074 A 
ATOM     56  C   UNL A   1      42.524  30.847  36.868  1.00  0.00     0.029 A 
ATOM     57  N   UNL A   1      41.103  31.128  35.180  1.00  0.00    -0.354 N 
ATOM     58  N   UNL A   1      38.963  32.495  33.703  1.00  0.00    -0.248 NA
ATOM     59  C   UNL A   1      37.358  34.188  33.560  1.00  0.00     0.031 C 
ATOM     60  C   UNL A   1      41.719  31.957  37.146  1.00  0.00     0.029 A 
ATOM     61  C   UNL A   1      40.852  32.147  36.082  1.00  0.00     0.049 A 
ATOM     62  H   UNL A   1      40.627  30.999  34.327  1.00  0.00     0.167 HD
ATOM     63  C   UNL A   1      39.044  33.298  34.836  1.00  0.00     0.074 A 
ATOM     64  C   UNL A   1      38.052  34.343  34.679  1.00  0.00     0.031 C 
ATOM     65  C   UNL A   1      39.867  33.183  35.907  1.00  0.00     0.031 A 
BRANCH  52  66
ATOM     66  C   UNL A   1      43.697  28.339  35.650  1.00  0.00    -0.014 A 
ATOM     67  C   UNL A   1      45.058  28.670  35.515  1.00  0.00     0.010 A 
ATOM     68  C   UNL A   1      43.335  27.247  36.460  1.00  0.00     0.010 A 
ATOM     69  C   UNL A   1      46.040  27.901  36.145  1.00  0.00     0.020 A 
ATOM     70  C   UNL A   1      44.313  26.492  37.115  1.00  0.00     0.020 A 
ATOM     71  C   UNL A   1      45.661  26.815  36.938  1.00  0.00     0.054 A 
BRANCH  71  72
ATOM     72  S   UNL A   1      46.954  25.849  37.764  1.00  0.00     0.124 S 
ATOM     73  O   UNL A   1      46.352  25.596  39.070  1.00  0.00    -0.237 OA
ATOM     74  O   UNL A   1      47.087  24.682  36.896  1.00  0.00    -0.237 OA
ATOM     75  O   UNL A   1      48.106  26.748  37.774  1.00  0.00    -0.744 OA
ENDBRANCH  71  72
ENDBRANCH  52  66
BRANCH  53  76
ATOM     76  C   UNL A   1      36.411  33.300  30.933  1.00  0.00    -0.014 A 
ATOM     77  C   UNL A   1      36.634  33.950  29.705  1.00  0.00     0.010 A 
ATOM     78  C   UNL A   1      35.128  33.345  31.506  1.00  0.00     0.010 A 
ATOM     79  C   UNL A   1      35.601  34.651  29.078  1.00  0.00     0.020 A 
ATOM     80  C   UNL A   1      34.085  34.022  30.868  1.00  0.00     0.020 A 
ATOM     81  C   UNL A   1      34.333  34.684  29.664  1.00  0.00     0.054 A 
BRANCH  81  82
ATOM     82  S   UNL A   1      32.995  35.566  28.811  1.00  0.00     0.124 S 
ATOM     83  O   UNL A   1      33.733  36.558  28.035  1.00  0.00    -0.237 OA
ATOM     84  O   UNL A   1      32.357  34.503  28.038  1.00  0.00    -0.237 OA
ATOM     85  O   UNL A   1      32.187  36.099  29.906  1.00  0.00    -0.744 OA
ENDBRANCH  81  82
ENDBRANCH  53  76
BRANCH  65  86
ATOM     86  C   UNL A   1      39.762  34.235  36.978  1.00  0.00    -0.014 A 
ATOM     87  C   UNL A   1      39.089  33.982  38.185  1.00  0.00     0.010 A 
ATOM     88  C   UNL A   1      40.405  35.472  36.794  1.00  0.00     0.010 A 
ATOM     89  C   UNL A   1      39.037  34.962  39.181  1.00  0.00     0.020 A 
ATOM     90  C   UNL A   1      40.377  36.445  37.797  1.00  0.00     0.020 A 
ATOM     91  C   UNL A   1      39.683  36.187  38.980  1.00  0.00     0.054 A 
BRANCH  91  92
ATOM     92  S   UNL A   1      39.644  37.422  40.308  1.00  0.00     0.124 S 
ATOM     93  O   UNL A   1      41.064  37.591  40.605  1.00  0.00    -0.237 OA
ATOM     94  O   UNL A   1      38.996  38.563  39.667  1.00  0.00    -0.237 OA
ATOM     95  O   UNL A   1      38.859  36.776  41.358  1.00  0.00    -0.744 OA
ENDBRANCH  91  92
ENDBRANCH  65  86
ENDBRANCH  39  40
ENDBRANCH  31  34
ENDBRANCH  29  30
ENDBRANCH  28  29
ENDBRANCH   1  28
TORSDOF 18
ENDMDL
