MODEL 1
REMARK VINA RESULT:     -10.2      0.000      0.000
REMARK SMILES C[C@@H]([C@H](C)O)[C@@H](Cc1ccccc1)C(=O)NCCCCNC(=O)c1ccc(-c2c3nc(c(-c4ccc(S(=O)(=O)[O-])cc4)c4ccc([nH]4)c(-c4ccc(S(=O)(=O)[O-])cc4)c4nc(c(-c5ccc(S(=O)(=O)[O-])cc5)c5ccc2[nH]5)C=C4)C=C3)cc1
REMARK SMILES IDX 18 1 17 2 16 3 14 4 15 5 6 7 2 8 1 9 3 10 4 11 5 12 7 14
REMARK SMILES IDX 8 15 9 16 13 17 10 18 12 19 11 20 19 21 20 22 21 23 22 24
REMARK SMILES IDX 23 26 24 27 25 28 83 29 26 30 82 31 27 32 28 33 29 34 76 35
REMARK SMILES IDX 30 36 81 37 75 38 77 39 31 40 80 41 74 42 73 43 32 45 62 46
REMARK SMILES IDX 43 47 61 48 44 49 47 50 60 51 78 52 45 53 46 54 59 56 79 57
REMARK SMILES IDX 48 58 33 59 34 60 42 61 35 62 41 63 36 64 37 65 38 66 39 67
REMARK SMILES IDX 40 68 63 69 64 70 72 71 65 72 71 73 66 74 67 75 68 76 69 77
REMARK SMILES IDX 70 78 49 79 50 80 58 81 51 82 57 83 52 84 53 85 54 86 55 87
REMARK SMILES IDX 56 88
REMARK H PARENT 16 6 5 13 21 25 77 44 47 55
REMARK Flexibility Score: inf
ROOT
ATOM      1  C   UNL A   1      31.544  27.518  26.449  1.00  0.00     0.023 C 
ENDROOT
BRANCH   1   2
ATOM      2  C   UNL A   1      32.199  26.151  26.592  1.00  0.00     0.116 C 
BRANCH   2   3
ATOM      3  N   UNL A   1      31.271  25.092  26.933  1.00  0.00    -0.356 N 
ATOM      4  C   UNL A   1      31.175  23.820  26.446  1.00  0.00     0.223 C 
ATOM      5  O   UNL A   1      30.628  22.981  27.170  1.00  0.00    -0.275 OA
ATOM      6  H   UNL A   1      30.607  25.325  27.622  1.00  0.00     0.163 HD
BRANCH   4   7
ATOM      7  C   UNL A   1      31.733  23.397  25.080  1.00  0.00     0.088 C 
BRANCH   7   8
ATOM      8  C   UNL A   1      32.450  22.007  25.024  1.00  0.00     0.027 C 
ATOM      9  C   UNL A   1      32.366  21.375  23.626  1.00  0.00     0.011 C 
BRANCH   8  10
ATOM     10  C   UNL A   1      33.952  22.095  25.448  1.00  0.00     0.115 C 
ATOM     11  C   UNL A   1      34.196  21.663  26.892  1.00  0.00     0.038 C 
BRANCH  10  12
ATOM     12  O   UNL A   1      34.478  23.408  25.321  1.00  0.00    -0.393 OA
ATOM     13  H   UNL A   1      35.433  23.392  25.493  1.00  0.00     0.210 HD
ENDBRANCH  10  12
ENDBRANCH   8  10
ENDBRANCH   7   8
BRANCH   7  14
ATOM     14  C   UNL A   1      30.732  23.768  23.952  1.00  0.00     0.049 C 
BRANCH  14  15
ATOM     15  C   UNL A   1      30.623  25.211  23.523  1.00  0.00    -0.047 A 
ATOM     16  C   UNL A   1      31.635  25.832  22.780  1.00  0.00     0.004 A 
ATOM     17  C   UNL A   1      29.482  25.960  23.863  1.00  0.00     0.004 A 
ATOM     18  C   UNL A   1      31.486  27.152  22.341  1.00  0.00     0.000 A 
ATOM     19  C   UNL A   1      29.333  27.275  23.419  1.00  0.00     0.000 A 
ATOM     20  C   UNL A   1      30.330  27.867  22.648  1.00  0.00     0.000 A 
ENDBRANCH  14  15
ENDBRANCH   7  14
ENDBRANCH   4   7
ENDBRANCH   2   3
ENDBRANCH   1   2
BRANCH   1  21
ATOM     21  C   UNL A   1      32.454  28.606  25.879  1.00  0.00     0.023 C 
BRANCH  21  22
ATOM     22  C   UNL A   1      33.690  28.949  26.711  1.00  0.00     0.116 C 
BRANCH  22  23
ATOM     23  N   UNL A   1      33.610  30.235  27.392  1.00  0.00    -0.352 N 
ATOM     24  C   UNL A   1      34.558  30.846  28.178  1.00  0.00     0.251 C 
ATOM     25  H   UNL A   1      32.768  30.731  27.273  1.00  0.00     0.163 HD
ATOM     26  O   UNL A   1      34.320  31.920  28.722  1.00  0.00    -0.269 OA
BRANCH  24  27
ATOM     27  C   UNL A   1      35.852  30.167  28.393  1.00  0.00     0.039 A 
ATOM     28  C   UNL A   1      36.805  30.198  27.372  1.00  0.00     0.014 A 
ATOM     29  C   UNL A   1      36.145  29.576  29.625  1.00  0.00     0.014 A 
ATOM     30  C   UNL A   1      38.088  29.710  27.620  1.00  0.00     0.010 A 
ATOM     31  C   UNL A   1      37.442  29.144  29.886  1.00  0.00     0.010 A 
ATOM     32  C   UNL A   1      38.431  29.224  28.893  1.00  0.00    -0.014 A 
BRANCH  32  33
ATOM     33  C   UNL A   1      39.830  28.855  29.216  1.00  0.00     0.031 A 
ATOM     34  C   UNL A   1      40.753  29.841  29.872  1.00  0.00     0.074 A 
ATOM     35  C   UNL A   1      40.292  27.643  28.845  1.00  0.00     0.049 A 
ATOM     36  N   UNL A   1      42.009  29.694  30.211  1.00  0.00    -0.248 NA
ATOM     37  C   UNL A   1      40.202  31.174  30.165  1.00  0.00     0.031 C 
ATOM     38  C   UNL A   1      39.515  26.619  28.140  1.00  0.00     0.029 A 
ATOM     39  N   UNL A   1      41.528  27.069  29.003  1.00  0.00    -0.354 N 
ATOM     40  C   UNL A   1      42.402  30.915  30.743  1.00  0.00     0.074 A 
ATOM     41  C   UNL A   1      41.266  31.805  30.642  1.00  0.00     0.031 C 
ATOM     42  C   UNL A   1      40.285  25.536  27.950  1.00  0.00     0.029 A 
ATOM     43  C   UNL A   1      41.615  25.796  28.492  1.00  0.00     0.049 A 
ATOM     44  H   UNL A   1      42.282  27.527  29.441  1.00  0.00     0.167 HD
ATOM     45  C   UNL A   1      43.597  31.259  31.282  1.00  0.00     0.031 A 
ATOM     46  C   UNL A   1      42.646  24.930  28.464  1.00  0.00     0.031 A 
ATOM     47  C   UNL A   1      44.725  30.371  31.386  1.00  0.00     0.049 A 
ATOM     48  C   UNL A   1      43.953  25.325  29.089  1.00  0.00     0.074 A 
ATOM     49  C   UNL A   1      45.955  30.606  31.977  1.00  0.00     0.029 A 
ATOM     50  N   UNL A   1      44.765  29.081  30.881  1.00  0.00    -0.354 N 
ATOM     51  N   UNL A   1      44.280  26.456  29.667  1.00  0.00    -0.248 NA
ATOM     52  C   UNL A   1      45.025  24.320  29.076  1.00  0.00     0.031 C 
ATOM     53  C   UNL A   1      46.753  29.471  31.792  1.00  0.00     0.029 A 
ATOM     54  C   UNL A   1      46.004  28.513  31.128  1.00  0.00     0.049 A 
ATOM     55  H   UNL A   1      44.022  28.633  30.416  1.00  0.00     0.167 HD
ATOM     56  C   UNL A   1      45.590  26.294  30.101  1.00  0.00     0.074 A 
ATOM     57  C   UNL A   1      45.988  24.949  29.737  1.00  0.00     0.031 C 
ATOM     58  C   UNL A   1      46.391  27.179  30.746  1.00  0.00     0.031 A 
BRANCH  45  59
ATOM     59  C   UNL A   1      43.740  32.667  31.796  1.00  0.00    -0.014 A 
ATOM     60  C   UNL A   1      44.215  33.696  30.962  1.00  0.00     0.010 A 
ATOM     61  C   UNL A   1      43.377  32.970  33.119  1.00  0.00     0.010 A 
ATOM     62  C   UNL A   1      44.371  34.993  31.459  1.00  0.00     0.020 A 
ATOM     63  C   UNL A   1      43.508  34.273  33.613  1.00  0.00     0.020 A 
ATOM     64  C   UNL A   1      44.025  35.271  32.784  1.00  0.00     0.054 A 
BRANCH  64  65
ATOM     65  S   UNL A   1      44.234  36.962  33.404  1.00  0.00     0.124 S 
ATOM     66  O   UNL A   1      45.424  36.830  34.240  1.00  0.00    -0.237 OA
ATOM     67  O   UNL A   1      44.414  37.736  32.177  1.00  0.00    -0.237 OA
ATOM     68  O   UNL A   1      42.991  37.224  34.125  1.00  0.00    -0.744 OA
ENDBRANCH  64  65
ENDBRANCH  45  59
BRANCH  46  69
ATOM     69  C   UNL A   1      42.466  23.590  27.848  1.00  0.00    -0.014 A 
ATOM     70  C   UNL A   1      43.031  23.301  26.594  1.00  0.00     0.010 A 
ATOM     71  C   UNL A   1      41.756  22.583  28.528  1.00  0.00     0.010 A 
ATOM     72  C   UNL A   1      42.885  22.033  26.025  1.00  0.00     0.020 A 
ATOM     73  C   UNL A   1      41.627  21.307  27.973  1.00  0.00     0.020 A 
ATOM     74  C   UNL A   1      42.186  21.042  26.722  1.00  0.00     0.054 A 
BRANCH  74  75
ATOM     75  S   UNL A   1      42.071  19.381  26.000  1.00  0.00     0.124 S 
ATOM     76  O   UNL A   1      40.637  19.247  25.772  1.00  0.00    -0.237 OA
ATOM     77  O   UNL A   1      42.896  19.499  24.800  1.00  0.00    -0.237 OA
ATOM     78  O   UNL A   1      42.626  18.519  27.043  1.00  0.00    -0.744 OA
ENDBRANCH  74  75
ENDBRANCH  46  69
BRANCH  58  79
ATOM     79  C   UNL A   1      47.773  26.710  31.113  1.00  0.00    -0.014 A 
ATOM     80  C   UNL A   1      48.019  26.057  32.333  1.00  0.00     0.010 A 
ATOM     81  C   UNL A   1      48.834  26.898  30.208  1.00  0.00     0.010 A 
ATOM     82  C   UNL A   1      49.312  25.636  32.661  1.00  0.00     0.020 A 
ATOM     83  C   UNL A   1      50.122  26.457  30.522  1.00  0.00     0.020 A 
ATOM     84  C   UNL A   1      50.356  25.844  31.755  1.00  0.00     0.054 A 
BRANCH  84  85
ATOM     85  S   UNL A   1      52.020  25.268  32.189  1.00  0.00     0.124 S 
ATOM     86  O   UNL A   1      52.803  25.709  31.037  1.00  0.00    -0.237 OA
ATOM     87  O   UNL A   1      52.291  25.973  33.440  1.00  0.00    -0.237 OA
ATOM     88  O   UNL A   1      51.861  23.821  32.318  1.00  0.00    -0.744 OA
ENDBRANCH  84  85
ENDBRANCH  58  79
ENDBRANCH  32  33
ENDBRANCH  24  27
ENDBRANCH  22  23
ENDBRANCH  21  22
ENDBRANCH   1  21
TORSDOF 19
ENDMDL
MODEL 2
REMARK VINA RESULT:      -9.8      2.668      9.201
REMARK SMILES C[C@@H]([C@H](C)O)[C@@H](Cc1ccccc1)C(=O)NCCCCNC(=O)c1ccc(-c2c3nc(c(-c4ccc(S(=O)(=O)[O-])cc4)c4ccc([nH]4)c(-c4ccc(S(=O)(=O)[O-])cc4)c4nc(c(-c5ccc(S(=O)(=O)[O-])cc5)c5ccc2[nH]5)C=C4)C=C3)cc1
REMARK SMILES IDX 18 1 17 2 16 3 14 4 15 5 6 7 2 8 1 9 3 10 4 11 5 12 7 14
REMARK SMILES IDX 8 15 9 16 13 17 10 18 12 19 11 20 19 21 20 22 21 23 22 24
REMARK SMILES IDX 23 26 24 27 25 28 83 29 26 30 82 31 27 32 28 33 29 34 76 35
REMARK SMILES IDX 30 36 81 37 75 38 77 39 31 40 80 41 74 42 73 43 32 45 62 46
REMARK SMILES IDX 43 47 61 48 44 49 47 50 60 51 78 52 45 53 46 54 59 56 79 57
REMARK SMILES IDX 48 58 33 59 34 60 42 61 35 62 41 63 36 64 37 65 38 66 39 67
REMARK SMILES IDX 40 68 63 69 64 70 72 71 65 72 71 73 66 74 67 75 68 76 69 77
REMARK SMILES IDX 70 78 49 79 50 80 58 81 51 82 57 83 52 84 53 85 54 86 55 87
REMARK SMILES IDX 56 88
REMARK H PARENT 16 6 5 13 21 25 77 44 47 55
REMARK Flexibility Score: inf
ROOT
ATOM      1  C   UNL A   1      34.884  22.294  25.853  1.00  0.00     0.023 C 
ENDROOT
BRANCH   1   2
ATOM      2  C   UNL A   1      33.569  22.734  25.224  1.00  0.00     0.116 C 
BRANCH   2   3
ATOM      3  N   UNL A   1      33.710  23.250  23.877  1.00  0.00    -0.356 N 
ATOM      4  C   UNL A   1      33.601  24.528  23.413  1.00  0.00     0.223 C 
ATOM      5  O   UNL A   1      34.182  24.794  22.354  1.00  0.00    -0.275 OA
ATOM      6  H   UNL A   1      33.916  22.574  23.192  1.00  0.00     0.163 HD
BRANCH   4   7
ATOM      7  C   UNL A   1      32.827  25.630  24.150  1.00  0.00     0.088 C 
BRANCH   7   8
ATOM      8  C   UNL A   1      33.050  25.717  25.697  1.00  0.00     0.027 C 
ATOM      9  C   UNL A   1      33.852  26.969  26.090  1.00  0.00     0.011 C 
BRANCH   8  10
ATOM     10  C   UNL A   1      31.706  25.710  26.493  1.00  0.00     0.115 C 
ATOM     11  C   UNL A   1      30.527  25.179  25.680  1.00  0.00     0.038 C 
BRANCH  10  12
ATOM     12  O   UNL A   1      31.336  27.003  26.950  1.00  0.00    -0.393 OA
ATOM     13  H   UNL A   1      30.375  27.036  27.085  1.00  0.00     0.210 HD
ENDBRANCH  10  12
ENDBRANCH   8  10
ENDBRANCH   7   8
BRANCH   7  14
ATOM     14  C   UNL A   1      32.835  26.942  23.318  1.00  0.00     0.049 C 
BRANCH  14  15
ATOM     15  C   UNL A   1      31.631  27.850  23.383  1.00  0.00    -0.047 A 
ATOM     16  C   UNL A   1      31.651  29.041  24.120  1.00  0.00     0.004 A 
ATOM     17  C   UNL A   1      30.458  27.511  22.686  1.00  0.00     0.004 A 
ATOM     18  C   UNL A   1      30.545  29.897  24.116  1.00  0.00     0.000 A 
ATOM     19  C   UNL A   1      29.357  28.370  22.679  1.00  0.00     0.000 A 
ATOM     20  C   UNL A   1      29.405  29.569  23.385  1.00  0.00     0.000 A 
ENDBRANCH  14  15
ENDBRANCH   7  14
ENDBRANCH   4   7
ENDBRANCH   2   3
ENDBRANCH   1   2
BRANCH   1  21
ATOM     21  C   UNL A   1      35.895  23.419  26.075  1.00  0.00     0.023 C 
BRANCH  21  22
ATOM     22  C   UNL A   1      37.116  23.414  25.156  1.00  0.00     0.116 C 
BRANCH  22  23
ATOM     23  N   UNL A   1      38.181  22.519  25.587  1.00  0.00    -0.352 N 
ATOM     24  C   UNL A   1      39.280  22.808  26.361  1.00  0.00     0.251 C 
ATOM     25  H   UNL A   1      38.105  21.584  25.285  1.00  0.00     0.163 HD
ATOM     26  O   UNL A   1      40.119  21.945  26.602  1.00  0.00    -0.269 OA
BRANCH  24  27
ATOM     27  C   UNL A   1      39.458  24.186  26.861  1.00  0.00     0.039 A 
ATOM     28  C   UNL A   1      39.016  24.496  28.149  1.00  0.00     0.014 A 
ATOM     29  C   UNL A   1      40.128  25.138  26.088  1.00  0.00     0.014 A 
ATOM     30  C   UNL A   1      39.326  25.741  28.697  1.00  0.00     0.010 A 
ATOM     31  C   UNL A   1      40.485  26.356  26.659  1.00  0.00     0.010 A 
ATOM     32  C   UNL A   1      40.104  26.662  27.975  1.00  0.00    -0.014 A 
BRANCH  32  33
ATOM     33  C   UNL A   1      40.576  27.919  28.605  1.00  0.00     0.031 A 
ATOM     34  C   UNL A   1      41.975  28.031  29.141  1.00  0.00     0.074 A 
ATOM     35  C   UNL A   1      39.711  28.941  28.761  1.00  0.00     0.049 A 
ATOM     36  N   UNL A   1      42.549  29.046  29.736  1.00  0.00    -0.248 NA
ATOM     37  C   UNL A   1      42.832  26.842  29.015  1.00  0.00     0.031 C 
ATOM     38  C   UNL A   1      38.305  28.933  28.344  1.00  0.00     0.029 A 
ATOM     39  N   UNL A   1      39.882  30.184  29.317  1.00  0.00    -0.354 N 
ATOM     40  C   UNL A   1      43.827  28.616  30.067  1.00  0.00     0.074 A 
ATOM     41  C   UNL A   1      43.930  27.235  29.647  1.00  0.00     0.031 C 
ATOM     42  C   UNL A   1      37.753  30.121  28.636  1.00  0.00     0.029 A 
ATOM     43  C   UNL A   1      38.751  30.964  29.286  1.00  0.00     0.049 A 
ATOM     44  H   UNL A   1      40.736  30.487  29.704  1.00  0.00     0.167 HD
ATOM     45  C   UNL A   1      44.831  29.313  30.653  1.00  0.00     0.031 A 
ATOM     46  C   UNL A   1      38.538  32.219  29.726  1.00  0.00     0.031 A 
ATOM     47  C   UNL A   1      44.729  30.688  31.067  1.00  0.00     0.049 A 
ATOM     48  C   UNL A   1      39.673  32.980  30.350  1.00  0.00     0.074 A 
ATOM     49  C   UNL A   1      45.711  31.500  31.607  1.00  0.00     0.029 A 
ATOM     50  N   UNL A   1      43.575  31.452  30.993  1.00  0.00    -0.354 N 
ATOM     51  N   UNL A   1      40.903  32.585  30.575  1.00  0.00    -0.248 NA
ATOM     52  C   UNL A   1      39.396  34.363  30.761  1.00  0.00     0.031 C 
ATOM     53  C   UNL A   1      45.139  32.744  31.899  1.00  0.00     0.029 A 
ATOM     54  C   UNL A   1      43.813  32.720  31.496  1.00  0.00     0.049 A 
ATOM     55  H   UNL A   1      42.713  31.140  30.635  1.00  0.00     0.167 HD
ATOM     56  C   UNL A   1      41.553  33.675  31.140  1.00  0.00     0.074 A 
ATOM     57  C   UNL A   1      40.584  34.752  31.204  1.00  0.00     0.031 C 
ATOM     58  C   UNL A   1      42.836  33.777  31.566  1.00  0.00     0.031 A 
BRANCH  45  59
ATOM     59  C   UNL A   1      46.128  28.586  30.885  1.00  0.00    -0.014 A 
ATOM     60  C   UNL A   1      47.143  28.585  29.910  1.00  0.00     0.010 A 
ATOM     61  C   UNL A   1      46.346  27.911  32.100  1.00  0.00     0.010 A 
ATOM     62  C   UNL A   1      48.331  27.882  30.124  1.00  0.00     0.020 A 
ATOM     63  C   UNL A   1      47.545  27.227  32.329  1.00  0.00     0.020 A 
ATOM     64  C   UNL A   1      48.520  27.199  31.329  1.00  0.00     0.054 A 
BRANCH  64  65
ATOM     65  S   UNL A   1      50.072  26.297  31.585  1.00  0.00     0.124 S 
ATOM     66  O   UNL A   1      50.128  26.203  33.042  1.00  0.00    -0.237 OA
ATOM     67  O   UNL A   1      49.832  25.037  30.885  1.00  0.00    -0.237 OA
ATOM     68  O   UNL A   1      51.081  27.161  30.977  1.00  0.00    -0.744 OA
ENDBRANCH  64  65
ENDBRANCH  45  59
BRANCH  46  69
ATOM     69  C   UNL A   1      37.200  32.841  29.556  1.00  0.00    -0.014 A 
ATOM     70  C   UNL A   1      36.400  33.126  30.676  1.00  0.00     0.010 A 
ATOM     71  C   UNL A   1      36.731  33.185  28.274  1.00  0.00     0.010 A 
ATOM     72  C   UNL A   1      35.152  33.736  30.520  1.00  0.00     0.020 A 
ATOM     73  C   UNL A   1      35.494  33.816  28.116  1.00  0.00     0.020 A 
ATOM     74  C   UNL A   1      34.709  34.081  29.239  1.00  0.00     0.054 A 
BRANCH  74  75
ATOM     75  S   UNL A   1      33.120  34.939  29.065  1.00  0.00     0.124 S 
ATOM     76  O   UNL A   1      32.465  34.156  28.023  1.00  0.00    -0.237 OA
ATOM     77  O   UNL A   1      32.547  34.820  30.403  1.00  0.00    -0.237 OA
ATOM     78  O   UNL A   1      33.507  36.296  28.682  1.00  0.00    -0.744 OA
ENDBRANCH  74  75
ENDBRANCH  46  69
BRANCH  58  79
ATOM     79  C   UNL A   1      43.270  35.106  32.124  1.00  0.00    -0.014 A 
ATOM     80  C   UNL A   1      43.814  36.100  31.291  1.00  0.00     0.010 A 
ATOM     81  C   UNL A   1      43.101  35.374  33.494  1.00  0.00     0.010 A 
ATOM     82  C   UNL A   1      44.219  37.326  31.828  1.00  0.00     0.020 A 
ATOM     83  C   UNL A   1      43.481  36.607  34.029  1.00  0.00     0.020 A 
ATOM     84  C   UNL A   1      44.055  37.569  33.195  1.00  0.00     0.054 A 
BRANCH  84  85
ATOM     85  S   UNL A   1      44.564  39.176  33.866  1.00  0.00     0.124 S 
ATOM     86  O   UNL A   1      43.279  39.795  34.176  1.00  0.00    -0.237 OA
ATOM     87  O   UNL A   1      45.376  38.801  35.023  1.00  0.00    -0.237 OA
ATOM     88  O   UNL A   1      45.305  39.790  32.767  1.00  0.00    -0.744 OA
ENDBRANCH  84  85
ENDBRANCH  58  79
ENDBRANCH  32  33
ENDBRANCH  24  27
ENDBRANCH  22  23
ENDBRANCH  21  22
ENDBRANCH   1  21
TORSDOF 19
ENDMDL
MODEL 3
REMARK VINA RESULT:      -9.6      3.044      9.269
REMARK SMILES C[C@@H]([C@H](C)O)[C@@H](Cc1ccccc1)C(=O)NCCCCNC(=O)c1ccc(-c2c3nc(c(-c4ccc(S(=O)(=O)[O-])cc4)c4ccc([nH]4)c(-c4ccc(S(=O)(=O)[O-])cc4)c4nc(c(-c5ccc(S(=O)(=O)[O-])cc5)c5ccc2[nH]5)C=C4)C=C3)cc1
REMARK SMILES IDX 18 1 17 2 16 3 14 4 15 5 6 7 2 8 1 9 3 10 4 11 5 12 7 14
REMARK SMILES IDX 8 15 9 16 13 17 10 18 12 19 11 20 19 21 20 22 21 23 22 24
REMARK SMILES IDX 23 26 24 27 25 28 83 29 26 30 82 31 27 32 28 33 29 34 76 35
REMARK SMILES IDX 30 36 81 37 75 38 77 39 31 40 80 41 74 42 73 43 32 45 62 46
REMARK SMILES IDX 43 47 61 48 44 49 47 50 60 51 78 52 45 53 46 54 59 56 79 57
REMARK SMILES IDX 48 58 33 59 34 60 42 61 35 62 41 63 36 64 37 65 38 66 39 67
REMARK SMILES IDX 40 68 63 69 64 70 72 71 65 72 71 73 66 74 67 75 68 76 69 77
REMARK SMILES IDX 70 78 49 79 50 80 58 81 51 82 57 83 52 84 53 85 54 86 55 87
REMARK SMILES IDX 56 88
REMARK H PARENT 16 6 5 13 21 25 77 44 47 55
REMARK Flexibility Score: inf
ROOT
ATOM      1  C   UNL A   1      34.901  21.636  25.500  1.00  0.00     0.023 C 
ENDROOT
BRANCH   1   2
ATOM      2  C   UNL A   1      33.656  21.981  24.694  1.00  0.00     0.116 C 
BRANCH   2   3
ATOM      3  N   UNL A   1      33.905  22.899  23.600  1.00  0.00    -0.356 N 
ATOM      4  C   UNL A   1      33.626  24.231  23.494  1.00  0.00     0.223 C 
ATOM      5  O   UNL A   1      34.304  24.886  22.694  1.00  0.00    -0.275 OA
ATOM      6  H   UNL A   1      34.342  22.501  22.813  1.00  0.00     0.163 HD
BRANCH   4   7
ATOM      7  C   UNL A   1      32.549  24.936  24.330  1.00  0.00     0.088 C 
BRANCH   7   8
ATOM      8  C   UNL A   1      31.108  24.331  24.258  1.00  0.00     0.027 C 
ATOM      9  C   UNL A   1      30.644  23.791  25.621  1.00  0.00     0.011 C 
BRANCH   8  10
ATOM     10  C   UNL A   1      30.055  25.361  23.739  1.00  0.00     0.115 C 
ATOM     11  C   UNL A   1      30.681  26.657  23.228  1.00  0.00     0.038 C 
BRANCH  10  12
ATOM     12  O   UNL A   1      29.115  25.731  24.738  1.00  0.00    -0.393 OA
ATOM     13  H   UNL A   1      28.360  26.178  24.324  1.00  0.00     0.210 HD
ENDBRANCH  10  12
ENDBRANCH   8  10
ENDBRANCH   7   8
BRANCH   7  14
ATOM     14  C   UNL A   1      33.123  25.337  25.717  1.00  0.00     0.049 C 
BRANCH  14  15
ATOM     15  C   UNL A   1      32.912  26.749  26.210  1.00  0.00    -0.047 A 
ATOM     16  C   UNL A   1      31.753  27.116  26.906  1.00  0.00     0.004 A 
ATOM     17  C   UNL A   1      33.895  27.727  25.979  1.00  0.00     0.004 A 
ATOM     18  C   UNL A   1      31.606  28.414  27.406  1.00  0.00     0.000 A 
ATOM     19  C   UNL A   1      33.749  29.020  26.483  1.00  0.00     0.000 A 
ATOM     20  C   UNL A   1      32.609  29.361  27.207  1.00  0.00     0.000 A 
ENDBRANCH  14  15
ENDBRANCH   7  14
ENDBRANCH   4   7
ENDBRANCH   2   3
ENDBRANCH   1   2
BRANCH   1  21
ATOM     21  C   UNL A   1      35.514  22.811  26.262  1.00  0.00     0.023 C 
BRANCH  21  22
ATOM     22  C   UNL A   1      36.867  23.307  25.752  1.00  0.00     0.116 C 
BRANCH  22  23
ATOM     23  N   UNL A   1      37.969  22.385  25.993  1.00  0.00    -0.352 N 
ATOM     24  C   UNL A   1      39.217  22.659  26.499  1.00  0.00     0.251 C 
ATOM     25  H   UNL A   1      37.797  21.443  25.764  1.00  0.00     0.163 HD
ATOM     26  O   UNL A   1      40.058  21.771  26.602  1.00  0.00    -0.269 OA
BRANCH  24  27
ATOM     27  C   UNL A   1      39.545  24.049  26.876  1.00  0.00     0.039 A 
ATOM     28  C   UNL A   1      39.418  24.430  28.214  1.00  0.00     0.014 A 
ATOM     29  C   UNL A   1      40.049  24.940  25.925  1.00  0.00     0.014 A 
ATOM     30  C   UNL A   1      39.882  25.683  28.615  1.00  0.00     0.010 A 
ATOM     31  C   UNL A   1      40.564  26.165  26.339  1.00  0.00     0.010 A 
ATOM     32  C   UNL A   1      40.502  26.541  27.690  1.00  0.00    -0.014 A 
BRANCH  32  33
ATOM     33  C   UNL A   1      41.143  27.803  28.134  1.00  0.00     0.031 A 
ATOM     34  C   UNL A   1      42.632  27.977  28.057  1.00  0.00     0.074 A 
ATOM     35  C   UNL A   1      40.378  28.771  28.679  1.00  0.00     0.049 A 
ATOM     36  N   UNL A   1      43.360  29.003  28.414  1.00  0.00    -0.248 NA
ATOM     37  C   UNL A   1      43.408  26.840  27.534  1.00  0.00     0.031 C 
ATOM     38  C   UNL A   1      38.927  28.698  28.872  1.00  0.00     0.029 A 
ATOM     39  N   UNL A   1      40.715  30.005  29.178  1.00  0.00    -0.354 N 
ATOM     40  C   UNL A   1      44.678  28.635  28.174  1.00  0.00     0.074 A 
ATOM     41  C   UNL A   1      44.652  27.274  27.681  1.00  0.00     0.031 C 
ATOM     42  C   UNL A   1      38.498  29.844  29.423  1.00  0.00     0.029 A 
ATOM     43  C   UNL A   1      39.642  30.722  29.649  1.00  0.00     0.049 A 
ATOM     44  H   UNL A   1      41.640  30.343  29.196  1.00  0.00     0.167 HD
ATOM     45  C   UNL A   1      45.806  29.369  28.332  1.00  0.00     0.031 A 
ATOM     46  C   UNL A   1      39.580  31.950  30.198  1.00  0.00     0.031 A 
ATOM     47  C   UNL A   1      45.830  30.723  28.818  1.00  0.00     0.049 A 
ATOM     48  C   UNL A   1      40.841  32.754  30.341  1.00  0.00     0.074 A 
ATOM     49  C   UNL A   1      46.915  31.572  28.950  1.00  0.00     0.029 A 
ATOM     50  N   UNL A   1      44.719  31.425  29.259  1.00  0.00    -0.354 N 
ATOM     51  N   UNL A   1      42.070  32.420  30.025  1.00  0.00    -0.248 NA
ATOM     52  C   UNL A   1      40.704  34.106  30.898  1.00  0.00     0.031 C 
ATOM     53  C   UNL A   1      46.466  32.774  29.511  1.00  0.00     0.029 A 
ATOM     54  C   UNL A   1      45.094  32.689  29.683  1.00  0.00     0.049 A 
ATOM     55  H   UNL A   1      43.798  31.076  29.270  1.00  0.00     0.167 HD
ATOM     56  C   UNL A   1      42.851  33.528  30.329  1.00  0.00     0.074 A 
ATOM     57  C   UNL A   1      41.954  34.548  30.835  1.00  0.00     0.031 C 
ATOM     58  C   UNL A   1      44.192  33.688  30.198  1.00  0.00     0.031 A 
BRANCH  45  59
ATOM     59  C   UNL A   1      47.111  28.708  27.979  1.00  0.00    -0.014 A 
ATOM     60  C   UNL A   1      47.814  27.940  28.926  1.00  0.00     0.010 A 
ATOM     61  C   UNL A   1      47.634  28.838  26.680  1.00  0.00     0.010 A 
ATOM     62  C   UNL A   1      49.039  27.356  28.595  1.00  0.00     0.020 A 
ATOM     63  C   UNL A   1      48.848  28.233  26.337  1.00  0.00     0.020 A 
ATOM     64  C   UNL A   1      49.553  27.514  27.305  1.00  0.00     0.054 A 
BRANCH  64  65
ATOM     65  S   UNL A   1      51.144  26.744  26.900  1.00  0.00     0.124 S 
ATOM     66  O   UNL A   1      51.893  27.873  26.353  1.00  0.00    -0.237 OA
ATOM     67  O   UNL A   1      51.606  26.255  28.197  1.00  0.00    -0.237 OA
ATOM     68  O   UNL A   1      50.791  25.705  25.936  1.00  0.00    -0.744 OA
ENDBRANCH  64  65
ENDBRANCH  45  59
BRANCH  46  69
ATOM     69  C   UNL A   1      38.267  32.502  30.620  1.00  0.00    -0.014 A 
ATOM     70  C   UNL A   1      37.827  32.356  31.947  1.00  0.00     0.010 A 
ATOM     71  C   UNL A   1      37.464  33.209  29.706  1.00  0.00     0.010 A 
ATOM     72  C   UNL A   1      36.604  32.898  32.352  1.00  0.00     0.020 A 
ATOM     73  C   UNL A   1      36.252  33.772  30.113  1.00  0.00     0.020 A 
ATOM     74  C   UNL A   1      35.826  33.607  31.432  1.00  0.00     0.054 A 
BRANCH  74  75
ATOM     75  S   UNL A   1      34.278  34.367  31.997  1.00  0.00     0.124 S 
ATOM     76  O   UNL A   1      34.757  35.573  32.665  1.00  0.00    -0.237 OA
ATOM     77  O   UNL A   1      33.555  34.581  30.745  1.00  0.00    -0.237 OA
ATOM     78  O   UNL A   1      33.700  33.349  32.873  1.00  0.00    -0.744 OA
ENDBRANCH  74  75
ENDBRANCH  46  69
BRANCH  58  79
ATOM     79  C   UNL A   1      44.764  35.022  30.595  1.00  0.00    -0.014 A 
ATOM     80  C   UNL A   1      45.352  35.213  31.857  1.00  0.00     0.010 A 
ATOM     81  C   UNL A   1      44.742  36.089  29.678  1.00  0.00     0.010 A 
ATOM     82  C   UNL A   1      45.871  36.462  32.213  1.00  0.00     0.020 A 
ATOM     83  C   UNL A   1      45.282  37.331  30.020  1.00  0.00     0.020 A 
ATOM     84  C   UNL A   1      45.828  37.514  31.293  1.00  0.00     0.054 A 
BRANCH  84  85
ATOM     85  S   UNL A   1      46.530  39.120  31.764  1.00  0.00     0.124 S 
ATOM     86  O   UNL A   1      45.548  39.609  32.728  1.00  0.00    -0.237 OA
ATOM     87  O   UNL A   1      47.830  38.753  32.322  1.00  0.00    -0.237 OA
ATOM     88  O   UNL A   1      46.587  39.854  30.502  1.00  0.00    -0.744 OA
ENDBRANCH  84  85
ENDBRANCH  58  79
ENDBRANCH  32  33
ENDBRANCH  24  27
ENDBRANCH  22  23
ENDBRANCH  21  22
ENDBRANCH   1  21
TORSDOF 19
ENDMDL
