MODEL 1
REMARK VINA RESULT:     -13.2      0.000      0.000
REMARK SMILES Cc1ccc(Nc2c(Cl)cccc2Cl)c(CC(=O)NCCCCNC(=O)c2ccc(-c3c4nc(c(-c5ccc(S(=O)(=O)[O-])cc5)c5ccc([nH]5)c(-c5ccc(S(=O)(=O)[O-])cc5)c5nc(c(-c6ccc(S(=O)(=O)[O-])cc6)c6ccc3[nH]6)C=C5)C=C4)cc2)c1
REMARK SMILES IDX 21 1 20 2 19 3 17 4 18 5 16 7 15 8 1 9 2 10 3 11 87 12 4 13
REMARK SMILES IDX 5 14 6 15 7 17 8 18 13 19 9 20 10 21 12 22 14 23 11 24 22 25
REMARK SMILES IDX 23 26 24 27 25 28 26 30 27 31 28 32 86 33 29 34 85 35 30 36
REMARK SMILES IDX 31 37 32 38 79 39 33 40 84 41 78 42 80 43 34 44 83 45 77 46
REMARK SMILES IDX 76 47 35 49 65 50 46 51 64 52 47 53 50 54 63 55 81 56 48 57
REMARK SMILES IDX 49 58 62 60 82 61 51 62 36 63 37 64 45 65 38 66 44 67 39 68
REMARK SMILES IDX 40 69 41 70 42 71 43 72 66 73 67 74 75 75 68 76 74 77 69 78
REMARK SMILES IDX 70 79 71 80 72 81 73 82 52 83 53 84 61 85 54 86 60 87 55 88
REMARK SMILES IDX 56 89 57 90 58 91 59 92
REMARK H PARENT 19 6 6 16 24 29 80 48 50 59
REMARK Flexibility Score: inf
ROOT
ATOM      1  C   UNL A   1      32.126  29.297  26.457  1.00  0.00     0.023 C 
ENDROOT
BRANCH   1   2
ATOM      2  C   UNL A   1      32.215  28.267  27.595  1.00  0.00     0.116 C 
BRANCH   2   3
ATOM      3  N   UNL A   1      31.606  26.987  27.264  1.00  0.00    -0.356 N 
ATOM      4  C   UNL A   1      32.045  25.999  26.437  1.00  0.00     0.224 C 
ATOM      5  O   UNL A   1      31.310  25.030  26.222  1.00  0.00    -0.275 OA
ATOM      6  H   UNL A   1      30.745  26.808  27.707  1.00  0.00     0.163 HD
BRANCH   4   7
ATOM      7  C   UNL A   1      33.395  26.091  25.750  1.00  0.00     0.137 C 
BRANCH   7   8
ATOM      8  C   UNL A   1      33.800  24.810  25.055  1.00  0.00    -0.015 A 
ATOM      9  C   UNL A   1      35.084  21.408  26.230  1.00  0.00     0.044 C 
ATOM     10  C   UNL A   1      34.641  22.528  25.339  1.00  0.00    -0.051 A 
ATOM     11  C   UNL A   1      34.818  22.443  23.960  1.00  0.00     0.005 A 
ATOM     12  C   UNL A   1      34.105  23.701  25.874  1.00  0.00     0.009 A 
ATOM     13  C   UNL A   1      34.467  23.515  23.133  1.00  0.00     0.026 A 
ATOM     14  C   UNL A   1      33.959  24.717  23.653  1.00  0.00     0.042 A 
BRANCH  14  15
ATOM     15  N   UNL A   1      33.587  25.784  22.801  1.00  0.00    -0.353 N 
ATOM     16  H   UNL A   1      34.209  25.972  22.061  1.00  0.00     0.167 HD
BRANCH  15  17
ATOM     17  C   UNL A   1      32.444  26.622  22.861  1.00  0.00     0.076 A 
ATOM     18  C   UNL A   1      31.127  26.123  22.906  1.00  0.00     0.066 A 
ATOM     19  C   UNL A   1      32.602  28.022  22.787  1.00  0.00     0.066 A 
ATOM     20  Cl  UNL A   1      30.783  24.437  23.116  1.00  0.00    -0.082 Cl
ATOM     21  C   UNL A   1      30.024  26.986  22.848  1.00  0.00     0.023 A 
ATOM     22  C   UNL A   1      31.499  28.882  22.737  1.00  0.00     0.023 A 
ATOM     23  Cl  UNL A   1      34.175  28.744  22.727  1.00  0.00    -0.082 Cl
ATOM     24  C   UNL A   1      30.208  28.363  22.757  1.00  0.00     0.003 A 
ENDBRANCH  15  17
ENDBRANCH  14  15
ENDBRANCH   7   8
ENDBRANCH   4   7
ENDBRANCH   2   3
ENDBRANCH   1   2
BRANCH   1  25
ATOM     25  C   UNL A   1      33.460  29.845  25.948  1.00  0.00     0.023 C 
BRANCH  25  26
ATOM     26  C   UNL A   1      34.604  29.637  26.929  1.00  0.00     0.116 C 
BRANCH  26  27
ATOM     27  N   UNL A   1      35.248  30.868  27.364  1.00  0.00    -0.352 N 
ATOM     28  C   UNL A   1      36.457  30.985  28.030  1.00  0.00     0.251 C 
ATOM     29  H   UNL A   1      34.773  31.707  27.163  1.00  0.00     0.163 HD
ATOM     30  O   UNL A   1      36.830  32.031  28.538  1.00  0.00    -0.269 OA
BRANCH  28  31
ATOM     31  C   UNL A   1      37.346  29.805  27.998  1.00  0.00     0.039 A 
ATOM     32  C   UNL A   1      37.369  29.000  29.142  1.00  0.00     0.014 A 
ATOM     33  C   UNL A   1      38.332  29.698  27.020  1.00  0.00     0.014 A 
ATOM     34  C   UNL A   1      38.487  28.214  29.399  1.00  0.00     0.010 A 
ATOM     35  C   UNL A   1      39.478  28.988  27.322  1.00  0.00     0.010 A 
ATOM     36  C   UNL A   1      39.578  28.293  28.537  1.00  0.00    -0.014 A 
BRANCH  36  37
ATOM     37  C   UNL A   1      40.893  27.744  28.846  1.00  0.00     0.031 A 
ATOM     38  C   UNL A   1      41.178  26.319  28.568  1.00  0.00     0.074 A 
ATOM     39  C   UNL A   1      41.883  28.540  29.313  1.00  0.00     0.049 A 
ATOM     40  N   UNL A   1      42.189  25.675  29.049  1.00  0.00    -0.248 NA
ATOM     41  C   UNL A   1      40.278  25.468  27.789  1.00  0.00     0.031 C 
ATOM     42  C   UNL A   1      43.314  28.238  29.336  1.00  0.00     0.029 A 
ATOM     43  N   UNL A   1      41.775  29.691  30.099  1.00  0.00    -0.354 N 
ATOM     44  C   UNL A   1      42.266  24.484  28.373  1.00  0.00     0.074 A 
ATOM     45  C   UNL A   1      40.980  24.332  27.738  1.00  0.00     0.031 C 
ATOM     46  C   UNL A   1      43.886  28.954  30.314  1.00  0.00     0.029 A 
ATOM     47  C   UNL A   1      42.816  29.609  31.043  1.00  0.00     0.049 A 
ATOM     48  H   UNL A   1      41.109  30.410  30.010  1.00  0.00     0.167 HD
ATOM     49  C   UNL A   1      43.466  23.845  28.287  1.00  0.00     0.031 A 
ATOM     50  C   UNL A   1      42.617  29.527  32.392  1.00  0.00     0.031 A 
ATOM     51  C   UNL A   1      44.436  24.363  29.256  1.00  0.00     0.049 A 
ATOM     52  C   UNL A   1      43.231  28.294  33.036  1.00  0.00     0.074 A 
ATOM     53  C   UNL A   1      45.642  25.036  29.182  1.00  0.00     0.029 A 
ATOM     54  N   UNL A   1      44.070  24.388  30.597  1.00  0.00    -0.354 N 
ATOM     55  N   UNL A   1      43.881  27.364  32.392  1.00  0.00    -0.248 NA
ATOM     56  C   UNL A   1      43.063  27.962  34.451  1.00  0.00     0.031 C 
ATOM     57  C   UNL A   1      45.978  25.493  30.495  1.00  0.00     0.029 A 
ATOM     58  C   UNL A   1      44.993  25.067  31.366  1.00  0.00     0.049 A 
ATOM     59  H   UNL A   1      43.253  23.971  30.954  1.00  0.00     0.167 HD
ATOM     60  C   UNL A   1      44.160  26.318  33.236  1.00  0.00     0.074 A 
ATOM     61  C   UNL A   1      43.633  26.747  34.519  1.00  0.00     0.031 C 
ATOM     62  C   UNL A   1      44.754  25.166  32.802  1.00  0.00     0.031 A 
BRANCH  49  63
ATOM     63  C   UNL A   1      43.816  22.869  27.176  1.00  0.00    -0.014 A 
ATOM     64  C   UNL A   1      42.903  21.861  26.804  1.00  0.00     0.010 A 
ATOM     65  C   UNL A   1      45.080  22.809  26.550  1.00  0.00     0.010 A 
ATOM     66  C   UNL A   1      43.247  20.844  25.890  1.00  0.00     0.020 A 
ATOM     67  C   UNL A   1      45.424  21.825  25.614  1.00  0.00     0.020 A 
ATOM     68  C   UNL A   1      44.512  20.830  25.306  1.00  0.00     0.054 A 
BRANCH  68  69
ATOM     69  S   UNL A   1      44.979  19.491  24.178  1.00  0.00     0.124 S 
ATOM     70  O   UNL A   1      46.431  19.445  24.336  1.00  0.00    -0.237 OA
ATOM     71  O   UNL A   1      44.246  18.349  24.714  1.00  0.00    -0.237 OA
ATOM     72  O   UNL A   1      44.517  19.962  22.872  1.00  0.00    -0.744 OA
ENDBRANCH  68  69
ENDBRANCH  49  63
BRANCH  50  73
ATOM     73  C   UNL A   1      41.380  30.214  32.863  1.00  0.00    -0.014 A 
ATOM     74  C   UNL A   1      40.281  29.400  33.209  1.00  0.00     0.010 A 
ATOM     75  C   UNL A   1      41.441  31.527  33.362  1.00  0.00     0.010 A 
ATOM     76  C   UNL A   1      39.367  29.818  34.178  1.00  0.00     0.020 A 
ATOM     77  C   UNL A   1      40.516  31.952  34.326  1.00  0.00     0.020 A 
ATOM     78  C   UNL A   1      39.534  31.065  34.777  1.00  0.00     0.054 A 
BRANCH  78  79
ATOM     79  S   UNL A   1      38.595  31.409  36.296  1.00  0.00     0.124 S 
ATOM     80  O   UNL A   1      38.145  30.080  36.693  1.00  0.00    -0.237 OA
ATOM     81  O   UNL A   1      39.623  32.009  37.145  1.00  0.00    -0.237 OA
ATOM     82  O   UNL A   1      37.549  32.321  35.842  1.00  0.00    -0.744 OA
ENDBRANCH  78  79
ENDBRANCH  50  73
BRANCH  62  83
ATOM     83  C   UNL A   1      45.101  23.973  33.670  1.00  0.00    -0.014 A 
ATOM     84  C   UNL A   1      44.153  23.085  34.203  1.00  0.00     0.010 A 
ATOM     85  C   UNL A   1      46.446  23.774  34.065  1.00  0.00     0.010 A 
ATOM     86  C   UNL A   1      44.541  22.005  35.013  1.00  0.00     0.020 A 
ATOM     87  C   UNL A   1      46.842  22.715  34.888  1.00  0.00     0.020 A 
ATOM     88  C   UNL A   1      45.886  21.820  35.341  1.00  0.00     0.054 A 
BRANCH  88  89
ATOM     89  S   UNL A   1      46.358  20.428  36.399  1.00  0.00     0.124 S 
ATOM     90  O   UNL A   1      45.761  19.289  35.704  1.00  0.00    -0.237 OA
ATOM     91  O   UNL A   1      47.817  20.495  36.355  1.00  0.00    -0.237 OA
ATOM     92  O   UNL A   1      45.758  20.749  37.690  1.00  0.00    -0.744 OA
ENDBRANCH  88  89
ENDBRANCH  62  83
ENDBRANCH  36  37
ENDBRANCH  28  31
ENDBRANCH  26  27
ENDBRANCH  25  26
ENDBRANCH   1  25
TORSDOF 17
ENDMDL
MODEL 2
REMARK VINA RESULT:     -13.1      2.464      4.008
REMARK SMILES Cc1ccc(Nc2c(Cl)cccc2Cl)c(CC(=O)NCCCCNC(=O)c2ccc(-c3c4nc(c(-c5ccc(S(=O)(=O)[O-])cc5)c5ccc([nH]5)c(-c5ccc(S(=O)(=O)[O-])cc5)c5nc(c(-c6ccc(S(=O)(=O)[O-])cc6)c6ccc3[nH]6)C=C5)C=C4)cc2)c1
REMARK SMILES IDX 21 1 20 2 19 3 17 4 18 5 16 7 15 8 1 9 2 10 3 11 87 12 4 13
REMARK SMILES IDX 5 14 6 15 7 17 8 18 13 19 9 20 10 21 12 22 14 23 11 24 22 25
REMARK SMILES IDX 23 26 24 27 25 28 26 30 27 31 28 32 86 33 29 34 85 35 30 36
REMARK SMILES IDX 31 37 32 38 79 39 33 40 84 41 78 42 80 43 34 44 83 45 77 46
REMARK SMILES IDX 76 47 35 49 65 50 46 51 64 52 47 53 50 54 63 55 81 56 48 57
REMARK SMILES IDX 49 58 62 60 82 61 51 62 36 63 37 64 45 65 38 66 44 67 39 68
REMARK SMILES IDX 40 69 41 70 42 71 43 72 66 73 67 74 75 75 68 76 74 77 69 78
REMARK SMILES IDX 70 79 71 80 72 81 73 82 52 83 53 84 61 85 54 86 60 87 55 88
REMARK SMILES IDX 56 89 57 90 58 91 59 92
REMARK H PARENT 19 6 6 16 24 29 80 48 50 59
REMARK Flexibility Score: inf
ROOT
ATOM      1  C   UNL A   1      32.560  29.278  24.727  1.00  0.00     0.023 C 
ENDROOT
BRANCH   1   2
ATOM      2  C   UNL A   1      33.766  28.436  24.280  1.00  0.00     0.116 C 
BRANCH   2   3
ATOM      3  N   UNL A   1      33.622  27.889  22.939  1.00  0.00    -0.356 N 
ATOM      4  C   UNL A   1      33.604  26.592  22.522  1.00  0.00     0.224 C 
ATOM      5  O   UNL A   1      33.572  26.355  21.311  1.00  0.00    -0.275 OA
ATOM      6  H   UNL A   1      33.522  28.557  22.224  1.00  0.00     0.163 HD
BRANCH   4   7
ATOM      7  C   UNL A   1      33.661  25.447  23.516  1.00  0.00     0.137 C 
BRANCH   7   8
ATOM      8  C   UNL A   1      32.385  25.280  24.310  1.00  0.00    -0.015 A 
ATOM      9  C   UNL A   1      28.827  26.637  23.989  1.00  0.00     0.044 C 
ATOM     10  C   UNL A   1      30.025  25.902  24.508  1.00  0.00    -0.051 A 
ATOM     11  C   UNL A   1      29.992  25.300  25.763  1.00  0.00     0.005 A 
ATOM     12  C   UNL A   1      31.214  25.862  23.777  1.00  0.00     0.009 A 
ATOM     13  C   UNL A   1      31.131  24.671  26.278  1.00  0.00     0.026 A 
ATOM     14  C   UNL A   1      32.347  24.649  25.575  1.00  0.00     0.042 A 
BRANCH  14  15
ATOM     15  N   UNL A   1      33.484  23.989  26.099  1.00  0.00    -0.353 N 
ATOM     16  H   UNL A   1      33.891  24.411  26.890  1.00  0.00     0.167 HD
BRANCH  15  17
ATOM     17  C   UNL A   1      34.119  22.805  25.647  1.00  0.00     0.076 A 
ATOM     18  C   UNL A   1      33.421  21.609  25.386  1.00  0.00     0.066 A 
ATOM     19  C   UNL A   1      35.526  22.771  25.528  1.00  0.00     0.066 A 
ATOM     20  Cl  UNL A   1      31.689  21.532  25.379  1.00  0.00    -0.082 Cl
ATOM     21  C   UNL A   1      34.103  20.431  25.052  1.00  0.00     0.023 A 
ATOM     22  C   UNL A   1      36.203  21.595  25.187  1.00  0.00     0.023 A 
ATOM     23  Cl  UNL A   1      36.483  24.182  25.826  1.00  0.00    -0.082 Cl
ATOM     24  C   UNL A   1      35.493  20.421  24.960  1.00  0.00     0.003 A 
ENDBRANCH  15  17
ENDBRANCH  14  15
ENDBRANCH   7   8
ENDBRANCH   4   7
ENDBRANCH   2   3
ENDBRANCH   1   2
BRANCH   1  25
ATOM     25  C   UNL A   1      31.859  28.814  26.004  1.00  0.00     0.023 C 
BRANCH  25  26
ATOM     26  C   UNL A   1      32.560  29.276  27.272  1.00  0.00     0.116 C 
BRANCH  26  27
ATOM     27  N   UNL A   1      32.973  30.672  27.250  1.00  0.00    -0.352 N 
ATOM     28  C   UNL A   1      34.159  31.198  27.734  1.00  0.00     0.251 C 
ATOM     29  H   UNL A   1      32.340  31.310  26.848  1.00  0.00     0.163 HD
ATOM     30  O   UNL A   1      34.343  32.398  27.864  1.00  0.00    -0.269 OA
BRANCH  28  31
ATOM     31  C   UNL A   1      35.255  30.238  27.982  1.00  0.00     0.039 A 
ATOM     32  C   UNL A   1      35.452  29.831  29.307  1.00  0.00     0.014 A 
ATOM     33  C   UNL A   1      36.225  30.017  27.007  1.00  0.00     0.014 A 
ATOM     34  C   UNL A   1      36.703  29.367  29.698  1.00  0.00     0.010 A 
ATOM     35  C   UNL A   1      37.490  29.643  27.417  1.00  0.00     0.010 A 
ATOM     36  C   UNL A   1      37.743  29.374  28.771  1.00  0.00    -0.014 A 
BRANCH  36  37
ATOM     37  C   UNL A   1      39.144  29.183  29.127  1.00  0.00     0.031 A 
ATOM     38  C   UNL A   1      39.804  27.889  28.845  1.00  0.00     0.074 A 
ATOM     39  C   UNL A   1      39.872  30.200  29.644  1.00  0.00     0.049 A 
ATOM     40  N   UNL A   1      40.930  27.523  29.360  1.00  0.00    -0.248 NA
ATOM     41  C   UNL A   1      39.189  26.849  28.020  1.00  0.00     0.031 C 
ATOM     42  C   UNL A   1      41.330  30.283  29.723  1.00  0.00     0.029 A 
ATOM     43  N   UNL A   1      39.436  31.265  30.438  1.00  0.00    -0.354 N 
ATOM     44  C   UNL A   1      41.343  26.408  28.673  1.00  0.00     0.074 A 
ATOM     45  C   UNL A   1      40.167  25.938  27.984  1.00  0.00     0.031 C 
ATOM     46  C   UNL A   1      41.657  31.103  30.732  1.00  0.00     0.029 A 
ATOM     47  C   UNL A   1      40.426  31.438  31.424  1.00  0.00     0.049 A 
ATOM     48  H   UNL A   1      38.608  31.785  30.331  1.00  0.00     0.167 HD
ATOM     49  C   UNL A   1      42.671  26.109  28.630  1.00  0.00     0.031 A 
ATOM     50  C   UNL A   1      40.206  31.277  32.762  1.00  0.00     0.031 A 
ATOM     51  C   UNL A   1      43.434  26.842  29.645  1.00  0.00     0.049 A 
ATOM     52  C   UNL A   1      41.098  30.234  33.416  1.00  0.00     0.074 A 
ATOM     53  C   UNL A   1      44.423  27.809  29.628  1.00  0.00     0.029 A 
ATOM     54  N   UNL A   1      43.025  26.740  30.969  1.00  0.00    -0.354 N 
ATOM     55  N   UNL A   1      41.994  29.522  32.789  1.00  0.00    -0.248 NA
ATOM     56  C   UNL A   1      40.972  29.839  34.820  1.00  0.00     0.031 C 
ATOM     57  C   UNL A   1      44.578  28.310  30.959  1.00  0.00     0.029 A 
ATOM     58  C   UNL A   1      43.708  27.621  31.783  1.00  0.00     0.049 A 
ATOM     59  H   UNL A   1      42.334  26.116  31.287  1.00  0.00     0.167 HD
ATOM     60  C   UNL A   1      42.507  28.568  33.632  1.00  0.00     0.074 A 
ATOM     61  C   UNL A   1      41.838  28.814  34.897  1.00  0.00     0.031 C 
ATOM     62  C   UNL A   1      43.399  27.622  33.209  1.00  0.00     0.031 A 
BRANCH  49  63
ATOM     63  C   UNL A   1      43.306  25.284  27.523  1.00  0.00    -0.014 A 
ATOM     64  C   UNL A   1      43.429  23.886  27.662  1.00  0.00     0.010 A 
ATOM     65  C   UNL A   1      43.920  25.839  26.380  1.00  0.00     0.010 A 
ATOM     66  C   UNL A   1      44.147  23.104  26.735  1.00  0.00     0.020 A 
ATOM     67  C   UNL A   1      44.607  25.072  25.431  1.00  0.00     0.020 A 
ATOM     68  C   UNL A   1      44.739  23.707  25.626  1.00  0.00     0.054 A 
BRANCH  68  69
ATOM     69  S   UNL A   1      45.714  22.717  24.463  1.00  0.00     0.124 S 
ATOM     70  O   UNL A   1      44.691  22.218  23.548  1.00  0.00    -0.237 OA
ATOM     71  O   UNL A   1      46.641  23.696  23.907  1.00  0.00    -0.237 OA
ATOM     72  O   UNL A   1      46.331  21.696  25.311  1.00  0.00    -0.744 OA
ENDBRANCH  68  69
ENDBRANCH  49  63
BRANCH  50  73
ATOM     73  C   UNL A   1      38.816  31.605  33.190  1.00  0.00    -0.014 A 
ATOM     74  C   UNL A   1      38.526  32.960  33.457  1.00  0.00     0.010 A 
ATOM     75  C   UNL A   1      37.758  30.723  32.911  1.00  0.00     0.010 A 
ATOM     76  C   UNL A   1      37.236  33.460  33.264  1.00  0.00     0.020 A 
ATOM     77  C   UNL A   1      36.460  31.221  32.729  1.00  0.00     0.020 A 
ATOM     78  C   UNL A   1      36.229  32.596  32.835  1.00  0.00     0.054 A 
BRANCH  78  79
ATOM     79  S   UNL A   1      34.691  33.334  32.206  1.00  0.00     0.124 S 
ATOM     80  O   UNL A   1      34.392  32.498  31.049  1.00  0.00    -0.237 OA
ATOM     81  O   UNL A   1      33.798  33.169  33.353  1.00  0.00    -0.237 OA
ATOM     82  O   UNL A   1      35.078  34.710  31.909  1.00  0.00    -0.744 OA
ENDBRANCH  78  79
ENDBRANCH  50  73
BRANCH  62  83
ATOM     83  C   UNL A   1      44.015  26.543  34.078  1.00  0.00    -0.014 A 
ATOM     84  C   UNL A   1      43.324  25.411  34.536  1.00  0.00     0.010 A 
ATOM     85  C   UNL A   1      45.339  26.710  34.551  1.00  0.00     0.010 A 
ATOM     86  C   UNL A   1      43.951  24.453  35.350  1.00  0.00     0.020 A 
ATOM     87  C   UNL A   1      45.967  25.775  35.380  1.00  0.00     0.020 A 
ATOM     88  C   UNL A   1      45.274  24.636  35.757  1.00  0.00     0.054 A 
BRANCH  88  89
ATOM     89  S   UNL A   1      46.055  23.394  36.819  1.00  0.00     0.124 S 
ATOM     90  O   UNL A   1      45.724  23.872  38.159  1.00  0.00    -0.237 OA
ATOM     91  O   UNL A   1      45.375  22.169  36.404  1.00  0.00    -0.237 OA
ATOM     92  O   UNL A   1      47.470  23.471  36.466  1.00  0.00    -0.744 OA
ENDBRANCH  88  89
ENDBRANCH  62  83
ENDBRANCH  36  37
ENDBRANCH  28  31
ENDBRANCH  26  27
ENDBRANCH  25  26
ENDBRANCH   1  25
TORSDOF 17
ENDMDL
MODEL 3
REMARK VINA RESULT:     -13.1      1.413      2.883
REMARK SMILES Cc1ccc(Nc2c(Cl)cccc2Cl)c(CC(=O)NCCCCNC(=O)c2ccc(-c3c4nc(c(-c5ccc(S(=O)(=O)[O-])cc5)c5ccc([nH]5)c(-c5ccc(S(=O)(=O)[O-])cc5)c5nc(c(-c6ccc(S(=O)(=O)[O-])cc6)c6ccc3[nH]6)C=C5)C=C4)cc2)c1
REMARK SMILES IDX 21 1 20 2 19 3 17 4 18 5 16 7 15 8 1 9 2 10 3 11 87 12 4 13
REMARK SMILES IDX 5 14 6 15 7 17 8 18 13 19 9 20 10 21 12 22 14 23 11 24 22 25
REMARK SMILES IDX 23 26 24 27 25 28 26 30 27 31 28 32 86 33 29 34 85 35 30 36
REMARK SMILES IDX 31 37 32 38 79 39 33 40 84 41 78 42 80 43 34 44 83 45 77 46
REMARK SMILES IDX 76 47 35 49 65 50 46 51 64 52 47 53 50 54 63 55 81 56 48 57
REMARK SMILES IDX 49 58 62 60 82 61 51 62 36 63 37 64 45 65 38 66 44 67 39 68
REMARK SMILES IDX 40 69 41 70 42 71 43 72 66 73 67 74 75 75 68 76 74 77 69 78
REMARK SMILES IDX 70 79 71 80 72 81 73 82 52 83 53 84 61 85 54 86 60 87 55 88
REMARK SMILES IDX 56 89 57 90 58 91 59 92
REMARK H PARENT 19 6 6 16 24 29 80 48 50 59
REMARK Flexibility Score: inf
ROOT
ATOM      1  C   UNL A   1      32.625  29.203  25.625  1.00  0.00     0.023 C 
ENDROOT
BRANCH   1   2
ATOM      2  C   UNL A   1      33.659  28.288  24.947  1.00  0.00     0.116 C 
BRANCH   2   3
ATOM      3  N   UNL A   1      33.928  28.648  23.563  1.00  0.00    -0.356 N 
ATOM      4  C   UNL A   1      33.846  27.894  22.432  1.00  0.00     0.224 C 
ATOM      5  O   UNL A   1      34.222  28.380  21.361  1.00  0.00    -0.275 OA
ATOM      6  H   UNL A   1      34.212  29.580  23.421  1.00  0.00     0.163 HD
BRANCH   4   7
ATOM      7  C   UNL A   1      33.340  26.464  22.477  1.00  0.00     0.137 C 
BRANCH   7   8
ATOM      8  C   UNL A   1      31.963  26.336  23.090  1.00  0.00    -0.015 A 
ATOM      9  C   UNL A   1      28.753  28.403  22.936  1.00  0.00     0.044 C 
ATOM     10  C   UNL A   1      29.735  27.330  23.295  1.00  0.00    -0.051 A 
ATOM     11  C   UNL A   1      29.443  26.418  24.306  1.00  0.00     0.005 A 
ATOM     12  C   UNL A   1      30.984  27.264  22.674  1.00  0.00     0.009 A 
ATOM     13  C   UNL A   1      30.385  25.458  24.689  1.00  0.00     0.026 A 
ATOM     14  C   UNL A   1      31.660  25.395  24.101  1.00  0.00     0.042 A 
BRANCH  14  15
ATOM     15  N   UNL A   1      32.594  24.403  24.484  1.00  0.00    -0.353 N 
ATOM     16  H   UNL A   1      33.457  24.741  24.817  1.00  0.00     0.167 HD
BRANCH  15  17
ATOM     17  C   UNL A   1      32.462  22.991  24.457  1.00  0.00     0.076 A 
ATOM     18  C   UNL A   1      32.218  22.220  25.611  1.00  0.00     0.066 A 
ATOM     19  C   UNL A   1      32.668  22.296  23.246  1.00  0.00     0.066 A 
ATOM     20  Cl  UNL A   1      31.832  22.939  27.140  1.00  0.00    -0.082 Cl
ATOM     21  C   UNL A   1      32.210  20.819  25.556  1.00  0.00     0.023 A 
ATOM     22  C   UNL A   1      32.652  20.898  23.193  1.00  0.00     0.023 A 
ATOM     23  Cl  UNL A   1      32.978  23.144  21.769  1.00  0.00    -0.082 Cl
ATOM     24  C   UNL A   1      32.434  20.158  24.351  1.00  0.00     0.003 A 
ENDBRANCH  15  17
ENDBRANCH  14  15
ENDBRANCH   7   8
ENDBRANCH   4   7
ENDBRANCH   2   3
ENDBRANCH   1   2
BRANCH   1  25
ATOM     25  C   UNL A   1      32.999  29.716  27.016  1.00  0.00     0.023 C 
BRANCH  25  26
ATOM     26  C   UNL A   1      34.483  29.579  27.324  1.00  0.00     0.116 C 
BRANCH  26  27
ATOM     27  N   UNL A   1      35.160  30.843  27.573  1.00  0.00    -0.352 N 
ATOM     28  C   UNL A   1      36.435  31.017  28.086  1.00  0.00     0.251 C 
ATOM     29  H   UNL A   1      34.659  31.660  27.353  1.00  0.00     0.163 HD
ATOM     30  O   UNL A   1      36.852  32.103  28.455  1.00  0.00    -0.269 OA
BRANCH  28  31
ATOM     31  C   UNL A   1      37.325  29.838  28.060  1.00  0.00     0.039 A 
ATOM     32  C   UNL A   1      37.366  29.050  29.217  1.00  0.00     0.014 A 
ATOM     33  C   UNL A   1      38.297  29.717  27.071  1.00  0.00     0.014 A 
ATOM     34  C   UNL A   1      38.489  28.270  29.470  1.00  0.00     0.010 A 
ATOM     35  C   UNL A   1      39.449  29.014  27.367  1.00  0.00     0.010 A 
ATOM     36  C   UNL A   1      39.567  28.338  28.592  1.00  0.00    -0.014 A 
BRANCH  36  37
ATOM     37  C   UNL A   1      40.887  27.796  28.891  1.00  0.00     0.031 A 
ATOM     38  C   UNL A   1      41.172  26.367  28.628  1.00  0.00     0.074 A 
ATOM     39  C   UNL A   1      41.882  28.600  29.334  1.00  0.00     0.049 A 
ATOM     40  N   UNL A   1      42.190  25.732  29.104  1.00  0.00    -0.248 NA
ATOM     41  C   UNL A   1      40.263  25.504  27.873  1.00  0.00     0.031 C 
ATOM     42  C   UNL A   1      43.313  28.300  29.343  1.00  0.00     0.029 A 
ATOM     43  N   UNL A   1      41.781  29.761  30.105  1.00  0.00    -0.354 N 
ATOM     44  C   UNL A   1      42.261  24.532  28.443  1.00  0.00     0.074 A 
ATOM     45  C   UNL A   1      40.967  24.369  27.828  1.00  0.00     0.031 C 
ATOM     46  C   UNL A   1      43.897  29.031  30.303  1.00  0.00     0.029 A 
ATOM     47  C   UNL A   1      42.835  29.694  31.038  1.00  0.00     0.049 A 
ATOM     48  H   UNL A   1      41.113  30.477  30.016  1.00  0.00     0.167 HD
ATOM     49  C   UNL A   1      43.461  23.894  28.350  1.00  0.00     0.031 A 
ATOM     50  C   UNL A   1      42.653  29.630  32.390  1.00  0.00     0.031 A 
ATOM     51  C   UNL A   1      44.442  24.427  29.300  1.00  0.00     0.049 A 
ATOM     52  C   UNL A   1      43.278  28.407  33.042  1.00  0.00     0.074 A 
ATOM     53  C   UNL A   1      45.646  25.101  29.201  1.00  0.00     0.029 A 
ATOM     54  N   UNL A   1      44.094  24.470  30.645  1.00  0.00    -0.354 N 
ATOM     55  N   UNL A   1      43.922  27.469  32.402  1.00  0.00    -0.248 NA
ATOM     56  C   UNL A   1      43.129  28.094  34.464  1.00  0.00     0.031 C 
ATOM     57  C   UNL A   1      45.998  25.577  30.503  1.00  0.00     0.029 A 
ATOM     58  C   UNL A   1      45.025  25.161  31.393  1.00  0.00     0.049 A 
ATOM     59  H   UNL A   1      43.282  24.056  31.018  1.00  0.00     0.167 HD
ATOM     60  C   UNL A   1      44.214  26.436  33.256  1.00  0.00     0.074 A 
ATOM     61  C   UNL A   1      43.703  26.880  34.540  1.00  0.00     0.031 C 
ATOM     62  C   UNL A   1      44.805  25.279  32.830  1.00  0.00     0.031 A 
BRANCH  49  63
ATOM     63  C   UNL A   1      43.799  22.904  27.249  1.00  0.00    -0.014 A 
ATOM     64  C   UNL A   1      42.904  21.861  26.934  1.00  0.00     0.010 A 
ATOM     65  C   UNL A   1      45.039  22.868  26.575  1.00  0.00     0.010 A 
ATOM     66  C   UNL A   1      43.244  20.833  26.031  1.00  0.00     0.020 A 
ATOM     67  C   UNL A   1      45.378  21.874  25.648  1.00  0.00     0.020 A 
ATOM     68  C   UNL A   1      44.486  20.844  25.398  1.00  0.00     0.054 A 
BRANCH  68  69
ATOM     69  S   UNL A   1      44.951  19.495  24.282  1.00  0.00     0.124 S 
ATOM     70  O   UNL A   1      46.402  19.445  24.445  1.00  0.00    -0.237 OA
ATOM     71  O   UNL A   1      44.211  18.361  24.824  1.00  0.00    -0.237 OA
ATOM     72  O   UNL A   1      44.495  19.958  22.971  1.00  0.00    -0.744 OA
ENDBRANCH  68  69
ENDBRANCH  49  63
BRANCH  50  73
ATOM     73  C   UNL A   1      41.421  30.321  32.867  1.00  0.00    -0.014 A 
ATOM     74  C   UNL A   1      40.297  29.515  33.146  1.00  0.00     0.010 A 
ATOM     75  C   UNL A   1      41.499  31.604  33.435  1.00  0.00     0.010 A 
ATOM     76  C   UNL A   1      39.369  29.905  34.114  1.00  0.00     0.020 A 
ATOM     77  C   UNL A   1      40.562  32.002  34.398  1.00  0.00     0.020 A 
ATOM     78  C   UNL A   1      39.550  31.116  34.781  1.00  0.00     0.054 A 
BRANCH  78  79
ATOM     79  S   UNL A   1      38.583  31.403  36.293  1.00  0.00     0.124 S 
ATOM     80  O   UNL A   1      38.205  30.050  36.686  1.00  0.00    -0.237 OA
ATOM     81  O   UNL A   1      39.570  32.059  37.151  1.00  0.00    -0.237 OA
ATOM     82  O   UNL A   1      37.490  32.256  35.834  1.00  0.00    -0.744 OA
ENDBRANCH  78  79
ENDBRANCH  50  73
BRANCH  62  83
ATOM     83  C   UNL A   1      45.166  24.099  33.710  1.00  0.00    -0.014 A 
ATOM     84  C   UNL A   1      46.362  23.995  34.437  1.00  0.00     0.010 A 
ATOM     85  C   UNL A   1      44.305  22.974  33.744  1.00  0.00     0.010 A 
ATOM     86  C   UNL A   1      46.641  22.866  35.226  1.00  0.00     0.020 A 
ATOM     87  C   UNL A   1      44.582  21.835  34.507  1.00  0.00     0.020 A 
ATOM     88  C   UNL A   1      45.742  21.798  35.264  1.00  0.00     0.054 A 
BRANCH  88  89
ATOM     89  S   UNL A   1      46.131  20.347  36.277  1.00  0.00     0.124 S 
ATOM     90  O   UNL A   1      45.140  19.374  35.826  1.00  0.00    -0.237 OA
ATOM     91  O   UNL A   1      47.510  20.065  35.886  1.00  0.00    -0.237 OA
ATOM     92  O   UNL A   1      45.956  20.819  37.648  1.00  0.00    -0.744 OA
ENDBRANCH  88  89
ENDBRANCH  62  83
ENDBRANCH  36  37
ENDBRANCH  28  31
ENDBRANCH  26  27
ENDBRANCH  25  26
ENDBRANCH   1  25
TORSDOF 17
ENDMDL
