MODEL 1
REMARK VINA RESULT:     -10.5      0.000      0.000
REMARK SMILES CC(C)NC(=O)CNC(=O)N1CCO[C@@H](CC(=O)NCCCCNC(=O)c2ccc(-c3c4nc(c(-c5ccc(S(=O)(=O)[O-])cc5)c5ccc([nH]5)c(-c5ccc(S(=O)(=O)[O-])cc5)c5nc(c(-c6ccc(S(=O)(=O)[O-])cc6)c6ccc3[nH]6)C=C5)C=C4)cc2)C1
REMARK SMILES IDX 20 1 19 2 17 3 18 4 16 6 15 7 11 8 12 9 87 10 13 11 14 12
REMARK SMILES IDX 9 13 8 14 10 16 7 17 5 18 4 19 6 21 2 22 1 23 3 24 21 25
REMARK SMILES IDX 22 26 23 27 24 28 25 29 26 31 27 32 28 33 86 34 29 35 85 36
REMARK SMILES IDX 30 37 31 38 32 39 79 40 33 41 84 42 78 43 80 44 34 45 83 46
REMARK SMILES IDX 77 47 76 48 35 50 65 51 46 52 64 53 47 54 50 55 63 56 81 57
REMARK SMILES IDX 48 58 49 59 62 61 82 62 51 63 36 64 37 65 45 66 38 67 44 68
REMARK SMILES IDX 39 69 40 70 41 71 42 72 43 73 66 74 67 75 75 76 68 77 74 78
REMARK SMILES IDX 69 79 70 80 71 81 72 82 73 83 52 84 53 85 61 86 54 87 60 88
REMARK SMILES IDX 55 89 56 90 57 91 58 92 59 93
REMARK H PARENT 19 5 8 15 4 20 24 30 80 49 50 60
REMARK Flexibility Score: inf
ROOT
ATOM      1  C   UNL A   1      36.491  22.943  25.742  1.00  0.00     0.116 C 
ENDROOT
BRANCH   1   2
ATOM      2  N   UNL A   1      35.521  22.026  26.324  1.00  0.00    -0.356 N 
ATOM      3  C   UNL A   1      34.317  21.588  25.856  1.00  0.00     0.222 C 
ATOM      4  O   UNL A   1      33.592  20.954  26.627  1.00  0.00    -0.275 OA
ATOM      5  H   UNL A   1      35.778  21.661  27.201  1.00  0.00     0.163 HD
BRANCH   3   6
ATOM      6  C   UNL A   1      33.862  21.883  24.439  1.00  0.00     0.133 C 
BRANCH   6   7
ATOM      7  C   UNL A   1      33.151  23.235  24.322  1.00  0.00     0.147 C 
ATOM      8  N   UNL A   1      32.476  24.945  22.630  1.00  0.00    -0.320 N 
ATOM      9  C   UNL A   1      31.095  24.834  23.082  1.00  0.00     0.150 C 
ATOM     10  C   UNL A   1      33.273  23.770  22.897  1.00  0.00     0.154 C 
ATOM     11  C   UNL A   1      31.059  24.337  24.531  1.00  0.00     0.182 C 
ATOM     12  O   UNL A   1      31.759  23.083  24.671  1.00  0.00    -0.374 OA
BRANCH   8  13
ATOM     13  C   UNL A   1      32.834  25.697  21.538  1.00  0.00     0.318 C 
ATOM     14  N   UNL A   1      32.844  27.043  21.680  1.00  0.00    -0.329 N 
ATOM     15  H   UNL A   1      32.898  27.564  20.846  1.00  0.00     0.165 HD
ATOM     16  O   UNL A   1      33.276  25.204  20.503  1.00  0.00    -0.249 OA
BRANCH  14  17
ATOM     17  C   UNL A   1      32.787  27.818  22.907  1.00  0.00     0.217 C 
BRANCH  17  18
ATOM     18  C   UNL A   1      31.537  28.692  23.068  1.00  0.00     0.239 C 
ATOM     19  N   UNL A   1      31.277  29.366  24.225  1.00  0.00    -0.352 N 
ATOM     20  H   UNL A   1      30.423  29.856  24.232  1.00  0.00     0.163 HD
ATOM     21  O   UNL A   1      30.678  28.719  22.181  1.00  0.00    -0.273 OA
BRANCH  19  22
ATOM     22  C   UNL A   1      32.053  29.482  25.451  1.00  0.00     0.075 C 
ATOM     23  C   UNL A   1      31.777  30.820  26.125  1.00  0.00     0.030 C 
ATOM     24  C   UNL A   1      31.770  28.317  26.392  1.00  0.00     0.030 C 
ENDBRANCH  19  22
ENDBRANCH  17  18
ENDBRANCH  14  17
ENDBRANCH   8  13
ENDBRANCH   6   7
ENDBRANCH   3   6
ENDBRANCH   1   2
BRANCH   1  25
ATOM     25  C   UNL A   1      37.455  22.195  24.815  1.00  0.00     0.023 C 
BRANCH  25  26
ATOM     26  C   UNL A   1      38.079  20.930  25.368  1.00  0.00     0.023 C 
BRANCH  26  27
ATOM     27  C   UNL A   1      39.349  21.158  26.156  1.00  0.00     0.116 C 
BRANCH  27  28
ATOM     28  N   UNL A   1      40.315  20.074  26.060  1.00  0.00    -0.352 N 
ATOM     29  C   UNL A   1      41.688  20.145  26.173  1.00  0.00     0.251 C 
ATOM     30  H   UNL A   1      39.944  19.178  25.893  1.00  0.00     0.163 HD
ATOM     31  O   UNL A   1      42.382  19.152  26.016  1.00  0.00    -0.269 OA
BRANCH  29  32
ATOM     32  C   UNL A   1      42.308  21.463  26.436  1.00  0.00     0.039 A 
ATOM     33  C   UNL A   1      42.495  22.349  25.373  1.00  0.00     0.014 A 
ATOM     34  C   UNL A   1      42.612  21.851  27.741  1.00  0.00     0.014 A 
ATOM     35  C   UNL A   1      42.934  23.647  25.634  1.00  0.00     0.010 A 
ATOM     36  C   UNL A   1      42.912  23.177  28.009  1.00  0.00     0.010 A 
ATOM     37  C   UNL A   1      43.115  24.080  26.957  1.00  0.00    -0.014 A 
BRANCH  37  38
ATOM     38  C   UNL A   1      43.606  25.443  27.274  1.00  0.00     0.031 A 
ATOM     39  C   UNL A   1      45.055  25.776  27.014  1.00  0.00     0.074 A 
ATOM     40  C   UNL A   1      42.787  26.349  27.841  1.00  0.00     0.049 A 
ATOM     41  N   UNL A   1      45.713  26.871  27.287  1.00  0.00    -0.248 NA
ATOM     42  C   UNL A   1      45.885  24.717  26.409  1.00  0.00     0.031 C 
ATOM     43  C   UNL A   1      41.383  26.126  28.197  1.00  0.00     0.029 A 
ATOM     44  N   UNL A   1      43.020  27.647  28.217  1.00  0.00    -0.354 N 
ATOM     45  C   UNL A   1      47.031  26.617  26.923  1.00  0.00     0.074 A 
ATOM     46  C   UNL A   1      47.096  25.244  26.483  1.00  0.00     0.031 C 
ATOM     47  C   UNL A   1      40.869  27.262  28.699  1.00  0.00     0.029 A 
ATOM     48  C   UNL A   1      41.913  28.281  28.731  1.00  0.00     0.049 A 
ATOM     49  H   UNL A   1      43.897  28.084  28.129  1.00  0.00     0.167 HD
ATOM     50  C   UNL A   1      48.088  27.461  26.916  1.00  0.00     0.031 A 
ATOM     51  C   UNL A   1      41.758  29.547  29.164  1.00  0.00     0.031 A 
ATOM     52  C   UNL A   1      48.004  28.841  27.299  1.00  0.00     0.049 A 
ATOM     53  C   UNL A   1      42.932  30.487  29.092  1.00  0.00     0.074 A 
ATOM     54  C   UNL A   1      48.993  29.807  27.272  1.00  0.00     0.029 A 
ATOM     55  N   UNL A   1      46.850  29.458  27.761  1.00  0.00    -0.354 N 
ATOM     56  N   UNL A   1      44.159  30.243  28.695  1.00  0.00    -0.248 NA
ATOM     57  C   UNL A   1      42.694  31.877  29.501  1.00  0.00     0.031 C 
ATOM     58  C   UNL A   1      48.444  31.003  27.745  1.00  0.00     0.029 A 
ATOM     59  C   UNL A   1      47.101  30.793  28.019  1.00  0.00     0.049 A 
ATOM     60  H   UNL A   1      45.981  29.012  27.884  1.00  0.00     0.167 HD
ATOM     61  C   UNL A   1      44.829  31.458  28.770  1.00  0.00     0.074 A 
ATOM     62  C   UNL A   1      43.869  32.435  29.242  1.00  0.00     0.031 C 
ATOM     63  C   UNL A   1      46.121  31.745  28.473  1.00  0.00     0.031 A 
BRANCH  50  64
ATOM     64  C   UNL A   1      49.412  26.908  26.460  1.00  0.00    -0.014 A 
ATOM     65  C   UNL A   1      49.874  27.120  25.147  1.00  0.00     0.010 A 
ATOM     66  C   UNL A   1      50.210  26.172  27.354  1.00  0.00     0.010 A 
ATOM     67  C   UNL A   1      51.082  26.562  24.722  1.00  0.00     0.020 A 
ATOM     68  C   UNL A   1      51.436  25.640  26.941  1.00  0.00     0.020 A 
ATOM     69  C   UNL A   1      51.853  25.821  25.621  1.00  0.00     0.054 A 
BRANCH  69  70
ATOM     70  S   UNL A   1      53.425  25.124  25.048  1.00  0.00     0.124 S 
ATOM     71  O   UNL A   1      54.394  25.863  25.855  1.00  0.00    -0.237 OA
ATOM     72  O   UNL A   1      53.288  23.707  25.376  1.00  0.00    -0.237 OA
ATOM     73  O   UNL A   1      53.441  25.430  23.620  1.00  0.00    -0.744 OA
ENDBRANCH  69  70
ENDBRANCH  50  64
BRANCH  51  74
ATOM     74  C   UNL A   1      40.431  30.015  29.652  1.00  0.00    -0.014 A 
ATOM     75  C   UNL A   1      40.207  30.212  31.027  1.00  0.00     0.010 A 
ATOM     76  C   UNL A   1      39.386  30.274  28.747  1.00  0.00     0.010 A 
ATOM     77  C   UNL A   1      38.957  30.632  31.490  1.00  0.00     0.020 A 
ATOM     78  C   UNL A   1      38.142  30.720  29.204  1.00  0.00     0.020 A 
ATOM     79  C   UNL A   1      37.930  30.882  30.576  1.00  0.00     0.054 A 
BRANCH  79  80
ATOM     80  S   UNL A   1      36.327  31.465  31.195  1.00  0.00     0.124 S 
ATOM     81  O   UNL A   1      35.567  31.627  29.959  1.00  0.00    -0.237 OA
ATOM     82  O   UNL A   1      35.904  30.368  32.060  1.00  0.00    -0.237 OA
ATOM     83  O   UNL A   1      36.662  32.705  31.892  1.00  0.00    -0.744 OA
ENDBRANCH  79  80
ENDBRANCH  51  74
BRANCH  63  84
ATOM     84  C   UNL A   1      46.554  33.180  28.591  1.00  0.00    -0.014 A 
ATOM     85  C   UNL A   1      47.115  33.681  29.779  1.00  0.00     0.010 A 
ATOM     86  C   UNL A   1      46.444  34.024  27.471  1.00  0.00     0.010 A 
ATOM     87  C   UNL A   1      47.522  35.015  29.856  1.00  0.00     0.020 A 
ATOM     88  C   UNL A   1      46.874  35.350  27.536  1.00  0.00     0.020 A 
ATOM     89  C   UNL A   1      47.395  35.841  28.735  1.00  0.00     0.054 A 
BRANCH  89  90
ATOM     90  S   UNL A   1      47.959  37.562  28.848  1.00  0.00     0.124 S 
ATOM     91  O   UNL A   1      48.071  37.936  27.442  1.00  0.00    -0.237 OA
ATOM     92  O   UNL A   1      46.875  38.206  29.586  1.00  0.00    -0.237 OA
ATOM     93  O   UNL A   1      49.224  37.464  29.572  1.00  0.00    -0.744 OA
ENDBRANCH  89  90
ENDBRANCH  63  84
ENDBRANCH  37  38
ENDBRANCH  29  32
ENDBRANCH  27  28
ENDBRANCH  26  27
ENDBRANCH  25  26
ENDBRANCH   1  25
TORSDOF 19
ENDMDL
MODEL 2
REMARK VINA RESULT:     -10.4      2.212      3.965
REMARK SMILES CC(C)NC(=O)CNC(=O)N1CCO[C@@H](CC(=O)NCCCCNC(=O)c2ccc(-c3c4nc(c(-c5ccc(S(=O)(=O)[O-])cc5)c5ccc([nH]5)c(-c5ccc(S(=O)(=O)[O-])cc5)c5nc(c(-c6ccc(S(=O)(=O)[O-])cc6)c6ccc3[nH]6)C=C5)C=C4)cc2)C1
REMARK SMILES IDX 20 1 19 2 17 3 18 4 16 6 15 7 11 8 12 9 87 10 13 11 14 12
REMARK SMILES IDX 9 13 8 14 10 16 7 17 5 18 4 19 6 21 2 22 1 23 3 24 21 25
REMARK SMILES IDX 22 26 23 27 24 28 25 29 26 31 27 32 28 33 86 34 29 35 85 36
REMARK SMILES IDX 30 37 31 38 32 39 79 40 33 41 84 42 78 43 80 44 34 45 83 46
REMARK SMILES IDX 77 47 76 48 35 50 65 51 46 52 64 53 47 54 50 55 63 56 81 57
REMARK SMILES IDX 48 58 49 59 62 61 82 62 51 63 36 64 37 65 45 66 38 67 44 68
REMARK SMILES IDX 39 69 40 70 41 71 42 72 43 73 66 74 67 75 75 76 68 77 74 78
REMARK SMILES IDX 69 79 70 80 71 81 72 82 73 83 52 84 53 85 61 86 54 87 60 88
REMARK SMILES IDX 55 89 56 90 57 91 58 92 59 93
REMARK H PARENT 19 5 8 15 4 20 24 30 80 49 50 60
REMARK Flexibility Score: inf
ROOT
ATOM      1  C   UNL A   1      38.593  23.956  26.350  1.00  0.00     0.116 C 
ENDROOT
BRANCH   1   2
ATOM      2  N   UNL A   1      37.288  23.458  26.764  1.00  0.00    -0.356 N 
ATOM      3  C   UNL A   1      36.075  23.515  26.143  1.00  0.00     0.222 C 
ATOM      4  O   UNL A   1      35.078  23.185  26.788  1.00  0.00    -0.275 OA
ATOM      5  H   UNL A   1      37.281  23.006  27.637  1.00  0.00     0.163 HD
BRANCH   3   6
ATOM      6  C   UNL A   1      35.940  23.990  24.707  1.00  0.00     0.133 C 
BRANCH   6   7
ATOM      7  C   UNL A   1      35.005  23.101  23.883  1.00  0.00     0.147 C 
ATOM      8  N   UNL A   1      32.856  21.837  24.057  1.00  0.00    -0.320 N 
ATOM      9  C   UNL A   1      32.342  22.569  22.907  1.00  0.00     0.150 C 
ATOM     10  C   UNL A   1      33.902  22.533  24.772  1.00  0.00     0.154 C 
ATOM     11  C   UNL A   1      33.505  23.065  22.042  1.00  0.00     0.182 C 
ATOM     12  O   UNL A   1      34.422  23.872  22.811  1.00  0.00    -0.374 OA
BRANCH   8  13
ATOM     13  C   UNL A   1      32.076  20.977  24.790  1.00  0.00     0.318 C 
ATOM     14  N   UNL A   1      32.210  19.651  24.553  1.00  0.00    -0.329 N 
ATOM     15  H   UNL A   1      31.508  19.073  24.929  1.00  0.00     0.165 HD
ATOM     16  O   UNL A   1      31.380  21.345  25.733  1.00  0.00    -0.249 OA
BRANCH  14  17
ATOM     17  C   UNL A   1      33.260  18.972  23.815  1.00  0.00     0.217 C 
BRANCH  17  18
ATOM     18  C   UNL A   1      32.837  17.668  23.128  1.00  0.00     0.239 C 
ATOM     19  N   UNL A   1      32.935  16.462  23.757  1.00  0.00    -0.352 N 
ATOM     20  H   UNL A   1      32.680  15.688  23.204  1.00  0.00     0.163 HD
ATOM     21  O   UNL A   1      32.493  17.672  21.942  1.00  0.00    -0.273 OA
BRANCH  19  22
ATOM     22  C   UNL A   1      33.354  16.129  25.111  1.00  0.00     0.075 C 
ATOM     23  C   UNL A   1      32.630  14.878  25.594  1.00  0.00     0.030 C 
ATOM     24  C   UNL A   1      34.867  15.959  25.191  1.00  0.00     0.030 C 
ENDBRANCH  19  22
ENDBRANCH  17  18
ENDBRANCH  14  17
ENDBRANCH   8  13
ENDBRANCH   6   7
ENDBRANCH   3   6
ENDBRANCH   1   2
BRANCH   1  25
ATOM     25  C   UNL A   1      39.696  22.961  26.728  1.00  0.00     0.023 C 
BRANCH  25  26
ATOM     26  C   UNL A   1      39.594  21.576  26.121  1.00  0.00     0.023 C 
BRANCH  26  27
ATOM     27  C   UNL A   1      40.292  20.497  26.916  1.00  0.00     0.116 C 
BRANCH  27  28
ATOM     28  N   UNL A   1      41.190  19.662  26.131  1.00  0.00    -0.352 N 
ATOM     29  C   UNL A   1      42.441  19.980  25.643  1.00  0.00     0.251 C 
ATOM     30  H   UNL A   1      40.864  18.757  25.922  1.00  0.00     0.163 HD
ATOM     31  O   UNL A   1      43.062  19.190  24.950  1.00  0.00    -0.269 OA
BRANCH  29  32
ATOM     32  C   UNL A   1      42.991  21.323  25.934  1.00  0.00     0.039 A 
ATOM     33  C   UNL A   1      42.973  22.295  24.933  1.00  0.00     0.014 A 
ATOM     34  C   UNL A   1      43.434  21.639  27.218  1.00  0.00     0.014 A 
ATOM     35  C   UNL A   1      43.346  23.603  25.242  1.00  0.00     0.010 A 
ATOM     36  C   UNL A   1      43.670  22.962  27.555  1.00  0.00     0.010 A 
ATOM     37  C   UNL A   1      43.667  23.952  26.563  1.00  0.00    -0.014 A 
BRANCH  37  38
ATOM     38  C   UNL A   1      44.094  25.325  26.928  1.00  0.00     0.031 A 
ATOM     39  C   UNL A   1      45.526  25.733  26.682  1.00  0.00     0.074 A 
ATOM     40  C   UNL A   1      43.233  26.173  27.522  1.00  0.00     0.049 A 
ATOM     41  N   UNL A   1      46.132  26.847  26.994  1.00  0.00    -0.248 NA
ATOM     42  C   UNL A   1      46.405  24.735  26.044  1.00  0.00     0.031 C 
ATOM     43  C   UNL A   1      41.841  25.873  27.868  1.00  0.00     0.029 A 
ATOM     44  N   UNL A   1      43.406  27.467  27.943  1.00  0.00    -0.354 N 
ATOM     45  C   UNL A   1      47.461  26.667  26.625  1.00  0.00     0.074 A 
ATOM     46  C   UNL A   1      47.590  25.314  26.139  1.00  0.00     0.031 C 
ATOM     47  C   UNL A   1      41.275  26.967  28.406  1.00  0.00     0.029 A 
ATOM     48  C   UNL A   1      42.270  28.032  28.475  1.00  0.00     0.049 A 
ATOM     49  H   UNL A   1      44.262  27.946  27.872  1.00  0.00     0.167 HD
ATOM     50  C   UNL A   1      48.479  27.558  26.649  1.00  0.00     0.031 A 
ATOM     51  C   UNL A   1      42.057  29.273  28.951  1.00  0.00     0.031 A 
ATOM     52  C   UNL A   1      48.330  28.919  27.078  1.00  0.00     0.049 A 
ATOM     53  C   UNL A   1      43.186  30.268  28.913  1.00  0.00     0.074 A 
ATOM     54  C   UNL A   1      49.274  29.930  27.086  1.00  0.00     0.029 A 
ATOM     55  N   UNL A   1      47.149  29.467  27.557  1.00  0.00    -0.354 N 
ATOM     56  N   UNL A   1      44.424  30.094  28.511  1.00  0.00    -0.248 NA
ATOM     57  C   UNL A   1      42.885  31.632  29.368  1.00  0.00     0.031 C 
ATOM     58  C   UNL A   1      48.670  31.083  27.598  1.00  0.00     0.029 A 
ATOM     59  C   UNL A   1      47.338  30.802  27.861  1.00  0.00     0.049 A 
ATOM     60  H   UNL A   1      46.302  28.977  27.664  1.00  0.00     0.167 HD
ATOM     61  C   UNL A   1      45.037  31.336  28.629  1.00  0.00     0.074 A 
ATOM     62  C   UNL A   1      44.032  32.252  29.131  1.00  0.00     0.031 C 
ATOM     63  C   UNL A   1      46.315  31.692  28.345  1.00  0.00     0.031 A 
BRANCH  50  64
ATOM     64  C   UNL A   1      49.827  27.083  26.177  1.00  0.00    -0.014 A 
ATOM     65  C   UNL A   1      50.230  27.253  24.839  1.00  0.00     0.010 A 
ATOM     66  C   UNL A   1      50.707  26.462  27.082  1.00  0.00     0.010 A 
ATOM     67  C   UNL A   1      51.464  26.766  24.403  1.00  0.00     0.020 A 
ATOM     68  C   UNL A   1      51.957  26.002  26.656  1.00  0.00     0.020 A 
ATOM     69  C   UNL A   1      52.319  26.139  25.314  1.00  0.00     0.054 A 
BRANCH  69  70
ATOM     70  S   UNL A   1      53.922  25.531  24.726  1.00  0.00     0.124 S 
ATOM     71  O   UNL A   1      54.837  26.087  25.720  1.00  0.00    -0.237 OA
ATOM     72  O   UNL A   1      53.753  24.082  24.769  1.00  0.00    -0.237 OA
ATOM     73  O   UNL A   1      54.039  26.101  23.386  1.00  0.00    -0.744 OA
ENDBRANCH  69  70
ENDBRANCH  50  64
BRANCH  51  74
ATOM     74  C   UNL A   1      40.710  29.663  29.451  1.00  0.00    -0.014 A 
ATOM     75  C   UNL A   1      40.486  29.840  30.828  1.00  0.00     0.010 A 
ATOM     76  C   UNL A   1      39.645  29.867  28.555  1.00  0.00     0.010 A 
ATOM     77  C   UNL A   1      39.217  30.186  31.304  1.00  0.00     0.020 A 
ATOM     78  C   UNL A   1      38.381  30.240  29.024  1.00  0.00     0.020 A 
ATOM     79  C   UNL A   1      38.171  30.383  30.398  1.00  0.00     0.054 A 
BRANCH  79  80
ATOM     80  S   UNL A   1      36.542  30.871  31.032  1.00  0.00     0.124 S 
ATOM     81  O   UNL A   1      35.805  31.134  29.800  1.00  0.00    -0.237 OA
ATOM     82  O   UNL A   1      36.126  29.687  31.780  1.00  0.00    -0.237 OA
ATOM     83  O   UNL A   1      36.833  32.045  31.851  1.00  0.00    -0.744 OA
ENDBRANCH  79  80
ENDBRANCH  51  74
BRANCH  63  84
ATOM     84  C   UNL A   1      46.681  33.140  28.512  1.00  0.00    -0.014 A 
ATOM     85  C   UNL A   1      47.148  33.641  29.740  1.00  0.00     0.010 A 
ATOM     86  C   UNL A   1      46.605  34.001  27.402  1.00  0.00     0.010 A 
ATOM     87  C   UNL A   1      47.495  34.989  29.864  1.00  0.00     0.020 A 
ATOM     88  C   UNL A   1      46.977  35.341  27.514  1.00  0.00     0.020 A 
ATOM     89  C   UNL A   1      47.403  35.830  28.751  1.00  0.00     0.054 A 
BRANCH  89  90
ATOM     90  S   UNL A   1      47.888  37.569  28.926  1.00  0.00     0.124 S 
ATOM     91  O   UNL A   1      49.215  37.575  28.317  1.00  0.00    -0.237 OA
ATOM     92  O   UNL A   1      46.848  38.270  28.177  1.00  0.00    -0.237 OA
ATOM     93  O   UNL A   1      47.863  37.791  30.370  1.00  0.00    -0.744 OA
ENDBRANCH  89  90
ENDBRANCH  63  84
ENDBRANCH  37  38
ENDBRANCH  29  32
ENDBRANCH  27  28
ENDBRANCH  26  27
ENDBRANCH  25  26
ENDBRANCH   1  25
TORSDOF 19
ENDMDL
MODEL 3
REMARK VINA RESULT:     -10.4      6.258     10.667
REMARK SMILES CC(C)NC(=O)CNC(=O)N1CCO[C@@H](CC(=O)NCCCCNC(=O)c2ccc(-c3c4nc(c(-c5ccc(S(=O)(=O)[O-])cc5)c5ccc([nH]5)c(-c5ccc(S(=O)(=O)[O-])cc5)c5nc(c(-c6ccc(S(=O)(=O)[O-])cc6)c6ccc3[nH]6)C=C5)C=C4)cc2)C1
REMARK SMILES IDX 20 1 19 2 17 3 18 4 16 6 15 7 11 8 12 9 87 10 13 11 14 12
REMARK SMILES IDX 9 13 8 14 10 16 7 17 5 18 4 19 6 21 2 22 1 23 3 24 21 25
REMARK SMILES IDX 22 26 23 27 24 28 25 29 26 31 27 32 28 33 86 34 29 35 85 36
REMARK SMILES IDX 30 37 31 38 32 39 79 40 33 41 84 42 78 43 80 44 34 45 83 46
REMARK SMILES IDX 77 47 76 48 35 50 65 51 46 52 64 53 47 54 50 55 63 56 81 57
REMARK SMILES IDX 48 58 49 59 62 61 82 62 51 63 36 64 37 65 45 66 38 67 44 68
REMARK SMILES IDX 39 69 40 70 41 71 42 72 43 73 66 74 67 75 75 76 68 77 74 78
REMARK SMILES IDX 69 79 70 80 71 81 72 82 73 83 52 84 53 85 61 86 54 87 60 88
REMARK SMILES IDX 55 89 56 90 57 91 58 92 59 93
REMARK H PARENT 19 5 8 15 4 20 24 30 80 49 50 60
REMARK Flexibility Score: inf
ROOT
ATOM      1  C   UNL A   1      37.284  21.470  25.437  1.00  0.00     0.116 C 
ENDROOT
BRANCH   1   2
ATOM      2  N   UNL A   1      36.090  20.865  24.863  1.00  0.00    -0.356 N 
ATOM      3  C   UNL A   1      34.790  20.892  25.277  1.00  0.00     0.222 C 
ATOM      4  O   UNL A   1      33.988  20.140  24.720  1.00  0.00    -0.275 OA
ATOM      5  H   UNL A   1      36.247  20.350  24.040  1.00  0.00     0.163 HD
BRANCH   3   6
ATOM      6  C   UNL A   1      34.336  21.803  26.404  1.00  0.00     0.133 C 
BRANCH   6   7
ATOM      7  C   UNL A   1      33.360  22.882  25.926  1.00  0.00     0.147 C 
ATOM      8  N   UNL A   1      32.763  24.215  23.899  1.00  0.00    -0.320 N 
ATOM      9  C   UNL A   1      31.389  23.739  24.001  1.00  0.00     0.150 C 
ATOM     10  C   UNL A   1      33.731  23.339  24.517  1.00  0.00     0.154 C 
ATOM     11  C   UNL A   1      31.080  23.344  25.449  1.00  0.00     0.182 C 
ATOM     12  O   UNL A   1      32.015  22.357  25.932  1.00  0.00    -0.374 OA
BRANCH   8  13
ATOM     13  C   UNL A   1      33.203  24.970  22.839  1.00  0.00     0.318 C 
ATOM     14  N   UNL A   1      33.190  26.315  22.978  1.00  0.00    -0.329 N 
ATOM     15  H   UNL A   1      33.308  26.836  22.151  1.00  0.00     0.165 HD
ATOM     16  O   UNL A   1      33.731  24.479  21.844  1.00  0.00    -0.249 OA
BRANCH  14  17
ATOM     17  C   UNL A   1      33.027  27.091  24.195  1.00  0.00     0.217 C 
BRANCH  17  18
ATOM     18  C   UNL A   1      33.664  28.486  24.170  1.00  0.00     0.239 C 
ATOM     19  N   UNL A   1      34.059  29.115  25.313  1.00  0.00    -0.352 N 
ATOM     20  H   UNL A   1      34.409  30.026  25.181  1.00  0.00     0.163 HD
ATOM     21  O   UNL A   1      33.737  29.118  23.111  1.00  0.00    -0.273 OA
BRANCH  19  22
ATOM     22  C   UNL A   1      34.047  28.664  26.697  1.00  0.00     0.075 C 
ATOM     23  C   UNL A   1      35.093  29.421  27.507  1.00  0.00     0.030 C 
ATOM     24  C   UNL A   1      32.659  28.809  27.311  1.00  0.00     0.030 C 
ENDBRANCH  19  22
ENDBRANCH  17  18
ENDBRANCH  14  17
ENDBRANCH   8  13
ENDBRANCH   6   7
ENDBRANCH   3   6
ENDBRANCH   1   2
BRANCH   1  25
ATOM     25  C   UNL A   1      37.444  22.915  24.953  1.00  0.00     0.023 C 
BRANCH  25  26
ATOM     26  C   UNL A   1      37.300  23.999  26.002  1.00  0.00     0.023 C 
BRANCH  26  27
ATOM     27  C   UNL A   1      38.563  24.276  26.785  1.00  0.00     0.116 C 
BRANCH  27  28
ATOM     28  N   UNL A   1      39.719  24.599  25.962  1.00  0.00    -0.352 N 
ATOM     29  C   UNL A   1      40.628  25.622  26.133  1.00  0.00     0.251 C 
ATOM     30  H   UNL A   1      39.872  24.014  25.185  1.00  0.00     0.163 HD
ATOM     31  O   UNL A   1      41.525  25.805  25.326  1.00  0.00    -0.269 OA
BRANCH  29  32
ATOM     32  C   UNL A   1      40.459  26.530  27.290  1.00  0.00     0.039 A 
ATOM     33  C   UNL A   1      39.751  26.081  28.406  1.00  0.00     0.014 A 
ATOM     34  C   UNL A   1      41.079  27.780  27.302  1.00  0.00     0.014 A 
ATOM     35  C   UNL A   1      39.718  26.869  29.557  1.00  0.00     0.010 A 
ATOM     36  C   UNL A   1      41.161  28.493  28.487  1.00  0.00     0.010 A 
ATOM     37  C   UNL A   1      40.449  28.066  29.616  1.00  0.00    -0.014 A 
BRANCH  37  38
ATOM     38  C   UNL A   1      40.418  28.944  30.811  1.00  0.00     0.031 A 
ATOM     39  C   UNL A   1      39.388  30.044  30.882  1.00  0.00     0.074 A 
ATOM     40  C   UNL A   1      41.332  28.798  31.789  1.00  0.00     0.049 A 
ATOM     41  N   UNL A   1      39.231  30.972  31.788  1.00  0.00    -0.248 NA
ATOM     42  C   UNL A   1      38.438  30.143  29.758  1.00  0.00     0.031 C 
ATOM     43  C   UNL A   1      42.415  27.811  31.806  1.00  0.00     0.029 A 
ATOM     44  N   UNL A   1      41.496  29.485  32.964  1.00  0.00    -0.354 N 
ATOM     45  C   UNL A   1      38.197  31.778  31.324  1.00  0.00     0.074 A 
ATOM     46  C   UNL A   1      37.815  31.279  30.025  1.00  0.00     0.031 C 
ATOM     47  C   UNL A   1      43.102  27.928  32.955  1.00  0.00     0.029 A 
ATOM     48  C   UNL A   1      42.530  29.018  33.740  1.00  0.00     0.049 A 
ATOM     49  H   UNL A   1      40.926  30.243  33.228  1.00  0.00     0.167 HD
ATOM     50  C   UNL A   1      37.588  32.817  31.940  1.00  0.00     0.031 A 
ATOM     51  C   UNL A   1      42.958  29.417  34.953  1.00  0.00     0.031 A 
ATOM     52  C   UNL A   1      37.933  33.271  33.257  1.00  0.00     0.049 A 
ATOM     53  C   UNL A   1      42.229  30.536  35.647  1.00  0.00     0.074 A 
ATOM     54  C   UNL A   1      37.344  34.273  34.007  1.00  0.00     0.029 A 
ATOM     55  N   UNL A   1      38.951  32.733  34.031  1.00  0.00    -0.354 N 
ATOM     56  N   UNL A   1      41.217  31.253  35.214  1.00  0.00    -0.248 NA
ATOM     57  C   UNL A   1      42.680  30.883  37.001  1.00  0.00     0.031 C 
ATOM     58  C   UNL A   1      38.025  34.360  35.225  1.00  0.00     0.029 A 
ATOM     59  C   UNL A   1      39.005  33.379  35.252  1.00  0.00     0.049 A 
ATOM     60  H   UNL A   1      39.545  32.000  33.752  1.00  0.00     0.167 HD
ATOM     61  C   UNL A   1      40.888  32.110  36.258  1.00  0.00     0.074 A 
ATOM     62  C   UNL A   1      41.801  31.815  37.344  1.00  0.00     0.031 C 
ATOM     63  C   UNL A   1      39.916  33.053  36.319  1.00  0.00     0.031 A 
BRANCH  50  64
ATOM     64  C   UNL A   1      36.478  33.510  31.195  1.00  0.00    -0.014 A 
ATOM     65  C   UNL A   1      35.188  33.616  31.747  1.00  0.00     0.010 A 
ATOM     66  C   UNL A   1      36.726  34.068  29.928  1.00  0.00     0.010 A 
ATOM     67  C   UNL A   1      34.155  34.219  31.026  1.00  0.00     0.020 A 
ATOM     68  C   UNL A   1      35.703  34.702  29.217  1.00  0.00     0.020 A 
ATOM     69  C   UNL A   1      34.418  34.754  29.763  1.00  0.00     0.054 A 
BRANCH  69  70
ATOM     70  S   UNL A   1      33.064  35.547  28.855  1.00  0.00     0.124 S 
ATOM     71  O   UNL A   1      33.789  36.434  27.949  1.00  0.00    -0.237 OA
ATOM     72  O   UNL A   1      32.393  34.415  28.222  1.00  0.00    -0.237 OA
ATOM     73  O   UNL A   1      32.293  36.218  29.899  1.00  0.00    -0.744 OA
ENDBRANCH  69  70
ENDBRANCH  50  64
BRANCH  51  74
ATOM     74  C   UNL A   1      44.097  28.720  35.613  1.00  0.00    -0.014 A 
ATOM     75  C   UNL A   1      45.414  29.176  35.427  1.00  0.00     0.010 A 
ATOM     76  C   UNL A   1      43.872  27.602  36.436  1.00  0.00     0.010 A 
ATOM     77  C   UNL A   1      46.488  28.512  36.028  1.00  0.00     0.020 A 
ATOM     78  C   UNL A   1      44.941  26.952  37.061  1.00  0.00     0.020 A 
ATOM     79  C   UNL A   1      46.245  27.402  36.842  1.00  0.00     0.054 A 
BRANCH  79  80
ATOM     80  S   UNL A   1      47.648  26.580  37.645  1.00  0.00     0.124 S 
ATOM     81  O   UNL A   1      48.750  26.918  36.749  1.00  0.00    -0.237 OA
ATOM     82  O   UNL A   1      47.680  27.218  38.958  1.00  0.00    -0.237 OA
ATOM     83  O   UNL A   1      47.258  25.172  37.655  1.00  0.00    -0.744 OA
ENDBRANCH  79  80
ENDBRANCH  51  74
BRANCH  63  84
ATOM     84  C   UNL A   1      39.751  33.792  37.618  1.00  0.00    -0.014 A 
ATOM     85  C   UNL A   1      40.511  34.938  37.911  1.00  0.00     0.010 A 
ATOM     86  C   UNL A   1      38.777  33.357  38.536  1.00  0.00     0.010 A 
ATOM     87  C   UNL A   1      40.326  35.612  39.121  1.00  0.00     0.020 A 
ATOM     88  C   UNL A   1      38.571  34.045  39.733  1.00  0.00     0.020 A 
ATOM     89  C   UNL A   1      39.361  35.159  40.025  1.00  0.00     0.054 A 
BRANCH  89  90
ATOM     90  S   UNL A   1      39.117  36.069  41.574  1.00  0.00     0.124 S 
ATOM     91  O   UNL A   1      37.878  35.485  42.076  1.00  0.00    -0.237 OA
ATOM     92  O   UNL A   1      40.321  35.739  42.333  1.00  0.00    -0.237 OA
ATOM     93  O   UNL A   1      39.023  37.463  41.146  1.00  0.00    -0.744 OA
ENDBRANCH  89  90
ENDBRANCH  63  84
ENDBRANCH  37  38
ENDBRANCH  29  32
ENDBRANCH  27  28
ENDBRANCH  26  27
ENDBRANCH  25  26
ENDBRANCH   1  25
TORSDOF 19
ENDMDL
