MODEL 1
REMARK VINA RESULT:     -10.8      0.000      0.000
REMARK SMILES CC[C@@H](C)[C@H](NC(=O)CCc1ccc(F)c(F)c1)C(=O)NCCCCNC(=O)c1ccc(-c2c3nc(c(-c4ccc(S(=O)(=O)[O-])cc4)c4ccc([nH]4)c(-c4ccc(S(=O)(=O)[O-])cc4)c4nc(c(-c5ccc(S(=O)(=O)[O-])cc5)c5ccc2[nH]5)C=C4)C=C3)cc1
REMARK SMILES IDX 23 1 22 2 21 3 19 4 20 5 5 7 3 8 4 9 2 10 1 11 6 12 7 13
REMARK SMILES IDX 8 15 9 16 10 17 11 18 12 19 18 20 13 21 16 22 14 23 17 24
REMARK SMILES IDX 15 25 24 26 25 27 26 28 27 29 28 31 29 32 30 33 88 34 31 35
REMARK SMILES IDX 87 36 32 37 33 38 34 39 81 40 35 41 86 42 80 43 82 44 36 45
REMARK SMILES IDX 85 46 79 47 78 48 37 50 67 51 48 52 66 53 49 54 52 55 65 56
REMARK SMILES IDX 83 57 50 58 51 59 64 61 84 62 53 63 38 64 39 65 47 66 40 67
REMARK SMILES IDX 46 68 41 69 42 70 43 71 44 72 45 73 68 74 69 75 77 76 70 77
REMARK SMILES IDX 76 78 71 79 72 80 73 81 74 82 75 83 54 84 55 85 63 86 56 87
REMARK SMILES IDX 62 88 57 89 58 90 59 91 60 92 61 93
REMARK H PARENT 21 6 6 14 26 30 82 49 52 60
REMARK Flexibility Score: inf
ROOT
ATOM      1  C   UNL A   1      32.957  28.955  24.643  1.00  0.00     0.023 C 
ENDROOT
BRANCH   1   2
ATOM      2  C   UNL A   1      34.287  28.430  24.121  1.00  0.00     0.116 C 
BRANCH   2   3
ATOM      3  N   UNL A   1      34.199  27.864  22.802  1.00  0.00    -0.354 N 
ATOM      4  C   UNL A   1      33.709  26.661  22.413  1.00  0.00     0.242 C 
ATOM      5  O   UNL A   1      33.580  26.471  21.199  1.00  0.00    -0.273 OA
ATOM      6  H   UNL A   1      34.544  28.432  22.075  1.00  0.00     0.163 HD
BRANCH   4   7
ATOM      7  C   UNL A   1      33.245  25.596  23.428  1.00  0.00     0.174 C 
BRANCH   7   8
ATOM      8  C   UNL A   1      34.443  24.811  24.091  1.00  0.00     0.018 C 
ATOM      9  C   UNL A   1      34.849  23.573  23.277  1.00  0.00     0.010 C 
BRANCH   8  10
ATOM     10  C   UNL A   1      34.360  24.560  25.627  1.00  0.00     0.002 C 
ATOM     11  C   UNL A   1      33.024  24.833  26.305  1.00  0.00     0.004 C 
ENDBRANCH   8  10
ENDBRANCH   7   8
BRANCH   7  12
ATOM     12  N   UNL A   1      32.147  24.726  22.976  1.00  0.00    -0.344 N 
ATOM     13  C   UNL A   1      30.811  24.800  23.239  1.00  0.00     0.220 C 
ATOM     14  H   UNL A   1      32.418  23.979  22.396  1.00  0.00     0.164 HD
ATOM     15  O   UNL A   1      30.156  23.761  23.130  1.00  0.00    -0.275 OA
BRANCH  13  16
ATOM     16  C   UNL A   1      30.135  26.105  23.607  1.00  0.00     0.105 C 
BRANCH  16  17
ATOM     17  C   UNL A   1      30.472  27.238  22.642  1.00  0.00     0.045 C 
BRANCH  17  18
ATOM     18  C   UNL A   1      29.512  28.398  22.752  1.00  0.00    -0.044 A 
ATOM     19  C   UNL A   1      28.192  28.177  23.180  1.00  0.00     0.007 A 
ATOM     20  C   UNL A   1      29.943  29.711  22.507  1.00  0.00     0.046 A 
ATOM     21  C   UNL A   1      27.329  29.253  23.397  1.00  0.00     0.043 A 
ATOM     22  C   UNL A   1      29.071  30.776  22.710  1.00  0.00     0.159 A 
ATOM     23  C   UNL A   1      27.777  30.549  23.164  1.00  0.00     0.158 A 
ATOM     24  F   UNL A   1      29.490  32.027  22.476  1.00  0.00    -0.204 F 
ATOM     25  F   UNL A   1      26.949  31.578  23.393  1.00  0.00    -0.204 F 
ENDBRANCH  17  18
ENDBRANCH  16  17
ENDBRANCH  13  16
ENDBRANCH   7  12
ENDBRANCH   4   7
ENDBRANCH   2   3
ENDBRANCH   1   2
BRANCH   1  26
ATOM     26  C   UNL A   1      32.557  28.455  26.029  1.00  0.00     0.023 C 
BRANCH  26  27
ATOM     27  C   UNL A   1      33.564  28.715  27.141  1.00  0.00     0.116 C 
BRANCH  27  28
ATOM     28  N   UNL A   1      33.550  30.081  27.646  1.00  0.00    -0.352 N 
ATOM     29  C   UNL A   1      34.590  30.782  28.206  1.00  0.00     0.251 C 
ATOM     30  H   UNL A   1      32.692  30.559  27.579  1.00  0.00     0.163 HD
ATOM     31  O   UNL A   1      34.443  31.936  28.587  1.00  0.00    -0.269 OA
BRANCH  29  32
ATOM     32  C   UNL A   1      35.869  30.077  28.396  1.00  0.00     0.039 A 
ATOM     33  C   UNL A   1      36.793  30.097  27.351  1.00  0.00     0.014 A 
ATOM     34  C   UNL A   1      36.200  29.551  29.648  1.00  0.00     0.014 A 
ATOM     35  C   UNL A   1      38.094  29.658  27.587  1.00  0.00     0.010 A 
ATOM     36  C   UNL A   1      37.515  29.175  29.896  1.00  0.00     0.010 A 
ATOM     37  C   UNL A   1      38.474  29.239  28.871  1.00  0.00    -0.014 A 
BRANCH  37  38
ATOM     38  C   UNL A   1      39.880  28.882  29.175  1.00  0.00     0.031 A 
ATOM     39  C   UNL A   1      40.804  29.923  29.736  1.00  0.00     0.074 A 
ATOM     40  C   UNL A   1      40.339  27.655  28.859  1.00  0.00     0.049 A 
ATOM     41  N   UNL A   1      42.087  29.843  29.971  1.00  0.00    -0.248 NA
ATOM     42  C   UNL A   1      40.215  31.238  30.045  1.00  0.00     0.031 C 
ATOM     43  C   UNL A   1      39.545  26.578  28.259  1.00  0.00     0.029 A 
ATOM     44  N   UNL A   1      41.593  27.111  28.978  1.00  0.00    -0.354 N 
ATOM     45  C   UNL A   1      42.466  31.101  30.422  1.00  0.00     0.074 A 
ATOM     46  C   UNL A   1      41.285  31.936  30.398  1.00  0.00     0.031 C 
ATOM     47  C   UNL A   1      40.330  25.503  28.073  1.00  0.00     0.029 A 
ATOM     48  C   UNL A   1      41.686  25.823  28.503  1.00  0.00     0.049 A 
ATOM     49  H   UNL A   1      42.356  27.597  29.369  1.00  0.00     0.167 HD
ATOM     50  C   UNL A   1      43.685  31.517  30.831  1.00  0.00     0.031 A 
ATOM     51  C   UNL A   1      42.749  25.001  28.410  1.00  0.00     0.031 A 
ATOM     52  C   UNL A   1      44.844  30.672  30.887  1.00  0.00     0.049 A 
ATOM     53  C   UNL A   1      44.090  25.483  28.891  1.00  0.00     0.074 A 
ATOM     54  C   UNL A   1      46.102  30.969  31.379  1.00  0.00     0.029 A 
ATOM     55  N   UNL A   1      44.890  29.363  30.432  1.00  0.00    -0.354 N 
ATOM     56  N   UNL A   1      44.407  26.648  29.404  1.00  0.00    -0.248 NA
ATOM     57  C   UNL A   1      45.214  24.542  28.784  1.00  0.00     0.031 C 
ATOM     58  C   UNL A   1      46.922  29.854  31.181  1.00  0.00     0.029 A 
ATOM     59  C   UNL A   1      46.162  28.848  30.604  1.00  0.00     0.049 A 
ATOM     60  H   UNL A   1      44.130  28.872  30.043  1.00  0.00     0.167 HD
ATOM     61  C   UNL A   1      45.764  26.574  29.695  1.00  0.00     0.074 A 
ATOM     62  C   UNL A   1      46.203  25.246  29.318  1.00  0.00     0.031 C 
ATOM     63  C   UNL A   1      46.575  27.522  30.225  1.00  0.00     0.031 A 
BRANCH  50  64
ATOM     64  C   UNL A   1      43.828  32.955  31.249  1.00  0.00    -0.014 A 
ATOM     65  C   UNL A   1      44.211  33.944  30.326  1.00  0.00     0.010 A 
ATOM     66  C   UNL A   1      43.531  33.327  32.572  1.00  0.00     0.010 A 
ATOM     67  C   UNL A   1      44.325  35.277  30.727  1.00  0.00     0.020 A 
ATOM     68  C   UNL A   1      43.621  34.663  32.971  1.00  0.00     0.020 A 
ATOM     69  C   UNL A   1      44.032  35.628  32.049  1.00  0.00     0.054 A 
BRANCH  69  70
ATOM     70  S   UNL A   1      44.155  37.371  32.533  1.00  0.00     0.124 S 
ATOM     71  O   UNL A   1      43.145  37.462  33.585  1.00  0.00    -0.237 OA
ATOM     72  O   UNL A   1      45.540  37.484  32.982  1.00  0.00    -0.237 OA
ATOM     73  O   UNL A   1      43.841  38.095  31.304  1.00  0.00    -0.744 OA
ENDBRANCH  69  70
ENDBRANCH  50  64
BRANCH  51  74
ATOM     74  C   UNL A   1      42.592  23.640  27.829  1.00  0.00    -0.014 A 
ATOM     75  C   UNL A   1      42.851  23.411  26.466  1.00  0.00     0.010 A 
ATOM     76  C   UNL A   1      42.185  22.564  28.638  1.00  0.00     0.010 A 
ATOM     77  C   UNL A   1      42.682  22.136  25.917  1.00  0.00     0.020 A 
ATOM     78  C   UNL A   1      42.038  21.283  28.099  1.00  0.00     0.020 A 
ATOM     79  C   UNL A   1      42.275  21.080  26.737  1.00  0.00     0.054 A 
BRANCH  79  80
ATOM     80  S   UNL A   1      42.102  19.422  26.017  1.00  0.00     0.124 S 
ATOM     81  O   UNL A   1      42.922  19.529  24.814  1.00  0.00    -0.237 OA
ATOM     82  O   UNL A   1      42.633  18.562  27.071  1.00  0.00    -0.237 OA
ATOM     83  O   UNL A   1      40.664  19.300  25.790  1.00  0.00    -0.744 OA
ENDBRANCH  79  80
ENDBRANCH  51  74
BRANCH  63  84
ATOM     84  C   UNL A   1      48.017  27.158  30.445  1.00  0.00    -0.014 A 
ATOM     85  C   UNL A   1      48.970  27.349  29.431  1.00  0.00     0.010 A 
ATOM     86  C   UNL A   1      48.434  26.701  31.708  1.00  0.00     0.010 A 
ATOM     87  C   UNL A   1      50.318  27.077  29.674  1.00  0.00     0.020 A 
ATOM     88  C   UNL A   1      49.783  26.450  31.960  1.00  0.00     0.020 A 
ATOM     89  C   UNL A   1      50.717  26.633  30.938  1.00  0.00     0.054 A 
BRANCH  89  90
ATOM     90  S   UNL A   1      52.482  26.357  31.251  1.00  0.00     0.124 S 
ATOM     91  O   UNL A   1      52.478  25.035  31.869  1.00  0.00    -0.237 OA
ATOM     92  O   UNL A   1      53.062  26.425  29.911  1.00  0.00    -0.237 OA
ATOM     93  O   UNL A   1      52.852  27.459  32.137  1.00  0.00    -0.744 OA
ENDBRANCH  89  90
ENDBRANCH  63  84
ENDBRANCH  37  38
ENDBRANCH  29  32
ENDBRANCH  27  28
ENDBRANCH  26  27
ENDBRANCH   1  26
TORSDOF 20
ENDMDL
MODEL 2
REMARK VINA RESULT:     -10.4      1.926      3.562
REMARK SMILES CC[C@@H](C)[C@H](NC(=O)CCc1ccc(F)c(F)c1)C(=O)NCCCCNC(=O)c1ccc(-c2c3nc(c(-c4ccc(S(=O)(=O)[O-])cc4)c4ccc([nH]4)c(-c4ccc(S(=O)(=O)[O-])cc4)c4nc(c(-c5ccc(S(=O)(=O)[O-])cc5)c5ccc2[nH]5)C=C4)C=C3)cc1
REMARK SMILES IDX 23 1 22 2 21 3 19 4 20 5 5 7 3 8 4 9 2 10 1 11 6 12 7 13
REMARK SMILES IDX 8 15 9 16 10 17 11 18 12 19 18 20 13 21 16 22 14 23 17 24
REMARK SMILES IDX 15 25 24 26 25 27 26 28 27 29 28 31 29 32 30 33 88 34 31 35
REMARK SMILES IDX 87 36 32 37 33 38 34 39 81 40 35 41 86 42 80 43 82 44 36 45
REMARK SMILES IDX 85 46 79 47 78 48 37 50 67 51 48 52 66 53 49 54 52 55 65 56
REMARK SMILES IDX 83 57 50 58 51 59 64 61 84 62 53 63 38 64 39 65 47 66 40 67
REMARK SMILES IDX 46 68 41 69 42 70 43 71 44 72 45 73 68 74 69 75 77 76 70 77
REMARK SMILES IDX 76 78 71 79 72 80 73 81 74 82 75 83 54 84 55 85 63 86 56 87
REMARK SMILES IDX 62 88 57 89 58 90 59 91 60 92 61 93
REMARK H PARENT 21 6 6 14 26 30 82 49 52 60
REMARK Flexibility Score: inf
ROOT
ATOM      1  C   UNL A   1      32.094  27.554  26.680  1.00  0.00     0.023 C 
ENDROOT
BRANCH   1   2
ATOM      2  C   UNL A   1      31.744  26.247  25.985  1.00  0.00     0.116 C 
BRANCH   2   3
ATOM      3  N   UNL A   1      30.497  26.295  25.271  1.00  0.00    -0.354 N 
ATOM      4  C   UNL A   1      30.234  26.778  24.031  1.00  0.00     0.242 C 
ATOM      5  O   UNL A   1      29.115  26.548  23.563  1.00  0.00    -0.273 OA
ATOM      6  H   UNL A   1      29.721  25.925  25.751  1.00  0.00     0.163 HD
BRANCH   4   7
ATOM      7  C   UNL A   1      31.304  27.506  23.189  1.00  0.00     0.174 C 
BRANCH   7   8
ATOM      8  C   UNL A   1      30.988  29.038  22.983  1.00  0.00     0.018 C 
ATOM      9  C   UNL A   1      30.912  29.801  24.314  1.00  0.00     0.010 C 
BRANCH   8  10
ATOM     10  C   UNL A   1      29.849  29.396  21.981  1.00  0.00     0.002 C 
ATOM     11  C   UNL A   1      28.947  30.568  22.343  1.00  0.00     0.004 C 
ENDBRANCH   8  10
ENDBRANCH   7   8
BRANCH   7  12
ATOM     12  N   UNL A   1      31.716  26.815  21.957  1.00  0.00    -0.344 N 
ATOM     13  C   UNL A   1      32.835  26.078  21.702  1.00  0.00     0.220 C 
ATOM     14  H   UNL A   1      31.090  26.899  21.202  1.00  0.00     0.164 HD
ATOM     15  O   UNL A   1      33.182  25.967  20.524  1.00  0.00    -0.275 OA
BRANCH  13  16
ATOM     16  C   UNL A   1      33.604  25.379  22.804  1.00  0.00     0.105 C 
BRANCH  16  17
ATOM     17  C   UNL A   1      33.336  23.877  22.852  1.00  0.00     0.045 C 
BRANCH  17  18
ATOM     18  C   UNL A   1      33.093  23.376  24.255  1.00  0.00    -0.044 A 
ATOM     19  C   UNL A   1      34.113  23.462  25.218  1.00  0.00     0.007 A 
ATOM     20  C   UNL A   1      31.830  22.894  24.634  1.00  0.00     0.046 A 
ATOM     21  C   UNL A   1      33.863  23.111  26.546  1.00  0.00     0.043 A 
ATOM     22  C   UNL A   1      31.596  22.530  25.957  1.00  0.00     0.159 A 
ATOM     23  C   UNL A   1      32.602  22.650  26.908  1.00  0.00     0.158 A 
ATOM     24  F   UNL A   1      30.387  22.072  26.312  1.00  0.00    -0.204 F 
ATOM     25  F   UNL A   1      32.364  22.333  28.188  1.00  0.00    -0.204 F 
ENDBRANCH  17  18
ENDBRANCH  16  17
ENDBRANCH  13  16
ENDBRANCH   7  12
ENDBRANCH   4   7
ENDBRANCH   2   3
ENDBRANCH   1   2
BRANCH   1  26
ATOM     26  C   UNL A   1      33.587  27.834  26.831  1.00  0.00     0.023 C 
BRANCH  26  27
ATOM     27  C   UNL A   1      34.074  29.155  26.252  1.00  0.00     0.116 C 
BRANCH  27  28
ATOM     28  N   UNL A   1      33.885  30.296  27.136  1.00  0.00    -0.352 N 
ATOM     29  C   UNL A   1      34.763  30.791  28.070  1.00  0.00     0.251 C 
ATOM     30  H   UNL A   1      33.025  30.769  27.057  1.00  0.00     0.163 HD
ATOM     31  O   UNL A   1      34.478  31.770  28.749  1.00  0.00    -0.269 OA
BRANCH  29  32
ATOM     32  C   UNL A   1      36.027  30.067  28.276  1.00  0.00     0.039 A 
ATOM     33  C   UNL A   1      36.995  30.133  27.273  1.00  0.00     0.014 A 
ATOM     34  C   UNL A   1      36.302  29.472  29.511  1.00  0.00     0.014 A 
ATOM     35  C   UNL A   1      38.282  29.670  27.539  1.00  0.00     0.010 A 
ATOM     36  C   UNL A   1      37.603  29.071  29.793  1.00  0.00     0.010 A 
ATOM     37  C   UNL A   1      38.605  29.181  28.814  1.00  0.00    -0.014 A 
BRANCH  37  38
ATOM     38  C   UNL A   1      39.994  28.795  29.157  1.00  0.00     0.031 A 
ATOM     39  C   UNL A   1      40.916  29.812  29.763  1.00  0.00     0.074 A 
ATOM     40  C   UNL A   1      40.442  27.566  28.836  1.00  0.00     0.049 A 
ATOM     41  N   UNL A   1      42.190  29.707  30.038  1.00  0.00    -0.248 NA
ATOM     42  C   UNL A   1      40.340  31.132  30.073  1.00  0.00     0.031 C 
ATOM     43  C   UNL A   1      39.651  26.511  28.195  1.00  0.00     0.029 A 
ATOM     44  N   UNL A   1      41.684  26.999  28.987  1.00  0.00    -0.354 N 
ATOM     45  C   UNL A   1      42.574  30.952  30.520  1.00  0.00     0.074 A 
ATOM     46  C   UNL A   1      41.409  31.806  30.471  1.00  0.00     0.031 C 
ATOM     47  C   UNL A   1      40.423  25.426  28.017  1.00  0.00     0.029 A 
ATOM     48  C   UNL A   1      41.770  25.717  28.496  1.00  0.00     0.049 A 
ATOM     49  H   UNL A   1      42.441  27.466  29.409  1.00  0.00     0.167 HD
ATOM     50  C   UNL A   1      43.787  31.341  30.974  1.00  0.00     0.031 A 
ATOM     51  C   UNL A   1      42.822  24.878  28.423  1.00  0.00     0.031 A 
ATOM     52  C   UNL A   1      44.930  30.475  31.053  1.00  0.00     0.049 A 
ATOM     53  C   UNL A   1      44.155  25.330  28.954  1.00  0.00     0.074 A 
ATOM     54  C   UNL A   1      46.176  30.744  31.590  1.00  0.00     0.029 A 
ATOM     55  N   UNL A   1      44.969  29.173  30.580  1.00  0.00    -0.354 N 
ATOM     56  N   UNL A   1      44.475  26.481  29.495  1.00  0.00    -0.248 NA
ATOM     57  C   UNL A   1      45.266  24.372  28.869  1.00  0.00     0.031 C 
ATOM     58  C   UNL A   1      46.984  29.618  31.401  1.00  0.00     0.029 A 
ATOM     59  C   UNL A   1      46.226  28.634  30.784  1.00  0.00     0.049 A 
ATOM     60  H   UNL A   1      44.213  28.701  30.159  1.00  0.00     0.167 HD
ATOM     61  C   UNL A   1      45.820  26.381  29.828  1.00  0.00     0.074 A 
ATOM     62  C   UNL A   1      46.249  25.051  29.445  1.00  0.00     0.031 C 
ATOM     63  C   UNL A   1      46.629  27.307  30.398  1.00  0.00     0.031 A 
BRANCH  50  64
ATOM     64  C   UNL A   1      43.940  32.769  31.418  1.00  0.00    -0.014 A 
ATOM     65  C   UNL A   1      44.054  33.812  30.482  1.00  0.00     0.010 A 
ATOM     66  C   UNL A   1      43.924  33.076  32.790  1.00  0.00     0.010 A 
ATOM     67  C   UNL A   1      44.181  35.135  30.911  1.00  0.00     0.020 A 
ATOM     68  C   UNL A   1      44.027  34.400  33.223  1.00  0.00     0.020 A 
ATOM     69  C   UNL A   1      44.170  35.421  32.280  1.00  0.00     0.054 A 
BRANCH  69  70
ATOM     70  S   UNL A   1      44.302  37.151  32.809  1.00  0.00     0.124 S 
ATOM     71  O   UNL A   1      45.478  37.111  33.673  1.00  0.00    -0.237 OA
ATOM     72  O   UNL A   1      44.476  37.861  31.544  1.00  0.00    -0.237 OA
ATOM     73  O   UNL A   1      43.035  37.402  33.492  1.00  0.00    -0.744 OA
ENDBRANCH  69  70
ENDBRANCH  50  64
BRANCH  51  74
ATOM     74  C   UNL A   1      42.662  23.529  27.816  1.00  0.00    -0.014 A 
ATOM     75  C   UNL A   1      41.979  22.512  28.505  1.00  0.00     0.010 A 
ATOM     76  C   UNL A   1      43.193  23.255  26.543  1.00  0.00     0.010 A 
ATOM     77  C   UNL A   1      41.849  21.238  27.942  1.00  0.00     0.020 A 
ATOM     78  C   UNL A   1      43.045  21.991  25.966  1.00  0.00     0.020 A 
ATOM     79  C   UNL A   1      42.384  20.985  26.676  1.00  0.00     0.054 A 
BRANCH  79  80
ATOM     80  S   UNL A   1      42.169  19.339  25.942  1.00  0.00     0.124 S 
ATOM     81  O   UNL A   1      42.935  19.458  24.705  1.00  0.00    -0.237 OA
ATOM     82  O   UNL A   1      42.740  18.461  26.959  1.00  0.00    -0.237 OA
ATOM     83  O   UNL A   1      40.721  19.229  25.777  1.00  0.00    -0.744 OA
ENDBRANCH  79  80
ENDBRANCH  51  74
BRANCH  63  84
ATOM     84  C   UNL A   1      48.057  26.915  30.658  1.00  0.00    -0.014 A 
ATOM     85  C   UNL A   1      49.061  27.185  29.713  1.00  0.00     0.010 A 
ATOM     86  C   UNL A   1      48.408  26.349  31.896  1.00  0.00     0.010 A 
ATOM     87  C   UNL A   1      50.394  26.885  29.999  1.00  0.00     0.020 A 
ATOM     88  C   UNL A   1      49.742  26.067  32.194  1.00  0.00     0.020 A 
ATOM     89  C   UNL A   1      50.727  26.331  31.239  1.00  0.00     0.054 A 
BRANCH  89  90
ATOM     90  S   UNL A   1      52.473  26.017  31.615  1.00  0.00     0.124 S 
ATOM     91  O   UNL A   1      53.098  26.165  30.304  1.00  0.00    -0.237 OA
ATOM     92  O   UNL A   1      52.788  27.064  32.585  1.00  0.00    -0.237 OA
ATOM     93  O   UNL A   1      52.472  24.659  32.155  1.00  0.00    -0.744 OA
ENDBRANCH  89  90
ENDBRANCH  63  84
ENDBRANCH  37  38
ENDBRANCH  29  32
ENDBRANCH  27  28
ENDBRANCH  26  27
ENDBRANCH   1  26
TORSDOF 20
ENDMDL
MODEL 3
REMARK VINA RESULT:     -10.4      2.277      3.833
REMARK SMILES CC[C@@H](C)[C@H](NC(=O)CCc1ccc(F)c(F)c1)C(=O)NCCCCNC(=O)c1ccc(-c2c3nc(c(-c4ccc(S(=O)(=O)[O-])cc4)c4ccc([nH]4)c(-c4ccc(S(=O)(=O)[O-])cc4)c4nc(c(-c5ccc(S(=O)(=O)[O-])cc5)c5ccc2[nH]5)C=C4)C=C3)cc1
REMARK SMILES IDX 23 1 22 2 21 3 19 4 20 5 5 7 3 8 4 9 2 10 1 11 6 12 7 13
REMARK SMILES IDX 8 15 9 16 10 17 11 18 12 19 18 20 13 21 16 22 14 23 17 24
REMARK SMILES IDX 15 25 24 26 25 27 26 28 27 29 28 31 29 32 30 33 88 34 31 35
REMARK SMILES IDX 87 36 32 37 33 38 34 39 81 40 35 41 86 42 80 43 82 44 36 45
REMARK SMILES IDX 85 46 79 47 78 48 37 50 67 51 48 52 66 53 49 54 52 55 65 56
REMARK SMILES IDX 83 57 50 58 51 59 64 61 84 62 53 63 38 64 39 65 47 66 40 67
REMARK SMILES IDX 46 68 41 69 42 70 43 71 44 72 45 73 68 74 69 75 77 76 70 77
REMARK SMILES IDX 76 78 71 79 72 80 73 81 74 82 75 83 54 84 55 85 63 86 56 87
REMARK SMILES IDX 62 88 57 89 58 90 59 91 60 92 61 93
REMARK H PARENT 21 6 6 14 26 30 82 49 52 60
REMARK Flexibility Score: inf
ROOT
ATOM      1  C   UNL A   1      31.401  28.907  26.453  1.00  0.00     0.023 C 
ENDROOT
BRANCH   1   2
ATOM      2  C   UNL A   1      31.583  29.507  25.067  1.00  0.00     0.116 C 
BRANCH   2   3
ATOM      3  N   UNL A   1      30.488  29.229  24.177  1.00  0.00    -0.354 N 
ATOM      4  C   UNL A   1      30.243  28.121  23.435  1.00  0.00     0.242 C 
ATOM      5  O   UNL A   1      29.142  28.046  22.880  1.00  0.00    -0.273 OA
ATOM      6  H   UNL A   1      29.819  29.948  24.093  1.00  0.00     0.163 HD
BRANCH   4   7
ATOM      7  C   UNL A   1      31.247  26.953  23.347  1.00  0.00     0.174 C 
BRANCH   7   8
ATOM      8  C   UNL A   1      32.119  26.986  22.032  1.00  0.00     0.018 C 
ATOM      9  C   UNL A   1      31.862  25.768  21.132  1.00  0.00     0.010 C 
BRANCH   8  10
ATOM     10  C   UNL A   1      33.626  27.348  22.193  1.00  0.00     0.002 C 
ATOM     11  C   UNL A   1      34.100  27.760  23.580  1.00  0.00     0.004 C 
ENDBRANCH   8  10
ENDBRANCH   7   8
BRANCH   7  12
ATOM     12  N   UNL A   1      30.700  25.623  23.660  1.00  0.00    -0.344 N 
ATOM     13  C   UNL A   1      31.347  24.469  23.992  1.00  0.00     0.220 C 
ATOM     14  H   UNL A   1      29.719  25.557  23.624  1.00  0.00     0.164 HD
ATOM     15  O   UNL A   1      30.751  23.409  23.787  1.00  0.00    -0.275 OA
BRANCH  13  16
ATOM     16  C   UNL A   1      32.721  24.473  24.628  1.00  0.00     0.105 C 
BRANCH  16  17
ATOM     17  C   UNL A   1      33.807  23.946  23.694  1.00  0.00     0.045 C 
BRANCH  17  18
ATOM     18  C   UNL A   1      34.975  23.350  24.442  1.00  0.00    -0.044 A 
ATOM     19  C   UNL A   1      35.227  21.970  24.367  1.00  0.00     0.007 A 
ATOM     20  C   UNL A   1      35.864  24.172  25.153  1.00  0.00     0.046 A 
ATOM     21  C   UNL A   1      36.369  21.426  24.958  1.00  0.00     0.043 A 
ATOM     22  C   UNL A   1      36.991  23.618  25.753  1.00  0.00     0.159 A 
ATOM     23  C   UNL A   1      37.247  22.256  25.645  1.00  0.00     0.158 A 
ATOM     24  F   UNL A   1      37.837  24.409  26.429  1.00  0.00    -0.204 F 
ATOM     25  F   UNL A   1      38.351  21.729  26.194  1.00  0.00    -0.204 F 
ENDBRANCH  17  18
ENDBRANCH  16  17
ENDBRANCH  13  16
ENDBRANCH   7  12
ENDBRANCH   4   7
ENDBRANCH   2   3
ENDBRANCH   1   2
BRANCH   1  26
ATOM     26  C   UNL A   1      32.601  28.132  26.991  1.00  0.00     0.023 C 
BRANCH  26  27
ATOM     27  C   UNL A   1      33.917  28.896  27.030  1.00  0.00     0.116 C 
BRANCH  27  28
ATOM     28  N   UNL A   1      33.850  30.156  27.757  1.00  0.00    -0.352 N 
ATOM     29  C   UNL A   1      34.850  30.769  28.474  1.00  0.00     0.251 C 
ATOM     30  H   UNL A   1      32.985  30.625  27.733  1.00  0.00     0.163 HD
ATOM     31  O   UNL A   1      34.659  31.840  29.037  1.00  0.00    -0.269 OA
BRANCH  29  32
ATOM     32  C   UNL A   1      36.135  30.063  28.601  1.00  0.00     0.039 A 
ATOM     33  C   UNL A   1      37.031  30.130  27.533  1.00  0.00     0.014 A 
ATOM     34  C   UNL A   1      36.502  29.487  29.820  1.00  0.00     0.014 A 
ATOM     35  C   UNL A   1      38.339  29.687  27.715  1.00  0.00     0.010 A 
ATOM     36  C   UNL A   1      37.824  29.107  30.017  1.00  0.00     0.010 A 
ATOM     37  C   UNL A   1      38.755  29.218  28.970  1.00  0.00    -0.014 A 
BRANCH  37  38
ATOM     38  C   UNL A   1      40.170  28.855  29.221  1.00  0.00     0.031 A 
ATOM     39  C   UNL A   1      41.118  29.891  29.750  1.00  0.00     0.074 A 
ATOM     40  C   UNL A   1      40.612  27.627  28.886  1.00  0.00     0.049 A 
ATOM     41  N   UNL A   1      42.408  29.806  29.937  1.00  0.00    -0.248 NA
ATOM     42  C   UNL A   1      40.546  31.208  30.082  1.00  0.00     0.031 C 
ATOM     43  C   UNL A   1      39.793  26.554  28.313  1.00  0.00     0.029 A 
ATOM     44  N   UNL A   1      41.868  27.078  28.957  1.00  0.00    -0.354 N 
ATOM     45  C   UNL A   1      42.809  31.062  30.375  1.00  0.00     0.074 A 
ATOM     46  C   UNL A   1      41.631  31.901  30.397  1.00  0.00     0.031 C 
ATOM     47  C   UNL A   1      40.566  25.476  28.096  1.00  0.00     0.029 A 
ATOM     48  C   UNL A   1      41.938  25.791  28.477  1.00  0.00     0.049 A 
ATOM     49  H   UNL A   1      42.647  27.561  29.320  1.00  0.00     0.167 HD
ATOM     50  C   UNL A   1      44.044  31.473  30.740  1.00  0.00     0.031 A 
ATOM     51  C   UNL A   1      42.994  24.964  28.343  1.00  0.00     0.031 A 
ATOM     52  C   UNL A   1      45.201  30.622  30.751  1.00  0.00     0.049 A 
ATOM     53  C   UNL A   1      44.354  25.441  28.775  1.00  0.00     0.074 A 
ATOM     54  C   UNL A   1      46.477  30.914  31.197  1.00  0.00     0.029 A 
ATOM     55  N   UNL A   1      45.225  29.315  30.292  1.00  0.00    -0.354 N 
ATOM     56  N   UNL A   1      44.694  26.603  29.277  1.00  0.00    -0.248 NA
ATOM     57  C   UNL A   1      45.470  24.496  28.625  1.00  0.00     0.031 C 
ATOM     58  C   UNL A   1      47.286  29.796  30.966  1.00  0.00     0.029 A 
ATOM     59  C   UNL A   1      46.501  28.794  30.416  1.00  0.00     0.049 A 
ATOM     60  H   UNL A   1      44.449  28.827  29.931  1.00  0.00     0.167 HD
ATOM     61  C   UNL A   1      46.061  26.524  29.518  1.00  0.00     0.074 A 
ATOM     62  C   UNL A   1      46.481  25.195  29.123  1.00  0.00     0.031 C 
ATOM     63  C   UNL A   1      46.894  27.468  30.019  1.00  0.00     0.031 A 
BRANCH  50  64
ATOM     64  C   UNL A   1      44.208  32.909  31.154  1.00  0.00    -0.014 A 
ATOM     65  C   UNL A   1      44.042  33.301  32.495  1.00  0.00     0.010 A 
ATOM     66  C   UNL A   1      44.577  33.871  30.197  1.00  0.00     0.010 A 
ATOM     67  C   UNL A   1      44.211  34.636  32.865  1.00  0.00     0.020 A 
ATOM     68  C   UNL A   1      44.770  35.204  30.569  1.00  0.00     0.020 A 
ATOM     69  C   UNL A   1      44.572  35.581  31.899  1.00  0.00     0.054 A 
BRANCH  69  70
ATOM     70  S   UNL A   1      44.819  37.302  32.414  1.00  0.00     0.124 S 
ATOM     71  O   UNL A   1      46.216  37.526  32.050  1.00  0.00    -0.237 OA
ATOM     72  O   UNL A   1      43.837  38.023  31.609  1.00  0.00    -0.237 OA
ATOM     73  O   UNL A   1      44.546  37.276  33.850  1.00  0.00    -0.744 OA
ENDBRANCH  69  70
ENDBRANCH  50  64
BRANCH  51  74
ATOM     74  C   UNL A   1      42.811  23.605  27.765  1.00  0.00    -0.014 A 
ATOM     75  C   UNL A   1      42.971  23.388  26.386  1.00  0.00     0.010 A 
ATOM     76  C   UNL A   1      42.475  22.520  28.594  1.00  0.00     0.010 A 
ATOM     77  C   UNL A   1      42.777  22.114  25.842  1.00  0.00     0.020 A 
ATOM     78  C   UNL A   1      42.304  21.240  28.059  1.00  0.00     0.020 A 
ATOM     79  C   UNL A   1      42.443  21.048  26.682  1.00  0.00     0.054 A 
BRANCH  79  80
ATOM     80  S   UNL A   1      42.238  19.393  25.965  1.00  0.00     0.124 S 
ATOM     81  O   UNL A   1      43.084  19.471  24.778  1.00  0.00    -0.237 OA
ATOM     82  O   UNL A   1      42.722  18.522  27.033  1.00  0.00    -0.237 OA
ATOM     83  O   UNL A   1      40.801  19.311  25.710  1.00  0.00    -0.744 OA
ENDBRANCH  79  80
ENDBRANCH  51  74
BRANCH  63  84
ATOM     84  C   UNL A   1      48.342  27.098  30.185  1.00  0.00    -0.014 A 
ATOM     85  C   UNL A   1      49.279  27.393  29.182  1.00  0.00     0.010 A 
ATOM     86  C   UNL A   1      48.780  26.527  31.393  1.00  0.00     0.010 A 
ATOM     87  C   UNL A   1      50.633  27.112  29.380  1.00  0.00     0.020 A 
ATOM     88  C   UNL A   1      50.135  26.265  31.603  1.00  0.00     0.020 A 
ATOM     89  C   UNL A   1      51.052  26.553  30.591  1.00  0.00     0.054 A 
BRANCH  89  90
ATOM     90  S   UNL A   1      52.824  26.266  30.853  1.00  0.00     0.124 S 
ATOM     91  O   UNL A   1      53.299  26.034  29.493  1.00  0.00    -0.237 OA
ATOM     92  O   UNL A   1      53.266  27.514  31.471  1.00  0.00    -0.237 OA
ATOM     93  O   UNL A   1      52.858  25.099  31.733  1.00  0.00    -0.744 OA
ENDBRANCH  89  90
ENDBRANCH  63  84
ENDBRANCH  37  38
ENDBRANCH  29  32
ENDBRANCH  27  28
ENDBRANCH  26  27
ENDBRANCH   1  26
TORSDOF 20
ENDMDL
