MODEL 1
REMARK VINA RESULT:     -10.1      0.000      0.000
REMARK SMILES COCCS(=O)(=O)CCn1cc(C(=O)NCCCCNC(=O)c2ccc(-c3c4nc(c(-c5ccc(S(=O)(=O)[O-])cc5)c5ccc([nH]5)c(-c5ccc(S(=O)(=O)[O-])cc5)c5nc(c(-c6ccc(S(=O)(=O)[O-])cc6)c6ccc3[nH]6)C=C5)C=C4)cc2)nn1
REMARK SMILES IDX 16 1 15 2 13 3 14 4 12 6 10 7 11 8 84 9 83 10 9 11 8 12 5 13
REMARK SMILES IDX 6 14 7 15 4 16 3 17 2 18 1 19 17 20 18 21 19 22 20 23 21 24
REMARK SMILES IDX 22 26 23 27 24 28 82 29 25 30 81 31 26 32 27 33 28 34 75 35
REMARK SMILES IDX 29 36 80 37 74 38 76 39 30 40 79 41 73 42 72 43 31 45 61 46
REMARK SMILES IDX 42 47 60 48 43 49 46 50 59 51 77 52 44 53 45 54 58 56 78 57
REMARK SMILES IDX 47 58 32 59 33 60 41 61 34 62 40 63 35 64 36 65 37 66 38 67
REMARK SMILES IDX 39 68 62 69 63 70 71 71 64 72 70 73 65 74 66 75 67 76 68 77
REMARK SMILES IDX 69 78 48 79 49 80 57 81 50 82 56 83 51 84 52 85 53 86 54 87
REMARK SMILES IDX 55 88
REMARK H PARENT 15 5 20 25 76 44 46 55
REMARK Flexibility Score: inf
ROOT
ATOM      1  C   UNL A   1      38.672  22.798  26.069  1.00  0.00     0.116 C 
ENDROOT
BRANCH   1   2
ATOM      2  N   UNL A   1      37.840  21.710  25.572  1.00  0.00    -0.351 N 
ATOM      3  C   UNL A   1      36.630  21.667  24.902  1.00  0.00     0.273 C 
ATOM      4  O   UNL A   1      36.135  20.551  24.741  1.00  0.00    -0.267 OA
ATOM      5  H   UNL A   1      38.218  20.819  25.749  1.00  0.00     0.163 HD
BRANCH   3   6
ATOM      6  C   UNL A   1      35.927  22.877  24.481  1.00  0.00     0.170 A 
ATOM      7  N   UNL A   1      34.716  24.667  24.343  1.00  0.00    -0.251 N 
ATOM      8  C   UNL A   1      35.596  24.031  25.170  1.00  0.00     0.145 A 
ATOM      9  N   UNL A   1      34.677  24.098  23.135  1.00  0.00    -0.067 NA
ATOM     10  N   UNL A   1      35.417  22.999  23.200  1.00  0.00    -0.125 NA
BRANCH   7  11
ATOM     11  C   UNL A   1      33.784  25.714  24.674  1.00  0.00     0.162 C 
BRANCH  11  12
ATOM     12  C   UNL A   1      32.834  25.409  25.822  1.00  0.00     0.160 C 
BRANCH  12  13
ATOM     13  S   UNL A   1      31.219  24.800  25.404  1.00  0.00     0.154 S 
ATOM     14  O   UNL A   1      30.667  25.706  24.412  1.00  0.00    -0.229 OA
ATOM     15  O   UNL A   1      30.529  24.628  26.673  1.00  0.00    -0.229 OA
BRANCH  13  16
ATOM     16  C   UNL A   1      31.255  23.204  24.660  1.00  0.00     0.165 C 
BRANCH  16  17
ATOM     17  C   UNL A   1      31.710  21.986  25.421  1.00  0.00     0.176 C 
BRANCH  17  18
ATOM     18  O   UNL A   1      32.851  21.353  24.873  1.00  0.00    -0.384 OA
ATOM     19  C   UNL A   1      32.574  20.410  23.858  1.00  0.00     0.194 C 
ENDBRANCH  17  18
ENDBRANCH  16  17
ENDBRANCH  13  16
ENDBRANCH  12  13
ENDBRANCH  11  12
ENDBRANCH   7  11
ENDBRANCH   3   6
ENDBRANCH   1   2
BRANCH   1  20
ATOM     20  C   UNL A   1      39.951  22.317  26.772  1.00  0.00     0.023 C 
BRANCH  20  21
ATOM     21  C   UNL A   1      40.460  20.896  26.521  1.00  0.00     0.023 C 
BRANCH  21  22
ATOM     22  C   UNL A   1      41.734  20.532  27.267  1.00  0.00     0.116 C 
BRANCH  22  23
ATOM     23  N   UNL A   1      42.782  19.920  26.434  1.00  0.00    -0.352 N 
ATOM     24  C   UNL A   1      43.593  20.571  25.501  1.00  0.00     0.251 C 
ATOM     25  H   UNL A   1      42.925  18.953  26.545  1.00  0.00     0.163 HD
ATOM     26  O   UNL A   1      44.159  19.982  24.606  1.00  0.00    -0.269 OA
BRANCH  24  27
ATOM     27  C   UNL A   1      43.765  22.021  25.698  1.00  0.00     0.039 A 
ATOM     28  C   UNL A   1      43.078  22.985  24.954  1.00  0.00     0.014 A 
ATOM     29  C   UNL A   1      44.490  22.354  26.832  1.00  0.00     0.014 A 
ATOM     30  C   UNL A   1      43.041  24.293  25.443  1.00  0.00     0.010 A 
ATOM     31  C   UNL A   1      44.230  23.553  27.423  1.00  0.00     0.010 A 
ATOM     32  C   UNL A   1      43.594  24.559  26.706  1.00  0.00    -0.014 A 
BRANCH  32  33
ATOM     33  C   UNL A   1      43.452  25.842  27.385  1.00  0.00     0.031 A 
ATOM     34  C   UNL A   1      44.437  26.885  26.986  1.00  0.00     0.074 A 
ATOM     35  C   UNL A   1      42.346  26.137  28.109  1.00  0.00     0.049 A 
ATOM     36  N   UNL A   1      45.427  27.338  27.681  1.00  0.00    -0.248 NA
ATOM     37  C   UNL A   1      44.414  27.380  25.599  1.00  0.00     0.031 C 
ATOM     38  C   UNL A   1      41.137  25.320  28.324  1.00  0.00     0.029 A 
ATOM     39  N   UNL A   1      42.007  27.302  28.713  1.00  0.00    -0.354 N 
ATOM     40  C   UNL A   1      45.991  28.360  26.922  1.00  0.00     0.074 A 
ATOM     41  C   UNL A   1      45.476  28.190  25.588  1.00  0.00     0.031 C 
ATOM     42  C   UNL A   1      40.125  26.098  28.766  1.00  0.00     0.029 A 
ATOM     43  C   UNL A   1      40.669  27.401  29.084  1.00  0.00     0.049 A 
ATOM     44  H   UNL A   1      42.656  28.024  28.876  1.00  0.00     0.167 HD
ATOM     45  C   UNL A   1      46.605  29.425  27.514  1.00  0.00     0.031 A 
ATOM     46  C   UNL A   1      40.050  28.474  29.634  1.00  0.00     0.031 A 
ATOM     47  C   UNL A   1      46.838  29.183  28.917  1.00  0.00     0.049 A 
ATOM     48  C   UNL A   1      41.122  29.301  30.238  1.00  0.00     0.074 A 
ATOM     49  C   UNL A   1      47.548  28.249  29.644  1.00  0.00     0.029 A 
ATOM     50  N   UNL A   1      45.930  29.731  29.793  1.00  0.00    -0.354 N 
ATOM     51  N   UNL A   1      41.879  28.882  31.215  1.00  0.00    -0.248 NA
ATOM     52  C   UNL A   1      41.672  30.385  29.443  1.00  0.00     0.031 C 
ATOM     53  C   UNL A   1      46.709  27.941  30.758  1.00  0.00     0.029 A 
ATOM     54  C   UNL A   1      45.581  28.763  30.700  1.00  0.00     0.049 A 
ATOM     55  H   UNL A   1      45.589  30.655  29.772  1.00  0.00     0.167 HD
ATOM     56  C   UNL A   1      43.153  29.328  30.895  1.00  0.00     0.074 A 
ATOM     57  C   UNL A   1      42.946  30.329  29.847  1.00  0.00     0.031 C 
ATOM     58  C   UNL A   1      44.268  28.650  31.307  1.00  0.00     0.031 A 
BRANCH  45  59
ATOM     59  C   UNL A   1      46.591  30.829  26.949  1.00  0.00    -0.014 A 
ATOM     60  C   UNL A   1      47.793  31.570  26.947  1.00  0.00     0.010 A 
ATOM     61  C   UNL A   1      45.405  31.545  26.687  1.00  0.00     0.010 A 
ATOM     62  C   UNL A   1      47.792  32.962  26.778  1.00  0.00     0.020 A 
ATOM     63  C   UNL A   1      45.397  32.926  26.475  1.00  0.00     0.020 A 
ATOM     64  C   UNL A   1      46.588  33.631  26.559  1.00  0.00     0.054 A 
BRANCH  64  65
ATOM     65  S   UNL A   1      46.582  35.438  26.462  1.00  0.00     0.124 S 
ATOM     66  O   UNL A   1      47.561  35.684  25.407  1.00  0.00    -0.237 OA
ATOM     67  O   UNL A   1      45.192  35.722  26.116  1.00  0.00    -0.237 OA
ATOM     68  O   UNL A   1      46.984  35.854  27.802  1.00  0.00    -0.744 OA
ENDBRANCH  64  65
ENDBRANCH  45  59
BRANCH  46  69
ATOM     69  C   UNL A   1      38.691  28.992  29.337  1.00  0.00    -0.014 A 
ATOM     70  C   UNL A   1      37.857  29.476  30.361  1.00  0.00     0.010 A 
ATOM     71  C   UNL A   1      38.332  29.287  28.004  1.00  0.00     0.010 A 
ATOM     72  C   UNL A   1      36.741  30.280  30.067  1.00  0.00     0.020 A 
ATOM     73  C   UNL A   1      37.221  30.087  27.704  1.00  0.00     0.020 A 
ATOM     74  C   UNL A   1      36.443  30.599  28.739  1.00  0.00     0.054 A 
BRANCH  74  75
ATOM     75  S   UNL A   1      35.105  31.780  28.381  1.00  0.00     0.124 S 
ATOM     76  O   UNL A   1      34.650  32.148  29.719  1.00  0.00    -0.237 OA
ATOM     77  O   UNL A   1      35.797  32.830  27.639  1.00  0.00    -0.237 OA
ATOM     78  O   UNL A   1      34.153  30.995  27.597  1.00  0.00    -0.744 OA
ENDBRANCH  74  75
ENDBRANCH  46  69
BRANCH  58  79
ATOM     79  C   UNL A   1      44.099  27.550  32.337  1.00  0.00    -0.014 A 
ATOM     80  C   UNL A   1      43.649  27.761  33.658  1.00  0.00     0.010 A 
ATOM     81  C   UNL A   1      44.262  26.226  31.897  1.00  0.00     0.010 A 
ATOM     82  C   UNL A   1      43.391  26.676  34.514  1.00  0.00     0.020 A 
ATOM     83  C   UNL A   1      43.994  25.143  32.737  1.00  0.00     0.020 A 
ATOM     84  C   UNL A   1      43.567  25.371  34.045  1.00  0.00     0.054 A 
BRANCH  84  85
ATOM     85  S   UNL A   1      43.203  23.965  35.137  1.00  0.00     0.124 S 
ATOM     86  O   UNL A   1      42.045  24.438  35.891  1.00  0.00    -0.237 OA
ATOM     87  O   UNL A   1      42.938  22.880  34.194  1.00  0.00    -0.237 OA
ATOM     88  O   UNL A   1      44.427  23.805  35.922  1.00  0.00    -0.744 OA
ENDBRANCH  84  85
ENDBRANCH  58  79
ENDBRANCH  32  33
ENDBRANCH  24  27
ENDBRANCH  22  23
ENDBRANCH  21  22
ENDBRANCH  20  21
ENDBRANCH   1  20
TORSDOF 20
ENDMDL
MODEL 2
REMARK VINA RESULT:     -10.0      2.387      3.350
REMARK SMILES COCCS(=O)(=O)CCn1cc(C(=O)NCCCCNC(=O)c2ccc(-c3c4nc(c(-c5ccc(S(=O)(=O)[O-])cc5)c5ccc([nH]5)c(-c5ccc(S(=O)(=O)[O-])cc5)c5nc(c(-c6ccc(S(=O)(=O)[O-])cc6)c6ccc3[nH]6)C=C5)C=C4)cc2)nn1
REMARK SMILES IDX 16 1 15 2 13 3 14 4 12 6 10 7 11 8 84 9 83 10 9 11 8 12 5 13
REMARK SMILES IDX 6 14 7 15 4 16 3 17 2 18 1 19 17 20 18 21 19 22 20 23 21 24
REMARK SMILES IDX 22 26 23 27 24 28 82 29 25 30 81 31 26 32 27 33 28 34 75 35
REMARK SMILES IDX 29 36 80 37 74 38 76 39 30 40 79 41 73 42 72 43 31 45 61 46
REMARK SMILES IDX 42 47 60 48 43 49 46 50 59 51 77 52 44 53 45 54 58 56 78 57
REMARK SMILES IDX 47 58 32 59 33 60 41 61 34 62 40 63 35 64 36 65 37 66 38 67
REMARK SMILES IDX 39 68 62 69 63 70 71 71 64 72 70 73 65 74 66 75 67 76 68 77
REMARK SMILES IDX 69 78 48 79 49 80 57 81 50 82 56 83 51 84 52 85 53 86 54 87
REMARK SMILES IDX 55 88
REMARK H PARENT 15 5 20 25 76 44 46 55
REMARK Flexibility Score: inf
ROOT
ATOM      1  C   UNL A   1      36.341  21.372  25.717  1.00  0.00     0.116 C 
ENDROOT
BRANCH   1   2
ATOM      2  N   UNL A   1      35.522  20.337  25.101  1.00  0.00    -0.351 N 
ATOM      3  C   UNL A   1      34.172  20.237  24.814  1.00  0.00     0.273 C 
ATOM      4  O   UNL A   1      33.782  19.145  24.397  1.00  0.00    -0.267 OA
ATOM      5  H   UNL A   1      36.036  19.543  24.831  1.00  0.00     0.163 HD
BRANCH   3   6
ATOM      6  C   UNL A   1      33.236  21.329  25.072  1.00  0.00     0.170 A 
ATOM      7  N   UNL A   1      32.252  23.153  25.698  1.00  0.00    -0.251 N 
ATOM      8  C   UNL A   1      33.430  22.695  25.185  1.00  0.00     0.145 A 
ATOM      9  N   UNL A   1      31.307  22.208  25.683  1.00  0.00    -0.067 NA
ATOM     10  N   UNL A   1      31.893  21.081  25.299  1.00  0.00    -0.125 NA
BRANCH   7  11
ATOM     11  C   UNL A   1      31.996  24.414  26.346  1.00  0.00     0.162 C 
BRANCH  11  12
ATOM     12  C   UNL A   1      32.261  25.652  25.503  1.00  0.00     0.160 C 
BRANCH  12  13
ATOM     13  S   UNL A   1      32.132  27.230  26.306  1.00  0.00     0.154 S 
ATOM     14  O   UNL A   1      33.457  27.569  26.792  1.00  0.00    -0.229 OA
ATOM     15  O   UNL A   1      31.037  27.093  27.254  1.00  0.00    -0.229 OA
BRANCH  13  16
ATOM     16  C   UNL A   1      31.654  28.524  25.210  1.00  0.00     0.165 C 
BRANCH  16  17
ATOM     17  C   UNL A   1      30.601  28.317  24.152  1.00  0.00     0.176 C 
BRANCH  17  18
ATOM     18  O   UNL A   1      30.251  29.492  23.446  1.00  0.00    -0.384 OA
ATOM     19  C   UNL A   1      29.533  29.272  22.250  1.00  0.00     0.194 C 
ENDBRANCH  17  18
ENDBRANCH  16  17
ENDBRANCH  13  16
ENDBRANCH  12  13
ENDBRANCH  11  12
ENDBRANCH   7  11
ENDBRANCH   3   6
ENDBRANCH   1   2
BRANCH   1  20
ATOM     20  C   UNL A   1      37.689  21.586  25.010  1.00  0.00     0.023 C 
BRANCH  20  21
ATOM     21  C   UNL A   1      38.904  20.760  25.437  1.00  0.00     0.023 C 
BRANCH  21  22
ATOM     22  C   UNL A   1      39.903  21.498  26.314  1.00  0.00     0.116 C 
BRANCH  22  23
ATOM     23  N   UNL A   1      41.238  21.665  25.720  1.00  0.00    -0.352 N 
ATOM     24  C   UNL A   1      41.986  22.844  25.663  1.00  0.00     0.251 C 
ATOM     25  H   UNL A   1      41.646  20.864  25.320  1.00  0.00     0.163 HD
ATOM     26  O   UNL A   1      42.880  23.011  24.864  1.00  0.00    -0.269 OA
BRANCH  24  27
ATOM     27  C   UNL A   1      41.657  23.864  26.674  1.00  0.00     0.039 A 
ATOM     28  C   UNL A   1      42.278  23.937  27.924  1.00  0.00     0.014 A 
ATOM     29  C   UNL A   1      40.845  24.885  26.201  1.00  0.00     0.014 A 
ATOM     30  C   UNL A   1      42.156  25.122  28.653  1.00  0.00     0.010 A 
ATOM     31  C   UNL A   1      40.952  26.107  26.794  1.00  0.00     0.010 A 
ATOM     32  C   UNL A   1      41.517  26.221  28.058  1.00  0.00    -0.014 A 
BRANCH  32  33
ATOM     33  C   UNL A   1      41.492  27.551  28.656  1.00  0.00     0.031 A 
ATOM     34  C   UNL A   1      42.588  28.462  28.226  1.00  0.00     0.074 A 
ATOM     35  C   UNL A   1      40.406  28.000  29.330  1.00  0.00     0.049 A 
ATOM     36  N   UNL A   1      43.604  28.854  28.921  1.00  0.00    -0.248 NA
ATOM     37  C   UNL A   1      42.648  28.871  26.812  1.00  0.00     0.031 C 
ATOM     38  C   UNL A   1      39.115  27.324  29.557  1.00  0.00     0.029 A 
ATOM     39  N   UNL A   1      40.175  29.228  29.854  1.00  0.00    -0.354 N 
ATOM     40  C   UNL A   1      44.286  29.765  28.121  1.00  0.00     0.074 A 
ATOM     41  C   UNL A   1      43.788  29.567  26.784  1.00  0.00     0.031 C 
ATOM     42  C   UNL A   1      38.179  28.226  29.923  1.00  0.00     0.029 A 
ATOM     43  C   UNL A   1      38.847  29.485  30.179  1.00  0.00     0.049 A 
ATOM     44  H   UNL A   1      40.891  29.889  29.993  1.00  0.00     0.167 HD
ATOM     45  C   UNL A   1      44.994  30.797  28.666  1.00  0.00     0.031 A 
ATOM     46  C   UNL A   1      38.329  30.647  30.648  1.00  0.00     0.031 A 
ATOM     47  C   UNL A   1      45.168  30.620  30.087  1.00  0.00     0.049 A 
ATOM     48  C   UNL A   1      39.466  31.396  31.233  1.00  0.00     0.074 A 
ATOM     49  C   UNL A   1      45.762  29.664  30.889  1.00  0.00     0.029 A 
ATOM     50  N   UNL A   1      44.301  31.310  30.902  1.00  0.00    -0.354 N 
ATOM     51  N   UNL A   1      40.153  30.964  32.254  1.00  0.00    -0.248 NA
ATOM     52  C   UNL A   1      40.143  32.368  30.391  1.00  0.00     0.031 C 
ATOM     53  C   UNL A   1      44.870  29.513  31.994  1.00  0.00     0.029 A 
ATOM     54  C   UNL A   1      43.834  30.439  31.855  1.00  0.00     0.049 A 
ATOM     55  H   UNL A   1      44.058  32.260  30.818  1.00  0.00     0.167 HD
ATOM     56  C   UNL A   1      41.474  31.258  31.946  1.00  0.00     0.074 A 
ATOM     57  C   UNL A   1      41.394  32.208  30.835  1.00  0.00     0.031 C 
ATOM     58  C   UNL A   1      42.503  30.497  32.429  1.00  0.00     0.031 A 
BRANCH  45  59
ATOM     59  C   UNL A   1      45.137  32.158  28.019  1.00  0.00    -0.014 A 
ATOM     60  C   UNL A   1      46.424  32.729  27.921  1.00  0.00     0.010 A 
ATOM     61  C   UNL A   1      44.044  33.012  27.766  1.00  0.00     0.010 A 
ATOM     62  C   UNL A   1      46.599  34.097  27.671  1.00  0.00     0.020 A 
ATOM     63  C   UNL A   1      44.208  34.368  27.472  1.00  0.00     0.020 A 
ATOM     64  C   UNL A   1      45.485  34.910  27.464  1.00  0.00     0.054 A 
BRANCH  64  65
ATOM     65  S   UNL A   1      45.712  36.693  27.259  1.00  0.00     0.124 S 
ATOM     66  O   UNL A   1      46.207  37.085  28.575  1.00  0.00    -0.237 OA
ATOM     67  O   UNL A   1      46.684  36.757  26.170  1.00  0.00    -0.237 OA
ATOM     68  O   UNL A   1      44.374  37.172  26.923  1.00  0.00    -0.744 OA
ENDBRANCH  64  65
ENDBRANCH  45  59
BRANCH  46  69
ATOM     69  C   UNL A   1      37.037  31.280  30.281  1.00  0.00    -0.014 A 
ATOM     70  C   UNL A   1      36.297  32.019  31.221  1.00  0.00     0.010 A 
ATOM     71  C   UNL A   1      36.683  31.408  28.921  1.00  0.00     0.010 A 
ATOM     72  C   UNL A   1      35.281  32.903  30.811  1.00  0.00     0.020 A 
ATOM     73  C   UNL A   1      35.673  32.286  28.505  1.00  0.00     0.020 A 
ATOM     74  C   UNL A   1      34.991  33.047  29.452  1.00  0.00     0.054 A 
BRANCH  74  75
ATOM     75  S   UNL A   1      33.801  34.318  28.921  1.00  0.00     0.124 S 
ATOM     76  O   UNL A   1      33.142  34.670  30.176  1.00  0.00    -0.237 OA
ATOM     77  O   UNL A   1      34.667  35.347  28.353  1.00  0.00    -0.237 OA
ATOM     78  O   UNL A   1      32.958  33.618  27.953  1.00  0.00    -0.744 OA
ENDBRANCH  74  75
ENDBRANCH  46  69
BRANCH  58  79
ATOM     79  C   UNL A   1      42.199  29.486  33.517  1.00  0.00    -0.014 A 
ATOM     80  C   UNL A   1      41.675  28.197  33.280  1.00  0.00     0.010 A 
ATOM     81  C   UNL A   1      42.606  29.805  34.823  1.00  0.00     0.010 A 
ATOM     82  C   UNL A   1      41.544  27.268  34.328  1.00  0.00     0.020 A 
ATOM     83  C   UNL A   1      42.492  28.882  35.866  1.00  0.00     0.020 A 
ATOM     84  C   UNL A   1      41.955  27.620  35.617  1.00  0.00     0.054 A 
BRANCH  84  85
ATOM     85  S   UNL A   1      41.820  26.411  36.966  1.00  0.00     0.124 S 
ATOM     86  O   UNL A   1      40.516  26.722  37.545  1.00  0.00    -0.237 OA
ATOM     87  O   UNL A   1      41.908  25.130  36.267  1.00  0.00    -0.237 OA
ATOM     88  O   UNL A   1      42.965  26.716  37.824  1.00  0.00    -0.744 OA
ENDBRANCH  84  85
ENDBRANCH  58  79
ENDBRANCH  32  33
ENDBRANCH  24  27
ENDBRANCH  22  23
ENDBRANCH  21  22
ENDBRANCH  20  21
ENDBRANCH   1  20
TORSDOF 20
ENDMDL
MODEL 3
REMARK VINA RESULT:      -9.7      2.813      3.857
REMARK SMILES COCCS(=O)(=O)CCn1cc(C(=O)NCCCCNC(=O)c2ccc(-c3c4nc(c(-c5ccc(S(=O)(=O)[O-])cc5)c5ccc([nH]5)c(-c5ccc(S(=O)(=O)[O-])cc5)c5nc(c(-c6ccc(S(=O)(=O)[O-])cc6)c6ccc3[nH]6)C=C5)C=C4)cc2)nn1
REMARK SMILES IDX 16 1 15 2 13 3 14 4 12 6 10 7 11 8 84 9 83 10 9 11 8 12 5 13
REMARK SMILES IDX 6 14 7 15 4 16 3 17 2 18 1 19 17 20 18 21 19 22 20 23 21 24
REMARK SMILES IDX 22 26 23 27 24 28 82 29 25 30 81 31 26 32 27 33 28 34 75 35
REMARK SMILES IDX 29 36 80 37 74 38 76 39 30 40 79 41 73 42 72 43 31 45 61 46
REMARK SMILES IDX 42 47 60 48 43 49 46 50 59 51 77 52 44 53 45 54 58 56 78 57
REMARK SMILES IDX 47 58 32 59 33 60 41 61 34 62 40 63 35 64 36 65 37 66 38 67
REMARK SMILES IDX 39 68 62 69 63 70 71 71 64 72 70 73 65 74 66 75 67 76 68 77
REMARK SMILES IDX 69 78 48 79 49 80 57 81 50 82 56 83 51 84 52 85 53 86 54 87
REMARK SMILES IDX 55 88
REMARK H PARENT 15 5 20 25 76 44 46 55
REMARK Flexibility Score: inf
ROOT
ATOM      1  C   UNL A   1      37.569  23.745  26.082  1.00  0.00     0.116 C 
ENDROOT
BRANCH   1   2
ATOM      2  N   UNL A   1      37.556  23.595  24.633  1.00  0.00    -0.351 N 
ATOM      3  C   UNL A   1      36.607  23.145  23.731  1.00  0.00     0.273 C 
ATOM      4  O   UNL A   1      36.978  23.027  22.563  1.00  0.00    -0.267 OA
ATOM      5  H   UNL A   1      38.398  23.872  24.206  1.00  0.00     0.163 HD
BRANCH   3   6
ATOM      6  C   UNL A   1      35.264  22.747  24.146  1.00  0.00     0.170 A 
ATOM      7  N   UNL A   1      33.407  21.709  24.548  1.00  0.00    -0.251 N 
ATOM      8  C   UNL A   1      34.759  21.532  24.575  1.00  0.00     0.145 A 
ATOM      9  N   UNL A   1      33.081  22.991  24.356  1.00  0.00    -0.067 NA
ATOM     10  N   UNL A   1      34.210  23.644  24.111  1.00  0.00    -0.125 NA
BRANCH   7  11
ATOM     11  C   UNL A   1      32.378  20.700  24.549  1.00  0.00     0.162 C 
BRANCH  11  12
ATOM     12  C   UNL A   1      32.217  19.925  23.250  1.00  0.00     0.160 C 
BRANCH  12  13
ATOM     13  S   UNL A   1      32.460  18.167  23.312  1.00  0.00     0.154 S 
ATOM     14  O   UNL A   1      31.929  17.622  22.075  1.00  0.00    -0.229 OA
ATOM     15  O   UNL A   1      31.890  17.742  24.581  1.00  0.00    -0.229 OA
BRANCH  13  16
ATOM     16  C   UNL A   1      34.159  17.708  23.373  1.00  0.00     0.165 C 
BRANCH  16  17
ATOM     17  C   UNL A   1      34.916  17.648  24.675  1.00  0.00     0.176 C 
BRANCH  17  18
ATOM     18  O   UNL A   1      34.724  16.449  25.402  1.00  0.00    -0.384 OA
ATOM     19  C   UNL A   1      35.856  15.607  25.465  1.00  0.00     0.194 C 
ENDBRANCH  17  18
ENDBRANCH  16  17
ENDBRANCH  13  16
ENDBRANCH  12  13
ENDBRANCH  11  12
ENDBRANCH   7  11
ENDBRANCH   3   6
ENDBRANCH   1   2
BRANCH   1  20
ATOM     20  C   UNL A   1      38.951  24.111  26.645  1.00  0.00     0.023 C 
BRANCH  20  21
ATOM     21  C   UNL A   1      39.831  23.018  27.255  1.00  0.00     0.023 C 
BRANCH  21  22
ATOM     22  C   UNL A   1      41.217  23.475  27.682  1.00  0.00     0.116 C 
BRANCH  22  23
ATOM     23  N   UNL A   1      42.297  23.123  26.748  1.00  0.00    -0.352 N 
ATOM     24  C   UNL A   1      42.904  23.968  25.815  1.00  0.00     0.251 C 
ATOM     25  H   UNL A   1      42.625  22.196  26.782  1.00  0.00     0.163 HD
ATOM     26  O   UNL A   1      43.504  23.549  24.850  1.00  0.00    -0.269 OA
BRANCH  24  27
ATOM     27  C   UNL A   1      42.818  25.410  26.102  1.00  0.00     0.039 A 
ATOM     28  C   UNL A   1      41.825  26.241  25.574  1.00  0.00     0.014 A 
ATOM     29  C   UNL A   1      43.663  25.835  27.116  1.00  0.00     0.014 A 
ATOM     30  C   UNL A   1      41.622  27.487  26.172  1.00  0.00     0.010 A 
ATOM     31  C   UNL A   1      43.285  26.923  27.843  1.00  0.00     0.010 A 
ATOM     32  C   UNL A   1      42.338  27.804  27.337  1.00  0.00    -0.014 A 
BRANCH  32  33
ATOM     33  C   UNL A   1      42.074  28.995  28.137  1.00  0.00     0.031 A 
ATOM     34  C   UNL A   1      43.079  30.085  28.006  1.00  0.00     0.074 A 
ATOM     35  C   UNL A   1      40.872  29.193  28.730  1.00  0.00     0.049 A 
ATOM     36  N   UNL A   1      43.954  30.457  28.881  1.00  0.00    -0.248 NA
ATOM     37  C   UNL A   1      43.236  30.744  26.698  1.00  0.00     0.031 C 
ATOM     38  C   UNL A   1      39.665  28.348  28.675  1.00  0.00     0.029 A 
ATOM     39  N   UNL A   1      40.426  30.274  29.414  1.00  0.00    -0.354 N 
ATOM     40  C   UNL A   1      44.592  31.567  28.335  1.00  0.00     0.074 A 
ATOM     41  C   UNL A   1      44.271  31.556  26.931  1.00  0.00     0.031 C 
ATOM     42  C   UNL A   1      38.584  29.060  29.061  1.00  0.00     0.029 A 
ATOM     43  C   UNL A   1      39.048  30.319  29.604  1.00  0.00     0.049 A 
ATOM     44  H   UNL A   1      41.030  30.975  29.751  1.00  0.00     0.167 HD
ATOM     45  C   UNL A   1      45.095  32.558  29.129  1.00  0.00     0.031 A 
ATOM     46  C   UNL A   1      38.334  31.313  30.187  1.00  0.00     0.031 A 
ATOM     47  C   UNL A   1      45.138  32.149  30.512  1.00  0.00     0.049 A 
ATOM     48  C   UNL A   1      39.293  32.068  31.028  1.00  0.00     0.074 A 
ATOM     49  C   UNL A   1      45.763  31.138  31.215  1.00  0.00     0.029 A 
ATOM     50  N   UNL A   1      44.105  32.581  31.311  1.00  0.00    -0.354 N 
ATOM     51  N   UNL A   1      39.918  31.539  32.044  1.00  0.00    -0.248 NA
ATOM     52  C   UNL A   1      39.922  33.244  30.451  1.00  0.00     0.031 C 
ATOM     53  C   UNL A   1      44.786  30.693  32.157  1.00  0.00     0.029 A 
ATOM     54  C   UNL A   1      43.658  31.508  32.040  1.00  0.00     0.049 A 
ATOM     55  H   UNL A   1      43.749  33.498  31.353  1.00  0.00     0.167 HD
ATOM     56  C   UNL A   1      41.214  32.029  31.960  1.00  0.00     0.074 A 
ATOM     57  C   UNL A   1      41.129  33.148  31.020  1.00  0.00     0.031 C 
ATOM     58  C   UNL A   1      42.276  31.313  32.440  1.00  0.00     0.031 A 
BRANCH  45  59
ATOM     59  C   UNL A   1      45.126  34.020  28.738  1.00  0.00    -0.014 A 
ATOM     60  C   UNL A   1      44.661  34.388  27.457  1.00  0.00     0.010 A 
ATOM     61  C   UNL A   1      45.847  34.995  29.455  1.00  0.00     0.010 A 
ATOM     62  C   UNL A   1      44.977  35.632  26.895  1.00  0.00     0.020 A 
ATOM     63  C   UNL A   1      46.131  36.255  28.923  1.00  0.00     0.020 A 
ATOM     64  C   UNL A   1      45.726  36.552  27.629  1.00  0.00     0.054 A 
BRANCH  64  65
ATOM     65  S   UNL A   1      46.231  38.107  26.854  1.00  0.00     0.124 S 
ATOM     66  O   UNL A   1      44.950  38.784  26.680  1.00  0.00    -0.237 OA
ATOM     67  O   UNL A   1      47.119  38.679  27.863  1.00  0.00    -0.237 OA
ATOM     68  O   UNL A   1      46.888  37.677  25.624  1.00  0.00    -0.744 OA
ENDBRANCH  64  65
ENDBRANCH  45  59
BRANCH  46  69
ATOM     69  C   UNL A   1      37.017  31.854  29.766  1.00  0.00    -0.014 A 
ATOM     70  C   UNL A   1      35.955  31.975  30.681  1.00  0.00     0.010 A 
ATOM     71  C   UNL A   1      36.901  32.530  28.533  1.00  0.00     0.010 A 
ATOM     72  C   UNL A   1      34.847  32.795  30.400  1.00  0.00     0.020 A 
ATOM     73  C   UNL A   1      35.800  33.349  28.247  1.00  0.00     0.020 A 
ATOM     74  C   UNL A   1      34.787  33.494  29.191  1.00  0.00     0.054 A 
BRANCH  74  75
ATOM     75  S   UNL A   1      33.439  34.686  28.914  1.00  0.00     0.124 S 
ATOM     76  O   UNL A   1      32.906  34.871  30.260  1.00  0.00    -0.237 OA
ATOM     77  O   UNL A   1      34.141  35.835  28.349  1.00  0.00    -0.237 OA
ATOM     78  O   UNL A   1      32.551  33.988  27.985  1.00  0.00    -0.744 OA
ENDBRANCH  74  75
ENDBRANCH  46  69
BRANCH  58  79
ATOM     79  C   UNL A   1      41.994  30.097  33.299  1.00  0.00    -0.014 A 
ATOM     80  C   UNL A   1      41.853  28.786  32.797  1.00  0.00     0.010 A 
ATOM     81  C   UNL A   1      42.023  30.273  34.693  1.00  0.00     0.010 A 
ATOM     82  C   UNL A   1      41.724  27.690  33.670  1.00  0.00     0.020 A 
ATOM     83  C   UNL A   1      41.910  29.187  35.565  1.00  0.00     0.020 A 
ATOM     84  C   UNL A   1      41.753  27.900  35.051  1.00  0.00     0.054 A 
BRANCH  84  85
ATOM     85  S   UNL A   1      41.622  26.484  36.181  1.00  0.00     0.124 S 
ATOM     86  O   UNL A   1      40.895  27.047  37.316  1.00  0.00    -0.237 OA
ATOM     87  O   UNL A   1      40.885  25.502  35.389  1.00  0.00    -0.237 OA
ATOM     88  O   UNL A   1      43.013  26.126  36.456  1.00  0.00    -0.744 OA
ENDBRANCH  84  85
ENDBRANCH  58  79
ENDBRANCH  32  33
ENDBRANCH  24  27
ENDBRANCH  22  23
ENDBRANCH  21  22
ENDBRANCH  20  21
ENDBRANCH   1  20
TORSDOF 20
ENDMDL
