MODEL 1
REMARK VINA RESULT:     -12.9      0.000      0.000
REMARK SMILES Cc1ccc(NC(=O)C[C@@H](C(=O)NCCCCNC(=O)c2ccc(-c3c4nc(c(-c5ccc(S(=O)(=O)[O-])cc5)c5ccc([nH]5)c(-c5ccc(S(=O)(=O)[O-])cc5)c5nc(c(-c6ccc(S(=O)(=O)[O-])cc6)c6ccc3[nH]6)C=C5)C=C4)cc2)[NH+]2CCOCC2)cc1
REMARK SMILES IDX 15 1 14 2 13 3 11 4 12 5 10 7 9 8 7 9 6 10 8 12 5 13 1 14
REMARK SMILES IDX 2 15 3 16 88 17 4 18 87 19 81 20 82 21 86 22 83 24 85 25
REMARK SMILES IDX 84 26 16 27 17 28 18 29 19 30 20 32 21 33 22 34 80 35 23 36
REMARK SMILES IDX 79 37 24 38 25 39 26 40 73 41 27 42 78 43 72 44 74 45 28 46
REMARK SMILES IDX 77 47 71 48 70 49 29 51 59 52 40 53 58 54 41 55 44 56 57 57
REMARK SMILES IDX 75 58 42 59 43 60 56 62 76 63 45 64 30 65 31 66 39 67 32 68
REMARK SMILES IDX 38 69 33 70 34 71 35 72 36 73 37 74 60 75 61 76 69 77 62 78
REMARK SMILES IDX 68 79 63 80 64 81 65 82 66 83 67 84 46 85 47 86 55 87 48 88
REMARK SMILES IDX 54 89 49 90 50 91 51 92 52 93 53 94
REMARK H PARENT 13 6 6 11 81 23 18 31 74 50 44 61
REMARK Flexibility Score: inf
ROOT
ATOM      1  C   UNL A   1      32.399  28.578  27.455  1.00  0.00     0.023 C 
ENDROOT
BRANCH   1   2
ATOM      2  C   UNL A   1      32.604  27.345  26.554  1.00  0.00     0.116 C 
BRANCH   2   3
ATOM      3  N   UNL A   1      31.393  26.606  26.243  1.00  0.00    -0.351 N 
ATOM      4  C   UNL A   1      31.125  25.340  25.830  1.00  0.00     0.278 C 
ATOM      5  O   UNL A   1      29.924  25.037  25.861  1.00  0.00    -0.268 OA
ATOM      6  H   UNL A   1      30.578  27.147  26.358  1.00  0.00     0.163 HD
BRANCH   4   7
ATOM      7  C   UNL A   1      32.231  24.306  25.412  1.00  0.00     0.283 C 
BRANCH   7   8
ATOM      8  C   UNL A   1      32.376  24.080  23.890  1.00  0.00     0.175 C 
BRANCH   8   9
ATOM      9  C   UNL A   1      33.546  24.623  23.113  1.00  0.00     0.230 C 
ATOM     10  N   UNL A   1      33.594  25.886  22.604  1.00  0.00    -0.326 N 
ATOM     11  H   UNL A   1      34.436  26.095  22.140  1.00  0.00     0.169 HD
ATOM     12  O   UNL A   1      34.500  23.870  22.888  1.00  0.00    -0.274 OA
BRANCH  10  13
ATOM     13  C   UNL A   1      32.673  26.948  22.613  1.00  0.00     0.041 A 
ATOM     14  C   UNL A   1      29.828  30.004  23.638  1.00  0.00     0.044 C 
ATOM     15  C   UNL A   1      30.852  29.016  23.169  1.00  0.00    -0.051 A 
ATOM     16  C   UNL A   1      30.443  27.879  22.470  1.00  0.00     0.005 A 
ATOM     17  C   UNL A   1      32.206  29.174  23.464  1.00  0.00     0.005 A 
ATOM     18  C   UNL A   1      31.352  26.857  22.185  1.00  0.00     0.026 A 
ATOM     19  C   UNL A   1      33.116  28.156  23.162  1.00  0.00     0.026 A 
ENDBRANCH  10  13
ENDBRANCH   8   9
ENDBRANCH   7   8
BRANCH   7  20
ATOM     20  N   UNL A   1      31.974  22.997  26.120  1.00  0.00    -0.320 N 
ATOM     21  C   UNL A   1      32.585  22.890  27.465  1.00  0.00     0.291 C 
ATOM     22  C   UNL A   1      32.147  21.722  25.406  1.00  0.00     0.291 C 
ATOM     23  H   UNL A   1      30.961  23.102  26.188  1.00  0.00     0.348 HD
ATOM     24  C   UNL A   1      33.980  22.243  27.483  1.00  0.00     0.221 C 
ATOM     25  C   UNL A   1      33.554  21.122  25.471  1.00  0.00     0.221 C 
ATOM     26  O   UNL A   1      33.988  20.971  26.824  1.00  0.00    -0.370 OA
ENDBRANCH   7  20
ENDBRANCH   4   7
ENDBRANCH   2   3
ENDBRANCH   1   2
BRANCH   1  27
ATOM     27  C   UNL A   1      33.109  29.877  27.064  1.00  0.00     0.023 C 
BRANCH  27  28
ATOM     28  C   UNL A   1      34.626  29.772  26.994  1.00  0.00     0.116 C 
BRANCH  28  29
ATOM     29  N   UNL A   1      35.303  30.917  27.610  1.00  0.00    -0.352 N 
ATOM     30  C   UNL A   1      36.535  30.924  28.236  1.00  0.00     0.251 C 
ATOM     31  H   UNL A   1      34.825  31.778  27.573  1.00  0.00     0.163 HD
ATOM     32  O   UNL A   1      36.992  31.896  28.829  1.00  0.00    -0.269 OA
BRANCH  30  33
ATOM     33  C   UNL A   1      37.327  29.694  28.093  1.00  0.00     0.039 A 
ATOM     34  C   UNL A   1      37.453  28.891  29.232  1.00  0.00     0.014 A 
ATOM     35  C   UNL A   1      38.228  29.623  27.034  1.00  0.00     0.014 A 
ATOM     36  C   UNL A   1      38.610  28.141  29.399  1.00  0.00     0.010 A 
ATOM     37  C   UNL A   1      39.416  28.952  27.248  1.00  0.00     0.010 A 
ATOM     38  C   UNL A   1      39.627  28.259  28.450  1.00  0.00    -0.014 A 
BRANCH  38  39
ATOM     39  C   UNL A   1      40.974  27.749  28.669  1.00  0.00     0.031 A 
ATOM     40  C   UNL A   1      41.283  26.353  28.292  1.00  0.00     0.074 A 
ATOM     41  C   UNL A   1      41.947  28.534  29.186  1.00  0.00     0.049 A 
ATOM     42  N   UNL A   1      42.186  25.630  28.864  1.00  0.00    -0.248 NA
ATOM     43  C   UNL A   1      40.543  25.642  27.253  1.00  0.00     0.031 C 
ATOM     44  C   UNL A   1      43.375  28.228  29.239  1.00  0.00     0.029 A 
ATOM     45  N   UNL A   1      41.821  29.679  29.978  1.00  0.00    -0.354 N 
ATOM     46  C   UNL A   1      42.360  24.514  28.080  1.00  0.00     0.074 A 
ATOM     47  C   UNL A   1      41.261  24.521  27.143  1.00  0.00     0.031 C 
ATOM     48  C   UNL A   1      43.927  28.931  30.239  1.00  0.00     0.029 A 
ATOM     49  C   UNL A   1      42.846  29.605  30.936  1.00  0.00     0.049 A 
ATOM     50  H   UNL A   1      41.148  30.392  29.884  1.00  0.00     0.167 HD
ATOM     51  C   UNL A   1      43.502  23.778  28.177  1.00  0.00     0.031 A 
ATOM     52  C   UNL A   1      42.634  29.568  32.284  1.00  0.00     0.031 A 
ATOM     53  C   UNL A   1      44.394  24.283  29.215  1.00  0.00     0.049 A 
ATOM     54  C   UNL A   1      43.239  28.347  32.949  1.00  0.00     0.074 A 
ATOM     55  C   UNL A   1      45.535  25.068  29.182  1.00  0.00     0.029 A 
ATOM     56  N   UNL A   1      43.982  24.246  30.541  1.00  0.00    -0.354 N 
ATOM     57  N   UNL A   1      43.663  27.296  32.303  1.00  0.00    -0.248 NA
ATOM     58  C   UNL A   1      43.368  28.190  34.395  1.00  0.00     0.031 C 
ATOM     59  C   UNL A   1      45.780  25.545  30.495  1.00  0.00     0.029 A 
ATOM     60  C   UNL A   1      44.801  25.032  31.327  1.00  0.00     0.049 A 
ATOM     61  H   UNL A   1      43.212  23.730  30.874  1.00  0.00     0.167 HD
ATOM     62  C   UNL A   1      44.100  26.342  33.190  1.00  0.00     0.074 A 
ATOM     63  C   UNL A   1      43.905  26.961  34.490  1.00  0.00     0.031 C 
ATOM     64  C   UNL A   1      44.570  25.129  32.764  1.00  0.00     0.031 A 
BRANCH  51  65
ATOM     65  C   UNL A   1      43.910  22.820  27.087  1.00  0.00    -0.014 A 
ATOM     66  C   UNL A   1      43.017  21.814  26.670  1.00  0.00     0.010 A 
ATOM     67  C   UNL A   1      45.184  22.819  26.487  1.00  0.00     0.010 A 
ATOM     68  C   UNL A   1      43.407  20.794  25.792  1.00  0.00     0.020 A 
ATOM     69  C   UNL A   1      45.603  21.780  25.640  1.00  0.00     0.020 A 
ATOM     70  C   UNL A   1      44.712  20.765  25.307  1.00  0.00     0.054 A 
BRANCH  70  71
ATOM     71  S   UNL A   1      45.228  19.375  24.265  1.00  0.00     0.124 S 
ATOM     72  O   UNL A   1      44.510  19.629  23.018  1.00  0.00    -0.237 OA
ATOM     73  O   UNL A   1      46.676  19.553  24.204  1.00  0.00    -0.237 OA
ATOM     74  O   UNL A   1      44.774  18.199  25.006  1.00  0.00    -0.744 OA
ENDBRANCH  70  71
ENDBRANCH  51  65
BRANCH  52  75
ATOM     75  C   UNL A   1      41.395  30.259  32.735  1.00  0.00    -0.014 A 
ATOM     76  C   UNL A   1      40.275  29.458  33.043  1.00  0.00     0.010 A 
ATOM     77  C   UNL A   1      41.450  31.571  33.233  1.00  0.00     0.010 A 
ATOM     78  C   UNL A   1      39.313  29.899  33.955  1.00  0.00     0.020 A 
ATOM     79  C   UNL A   1      40.483  32.018  34.145  1.00  0.00     0.020 A 
ATOM     80  C   UNL A   1      39.455  31.157  34.542  1.00  0.00     0.054 A 
BRANCH  80  81
ATOM     81  S   UNL A   1      38.398  31.560  35.966  1.00  0.00     0.124 S 
ATOM     82  O   UNL A   1      39.232  32.495  36.714  1.00  0.00    -0.237 OA
ATOM     83  O   UNL A   1      37.224  32.144  35.317  1.00  0.00    -0.237 OA
ATOM     84  O   UNL A   1      38.177  30.263  36.596  1.00  0.00    -0.744 OA
ENDBRANCH  80  81
ENDBRANCH  52  75
BRANCH  64  85
ATOM     85  C   UNL A   1      44.930  23.920  33.611  1.00  0.00    -0.014 A 
ATOM     86  C   UNL A   1      44.045  22.903  33.993  1.00  0.00     0.010 A 
ATOM     87  C   UNL A   1      46.291  23.737  33.980  1.00  0.00     0.010 A 
ATOM     88  C   UNL A   1      44.481  21.789  34.732  1.00  0.00     0.020 A 
ATOM     89  C   UNL A   1      46.745  22.614  34.676  1.00  0.00     0.020 A 
ATOM     90  C   UNL A   1      45.828  21.650  35.068  1.00  0.00     0.054 A 
BRANCH  90  91
ATOM     91  S   UNL A   1      46.385  20.175  35.956  1.00  0.00     0.124 S 
ATOM     92  O   UNL A   1      45.723  20.332  37.249  1.00  0.00    -0.237 OA
ATOM     93  O   UNL A   1      45.880  19.085  35.123  1.00  0.00    -0.237 OA
ATOM     94  O   UNL A   1      47.839  20.311  35.974  1.00  0.00    -0.744 OA
ENDBRANCH  90  91
ENDBRANCH  64  85
ENDBRANCH  38  39
ENDBRANCH  30  33
ENDBRANCH  28  29
ENDBRANCH  27  28
ENDBRANCH   1  27
TORSDOF 18
ENDMDL
MODEL 2
REMARK VINA RESULT:     -12.7      4.746     11.164
REMARK SMILES Cc1ccc(NC(=O)C[C@@H](C(=O)NCCCCNC(=O)c2ccc(-c3c4nc(c(-c5ccc(S(=O)(=O)[O-])cc5)c5ccc([nH]5)c(-c5ccc(S(=O)(=O)[O-])cc5)c5nc(c(-c6ccc(S(=O)(=O)[O-])cc6)c6ccc3[nH]6)C=C5)C=C4)cc2)[NH+]2CCOCC2)cc1
REMARK SMILES IDX 15 1 14 2 13 3 11 4 12 5 10 7 9 8 7 9 6 10 8 12 5 13 1 14
REMARK SMILES IDX 2 15 3 16 88 17 4 18 87 19 81 20 82 21 86 22 83 24 85 25
REMARK SMILES IDX 84 26 16 27 17 28 18 29 19 30 20 32 21 33 22 34 80 35 23 36
REMARK SMILES IDX 79 37 24 38 25 39 26 40 73 41 27 42 78 43 72 44 74 45 28 46
REMARK SMILES IDX 77 47 71 48 70 49 29 51 59 52 40 53 58 54 41 55 44 56 57 57
REMARK SMILES IDX 75 58 42 59 43 60 56 62 76 63 45 64 30 65 31 66 39 67 32 68
REMARK SMILES IDX 38 69 33 70 34 71 35 72 36 73 37 74 60 75 61 76 69 77 62 78
REMARK SMILES IDX 68 79 63 80 64 81 65 82 66 83 67 84 46 85 47 86 55 87 48 88
REMARK SMILES IDX 54 89 49 90 50 91 51 92 52 93 53 94
REMARK H PARENT 13 6 6 11 81 23 18 31 74 50 44 61
REMARK Flexibility Score: inf
ROOT
ATOM      1  C   UNL A   1      36.067  22.421  25.031  1.00  0.00     0.023 C 
ENDROOT
BRANCH   1   2
ATOM      2  C   UNL A   1      35.315  23.682  25.497  1.00  0.00     0.116 C 
BRANCH   2   3
ATOM      3  N   UNL A   1      34.735  24.478  24.430  1.00  0.00    -0.351 N 
ATOM      4  C   UNL A   1      33.878  25.532  24.380  1.00  0.00     0.278 C 
ATOM      5  O   UNL A   1      33.778  26.054  23.261  1.00  0.00    -0.268 OA
ATOM      6  H   UNL A   1      35.031  24.188  23.536  1.00  0.00     0.163 HD
BRANCH   4   7
ATOM      7  C   UNL A   1      33.122  26.102  25.632  1.00  0.00     0.283 C 
BRANCH   7   8
ATOM      8  C   UNL A   1      31.829  25.348  26.018  1.00  0.00     0.175 C 
BRANCH   8   9
ATOM      9  C   UNL A   1      31.215  24.309  25.118  1.00  0.00     0.230 C 
ATOM     10  N   UNL A   1      30.385  24.604  24.078  1.00  0.00    -0.326 N 
ATOM     11  H   UNL A   1      30.085  23.815  23.573  1.00  0.00     0.169 HD
ATOM     12  O   UNL A   1      31.442  23.118  25.358  1.00  0.00    -0.274 OA
BRANCH  10  13
ATOM     13  C   UNL A   1      29.875  25.819  23.587  1.00  0.00     0.041 A 
ATOM     14  C   UNL A   1      29.000  29.938  22.720  1.00  0.00     0.044 C 
ATOM     15  C   UNL A   1      29.254  28.473  22.896  1.00  0.00    -0.051 A 
ATOM     16  C   UNL A   1      28.351  27.699  23.628  1.00  0.00     0.005 A 
ATOM     17  C   UNL A   1      30.406  27.867  22.394  1.00  0.00     0.005 A 
ATOM     18  C   UNL A   1      28.657  26.377  23.961  1.00  0.00     0.026 A 
ATOM     19  C   UNL A   1      30.700  26.539  22.716  1.00  0.00     0.026 A 
ENDBRANCH  10  13
ENDBRANCH   8   9
ENDBRANCH   7   8
BRANCH   7  20
ATOM     20  N   UNL A   1      32.834  27.567  25.409  1.00  0.00    -0.320 N 
ATOM     21  C   UNL A   1      33.978  28.470  25.671  1.00  0.00     0.291 C 
ATOM     22  C   UNL A   1      31.606  28.171  25.948  1.00  0.00     0.291 C 
ATOM     23  H   UNL A   1      32.650  27.495  24.408  1.00  0.00     0.348 HD
ATOM     24  C   UNL A   1      34.028  29.039  27.099  1.00  0.00     0.221 C 
ATOM     25  C   UNL A   1      31.722  28.732  27.369  1.00  0.00     0.221 C 
ATOM     26  O   UNL A   1      32.794  29.670  27.467  1.00  0.00    -0.370 OA
ENDBRANCH   7  20
ENDBRANCH   4   7
ENDBRANCH   2   3
ENDBRANCH   1   2
BRANCH   1  27
ATOM     27  C   UNL A   1      37.490  22.202  25.554  1.00  0.00     0.023 C 
BRANCH  27  28
ATOM     28  C   UNL A   1      38.186  23.465  26.039  1.00  0.00     0.116 C 
BRANCH  28  29
ATOM     29  N   UNL A   1      39.429  23.185  26.765  1.00  0.00    -0.352 N 
ATOM     30  C   UNL A   1      40.177  24.070  27.518  1.00  0.00     0.251 C 
ATOM     31  H   UNL A   1      39.768  22.262  26.710  1.00  0.00     0.163 HD
ATOM     32  O   UNL A   1      41.267  23.796  28.007  1.00  0.00    -0.269 OA
BRANCH  30  33
ATOM     33  C   UNL A   1      39.550  25.377  27.770  1.00  0.00     0.039 A 
ATOM     34  C   UNL A   1      40.011  26.453  27.004  1.00  0.00     0.014 A 
ATOM     35  C   UNL A   1      38.900  25.559  28.988  1.00  0.00     0.014 A 
ATOM     36  C   UNL A   1      39.991  27.727  27.558  1.00  0.00     0.010 A 
ATOM     37  C   UNL A   1      38.970  26.809  29.570  1.00  0.00     0.010 A 
ATOM     38  C   UNL A   1      39.563  27.876  28.878  1.00  0.00    -0.014 A 
BRANCH  38  39
ATOM     39  C   UNL A   1      39.768  29.101  29.640  1.00  0.00     0.031 A 
ATOM     40  C   UNL A   1      38.755  30.174  29.559  1.00  0.00     0.074 A 
ATOM     41  C   UNL A   1      40.851  29.261  30.435  1.00  0.00     0.049 A 
ATOM     42  N   UNL A   1      39.012  31.429  29.719  1.00  0.00    -0.248 NA
ATOM     43  C   UNL A   1      37.355  29.907  29.236  1.00  0.00     0.031 C 
ATOM     44  C   UNL A   1      41.059  30.322  31.418  1.00  0.00     0.029 A 
ATOM     45  N   UNL A   1      42.094  28.626  30.360  1.00  0.00    -0.354 N 
ATOM     46  C   UNL A   1      37.803  32.074  29.838  1.00  0.00     0.074 A 
ATOM     47  C   UNL A   1      36.806  31.105  29.444  1.00  0.00     0.031 C 
ATOM     48  C   UNL A   1      42.378  30.474  31.611  1.00  0.00     0.029 A 
ATOM     49  C   UNL A   1      43.053  29.607  30.661  1.00  0.00     0.049 A 
ATOM     50  H   UNL A   1      42.263  27.681  30.140  1.00  0.00     0.167 HD
ATOM     51  C   UNL A   1      37.736  33.304  30.417  1.00  0.00     0.031 A 
ATOM     52  C   UNL A   1      44.046  29.995  29.809  1.00  0.00     0.031 A 
ATOM     53  C   UNL A   1      39.052  33.811  30.785  1.00  0.00     0.049 A 
ATOM     54  C   UNL A   1      44.025  31.481  29.505  1.00  0.00     0.074 A 
ATOM     55  C   UNL A   1      39.742  33.871  31.986  1.00  0.00     0.029 A 
ATOM     56  N   UNL A   1      39.981  34.077  29.787  1.00  0.00    -0.354 N 
ATOM     57  N   UNL A   1      43.021  32.269  29.776  1.00  0.00    -0.248 NA
ATOM     58  C   UNL A   1      45.109  32.186  28.828  1.00  0.00     0.031 C 
ATOM     59  C   UNL A   1      41.106  34.127  31.699  1.00  0.00     0.029 A 
ATOM     60  C   UNL A   1      41.241  34.244  30.327  1.00  0.00     0.049 A 
ATOM     61  H   UNL A   1      39.770  34.137  28.827  1.00  0.00     0.167 HD
ATOM     62  C   UNL A   1      43.287  33.540  29.327  1.00  0.00     0.074 A 
ATOM     63  C   UNL A   1      44.617  33.436  28.753  1.00  0.00     0.031 C 
ATOM     64  C   UNL A   1      42.377  34.553  29.464  1.00  0.00     0.031 A 
BRANCH  51  65
ATOM     65  C   UNL A   1      36.429  33.856  30.930  1.00  0.00    -0.014 A 
ATOM     66  C   UNL A   1      35.378  34.114  30.030  1.00  0.00     0.010 A 
ATOM     67  C   UNL A   1      36.207  34.205  32.276  1.00  0.00     0.010 A 
ATOM     68  C   UNL A   1      34.214  34.788  30.424  1.00  0.00     0.020 A 
ATOM     69  C   UNL A   1      35.065  34.918  32.677  1.00  0.00     0.020 A 
ATOM     70  C   UNL A   1      34.079  35.217  31.742  1.00  0.00     0.054 A 
BRANCH  70  71
ATOM     71  S   UNL A   1      32.618  36.185  32.203  1.00  0.00     0.124 S 
ATOM     72  O   UNL A   1      31.670  35.153  32.617  1.00  0.00    -0.237 OA
ATOM     73  O   UNL A   1      33.132  37.033  33.273  1.00  0.00    -0.237 OA
ATOM     74  O   UNL A   1      32.263  36.884  30.969  1.00  0.00    -0.744 OA
ENDBRANCH  70  71
ENDBRANCH  51  65
BRANCH  52  75
ATOM     75  C   UNL A   1      44.498  28.937  28.864  1.00  0.00    -0.014 A 
ATOM     76  C   UNL A   1      43.862  28.870  27.605  1.00  0.00     0.010 A 
ATOM     77  C   UNL A   1      45.751  28.322  29.027  1.00  0.00     0.010 A 
ATOM     78  C   UNL A   1      44.530  28.340  26.498  1.00  0.00     0.020 A 
ATOM     79  C   UNL A   1      46.420  27.786  27.917  1.00  0.00     0.020 A 
ATOM     80  C   UNL A   1      45.828  27.853  26.652  1.00  0.00     0.054 A 
BRANCH  80  81
ATOM     81  S   UNL A   1      46.791  27.497  25.151  1.00  0.00     0.124 S 
ATOM     82  O   UNL A   1      46.059  26.374  24.574  1.00  0.00    -0.237 OA
ATOM     83  O   UNL A   1      46.688  28.758  24.418  1.00  0.00    -0.237 OA
ATOM     84  O   UNL A   1      48.119  27.189  25.671  1.00  0.00    -0.744 OA
ENDBRANCH  80  81
ENDBRANCH  52  75
BRANCH  64  85
ATOM     85  C   UNL A   1      42.448  35.955  28.882  1.00  0.00    -0.014 A 
ATOM     86  C   UNL A   1      43.015  37.069  29.514  1.00  0.00     0.010 A 
ATOM     87  C   UNL A   1      41.993  36.155  27.550  1.00  0.00     0.010 A 
ATOM     88  C   UNL A   1      43.088  38.319  28.874  1.00  0.00     0.020 A 
ATOM     89  C   UNL A   1      42.099  37.380  26.887  1.00  0.00     0.020 A 
ATOM     90  C   UNL A   1      42.631  38.467  27.564  1.00  0.00     0.054 A 
BRANCH  90  91
ATOM     91  S   UNL A   1      42.799  40.063  26.729  1.00  0.00     0.124 S 
ATOM     92  O   UNL A   1      41.506  40.194  26.063  1.00  0.00    -0.237 OA
ATOM     93  O   UNL A   1      43.029  40.987  27.838  1.00  0.00    -0.237 OA
ATOM     94  O   UNL A   1      43.945  39.871  25.844  1.00  0.00    -0.744 OA
ENDBRANCH  90  91
ENDBRANCH  64  85
ENDBRANCH  38  39
ENDBRANCH  30  33
ENDBRANCH  28  29
ENDBRANCH  27  28
ENDBRANCH   1  27
TORSDOF 18
ENDMDL
MODEL 3
REMARK VINA RESULT:     -12.5      4.699     11.189
REMARK SMILES Cc1ccc(NC(=O)C[C@@H](C(=O)NCCCCNC(=O)c2ccc(-c3c4nc(c(-c5ccc(S(=O)(=O)[O-])cc5)c5ccc([nH]5)c(-c5ccc(S(=O)(=O)[O-])cc5)c5nc(c(-c6ccc(S(=O)(=O)[O-])cc6)c6ccc3[nH]6)C=C5)C=C4)cc2)[NH+]2CCOCC2)cc1
REMARK SMILES IDX 15 1 14 2 13 3 11 4 12 5 10 7 9 8 7 9 6 10 8 12 5 13 1 14
REMARK SMILES IDX 2 15 3 16 88 17 4 18 87 19 81 20 82 21 86 22 83 24 85 25
REMARK SMILES IDX 84 26 16 27 17 28 18 29 19 30 20 32 21 33 22 34 80 35 23 36
REMARK SMILES IDX 79 37 24 38 25 39 26 40 73 41 27 42 78 43 72 44 74 45 28 46
REMARK SMILES IDX 77 47 71 48 70 49 29 51 59 52 40 53 58 54 41 55 44 56 57 57
REMARK SMILES IDX 75 58 42 59 43 60 56 62 76 63 45 64 30 65 31 66 39 67 32 68
REMARK SMILES IDX 38 69 33 70 34 71 35 72 36 73 37 74 60 75 61 76 69 77 62 78
REMARK SMILES IDX 68 79 63 80 64 81 65 82 66 83 67 84 46 85 47 86 55 87 48 88
REMARK SMILES IDX 54 89 49 90 50 91 51 92 52 93 53 94
REMARK H PARENT 13 6 6 11 81 23 18 31 74 50 44 61
REMARK Flexibility Score: inf
ROOT
ATOM      1  C   UNL A   1      36.892  22.637  23.940  1.00  0.00     0.023 C 
ENDROOT
BRANCH   1   2
ATOM      2  C   UNL A   1      35.538  23.361  24.058  1.00  0.00     0.116 C 
BRANCH   2   3
ATOM      3  N   UNL A   1      34.435  22.716  23.367  1.00  0.00    -0.351 N 
ATOM      4  C   UNL A   1      33.155  23.064  23.076  1.00  0.00     0.278 C 
ATOM      5  O   UNL A   1      32.585  22.295  22.289  1.00  0.00    -0.268 OA
ATOM      6  H   UNL A   1      34.670  21.820  23.033  1.00  0.00     0.163 HD
BRANCH   4   7
ATOM      7  C   UNL A   1      32.458  24.362  23.618  1.00  0.00     0.283 C 
BRANCH   7   8
ATOM      8  C   UNL A   1      31.143  24.124  24.396  1.00  0.00     0.175 C 
BRANCH   8   9
ATOM      9  C   UNL A   1      31.124  23.946  25.891  1.00  0.00     0.230 C 
ATOM     10  N   UNL A   1      31.456  24.931  26.774  1.00  0.00    -0.326 N 
ATOM     11  H   UNL A   1      31.372  24.663  27.717  1.00  0.00     0.169 HD
ATOM     12  O   UNL A   1      30.832  22.834  26.345  1.00  0.00    -0.274 OA
BRANCH  10  13
ATOM     13  C   UNL A   1      31.893  26.255  26.597  1.00  0.00     0.041 A 
ATOM     14  C   UNL A   1      33.735  30.127  26.921  1.00  0.00     0.044 C 
ATOM     15  C   UNL A   1      33.084  28.801  26.671  1.00  0.00    -0.051 A 
ATOM     16  C   UNL A   1      31.715  28.651  26.898  1.00  0.00     0.005 A 
ATOM     17  C   UNL A   1      33.826  27.689  26.270  1.00  0.00     0.005 A 
ATOM     18  C   UNL A   1      31.123  27.386  26.850  1.00  0.00     0.026 A 
ATOM     19  C   UNL A   1      33.225  26.428  26.207  1.00  0.00     0.026 A 
ENDBRANCH  10  13
ENDBRANCH   8   9
ENDBRANCH   7   8
BRANCH   7  20
ATOM     20  N   UNL A   1      32.229  25.315  22.470  1.00  0.00    -0.320 N 
ATOM     21  C   UNL A   1      33.453  25.973  21.958  1.00  0.00     0.291 C 
ATOM     22  C   UNL A   1      31.138  26.301  22.532  1.00  0.00     0.291 C 
ATOM     23  H   UNL A   1      31.888  24.617  21.809  1.00  0.00     0.348 HD
ATOM     24  C   UNL A   1      33.758  27.339  22.595  1.00  0.00     0.221 C 
ATOM     25  C   UNL A   1      31.506  27.645  23.165  1.00  0.00     0.221 C 
ATOM     26  O   UNL A   1      32.637  28.229  22.515  1.00  0.00    -0.370 OA
ENDBRANCH   7  20
ENDBRANCH   4   7
ENDBRANCH   2   3
ENDBRANCH   1   2
BRANCH   1  27
ATOM     27  C   UNL A   1      37.555  22.143  25.229  1.00  0.00     0.023 C 
BRANCH  27  28
ATOM     28  C   UNL A   1      37.998  23.250  26.175  1.00  0.00     0.116 C 
BRANCH  28  29
ATOM     29  N   UNL A   1      39.358  23.049  26.684  1.00  0.00    -0.352 N 
ATOM     30  C   UNL A   1      40.207  24.007  27.206  1.00  0.00     0.251 C 
ATOM     31  H   UNL A   1      39.706  22.128  26.651  1.00  0.00     0.163 HD
ATOM     32  O   UNL A   1      41.375  23.790  27.510  1.00  0.00    -0.269 OA
BRANCH  30  33
ATOM     33  C   UNL A   1      39.602  25.326  27.451  1.00  0.00     0.039 A 
ATOM     34  C   UNL A   1      40.132  26.403  26.733  1.00  0.00     0.014 A 
ATOM     35  C   UNL A   1      38.893  25.503  28.636  1.00  0.00     0.014 A 
ATOM     36  C   UNL A   1      40.116  27.666  27.310  1.00  0.00     0.010 A 
ATOM     37  C   UNL A   1      38.965  26.739  29.246  1.00  0.00     0.010 A 
ATOM     38  C   UNL A   1      39.622  27.803  28.608  1.00  0.00    -0.014 A 
BRANCH  38  39
ATOM     39  C   UNL A   1      39.818  29.007  29.405  1.00  0.00     0.031 A 
ATOM     40  C   UNL A   1      38.811  30.086  29.333  1.00  0.00     0.074 A 
ATOM     41  C   UNL A   1      40.888  29.142  30.222  1.00  0.00     0.049 A 
ATOM     42  N   UNL A   1      39.070  31.335  29.529  1.00  0.00    -0.248 NA
ATOM     43  C   UNL A   1      37.416  29.832  28.979  1.00  0.00     0.031 C 
ATOM     44  C   UNL A   1      41.083  30.177  31.235  1.00  0.00     0.029 A 
ATOM     45  N   UNL A   1      42.130  28.504  30.152  1.00  0.00    -0.354 N 
ATOM     46  C   UNL A   1      37.861  31.981  29.644  1.00  0.00     0.074 A 
ATOM     47  C   UNL A   1      36.868  31.028  29.208  1.00  0.00     0.031 C 
ATOM     48  C   UNL A   1      42.399  30.319  31.455  1.00  0.00     0.029 A 
ATOM     49  C   UNL A   1      43.087  29.473  30.494  1.00  0.00     0.049 A 
ATOM     50  H   UNL A   1      42.299  27.564  29.911  1.00  0.00     0.167 HD
ATOM     51  C   UNL A   1      37.789  33.197  30.252  1.00  0.00     0.031 A 
ATOM     52  C   UNL A   1      44.097  29.879  29.670  1.00  0.00     0.031 A 
ATOM     53  C   UNL A   1      39.101  33.689  30.656  1.00  0.00     0.049 A 
ATOM     54  C   UNL A   1      44.086  31.372  29.404  1.00  0.00     0.074 A 
ATOM     55  C   UNL A   1      39.769  33.716  31.870  1.00  0.00     0.029 A 
ATOM     56  N   UNL A   1      40.048  33.976  29.682  1.00  0.00    -0.354 N 
ATOM     57  N   UNL A   1      43.081  32.157  29.677  1.00  0.00    -0.248 NA
ATOM     58  C   UNL A   1      45.184  32.089  28.764  1.00  0.00     0.031 C 
ATOM     59  C   UNL A   1      41.139  33.973  31.613  1.00  0.00     0.029 A 
ATOM     60  C   UNL A   1      41.299  34.125  30.248  1.00  0.00     0.049 A 
ATOM     61  H   UNL A   1      39.854  34.062  28.720  1.00  0.00     0.167 HD
ATOM     62  C   UNL A   1      43.359  33.438  29.265  1.00  0.00     0.074 A 
ATOM     63  C   UNL A   1      44.698  33.343  28.712  1.00  0.00     0.031 C 
ATOM     64  C   UNL A   1      42.450  34.451  29.413  1.00  0.00     0.031 A 
BRANCH  51  65
ATOM     65  C   UNL A   1      36.475  33.741  30.757  1.00  0.00    -0.014 A 
ATOM     66  C   UNL A   1      35.494  34.161  29.838  1.00  0.00     0.010 A 
ATOM     67  C   UNL A   1      36.182  33.927  32.122  1.00  0.00     0.010 A 
ATOM     68  C   UNL A   1      34.335  34.835  30.249  1.00  0.00     0.020 A 
ATOM     69  C   UNL A   1      35.047  34.637  32.545  1.00  0.00     0.020 A 
ATOM     70  C   UNL A   1      34.135  35.098  31.601  1.00  0.00     0.054 A 
BRANCH  70  71
ATOM     71  S   UNL A   1      32.687  36.069  32.099  1.00  0.00     0.124 S 
ATOM     72  O   UNL A   1      31.777  35.045  32.606  1.00  0.00    -0.237 OA
ATOM     73  O   UNL A   1      33.246  36.968  33.104  1.00  0.00    -0.237 OA
ATOM     74  O   UNL A   1      32.258  36.711  30.857  1.00  0.00    -0.744 OA
ENDBRANCH  70  71
ENDBRANCH  51  65
BRANCH  52  75
ATOM     75  C   UNL A   1      44.561  28.843  28.707  1.00  0.00    -0.014 A 
ATOM     76  C   UNL A   1      43.989  28.848  27.416  1.00  0.00     0.010 A 
ATOM     77  C   UNL A   1      45.782  28.178  28.907  1.00  0.00     0.010 A 
ATOM     78  C   UNL A   1      44.694  28.339  26.323  1.00  0.00     0.020 A 
ATOM     79  C   UNL A   1      46.489  27.662  27.811  1.00  0.00     0.020 A 
ATOM     80  C   UNL A   1      45.966  27.799  26.522  1.00  0.00     0.054 A 
BRANCH  80  81
ATOM     81  S   UNL A   1      46.992  27.469  25.058  1.00  0.00     0.124 S 
ATOM     82  O   UNL A   1      48.160  28.309  25.303  1.00  0.00    -0.237 OA
ATOM     83  O   UNL A   1      47.220  26.028  25.166  1.00  0.00    -0.237 OA
ATOM     84  O   UNL A   1      46.136  27.879  23.950  1.00  0.00    -0.744 OA
ENDBRANCH  80  81
ENDBRANCH  52  75
BRANCH  64  85
ATOM     85  C   UNL A   1      42.537  35.866  28.867  1.00  0.00    -0.014 A 
ATOM     86  C   UNL A   1      43.240  36.923  29.459  1.00  0.00     0.010 A 
ATOM     87  C   UNL A   1      41.940  36.140  27.606  1.00  0.00     0.010 A 
ATOM     88  C   UNL A   1      43.313  38.190  28.852  1.00  0.00     0.020 A 
ATOM     89  C   UNL A   1      42.042  37.380  26.971  1.00  0.00     0.020 A 
ATOM     90  C   UNL A   1      42.714  38.410  27.611  1.00  0.00     0.054 A 
BRANCH  90  91
ATOM     91  S   UNL A   1      42.879  40.024  26.809  1.00  0.00     0.124 S 
ATOM     92  O   UNL A   1      41.578  40.175  26.164  1.00  0.00    -0.237 OA
ATOM     93  O   UNL A   1      43.127  40.922  27.936  1.00  0.00    -0.237 OA
ATOM     94  O   UNL A   1      44.012  39.847  25.905  1.00  0.00    -0.744 OA
ENDBRANCH  90  91
ENDBRANCH  64  85
ENDBRANCH  38  39
ENDBRANCH  30  33
ENDBRANCH  28  29
ENDBRANCH  27  28
ENDBRANCH   1  27
TORSDOF 18
ENDMDL
