MODEL 1
REMARK VINA RESULT:     -12.6      0.000      0.000
REMARK SMILES Nc1nc(SCc2c(C(=O)NCCCCNC(=O)c3ccc(-c4c5nc(c(-c6ccc(S(=O)(=O)[O-])cc6)c6ccc([nH]6)c(-c6ccc(S(=O)(=O)[O-])cc6)c6nc(c(-c7ccc(S(=O)(=O)[O-])cc7)c7ccc4[nH]7)C=C6)C=C5)cc3)sc3cccc(F)c23)n[nH]1
REMARK SMILES IDX 13 1 12 2 11 3 9 4 10 5 8 7 7 8 86 9 79 10 80 11 84 12 81 13
REMARK SMILES IDX 83 14 85 15 82 16 6 17 5 18 4 19 2 20 3 21 88 22 87 23 1 25
REMARK SMILES IDX 14 28 15 29 16 30 17 31 18 33 19 34 20 35 78 36 21 37 77 38
REMARK SMILES IDX 22 39 23 40 24 41 71 42 25 43 76 44 70 45 72 46 26 47 75 48
REMARK SMILES IDX 69 49 68 50 27 52 57 53 38 54 56 55 39 56 42 57 55 58 73 59
REMARK SMILES IDX 40 60 41 61 54 63 74 64 43 65 28 66 29 67 37 68 30 69 36 70
REMARK SMILES IDX 31 71 32 72 33 73 34 74 35 75 58 76 59 77 67 78 60 79 66 80
REMARK SMILES IDX 61 81 62 82 63 83 64 84 65 85 44 86 45 87 53 88 46 89 52 90
REMARK SMILES IDX 47 91 48 92 49 93 50 94 51 95
REMARK H PARENT 11 6 88 24 1 26 1 27 16 32 72 51 42 62
REMARK Flexibility Score: inf
ROOT
ATOM      1  C   UNL A   1      37.882  23.321  25.844  1.00  0.00     0.023 C 
ENDROOT
BRANCH   1   2
ATOM      2  C   UNL A   1      36.394  23.214  25.497  1.00  0.00     0.116 C 
BRANCH   2   3
ATOM      3  N   UNL A   1      35.542  22.930  26.632  1.00  0.00    -0.351 N 
ATOM      4  C   UNL A   1      34.183  23.104  26.816  1.00  0.00     0.261 C 
ATOM      5  O   UNL A   1      33.724  22.670  27.875  1.00  0.00    -0.268 OA
ATOM      6  H   UNL A   1      36.012  22.545  27.407  1.00  0.00     0.163 HD
BRANCH   4   7
ATOM      7  C   UNL A   1      33.414  23.889  25.871  1.00  0.00     0.097 A 
ATOM      8  C   UNL A   1      32.602  23.621  24.774  1.00  0.00    -0.003 A 
ATOM      9  C   UNL A   1      32.907  24.677  23.804  1.00  0.00     0.033 A 
ATOM     10  S   UNL A   1      33.385  25.599  26.135  1.00  0.00    -0.130 S 
ATOM     11  C   UNL A   1      33.268  25.865  24.447  1.00  0.00     0.038 A 
ATOM     12  C   UNL A   1      32.910  24.705  22.389  1.00  0.00     0.132 A 
ATOM     13  C   UNL A   1      33.523  27.064  23.755  1.00  0.00     0.020 A 
ATOM     14  C   UNL A   1      33.292  25.851  21.683  1.00  0.00     0.040 A 
ATOM     15  F   UNL A   1      32.671  23.580  21.698  1.00  0.00    -0.206 F 
ATOM     16  C   UNL A   1      33.571  27.030  22.362  1.00  0.00     0.005 A 
BRANCH   8  17
ATOM     17  C   UNL A   1      31.792  22.388  24.448  1.00  0.00     0.116 C 
BRANCH  17  18
ATOM     18  S   UNL A   1      32.652  20.962  23.752  1.00  0.00    -0.080 SA
BRANCH  18  19
ATOM     19  C   UNL A   1      32.601  19.603  24.836  1.00  0.00     0.210 A 
ATOM     20  C   UNL A   1      32.532  17.653  25.639  1.00  0.00     0.216 A 
ATOM     21  N   UNL A   1      32.198  18.325  24.558  1.00  0.00    -0.186 NA
ATOM     22  N   UNL A   1      32.931  18.540  26.594  1.00  0.00    -0.245 N 
ATOM     23  N   UNL A   1      32.982  19.786  26.106  1.00  0.00    -0.145 NA
ATOM     24  H   UNL A   1      33.153  18.297  27.521  1.00  0.00     0.193 HD
BRANCH  20  25
ATOM     25  N   UNL A   1      32.587  16.327  25.843  1.00  0.00    -0.368 N 
ATOM     26  H   UNL A   1      33.103  15.965  26.599  1.00  0.00     0.159 HD
ATOM     27  H   UNL A   1      32.111  15.716  25.235  1.00  0.00     0.159 HD
ENDBRANCH  20  25
ENDBRANCH  18  19
ENDBRANCH  17  18
ENDBRANCH   8  17
ENDBRANCH   4   7
ENDBRANCH   2   3
ENDBRANCH   1   2
BRANCH   1  28
ATOM     28  C   UNL A   1      38.670  21.998  25.782  1.00  0.00     0.023 C 
BRANCH  28  29
ATOM     29  C   UNL A   1      39.845  21.869  26.758  1.00  0.00     0.116 C 
BRANCH  29  30
ATOM     30  N   UNL A   1      41.136  21.931  26.095  1.00  0.00    -0.352 N 
ATOM     31  C   UNL A   1      41.973  23.004  25.886  1.00  0.00     0.251 C 
ATOM     32  H   UNL A   1      41.462  21.072  25.740  1.00  0.00     0.163 HD
ATOM     33  O   UNL A   1      42.913  22.854  25.106  1.00  0.00    -0.269 OA
BRANCH  31  34
ATOM     34  C   UNL A   1      41.779  24.316  26.561  1.00  0.00     0.039 A 
ATOM     35  C   UNL A   1      41.082  25.321  25.873  1.00  0.00     0.014 A 
ATOM     36  C   UNL A   1      42.345  24.613  27.805  1.00  0.00     0.014 A 
ATOM     37  C   UNL A   1      40.948  26.592  26.432  1.00  0.00     0.010 A 
ATOM     38  C   UNL A   1      42.178  25.866  28.383  1.00  0.00     0.010 A 
ATOM     39  C   UNL A   1      41.505  26.866  27.687  1.00  0.00    -0.014 A 
BRANCH  39  40
ATOM     40  C   UNL A   1      41.326  28.190  28.277  1.00  0.00     0.031 A 
ATOM     41  C   UNL A   1      42.401  29.184  28.008  1.00  0.00     0.074 A 
ATOM     42  C   UNL A   1      40.202  28.606  28.893  1.00  0.00     0.049 A 
ATOM     43  N   UNL A   1      43.252  29.688  28.841  1.00  0.00    -0.248 NA
ATOM     44  C   UNL A   1      42.580  29.635  26.621  1.00  0.00     0.031 C 
ATOM     45  C   UNL A   1      38.904  27.931  28.985  1.00  0.00     0.029 A 
ATOM     46  N   UNL A   1      39.973  29.801  29.507  1.00  0.00    -0.354 N 
ATOM     47  C   UNL A   1      43.971  30.647  28.131  1.00  0.00     0.074 A 
ATOM     48  C   UNL A   1      43.600  30.485  26.746  1.00  0.00     0.031 C 
ATOM     49  C   UNL A   1      37.976  28.807  29.439  1.00  0.00     0.029 A 
ATOM     50  C   UNL A   1      38.644  30.040  29.820  1.00  0.00     0.049 A 
ATOM     51  H   UNL A   1      40.693  30.440  29.711  1.00  0.00     0.167 HD
ATOM     52  C   UNL A   1      44.686  31.633  28.743  1.00  0.00     0.031 A 
ATOM     53  C   UNL A   1      38.133  31.184  30.335  1.00  0.00     0.031 A 
ATOM     54  C   UNL A   1      44.865  31.393  30.149  1.00  0.00     0.049 A 
ATOM     55  C   UNL A   1      39.249  31.893  31.008  1.00  0.00     0.074 A 
ATOM     56  C   UNL A   1      45.467  30.408  30.907  1.00  0.00     0.029 A 
ATOM     57  N   UNL A   1      44.043  32.079  31.012  1.00  0.00    -0.354 N 
ATOM     58  N   UNL A   1      39.874  31.432  32.055  1.00  0.00    -0.248 NA
ATOM     59  C   UNL A   1      39.932  32.963  30.300  1.00  0.00     0.031 C 
ATOM     60  C   UNL A   1      44.622  30.251  32.046  1.00  0.00     0.029 A 
ATOM     61  C   UNL A   1      43.578  31.171  31.930  1.00  0.00     0.049 A 
ATOM     62  H   UNL A   1      43.830  33.039  30.978  1.00  0.00     0.167 HD
ATOM     63  C   UNL A   1      41.185  31.857  31.910  1.00  0.00     0.074 A 
ATOM     64  C   UNL A   1      41.132  32.892  30.882  1.00  0.00     0.031 C 
ATOM     65  C   UNL A   1      42.223  31.150  32.445  1.00  0.00     0.031 A 
BRANCH  52  66
ATOM     66  C   UNL A   1      44.938  32.989  28.133  1.00  0.00    -0.014 A 
ATOM     67  C   UNL A   1      46.151  33.658  28.398  1.00  0.00     0.010 A 
ATOM     68  C   UNL A   1      43.910  33.740  27.525  1.00  0.00     0.010 A 
ATOM     69  C   UNL A   1      46.308  35.022  28.106  1.00  0.00     0.020 A 
ATOM     70  C   UNL A   1      44.072  35.087  27.191  1.00  0.00     0.020 A 
ATOM     71  C   UNL A   1      45.262  35.729  27.511  1.00  0.00     0.054 A 
BRANCH  71  72
ATOM     72  S   UNL A   1      45.427  37.515  27.257  1.00  0.00     0.124 S 
ATOM     73  O   UNL A   1      44.058  37.900  26.916  1.00  0.00    -0.237 OA
ATOM     74  O   UNL A   1      45.904  37.968  28.559  1.00  0.00    -0.237 OA
ATOM     75  O   UNL A   1      46.394  37.619  26.169  1.00  0.00    -0.744 OA
ENDBRANCH  71  72
ENDBRANCH  52  66
BRANCH  53  76
ATOM     76  C   UNL A   1      36.833  31.833  30.033  1.00  0.00    -0.014 A 
ATOM     77  C   UNL A   1      36.071  32.421  31.060  1.00  0.00     0.010 A 
ATOM     78  C   UNL A   1      36.483  32.135  28.701  1.00  0.00     0.010 A 
ATOM     79  C   UNL A   1      35.052  33.344  30.767  1.00  0.00     0.020 A 
ATOM     80  C   UNL A   1      35.463  33.047  28.401  1.00  0.00     0.020 A 
ATOM     81  C   UNL A   1      34.777  33.674  29.438  1.00  0.00     0.054 A 
BRANCH  81  82
ATOM     82  S   UNL A   1      33.591  35.004  29.083  1.00  0.00     0.124 S 
ATOM     83  O   UNL A   1      33.198  35.443  30.419  1.00  0.00    -0.237 OA
ATOM     84  O   UNL A   1      34.403  35.949  28.322  1.00  0.00    -0.237 OA
ATOM     85  O   UNL A   1      32.540  34.335  28.317  1.00  0.00    -0.744 OA
ENDBRANCH  81  82
ENDBRANCH  53  76
BRANCH  65  86
ATOM     86  C   UNL A   1      41.908  30.061  33.445  1.00  0.00    -0.014 A 
ATOM     87  C   UNL A   1      41.645  28.728  33.071  1.00  0.00     0.010 A 
ATOM     88  C   UNL A   1      42.065  30.355  34.811  1.00  0.00     0.010 A 
ATOM     89  C   UNL A   1      41.546  27.717  34.038  1.00  0.00     0.020 A 
ATOM     90  C   UNL A   1      41.981  29.351  35.778  1.00  0.00     0.020 A 
ATOM     91  C   UNL A   1      41.728  28.034  35.388  1.00  0.00     0.054 A 
BRANCH  91  92
ATOM     92  S   UNL A   1      41.682  26.707  36.628  1.00  0.00     0.124 S 
ATOM     93  O   UNL A   1      42.945  26.885  37.341  1.00  0.00    -0.237 OA
ATOM     94  O   UNL A   1      40.479  27.026  37.391  1.00  0.00    -0.237 OA
ATOM     95  O   UNL A   1      41.595  25.485  35.830  1.00  0.00    -0.744 OA
ENDBRANCH  91  92
ENDBRANCH  65  86
ENDBRANCH  39  40
ENDBRANCH  31  34
ENDBRANCH  29  30
ENDBRANCH  28  29
ENDBRANCH   1  28
TORSDOF 18
ENDMDL
MODEL 2
REMARK VINA RESULT:     -12.2      3.755      9.815
REMARK SMILES Nc1nc(SCc2c(C(=O)NCCCCNC(=O)c3ccc(-c4c5nc(c(-c6ccc(S(=O)(=O)[O-])cc6)c6ccc([nH]6)c(-c6ccc(S(=O)(=O)[O-])cc6)c6nc(c(-c7ccc(S(=O)(=O)[O-])cc7)c7ccc4[nH]7)C=C6)C=C5)cc3)sc3cccc(F)c23)n[nH]1
REMARK SMILES IDX 13 1 12 2 11 3 9 4 10 5 8 7 7 8 86 9 79 10 80 11 84 12 81 13
REMARK SMILES IDX 83 14 85 15 82 16 6 17 5 18 4 19 2 20 3 21 88 22 87 23 1 25
REMARK SMILES IDX 14 28 15 29 16 30 17 31 18 33 19 34 20 35 78 36 21 37 77 38
REMARK SMILES IDX 22 39 23 40 24 41 71 42 25 43 76 44 70 45 72 46 26 47 75 48
REMARK SMILES IDX 69 49 68 50 27 52 57 53 38 54 56 55 39 56 42 57 55 58 73 59
REMARK SMILES IDX 40 60 41 61 54 63 74 64 43 65 28 66 29 67 37 68 30 69 36 70
REMARK SMILES IDX 31 71 32 72 33 73 34 74 35 75 58 76 59 77 67 78 60 79 66 80
REMARK SMILES IDX 61 81 62 82 63 83 64 84 65 85 44 86 45 87 53 88 46 89 52 90
REMARK SMILES IDX 47 91 48 92 49 93 50 94 51 95
REMARK H PARENT 11 6 88 24 1 26 1 27 16 32 72 51 42 62
REMARK Flexibility Score: inf
ROOT
ATOM      1  C   UNL A   1      34.250  29.117  27.429  1.00  0.00     0.023 C 
ENDROOT
BRANCH   1   2
ATOM      2  C   UNL A   1      33.760  28.203  26.302  1.00  0.00     0.116 C 
BRANCH   2   3
ATOM      3  N   UNL A   1      34.021  28.714  24.972  1.00  0.00    -0.351 N 
ATOM      4  C   UNL A   1      33.591  28.283  23.731  1.00  0.00     0.261 C 
ATOM      5  O   UNL A   1      33.909  28.994  22.776  1.00  0.00    -0.268 OA
ATOM      6  H   UNL A   1      34.606  29.506  24.949  1.00  0.00     0.163 HD
BRANCH   4   7
ATOM      7  C   UNL A   1      32.945  26.993  23.590  1.00  0.00     0.097 A 
ATOM      8  C   UNL A   1      31.843  26.359  24.152  1.00  0.00    -0.003 A 
ATOM      9  C   UNL A   1      32.252  24.963  24.331  1.00  0.00     0.033 A 
ATOM     10  S   UNL A   1      33.604  25.930  22.395  1.00  0.00    -0.130 S 
ATOM     11  C   UNL A   1      33.169  24.576  23.348  1.00  0.00     0.038 A 
ATOM     12  C   UNL A   1      31.907  23.979  25.288  1.00  0.00     0.132 A 
ATOM     13  C   UNL A   1      33.656  23.260  23.231  1.00  0.00     0.020 A 
ATOM     14  C   UNL A   1      32.486  22.706  25.266  1.00  0.00     0.040 A 
ATOM     15  F   UNL A   1      31.112  24.300  26.319  1.00  0.00    -0.206 F 
ATOM     16  C   UNL A   1      33.334  22.340  24.229  1.00  0.00     0.005 A 
BRANCH   8  17
ATOM     17  C   UNL A   1      30.588  26.950  24.750  1.00  0.00     0.116 C 
BRANCH  17  18
ATOM     18  S   UNL A   1      29.195  27.283  23.652  1.00  0.00    -0.080 SA
BRANCH  18  19
ATOM     19  C   UNL A   1      29.439  28.750  22.748  1.00  0.00     0.210 A 
ATOM     20  C   UNL A   1      29.363  30.743  22.062  1.00  0.00     0.216 A 
ATOM     21  N   UNL A   1      28.650  29.868  22.738  1.00  0.00    -0.186 NA
ATOM     22  N   UNL A   1      30.438  30.101  21.523  1.00  0.00    -0.245 N 
ATOM     23  N   UNL A   1      30.505  28.832  21.944  1.00  0.00    -0.145 NA
ATOM     24  H   UNL A   1      31.080  30.517  20.904  1.00  0.00     0.193 HD
BRANCH  20  25
ATOM     25  N   UNL A   1      29.197  32.069  21.933  1.00  0.00    -0.368 N 
ATOM     26  H   UNL A   1      28.450  32.519  22.390  1.00  0.00     0.159 HD
ATOM     27  H   UNL A   1      29.821  32.591  21.379  1.00  0.00     0.159 HD
ENDBRANCH  20  25
ENDBRANCH  18  19
ENDBRANCH  17  18
ENDBRANCH   8  17
ENDBRANCH   4   7
ENDBRANCH   2   3
ENDBRANCH   1   2
BRANCH   1  28
ATOM     28  C   UNL A   1      33.507  30.461  27.557  1.00  0.00     0.023 C 
BRANCH  28  29
ATOM     29  C   UNL A   1      34.390  31.711  27.642  1.00  0.00     0.116 C 
BRANCH  29  30
ATOM     30  N   UNL A   1      34.290  32.382  28.927  1.00  0.00    -0.352 N 
ATOM     31  C   UNL A   1      34.974  32.155  30.100  1.00  0.00     0.251 C 
ATOM     32  H   UNL A   1      33.632  33.113  28.963  1.00  0.00     0.163 HD
ATOM     33  O   UNL A   1      34.563  32.708  31.120  1.00  0.00    -0.269 OA
BRANCH  31  34
ATOM     34  C   UNL A   1      36.174  31.278  30.172  1.00  0.00     0.039 A 
ATOM     35  C   UNL A   1      37.424  31.834  29.857  1.00  0.00     0.014 A 
ATOM     36  C   UNL A   1      36.090  29.909  30.444  1.00  0.00     0.014 A 
ATOM     37  C   UNL A   1      38.564  31.030  29.831  1.00  0.00     0.010 A 
ATOM     38  C   UNL A   1      37.230  29.114  30.459  1.00  0.00     0.010 A 
ATOM     39  C   UNL A   1      38.464  29.665  30.125  1.00  0.00    -0.014 A 
BRANCH  39  40
ATOM     40  C   UNL A   1      39.671  28.842  30.129  1.00  0.00     0.031 A 
ATOM     41  C   UNL A   1      40.327  28.638  31.450  1.00  0.00     0.074 A 
ATOM     42  C   UNL A   1      40.120  28.142  29.069  1.00  0.00     0.049 A 
ATOM     43  N   UNL A   1      41.468  29.090  31.855  1.00  0.00    -0.248 NA
ATOM     44  C   UNL A   1      39.590  27.870  32.463  1.00  0.00     0.031 C 
ATOM     45  C   UNL A   1      39.471  27.920  27.775  1.00  0.00     0.029 A 
ATOM     46  N   UNL A   1      41.255  27.393  28.978  1.00  0.00    -0.354 N 
ATOM     47  C   UNL A   1      41.682  28.534  33.114  1.00  0.00     0.074 A 
ATOM     48  C   UNL A   1      40.444  27.893  33.488  1.00  0.00     0.031 C 
ATOM     49  C   UNL A   1      40.123  26.937  27.110  1.00  0.00     0.029 A 
ATOM     50  C   UNL A   1      41.319  26.582  27.855  1.00  0.00     0.049 A 
ATOM     51  H   UNL A   1      41.970  27.425  29.654  1.00  0.00     0.167 HD
ATOM     52  C   UNL A   1      42.914  28.475  33.693  1.00  0.00     0.031 A 
ATOM     53  C   UNL A   1      42.281  25.669  27.577  1.00  0.00     0.031 A 
ATOM     54  C   UNL A   1      43.879  29.302  33.021  1.00  0.00     0.049 A 
ATOM     55  C   UNL A   1      43.488  26.063  28.344  1.00  0.00     0.074 A 
ATOM     56  C   UNL A   1      44.002  30.654  32.765  1.00  0.00     0.029 A 
ATOM     57  N   UNL A   1      44.752  28.678  32.163  1.00  0.00    -0.354 N 
ATOM     58  N   UNL A   1      44.153  27.165  28.132  1.00  0.00    -0.248 NA
ATOM     59  C   UNL A   1      43.763  25.407  29.611  1.00  0.00     0.031 C 
ATOM     60  C   UNL A   1      44.568  30.731  31.457  1.00  0.00     0.029 A 
ATOM     61  C   UNL A   1      44.788  29.425  31.012  1.00  0.00     0.049 A 
ATOM     62  H   UNL A   1      45.257  27.852  32.340  1.00  0.00     0.167 HD
ATOM     63  C   UNL A   1      44.615  27.553  29.380  1.00  0.00     0.074 A 
ATOM     64  C   UNL A   1      44.449  26.374  30.225  1.00  0.00     0.031 C 
ATOM     65  C   UNL A   1      44.841  28.866  29.676  1.00  0.00     0.031 A 
BRANCH  52  66
ATOM     66  C   UNL A   1      43.334  27.404  34.669  1.00  0.00    -0.014 A 
ATOM     67  C   UNL A   1      43.925  27.771  35.896  1.00  0.00     0.010 A 
ATOM     68  C   UNL A   1      43.407  26.044  34.303  1.00  0.00     0.010 A 
ATOM     69  C   UNL A   1      44.594  26.828  36.692  1.00  0.00     0.020 A 
ATOM     70  C   UNL A   1      44.031  25.089  35.110  1.00  0.00     0.020 A 
ATOM     71  C   UNL A   1      44.648  25.493  36.287  1.00  0.00     0.054 A 
BRANCH  71  72
ATOM     72  S   UNL A   1      45.620  24.309  37.255  1.00  0.00     0.124 S 
ATOM     73  O   UNL A   1      45.709  23.171  36.342  1.00  0.00    -0.237 OA
ATOM     74  O   UNL A   1      46.863  25.041  37.475  1.00  0.00    -0.237 OA
ATOM     75  O   UNL A   1      44.807  24.091  38.448  1.00  0.00    -0.744 OA
ENDBRANCH  71  72
ENDBRANCH  52  66
BRANCH  53  76
ATOM     76  C   UNL A   1      42.134  24.340  26.935  1.00  0.00    -0.014 A 
ATOM     77  C   UNL A   1      43.261  23.647  26.454  1.00  0.00     0.010 A 
ATOM     78  C   UNL A   1      40.928  23.620  27.062  1.00  0.00     0.010 A 
ATOM     79  C   UNL A   1      43.205  22.268  26.191  1.00  0.00     0.020 A 
ATOM     80  C   UNL A   1      40.862  22.247  26.794  1.00  0.00     0.020 A 
ATOM     81  C   UNL A   1      42.012  21.571  26.394  1.00  0.00     0.054 A 
BRANCH  81  82
ATOM     82  S   UNL A   1      42.004  19.762  26.232  1.00  0.00     0.124 S 
ATOM     83  O   UNL A   1      42.375  19.322  27.574  1.00  0.00    -0.237 OA
ATOM     84  O   UNL A   1      40.623  19.492  25.839  1.00  0.00    -0.237 OA
ATOM     85  O   UNL A   1      43.002  19.502  25.197  1.00  0.00    -0.744 OA
ENDBRANCH  81  82
ENDBRANCH  53  76
BRANCH  65  86
ATOM     86  C   UNL A   1      44.865  29.863  28.538  1.00  0.00    -0.014 A 
ATOM     87  C   UNL A   1      43.703  30.279  27.859  1.00  0.00     0.010 A 
ATOM     88  C   UNL A   1      46.072  30.533  28.276  1.00  0.00     0.010 A 
ATOM     89  C   UNL A   1      43.749  31.340  26.943  1.00  0.00     0.020 A 
ATOM     90  C   UNL A   1      46.122  31.600  27.374  1.00  0.00     0.020 A 
ATOM     91  C   UNL A   1      44.958  32.004  26.716  1.00  0.00     0.054 A 
BRANCH  91  92
ATOM     92  S   UNL A   1      44.994  33.432  25.593  1.00  0.00     0.124 S 
ATOM     93  O   UNL A   1      44.199  34.427  26.309  1.00  0.00    -0.237 OA
ATOM     94  O   UNL A   1      46.422  33.722  25.492  1.00  0.00    -0.237 OA
ATOM     95  O   UNL A   1      44.384  32.927  24.365  1.00  0.00    -0.744 OA
ENDBRANCH  91  92
ENDBRANCH  65  86
ENDBRANCH  39  40
ENDBRANCH  31  34
ENDBRANCH  29  30
ENDBRANCH  28  29
ENDBRANCH   1  28
TORSDOF 18
ENDMDL
MODEL 3
REMARK VINA RESULT:     -12.2      2.899      9.216
REMARK SMILES Nc1nc(SCc2c(C(=O)NCCCCNC(=O)c3ccc(-c4c5nc(c(-c6ccc(S(=O)(=O)[O-])cc6)c6ccc([nH]6)c(-c6ccc(S(=O)(=O)[O-])cc6)c6nc(c(-c7ccc(S(=O)(=O)[O-])cc7)c7ccc4[nH]7)C=C6)C=C5)cc3)sc3cccc(F)c23)n[nH]1
REMARK SMILES IDX 13 1 12 2 11 3 9 4 10 5 8 7 7 8 86 9 79 10 80 11 84 12 81 13
REMARK SMILES IDX 83 14 85 15 82 16 6 17 5 18 4 19 2 20 3 21 88 22 87 23 1 25
REMARK SMILES IDX 14 28 15 29 16 30 17 31 18 33 19 34 20 35 78 36 21 37 77 38
REMARK SMILES IDX 22 39 23 40 24 41 71 42 25 43 76 44 70 45 72 46 26 47 75 48
REMARK SMILES IDX 69 49 68 50 27 52 57 53 38 54 56 55 39 56 42 57 55 58 73 59
REMARK SMILES IDX 40 60 41 61 54 63 74 64 43 65 28 66 29 67 37 68 30 69 36 70
REMARK SMILES IDX 31 71 32 72 33 73 34 74 35 75 58 76 59 77 67 78 60 79 66 80
REMARK SMILES IDX 61 81 62 82 63 83 64 84 65 85 44 86 45 87 53 88 46 89 52 90
REMARK SMILES IDX 47 91 48 92 49 93 50 94 51 95
REMARK H PARENT 11 6 88 24 1 26 1 27 16 32 72 51 42 62
REMARK Flexibility Score: inf
ROOT
ATOM      1  C   UNL A   1      34.920  29.974  27.240  1.00  0.00     0.023 C 
ENDROOT
BRANCH   1   2
ATOM      2  C   UNL A   1      34.125  28.698  26.945  1.00  0.00     0.116 C 
BRANCH   2   3
ATOM      3  N   UNL A   1      32.843  28.634  27.614  1.00  0.00    -0.351 N 
ATOM      4  C   UNL A   1      31.737  27.836  27.387  1.00  0.00     0.261 C 
ATOM      5  O   UNL A   1      30.816  27.950  28.199  1.00  0.00    -0.268 OA
ATOM      6  H   UNL A   1      32.742  29.268  28.360  1.00  0.00     0.163 HD
BRANCH   4   7
ATOM      7  C   UNL A   1      31.643  27.046  26.176  1.00  0.00     0.097 A 
ATOM      8  C   UNL A   1      31.902  25.728  25.818  1.00  0.00    -0.003 A 
ATOM      9  C   UNL A   1      32.490  25.802  24.477  1.00  0.00     0.033 A 
ATOM     10  S   UNL A   1      30.993  27.845  24.785  1.00  0.00    -0.130 S 
ATOM     11  C   UNL A   1      31.987  26.896  23.765  1.00  0.00     0.038 A 
ATOM     12  C   UNL A   1      33.445  25.002  23.805  1.00  0.00     0.132 A 
ATOM     13  C   UNL A   1      32.315  27.150  22.420  1.00  0.00     0.020 A 
ATOM     14  C   UNL A   1      33.883  25.319  22.515  1.00  0.00     0.040 A 
ATOM     15  F   UNL A   1      34.047  23.994  24.453  1.00  0.00    -0.206 F 
ATOM     16  C   UNL A   1      33.302  26.370  21.817  1.00  0.00     0.005 A 
BRANCH   8  17
ATOM     17  C   UNL A   1      31.893  24.477  26.664  1.00  0.00     0.116 C 
BRANCH  17  18
ATOM     18  S   UNL A   1      31.030  23.024  26.030  1.00  0.00    -0.080 SA
BRANCH  18  19
ATOM     19  C   UNL A   1      32.107  21.667  25.875  1.00  0.00     0.210 A 
ATOM     20  C   UNL A   1      33.125  19.959  25.171  1.00  0.00     0.216 A 
ATOM     21  N   UNL A   1      31.971  20.580  25.055  1.00  0.00    -0.186 NA
ATOM     22  N   UNL A   1      33.834  20.548  26.175  1.00  0.00    -0.245 N 
ATOM     23  N   UNL A   1      33.205  21.635  26.639  1.00  0.00    -0.145 NA
ATOM     24  H   UNL A   1      34.696  20.216  26.516  1.00  0.00     0.193 HD
BRANCH  20  25
ATOM     25  N   UNL A   1      33.644  18.967  24.430  1.00  0.00    -0.368 N 
ATOM     26  H   UNL A   1      34.468  19.117  23.912  1.00  0.00     0.159 HD
ATOM     27  H   UNL A   1      33.201  18.088  24.404  1.00  0.00     0.159 HD
ENDBRANCH  20  25
ENDBRANCH  18  19
ENDBRANCH  17  18
ENDBRANCH   8  17
ENDBRANCH   4   7
ENDBRANCH   2   3
ENDBRANCH   1   2
BRANCH   1  28
ATOM     28  C   UNL A   1      34.072  31.213  27.587  1.00  0.00     0.023 C 
BRANCH  28  29
ATOM     29  C   UNL A   1      34.848  32.448  28.057  1.00  0.00     0.116 C 
BRANCH  29  30
ATOM     30  N   UNL A   1      34.575  32.788  29.443  1.00  0.00    -0.352 N 
ATOM     31  C   UNL A   1      35.083  32.248  30.603  1.00  0.00     0.251 C 
ATOM     32  H   UNL A   1      33.928  33.519  29.572  1.00  0.00     0.163 HD
ATOM     33  O   UNL A   1      34.539  32.553  31.664  1.00  0.00    -0.269 OA
BRANCH  31  34
ATOM     34  C   UNL A   1      36.250  31.324  30.614  1.00  0.00     0.039 A 
ATOM     35  C   UNL A   1      37.533  31.871  30.461  1.00  0.00     0.014 A 
ATOM     36  C   UNL A   1      36.108  29.934  30.674  1.00  0.00     0.014 A 
ATOM     37  C   UNL A   1      38.649  31.037  30.383  1.00  0.00     0.010 A 
ATOM     38  C   UNL A   1      37.221  29.102  30.637  1.00  0.00     0.010 A 
ATOM     39  C   UNL A   1      38.489  29.648  30.463  1.00  0.00    -0.014 A 
BRANCH  39  40
ATOM     40  C   UNL A   1      39.668  28.788  30.416  1.00  0.00     0.031 A 
ATOM     41  C   UNL A   1      40.362  28.546  31.711  1.00  0.00     0.074 A 
ATOM     42  C   UNL A   1      40.058  28.086  29.334  1.00  0.00     0.049 A 
ATOM     43  N   UNL A   1      41.531  28.957  32.082  1.00  0.00    -0.248 NA
ATOM     44  C   UNL A   1      39.637  27.790  32.741  1.00  0.00     0.031 C 
ATOM     45  C   UNL A   1      39.359  27.901  28.060  1.00  0.00     0.029 A 
ATOM     46  N   UNL A   1      41.165  27.303  29.195  1.00  0.00    -0.354 N 
ATOM     47  C   UNL A   1      41.771  28.379  33.326  1.00  0.00     0.074 A 
ATOM     48  C   UNL A   1      40.526  27.773  33.735  1.00  0.00     0.031 C 
ATOM     49  C   UNL A   1      39.955  26.906  27.362  1.00  0.00     0.029 A 
ATOM     50  C   UNL A   1      41.164  26.505  28.061  1.00  0.00     0.049 A 
ATOM     51  H   UNL A   1      41.903  27.305  29.846  1.00  0.00     0.167 HD
ATOM     52  C   UNL A   1      43.020  28.274  33.861  1.00  0.00     0.031 A 
ATOM     53  C   UNL A   1      42.086  25.566  27.739  1.00  0.00     0.031 A 
ATOM     54  C   UNL A   1      43.986  29.079  33.165  1.00  0.00     0.049 A 
ATOM     55  C   UNL A   1      43.331  25.911  28.468  1.00  0.00     0.074 A 
ATOM     56  C   UNL A   1      44.144  30.428  32.920  1.00  0.00     0.029 A 
ATOM     57  N   UNL A   1      44.809  28.437  32.269  1.00  0.00    -0.354 N 
ATOM     58  N   UNL A   1      44.023  26.994  28.246  1.00  0.00    -0.248 NA
ATOM     59  C   UNL A   1      43.628  25.231  29.717  1.00  0.00     0.031 C 
ATOM     60  C   UNL A   1      44.667  30.504  31.594  1.00  0.00     0.029 A 
ATOM     61  C   UNL A   1      44.829  29.197  31.127  1.00  0.00     0.049 A 
ATOM     62  H   UNL A   1      45.293  27.594  32.420  1.00  0.00     0.167 HD
ATOM     63  C   UNL A   1      44.540  27.352  29.481  1.00  0.00     0.074 A 
ATOM     64  C   UNL A   1      44.366  26.169  30.318  1.00  0.00     0.031 C 
ATOM     65  C   UNL A   1      44.818  28.654  29.784  1.00  0.00     0.031 A 
BRANCH  52  66
ATOM     66  C   UNL A   1      43.438  27.178  34.809  1.00  0.00    -0.014 A 
ATOM     67  C   UNL A   1      44.390  27.451  35.813  1.00  0.00     0.010 A 
ATOM     68  C   UNL A   1      43.121  25.824  34.576  1.00  0.00     0.010 A 
ATOM     69  C   UNL A   1      45.024  26.414  36.515  1.00  0.00     0.020 A 
ATOM     70  C   UNL A   1      43.713  24.787  35.301  1.00  0.00     0.020 A 
ATOM     71  C   UNL A   1      44.685  25.087  36.247  1.00  0.00     0.054 A 
BRANCH  71  72
ATOM     72  S   UNL A   1      45.598  23.753  37.066  1.00  0.00     0.124 S 
ATOM     73  O   UNL A   1      45.130  23.869  38.446  1.00  0.00    -0.237 OA
ATOM     74  O   UNL A   1      45.135  22.574  36.339  1.00  0.00    -0.237 OA
ATOM     75  O   UNL A   1      46.996  24.109  36.848  1.00  0.00    -0.744 OA
ENDBRANCH  71  72
ENDBRANCH  52  66
BRANCH  53  76
ATOM     76  C   UNL A   1      41.874  24.249  27.088  1.00  0.00    -0.014 A 
ATOM     77  C   UNL A   1      42.865  23.692  26.257  1.00  0.00     0.010 A 
ATOM     78  C   UNL A   1      40.829  23.405  27.517  1.00  0.00     0.010 A 
ATOM     79  C   UNL A   1      42.857  22.325  25.938  1.00  0.00     0.020 A 
ATOM     80  C   UNL A   1      40.809  22.043  27.196  1.00  0.00     0.020 A 
ATOM     81  C   UNL A   1      41.844  21.502  26.437  1.00  0.00     0.054 A 
BRANCH  81  82
ATOM     82  S   UNL A   1      41.949  19.707  26.174  1.00  0.00     0.124 S 
ATOM     83  O   UNL A   1      40.598  19.373  25.731  1.00  0.00    -0.237 OA
ATOM     84  O   UNL A   1      42.990  19.604  25.155  1.00  0.00    -0.237 OA
ATOM     85  O   UNL A   1      42.318  19.185  27.488  1.00  0.00    -0.744 OA
ENDBRANCH  81  82
ENDBRANCH  53  76
BRANCH  65  86
ATOM     86  C   UNL A   1      44.835  29.663  28.657  1.00  0.00    -0.014 A 
ATOM     87  C   UNL A   1      43.661  30.198  28.089  1.00  0.00     0.010 A 
ATOM     88  C   UNL A   1      46.072  30.222  28.292  1.00  0.00     0.010 A 
ATOM     89  C   UNL A   1      43.726  31.265  27.182  1.00  0.00     0.020 A 
ATOM     90  C   UNL A   1      46.142  31.295  27.399  1.00  0.00     0.020 A 
ATOM     91  C   UNL A   1      44.968  31.817  26.852  1.00  0.00     0.054 A 
BRANCH  91  92
ATOM     92  S   UNL A   1      45.038  33.254  25.743  1.00  0.00     0.124 S 
ATOM     93  O   UNL A   1      44.270  34.263  26.470  1.00  0.00    -0.237 OA
ATOM     94  O   UNL A   1      46.473  33.509  25.643  1.00  0.00    -0.237 OA
ATOM     95  O   UNL A   1      44.413  32.776  24.511  1.00  0.00    -0.744 OA
ENDBRANCH  91  92
ENDBRANCH  65  86
ENDBRANCH  39  40
ENDBRANCH  31  34
ENDBRANCH  29  30
ENDBRANCH  28  29
ENDBRANCH   1  28
TORSDOF 18
ENDMDL
