MODEL 1
REMARK VINA RESULT:     -11.9      0.000      0.000
REMARK SMILES O=C(Cc1ccc(NC(=O)Nc2ccc(Br)cc2)cc1)NCCCCNC(=O)c1ccc(-c2c3nc(c(-c4ccc(S(=O)(=O)[O-])cc4)c4ccc([nH]4)c(-c4ccc(S(=O)(=O)[O-])cc4)c4nc(c(-c5ccc(S(=O)(=O)[O-])cc5)c5ccc2[nH]5)C=C4)C=C3)cc1
REMARK SMILES IDX 23 1 22 2 21 3 1 4 2 5 3 7 4 8 5 9 20 10 6 11 19 12 7 13
REMARK SMILES IDX 8 14 9 15 10 17 11 18 12 20 13 21 18 22 14 23 17 24 15 25
REMARK SMILES IDX 16 26 24 27 25 28 26 29 27 30 28 32 29 33 30 34 88 35 31 36
REMARK SMILES IDX 87 37 32 38 33 39 34 40 81 41 35 42 86 43 80 44 82 45 36 46
REMARK SMILES IDX 85 47 79 48 78 49 37 51 67 52 48 53 66 54 49 55 52 56 65 57
REMARK SMILES IDX 83 58 50 59 51 60 64 62 84 63 53 64 38 65 39 66 47 67 40 68
REMARK SMILES IDX 46 69 41 70 42 71 43 72 44 73 45 74 68 75 69 76 77 77 70 78
REMARK SMILES IDX 76 79 71 80 72 81 73 82 74 83 75 84 54 85 55 86 63 87 56 88
REMARK SMILES IDX 62 89 57 90 58 91 59 92 60 93 61 94
REMARK H PARENT 21 6 8 16 11 19 26 31 82 50 52 61
REMARK Flexibility Score: inf
ROOT
ATOM      1  C   UNL A   1      40.396  21.949  26.390  1.00  0.00     0.023 C 
ENDROOT
BRANCH   1   2
ATOM      2  C   UNL A   1      39.043  22.660  26.487  1.00  0.00     0.116 C 
BRANCH   2   3
ATOM      3  N   UNL A   1      38.187  22.318  25.368  1.00  0.00    -0.356 N 
ATOM      4  O   UNL A   1      36.873  24.193  25.440  1.00  0.00    -0.275 OA
ATOM      5  C   UNL A   1      37.123  23.092  24.955  1.00  0.00     0.224 C 
ATOM      6  H   UNL A   1      38.374  21.485  24.877  1.00  0.00     0.163 HD
BRANCH   5   7
ATOM      7  C   UNL A   1      36.205  22.434  23.925  1.00  0.00     0.135 C 
BRANCH   7   8
ATOM      8  C   UNL A   1      34.826  22.089  24.439  1.00  0.00    -0.039 A 
ATOM      9  C   UNL A   1      34.663  21.552  25.719  1.00  0.00     0.006 A 
ATOM     10  C   UNL A   1      33.680  22.326  23.669  1.00  0.00     0.006 A 
ATOM     11  C   UNL A   1      33.385  21.400  26.264  1.00  0.00     0.026 A 
ATOM     12  C   UNL A   1      32.409  22.235  24.242  1.00  0.00     0.026 A 
ATOM     13  C   UNL A   1      32.270  21.884  25.585  1.00  0.00     0.042 A 
BRANCH  13  14
ATOM     14  N   UNL A   1      31.012  22.092  26.181  1.00  0.00    -0.308 N 
ATOM     15  C   UNL A   1      30.477  23.121  26.884  1.00  0.00     0.323 C 
ATOM     16  H   UNL A   1      30.394  21.336  26.063  1.00  0.00     0.171 HD
ATOM     17  O   UNL A   1      29.492  22.893  27.592  1.00  0.00    -0.248 OA
ATOM     18  N   UNL A   1      30.979  24.379  26.881  1.00  0.00    -0.308 N 
ATOM     19  H   UNL A   1      30.756  24.898  27.688  1.00  0.00     0.171 HD
BRANCH  18  20
ATOM     20  C   UNL A   1      31.755  25.085  25.949  1.00  0.00     0.042 A 
ATOM     21  C   UNL A   1      31.084  25.617  24.842  1.00  0.00     0.027 A 
ATOM     22  C   UNL A   1      33.118  25.343  26.120  1.00  0.00     0.027 A 
ATOM     23  C   UNL A   1      31.729  26.528  24.003  1.00  0.00     0.018 A 
ATOM     24  C   UNL A   1      33.774  26.237  25.266  1.00  0.00     0.018 A 
ATOM     25  C   UNL A   1      33.066  26.851  24.234  1.00  0.00     0.018 A 
ATOM     26  Br  UNL A   1      33.903  28.165  23.166  1.00  0.00    -0.051 Br
ENDBRANCH  18  20
ENDBRANCH  13  14
ENDBRANCH   7   8
ENDBRANCH   5   7
ENDBRANCH   2   3
ENDBRANCH   1   2
BRANCH   1  27
ATOM     27  C   UNL A   1      41.314  22.135  27.605  1.00  0.00     0.023 C 
BRANCH  27  28
ATOM     28  C   UNL A   1      42.483  23.094  27.403  1.00  0.00     0.116 C 
BRANCH  28  29
ATOM     29  N   UNL A   1      42.330  23.933  26.226  1.00  0.00    -0.352 N 
ATOM     30  C   UNL A   1      41.964  25.258  26.141  1.00  0.00     0.251 C 
ATOM     31  H   UNL A   1      42.514  23.491  25.367  1.00  0.00     0.163 HD
ATOM     32  O   UNL A   1      41.741  25.757  25.045  1.00  0.00    -0.269 OA
BRANCH  30  33
ATOM     33  C   UNL A   1      41.806  26.068  27.372  1.00  0.00     0.039 A 
ATOM     34  C   UNL A   1      42.791  27.006  27.693  1.00  0.00     0.014 A 
ATOM     35  C   UNL A   1      40.696  25.910  28.207  1.00  0.00     0.014 A 
ATOM     36  C   UNL A   1      42.628  27.833  28.809  1.00  0.00     0.010 A 
ATOM     37  C   UNL A   1      40.499  26.785  29.274  1.00  0.00     0.010 A 
ATOM     38  C   UNL A   1      41.460  27.758  29.586  1.00  0.00    -0.014 A 
BRANCH  38  39
ATOM     39  C   UNL A   1      41.224  28.697  30.717  1.00  0.00     0.031 A 
ATOM     40  C   UNL A   1      42.040  28.593  31.978  1.00  0.00     0.074 A 
ATOM     41  C   UNL A   1      40.231  29.607  30.634  1.00  0.00     0.049 A 
ATOM     42  N   UNL A   1      41.937  29.283  33.086  1.00  0.00    -0.248 NA
ATOM     43  C   UNL A   1      43.095  27.567  32.008  1.00  0.00     0.031 C 
ATOM     44  C   UNL A   1      39.341  29.788  29.484  1.00  0.00     0.029 A 
ATOM     45  N   UNL A   1      39.798  30.548  31.537  1.00  0.00    -0.354 N 
ATOM     46  C   UNL A   1      42.902  28.768  33.945  1.00  0.00     0.074 A 
ATOM     47  C   UNL A   1      43.541  27.672  33.251  1.00  0.00     0.031 C 
ATOM     48  C   UNL A   1      38.489  30.792  29.741  1.00  0.00     0.029 A 
ATOM     49  C   UNL A   1      38.736  31.297  31.087  1.00  0.00     0.049 A 
ATOM     50  H   UNL A   1      40.210  30.674  32.422  1.00  0.00     0.167 HD
ATOM     51  C   UNL A   1      43.241  29.183  35.190  1.00  0.00     0.031 A 
ATOM     52  C   UNL A   1      38.030  32.274  31.691  1.00  0.00     0.031 A 
ATOM     53  C   UNL A   1      42.605  30.275  35.879  1.00  0.00     0.049 A 
ATOM     54  C   UNL A   1      38.408  32.700  33.084  1.00  0.00     0.074 A 
ATOM     55  C   UNL A   1      42.907  30.799  37.124  1.00  0.00     0.029 A 
ATOM     56  N   UNL A   1      41.536  31.011  35.388  1.00  0.00    -0.354 N 
ATOM     57  N   UNL A   1      39.364  32.240  33.855  1.00  0.00    -0.248 NA
ATOM     58  C   UNL A   1      37.618  33.785  33.684  1.00  0.00     0.031 C 
ATOM     59  C   UNL A   1      41.984  31.809  37.411  1.00  0.00     0.029 A 
ATOM     60  C   UNL A   1      41.150  31.964  36.315  1.00  0.00     0.049 A 
ATOM     61  H   UNL A   1      41.114  30.874  34.509  1.00  0.00     0.167 HD
ATOM     62  C   UNL A   1      39.310  32.999  35.019  1.00  0.00     0.074 A 
ATOM     63  C   UNL A   1      38.238  33.958  34.844  1.00  0.00     0.031 C 
ATOM     64  C   UNL A   1      40.080  32.912  36.132  1.00  0.00     0.031 A 
BRANCH  51  65
ATOM     65  C   UNL A   1      44.353  28.446  35.892  1.00  0.00    -0.014 A 
ATOM     66  C   UNL A   1      45.693  28.852  35.760  1.00  0.00     0.010 A 
ATOM     67  C   UNL A   1      44.050  27.356  36.731  1.00  0.00     0.010 A 
ATOM     68  C   UNL A   1      46.712  28.159  36.417  1.00  0.00     0.020 A 
ATOM     69  C   UNL A   1      45.065  26.680  37.416  1.00  0.00     0.020 A 
ATOM     70  C   UNL A   1      46.392  27.076  37.240  1.00  0.00     0.054 A 
BRANCH  70  71
ATOM     71  S   UNL A   1      47.736  26.209  38.096  1.00  0.00     0.124 S 
ATOM     72  O   UNL A   1      47.007  25.447  39.106  1.00  0.00    -0.237 OA
ATOM     73  O   UNL A   1      48.338  25.418  37.025  1.00  0.00    -0.237 OA
ATOM     74  O   UNL A   1      48.572  27.290  38.614  1.00  0.00    -0.744 OA
ENDBRANCH  70  71
ENDBRANCH  51  65
BRANCH  52  75
ATOM     75  C   UNL A   1      36.892  32.919  30.977  1.00  0.00    -0.014 A 
ATOM     76  C   UNL A   1      37.120  33.767  29.880  1.00  0.00     0.010 A 
ATOM     77  C   UNL A   1      35.568  32.677  31.389  1.00  0.00     0.010 A 
ATOM     78  C   UNL A   1      36.048  34.379  29.221  1.00  0.00     0.020 A 
ATOM     79  C   UNL A   1      34.493  33.261  30.713  1.00  0.00     0.020 A 
ATOM     80  C   UNL A   1      34.740  34.118  29.640  1.00  0.00     0.054 A 
BRANCH  80  81
ATOM     81  S   UNL A   1      33.363  34.880  28.738  1.00  0.00     0.124 S 
ATOM     82  O   UNL A   1      33.978  36.097  28.218  1.00  0.00    -0.237 OA
ATOM     83  O   UNL A   1      33.036  33.861  27.744  1.00  0.00    -0.237 OA
ATOM     84  O   UNL A   1      32.349  35.081  29.770  1.00  0.00    -0.744 OA
ENDBRANCH  80  81
ENDBRANCH  52  75
BRANCH  64  85
ATOM     85  C   UNL A   1      39.821  33.901  37.239  1.00  0.00    -0.014 A 
ATOM     86  C   UNL A   1      39.082  33.548  38.381  1.00  0.00     0.010 A 
ATOM     87  C   UNL A   1      40.375  35.193  37.155  1.00  0.00     0.010 A 
ATOM     88  C   UNL A   1      38.877  34.477  39.406  1.00  0.00     0.020 A 
ATOM     89  C   UNL A   1      40.199  36.114  38.191  1.00  0.00     0.020 A 
ATOM     90  C   UNL A   1      39.438  35.754  39.304  1.00  0.00     0.054 A 
BRANCH  90  91
ATOM     91  S   UNL A   1      39.192  36.926  40.667  1.00  0.00     0.124 S 
ATOM     92  O   UNL A   1      40.560  37.338  40.964  1.00  0.00    -0.237 OA
ATOM     93  O   UNL A   1      38.345  37.949  40.058  1.00  0.00    -0.237 OA
ATOM     94  O   UNL A   1      38.544  36.124  41.701  1.00  0.00    -0.744 OA
ENDBRANCH  90  91
ENDBRANCH  64  85
ENDBRANCH  38  39
ENDBRANCH  30  33
ENDBRANCH  28  29
ENDBRANCH  27  28
ENDBRANCH   1  27
TORSDOF 17
ENDMDL
MODEL 2
REMARK VINA RESULT:     -11.6      6.120      8.329
REMARK SMILES O=C(Cc1ccc(NC(=O)Nc2ccc(Br)cc2)cc1)NCCCCNC(=O)c1ccc(-c2c3nc(c(-c4ccc(S(=O)(=O)[O-])cc4)c4ccc([nH]4)c(-c4ccc(S(=O)(=O)[O-])cc4)c4nc(c(-c5ccc(S(=O)(=O)[O-])cc5)c5ccc2[nH]5)C=C4)C=C3)cc1
REMARK SMILES IDX 23 1 22 2 21 3 1 4 2 5 3 7 4 8 5 9 20 10 6 11 19 12 7 13
REMARK SMILES IDX 8 14 9 15 10 17 11 18 12 20 13 21 18 22 14 23 17 24 15 25
REMARK SMILES IDX 16 26 24 27 25 28 26 29 27 30 28 32 29 33 30 34 88 35 31 36
REMARK SMILES IDX 87 37 32 38 33 39 34 40 81 41 35 42 86 43 80 44 82 45 36 46
REMARK SMILES IDX 85 47 79 48 78 49 37 51 67 52 48 53 66 54 49 55 52 56 65 57
REMARK SMILES IDX 83 58 50 59 51 60 64 62 84 63 53 64 38 65 39 66 47 67 40 68
REMARK SMILES IDX 46 69 41 70 42 71 43 72 44 73 45 74 68 75 69 76 77 77 70 78
REMARK SMILES IDX 76 79 71 80 72 81 73 82 74 83 75 84 54 85 55 86 63 87 56 88
REMARK SMILES IDX 62 89 57 90 58 91 59 92 60 93 61 94
REMARK H PARENT 21 6 8 16 11 19 26 31 82 50 52 61
REMARK Flexibility Score: inf
ROOT
ATOM      1  C   UNL A   1      40.093  22.451  26.872  1.00  0.00     0.023 C 
ENDROOT
BRANCH   1   2
ATOM      2  C   UNL A   1      38.993  23.429  26.452  1.00  0.00     0.116 C 
BRANCH   2   3
ATOM      3  N   UNL A   1      38.171  22.874  25.394  1.00  0.00    -0.356 N 
ATOM      4  O   UNL A   1      36.465  24.396  25.541  1.00  0.00    -0.275 OA
ATOM      5  C   UNL A   1      36.932  23.372  25.048  1.00  0.00     0.224 C 
ATOM      6  H   UNL A   1      38.515  22.097  24.897  1.00  0.00     0.163 HD
BRANCH   5   7
ATOM      7  C   UNL A   1      36.129  22.497  24.085  1.00  0.00     0.135 C 
BRANCH   7   8
ATOM      8  C   UNL A   1      34.731  22.165  24.552  1.00  0.00    -0.039 A 
ATOM      9  C   UNL A   1      34.524  21.582  25.805  1.00  0.00     0.006 A 
ATOM     10  C   UNL A   1      33.610  22.461  23.765  1.00  0.00     0.006 A 
ATOM     11  C   UNL A   1      33.230  21.439  26.313  1.00  0.00     0.026 A 
ATOM     12  C   UNL A   1      32.324  22.378  24.304  1.00  0.00     0.026 A 
ATOM     13  C   UNL A   1      32.143  21.977  25.629  1.00  0.00     0.042 A 
BRANCH  13  14
ATOM     14  N   UNL A   1      30.877  22.191  26.203  1.00  0.00    -0.308 N 
ATOM     15  C   UNL A   1      30.327  23.232  26.876  1.00  0.00     0.323 C 
ATOM     16  H   UNL A   1      30.263  21.429  26.093  1.00  0.00     0.171 HD
ATOM     17  O   UNL A   1      29.333  23.014  27.575  1.00  0.00    -0.248 OA
ATOM     18  N   UNL A   1      30.823  24.492  26.852  1.00  0.00    -0.308 N 
ATOM     19  H   UNL A   1      30.586  25.028  27.645  1.00  0.00     0.171 HD
BRANCH  18  20
ATOM     20  C   UNL A   1      31.607  25.182  25.915  1.00  0.00     0.042 A 
ATOM     21  C   UNL A   1      30.954  25.662  24.774  1.00  0.00     0.027 A 
ATOM     22  C   UNL A   1      32.961  25.474  26.110  1.00  0.00     0.027 A 
ATOM     23  C   UNL A   1      31.602  26.557  23.921  1.00  0.00     0.018 A 
ATOM     24  C   UNL A   1      33.620  26.351  25.242  1.00  0.00     0.018 A 
ATOM     25  C   UNL A   1      32.926  26.914  24.172  1.00  0.00     0.018 A 
ATOM     26  Br  UNL A   1      33.764  28.208  23.081  1.00  0.00    -0.051 Br
ENDBRANCH  18  20
ENDBRANCH  13  14
ENDBRANCH   7   8
ENDBRANCH   5   7
ENDBRANCH   2   3
ENDBRANCH   1   2
BRANCH   1  27
ATOM     27  C   UNL A   1      40.028  21.074  26.199  1.00  0.00     0.023 C 
BRANCH  27  28
ATOM     28  C   UNL A   1      40.741  19.947  26.940  1.00  0.00     0.116 C 
BRANCH  28  29
ATOM     29  N   UNL A   1      41.662  19.207  26.093  1.00  0.00    -0.352 N 
ATOM     30  C   UNL A   1      42.814  19.636  25.472  1.00  0.00     0.251 C 
ATOM     31  H   UNL A   1      41.428  18.263  25.941  1.00  0.00     0.163 HD
ATOM     32  O   UNL A   1      43.381  18.904  24.670  1.00  0.00    -0.269 OA
BRANCH  30  33
ATOM     33  C   UNL A   1      43.346  20.993  25.745  1.00  0.00     0.039 A 
ATOM     34  C   UNL A   1      43.434  21.907  24.692  1.00  0.00     0.014 A 
ATOM     35  C   UNL A   1      43.757  21.366  27.028  1.00  0.00     0.014 A 
ATOM     36  C   UNL A   1      43.864  23.214  24.939  1.00  0.00     0.010 A 
ATOM     37  C   UNL A   1      44.111  22.689  27.286  1.00  0.00     0.010 A 
ATOM     38  C   UNL A   1      44.167  23.630  26.246  1.00  0.00    -0.014 A 
BRANCH  38  39
ATOM     39  C   UNL A   1      44.529  25.043  26.544  1.00  0.00     0.031 A 
ATOM     40  C   UNL A   1      45.952  25.513  26.393  1.00  0.00     0.074 A 
ATOM     41  C   UNL A   1      43.589  25.890  27.010  1.00  0.00     0.049 A 
ATOM     42  N   UNL A   1      46.464  26.688  26.661  1.00  0.00    -0.248 NA
ATOM     43  C   UNL A   1      46.930  24.532  25.896  1.00  0.00     0.031 C 
ATOM     44  C   UNL A   1      42.182  25.551  27.239  1.00  0.00     0.029 A 
ATOM     45  N   UNL A   1      43.675  27.210  27.382  1.00  0.00    -0.354 N 
ATOM     46  C   UNL A   1      47.822  26.583  26.378  1.00  0.00     0.074 A 
ATOM     47  C   UNL A   1      48.062  25.216  25.971  1.00  0.00     0.031 C 
ATOM     48  C   UNL A   1      41.534  26.639  27.686  1.00  0.00     0.029 A 
ATOM     49  C   UNL A   1      42.483  27.738  27.822  1.00  0.00     0.049 A 
ATOM     50  H   UNL A   1      44.511  27.728  27.338  1.00  0.00     0.167 HD
ATOM     51  C   UNL A   1      48.777  27.542  26.430  1.00  0.00     0.031 A 
ATOM     52  C   UNL A   1      42.186  28.966  28.293  1.00  0.00     0.031 A 
ATOM     53  C   UNL A   1      48.537  28.903  26.834  1.00  0.00     0.049 A 
ATOM     54  C   UNL A   1      43.270  30.007  28.367  1.00  0.00     0.074 A 
ATOM     55  C   UNL A   1      49.431  29.958  26.876  1.00  0.00     0.029 A 
ATOM     56  N   UNL A   1      47.316  29.399  27.267  1.00  0.00    -0.354 N 
ATOM     57  N   UNL A   1      44.535  29.904  28.036  1.00  0.00    -0.248 NA
ATOM     58  C   UNL A   1      42.884  31.334  28.867  1.00  0.00     0.031 C 
ATOM     59  C   UNL A   1      48.767  31.075  27.393  1.00  0.00     0.029 A 
ATOM     60  C   UNL A   1      47.441  30.736  27.605  1.00  0.00     0.049 A 
ATOM     61  H   UNL A   1      46.484  28.877  27.326  1.00  0.00     0.167 HD
ATOM     62  C   UNL A   1      45.088  31.160  28.260  1.00  0.00     0.074 A 
ATOM     63  C   UNL A   1      44.017  32.010  28.738  1.00  0.00     0.031 C 
ATOM     64  C   UNL A   1      46.368  31.573  28.082  1.00  0.00     0.031 A 
BRANCH  51  65
ATOM     65  C   UNL A   1      50.182  27.150  26.044  1.00  0.00    -0.014 A 
ATOM     66  C   UNL A   1      51.097  26.685  27.006  1.00  0.00     0.010 A 
ATOM     67  C   UNL A   1      50.580  27.204  24.695  1.00  0.00     0.010 A 
ATOM     68  C   UNL A   1      52.395  26.325  26.635  1.00  0.00     0.020 A 
ATOM     69  C   UNL A   1      51.867  26.814  24.315  1.00  0.00     0.020 A 
ATOM     70  C   UNL A   1      52.772  26.393  25.291  1.00  0.00     0.054 A 
BRANCH  70  71
ATOM     71  S   UNL A   1      54.457  25.899  24.837  1.00  0.00     0.124 S 
ATOM     72  O   UNL A   1      55.258  26.626  25.819  1.00  0.00    -0.237 OA
ATOM     73  O   UNL A   1      54.421  24.448  25.007  1.00  0.00    -0.237 OA
ATOM     74  O   UNL A   1      54.595  26.359  23.457  1.00  0.00    -0.744 OA
ENDBRANCH  70  71
ENDBRANCH  51  65
BRANCH  52  75
ATOM     75  C   UNL A   1      40.796  29.278  28.731  1.00  0.00    -0.014 A 
ATOM     76  C   UNL A   1      40.475  29.364  30.097  1.00  0.00     0.010 A 
ATOM     77  C   UNL A   1      39.785  29.499  27.777  1.00  0.00     0.010 A 
ATOM     78  C   UNL A   1      39.165  29.646  30.501  1.00  0.00     0.020 A 
ATOM     79  C   UNL A   1      38.483  29.812  28.176  1.00  0.00     0.020 A 
ATOM     80  C   UNL A   1      38.179  29.872  29.537  1.00  0.00     0.054 A 
BRANCH  80  81
ATOM     81  S   UNL A   1      36.500  30.287  30.083  1.00  0.00     0.124 S 
ATOM     82  O   UNL A   1      36.630  31.701  30.417  1.00  0.00    -0.237 OA
ATOM     83  O   UNL A   1      35.700  29.986  28.899  1.00  0.00    -0.237 OA
ATOM     84  O   UNL A   1      36.278  29.393  31.218  1.00  0.00    -0.744 OA
ENDBRANCH  80  81
ENDBRANCH  52  75
BRANCH  64  85
ATOM     85  C   UNL A   1      46.681  33.019  28.371  1.00  0.00    -0.014 A 
ATOM     86  C   UNL A   1      47.137  33.433  29.634  1.00  0.00     0.010 A 
ATOM     87  C   UNL A   1      46.566  33.970  27.339  1.00  0.00     0.010 A 
ATOM     88  C   UNL A   1      47.443  34.777  29.869  1.00  0.00     0.020 A 
ATOM     89  C   UNL A   1      46.902  35.308  27.561  1.00  0.00     0.020 A 
ATOM     90  C   UNL A   1      47.325  35.706  28.830  1.00  0.00     0.054 A 
BRANCH  90  91
ATOM     91  S   UNL A   1      47.770  37.434  29.151  1.00  0.00     0.124 S 
ATOM     92  O   UNL A   1      47.575  38.047  27.840  1.00  0.00    -0.237 OA
ATOM     93  O   UNL A   1      46.807  37.826  30.177  1.00  0.00    -0.237 OA
ATOM     94  O   UNL A   1      49.157  37.357  29.603  1.00  0.00    -0.744 OA
ENDBRANCH  90  91
ENDBRANCH  64  85
ENDBRANCH  38  39
ENDBRANCH  30  33
ENDBRANCH  28  29
ENDBRANCH  27  28
ENDBRANCH   1  27
TORSDOF 17
ENDMDL
MODEL 3
REMARK VINA RESULT:     -11.4      6.191     10.655
REMARK SMILES O=C(Cc1ccc(NC(=O)Nc2ccc(Br)cc2)cc1)NCCCCNC(=O)c1ccc(-c2c3nc(c(-c4ccc(S(=O)(=O)[O-])cc4)c4ccc([nH]4)c(-c4ccc(S(=O)(=O)[O-])cc4)c4nc(c(-c5ccc(S(=O)(=O)[O-])cc5)c5ccc2[nH]5)C=C4)C=C3)cc1
REMARK SMILES IDX 23 1 22 2 21 3 1 4 2 5 3 7 4 8 5 9 20 10 6 11 19 12 7 13
REMARK SMILES IDX 8 14 9 15 10 17 11 18 12 20 13 21 18 22 14 23 17 24 15 25
REMARK SMILES IDX 16 26 24 27 25 28 26 29 27 30 28 32 29 33 30 34 88 35 31 36
REMARK SMILES IDX 87 37 32 38 33 39 34 40 81 41 35 42 86 43 80 44 82 45 36 46
REMARK SMILES IDX 85 47 79 48 78 49 37 51 67 52 48 53 66 54 49 55 52 56 65 57
REMARK SMILES IDX 83 58 50 59 51 60 64 62 84 63 53 64 38 65 39 66 47 67 40 68
REMARK SMILES IDX 46 69 41 70 42 71 43 72 44 73 45 74 68 75 69 76 77 77 70 78
REMARK SMILES IDX 76 79 71 80 72 81 73 82 74 83 75 84 54 85 55 86 63 87 56 88
REMARK SMILES IDX 62 89 57 90 58 91 59 92 60 93 61 94
REMARK H PARENT 21 6 8 16 11 19 26 31 82 50 52 61
REMARK Flexibility Score: inf
ROOT
ATOM      1  C   UNL A   1      40.015  22.611  27.060  1.00  0.00     0.023 C 
ENDROOT
BRANCH   1   2
ATOM      2  C   UNL A   1      39.046  23.651  26.492  1.00  0.00     0.116 C 
BRANCH   2   3
ATOM      3  N   UNL A   1      38.221  23.084  25.442  1.00  0.00    -0.356 N 
ATOM      4  O   UNL A   1      36.409  24.453  25.742  1.00  0.00    -0.275 OA
ATOM      5  C   UNL A   1      36.933  23.496  25.175  1.00  0.00     0.224 C 
ATOM      6  H   UNL A   1      38.603  22.363  24.890  1.00  0.00     0.163 HD
BRANCH   5   7
ATOM      7  C   UNL A   1      36.157  22.607  24.203  1.00  0.00     0.135 C 
BRANCH   7   8
ATOM      8  C   UNL A   1      34.769  22.228  24.665  1.00  0.00    -0.039 A 
ATOM      9  C   UNL A   1      34.568  21.720  25.952  1.00  0.00     0.006 A 
ATOM     10  C   UNL A   1      33.652  22.405  23.840  1.00  0.00     0.006 A 
ATOM     11  C   UNL A   1      33.272  21.537  26.444  1.00  0.00     0.026 A 
ATOM     12  C   UNL A   1      32.360  22.284  24.359  1.00  0.00     0.026 A 
ATOM     13  C   UNL A   1      32.173  21.964  25.704  1.00  0.00     0.042 A 
BRANCH  13  14
ATOM     14  N   UNL A   1      30.884  22.143  26.238  1.00  0.00    -0.308 N 
ATOM     15  C   UNL A   1      30.279  23.176  26.876  1.00  0.00     0.323 C 
ATOM     16  H   UNL A   1      30.301  21.358  26.127  1.00  0.00     0.171 HD
ATOM     17  O   UNL A   1      29.273  22.935  27.551  1.00  0.00    -0.248 OA
ATOM     18  N   UNL A   1      30.730  24.453  26.841  1.00  0.00    -0.308 N 
ATOM     19  H   UNL A   1      30.452  24.994  27.616  1.00  0.00     0.171 HD
BRANCH  18  20
ATOM     20  C   UNL A   1      31.516  25.152  25.913  1.00  0.00     0.042 A 
ATOM     21  C   UNL A   1      30.871  25.619  24.762  1.00  0.00     0.027 A 
ATOM     22  C   UNL A   1      32.862  25.467  26.126  1.00  0.00     0.027 A 
ATOM     23  C   UNL A   1      31.516  26.521  23.915  1.00  0.00     0.018 A 
ATOM     24  C   UNL A   1      33.518  26.353  25.265  1.00  0.00     0.018 A 
ATOM     25  C   UNL A   1      32.830  26.902  24.184  1.00  0.00     0.018 A 
ATOM     26  Br  UNL A   1      33.662  28.206  23.100  1.00  0.00    -0.051 Br
ENDBRANCH  18  20
ENDBRANCH  13  14
ENDBRANCH   7   8
ENDBRANCH   5   7
ENDBRANCH   2   3
ENDBRANCH   1   2
BRANCH   1  27
ATOM     27  C   UNL A   1      40.012  21.258  26.337  1.00  0.00     0.023 C 
BRANCH  27  28
ATOM     28  C   UNL A   1      40.780  20.140  27.034  1.00  0.00     0.116 C 
BRANCH  28  29
ATOM     29  N   UNL A   1      41.639  19.394  26.129  1.00  0.00    -0.352 N 
ATOM     30  C   UNL A   1      42.777  19.804  25.469  1.00  0.00     0.251 C 
ATOM     31  H   UNL A   1      41.369  18.462  25.965  1.00  0.00     0.163 HD
ATOM     32  O   UNL A   1      43.286  19.076  24.626  1.00  0.00    -0.269 OA
BRANCH  30  33
ATOM     33  C   UNL A   1      43.364  21.135  25.753  1.00  0.00     0.039 A 
ATOM     34  C   UNL A   1      43.393  22.090  24.733  1.00  0.00     0.014 A 
ATOM     35  C   UNL A   1      43.882  21.446  27.013  1.00  0.00     0.014 A 
ATOM     36  C   UNL A   1      43.873  23.376  24.997  1.00  0.00     0.010 A 
ATOM     37  C   UNL A   1      44.289  22.749  27.295  1.00  0.00     0.010 A 
ATOM     38  C   UNL A   1      44.288  23.730  26.292  1.00  0.00    -0.014 A 
BRANCH  38  39
ATOM     39  C   UNL A   1      44.708  25.121  26.615  1.00  0.00     0.031 A 
ATOM     40  C   UNL A   1      43.704  26.123  27.120  1.00  0.00     0.074 A 
ATOM     41  C   UNL A   1      45.984  25.502  26.397  1.00  0.00     0.049 A 
ATOM     42  N   UNL A   1      43.873  27.392  27.397  1.00  0.00    -0.248 NA
ATOM     43  C   UNL A   1      42.326  25.645  27.319  1.00  0.00     0.031 C 
ATOM     44  C   UNL A   1      47.048  24.641  25.874  1.00  0.00     0.029 A 
ATOM     45  N   UNL A   1      46.602  26.715  26.580  1.00  0.00    -0.354 N 
ATOM     46  C   UNL A   1      42.625  27.864  27.791  1.00  0.00     0.074 A 
ATOM     47  C   UNL A   1      41.699  26.760  27.663  1.00  0.00     0.031 C 
ATOM     48  C   UNL A   1      48.189  25.344  25.805  1.00  0.00     0.029 A 
ATOM     49  C   UNL A   1      47.932  26.716  26.230  1.00  0.00     0.049 A 
ATOM     50  H   UNL A   1      46.137  27.509  26.930  1.00  0.00     0.167 HD
ATOM     51  C   UNL A   1      42.286  29.096  28.240  1.00  0.00     0.031 A 
ATOM     52  C   UNL A   1      48.844  27.709  26.238  1.00  0.00     0.031 A 
ATOM     53  C   UNL A   1      43.209  30.193  28.368  1.00  0.00     0.049 A 
ATOM     54  C   UNL A   1      48.436  29.077  26.716  1.00  0.00     0.074 A 
ATOM     55  C   UNL A   1      42.969  31.466  28.855  1.00  0.00     0.029 A 
ATOM     56  N   UNL A   1      44.548  30.151  28.007  1.00  0.00    -0.354 N 
ATOM     57  N   UNL A   1      47.266  29.485  27.142  1.00  0.00    -0.248 NA
ATOM     58  C   UNL A   1      49.477  30.115  26.725  1.00  0.00     0.031 C 
ATOM     59  C   UNL A   1      44.145  32.212  28.731  1.00  0.00     0.029 A 
ATOM     60  C   UNL A   1      45.138  31.383  28.234  1.00  0.00     0.049 A 
ATOM     61  H   UNL A   1      45.009  29.362  27.643  1.00  0.00     0.167 HD
ATOM     62  C   UNL A   1      47.436  30.819  27.496  1.00  0.00     0.074 A 
ATOM     63  C   UNL A   1      48.826  31.143  27.251  1.00  0.00     0.031 C 
ATOM     64  C   UNL A   1      46.523  31.696  27.985  1.00  0.00     0.031 A 
BRANCH  51  65
ATOM     65  C   UNL A   1      40.845  29.327  28.621  1.00  0.00    -0.014 A 
ATOM     66  C   UNL A   1      40.471  29.537  29.961  1.00  0.00     0.010 A 
ATOM     67  C   UNL A   1      39.854  29.377  27.622  1.00  0.00     0.010 A 
ATOM     68  C   UNL A   1      39.133  29.749  30.300  1.00  0.00     0.020 A 
ATOM     69  C   UNL A   1      38.518  29.622  27.953  1.00  0.00     0.020 A 
ATOM     70  C   UNL A   1      38.164  29.789  29.294  1.00  0.00     0.054 A 
BRANCH  70  71
ATOM     71  S   UNL A   1      36.438  30.087  29.763  1.00  0.00     0.124 S 
ATOM     72  O   UNL A   1      36.415  31.540  29.915  1.00  0.00    -0.237 OA
ATOM     73  O   UNL A   1      35.700  29.565  28.615  1.00  0.00    -0.237 OA
ATOM     74  O   UNL A   1      36.278  29.328  31.001  1.00  0.00    -0.744 OA
ENDBRANCH  70  71
ENDBRANCH  51  65
BRANCH  52  75
ATOM     75  C   UNL A   1      50.237  27.443  25.780  1.00  0.00    -0.014 A 
ATOM     76  C   UNL A   1      51.215  26.985  26.680  1.00  0.00     0.010 A 
ATOM     77  C   UNL A   1      50.589  27.640  24.432  1.00  0.00     0.010 A 
ATOM     78  C   UNL A   1      52.524  26.749  26.246  1.00  0.00     0.020 A 
ATOM     79  C   UNL A   1      51.887  27.373  23.987  1.00  0.00     0.020 A 
ATOM     80  C   UNL A   1      52.850  26.940  24.900  1.00  0.00     0.054 A 
BRANCH  80  81
ATOM     81  S   UNL A   1      54.539  26.577  24.349  1.00  0.00     0.124 S 
ATOM     82  O   UNL A   1      54.740  25.224  24.854  1.00  0.00    -0.237 OA
ATOM     83  O   UNL A   1      54.430  26.702  22.898  1.00  0.00    -0.237 OA
ATOM     84  O   UNL A   1      55.341  27.614  24.997  1.00  0.00    -0.744 OA
ENDBRANCH  80  81
ENDBRANCH  52  75
BRANCH  64  85
ATOM     85  C   UNL A   1      47.002  33.084  28.323  1.00  0.00    -0.014 A 
ATOM     86  C   UNL A   1      46.945  34.129  27.384  1.00  0.00     0.010 A 
ATOM     87  C   UNL A   1      47.466  33.357  29.624  1.00  0.00     0.010 A 
ATOM     88  C   UNL A   1      47.372  35.415  27.731  1.00  0.00     0.020 A 
ATOM     89  C   UNL A   1      47.864  34.648  29.983  1.00  0.00     0.020 A 
ATOM     90  C   UNL A   1      47.828  35.665  29.029  1.00  0.00     0.054 A 
BRANCH  90  91
ATOM     91  S   UNL A   1      48.336  37.351  29.464  1.00  0.00     0.124 S 
ATOM     92  O   UNL A   1      47.098  38.101  29.274  1.00  0.00    -0.237 OA
ATOM     93  O   UNL A   1      48.774  37.204  30.850  1.00  0.00    -0.237 OA
ATOM     94  O   UNL A   1      49.400  37.651  28.509  1.00  0.00    -0.744 OA
ENDBRANCH  90  91
ENDBRANCH  64  85
ENDBRANCH  38  39
ENDBRANCH  30  33
ENDBRANCH  28  29
ENDBRANCH  27  28
ENDBRANCH   1  27
TORSDOF 17
ENDMDL
