MODEL 1
REMARK VINA RESULT:     -11.4      0.000      0.000
REMARK SMILES CN(CC[NH+](C)C)C(=O)N1CC(n2cc(C(=O)NCCCCNC(=O)c3ccc(-c4c5nc(c(-c6ccc(S(=O)(=O)[O-])cc6)c6ccc([nH]6)c(-c6ccc(S(=O)(=O)[O-])cc6)c6nc(c(-c7ccc(S(=O)(=O)[O-])cc7)c7ccc4[nH]7)C=C6)C=C5)cc3)nn2)C1
REMARK SMILES IDX 19 1 18 2 16 3 17 4 15 6 13 7 14 8 87 9 86 10 12 11 8 12
REMARK SMILES IDX 9 13 10 14 11 15 88 16 2 17 1 18 3 19 4 20 5 21 6 22 7 23
REMARK SMILES IDX 20 25 21 26 22 27 23 28 24 29 25 31 26 32 27 33 85 34 28 35
REMARK SMILES IDX 84 36 29 37 30 38 31 39 78 40 32 41 83 42 77 43 79 44 33 45
REMARK SMILES IDX 82 46 76 47 75 48 34 50 64 51 45 52 63 53 46 54 49 55 62 56
REMARK SMILES IDX 80 57 47 58 48 59 61 61 81 62 50 63 35 64 36 65 44 66 37 67
REMARK SMILES IDX 43 68 38 69 39 70 40 71 41 72 42 73 65 74 66 75 74 76 67 77
REMARK SMILES IDX 73 78 68 79 69 80 70 81 71 82 72 83 51 84 52 85 60 86 53 87
REMARK SMILES IDX 59 88 54 89 55 90 56 91 57 92 58 93
REMARK H PARENT 18 5 5 24 23 30 79 49 49 60
REMARK Flexibility Score: inf
ROOT
ATOM      1  C   UNL A   1      32.337  29.449  24.199  1.00  0.00     0.116 C 
ENDROOT
BRANCH   1   2
ATOM      2  N   UNL A   1      31.361  29.657  23.145  1.00  0.00    -0.351 N 
ATOM      3  C   UNL A   1      30.434  28.813  22.579  1.00  0.00     0.273 C 
ATOM      4  O   UNL A   1      29.654  29.310  21.757  1.00  0.00    -0.267 OA
ATOM      5  H   UNL A   1      31.363  30.565  22.765  1.00  0.00     0.163 HD
BRANCH   3   6
ATOM      6  C   UNL A   1      30.357  27.406  22.949  1.00  0.00     0.170 A 
ATOM      7  N   UNL A   1      30.674  25.287  23.282  1.00  0.00    -0.245 N 
ATOM      8  C   UNL A   1      31.047  26.313  22.462  1.00  0.00     0.145 A 
ATOM      9  N   UNL A   1      29.713  25.665  24.132  1.00  0.00    -0.066 NA
ATOM     10  N   UNL A   1      29.489  26.955  23.922  1.00  0.00    -0.125 NA
BRANCH   7  11
ATOM     11  C   UNL A   1      31.361  24.039  23.312  1.00  0.00     0.148 C 
ATOM     12  C   UNL A   1      33.472  21.948  24.115  1.00  0.00     0.320 C 
ATOM     13  O   UNL A   1      32.874  21.081  23.483  1.00  0.00    -0.248 OA
ATOM     14  N   UNL A   1      32.884  23.162  24.409  1.00  0.00    -0.320 N 
ATOM     15  C   UNL A   1      31.433  23.324  24.656  1.00  0.00     0.150 C 
ATOM     16  C   UNL A   1      32.873  24.276  23.454  1.00  0.00     0.150 C 
BRANCH  12  17
ATOM     17  N   UNL A   1      34.723  21.777  24.694  1.00  0.00    -0.322 N 
ATOM     18  C   UNL A   1      35.225  20.462  25.065  1.00  0.00     0.149 C 
BRANCH  17  19
ATOM     19  C   UNL A   1      35.628  22.920  24.798  1.00  0.00     0.182 C 
BRANCH  19  20
ATOM     20  C   UNL A   1      37.144  22.559  24.819  1.00  0.00     0.283 C 
BRANCH  20  21
ATOM     21  N   UNL A   1      37.934  22.698  26.057  1.00  0.00    -0.338 N 
ATOM     22  C   UNL A   1      39.111  21.841  26.097  1.00  0.00     0.332 C 
ATOM     23  C   UNL A   1      38.212  24.078  26.430  1.00  0.00     0.332 C 
ATOM     24  H   UNL A   1      37.321  22.345  26.793  1.00  0.00     0.347 HD
ENDBRANCH  20  21
ENDBRANCH  19  20
ENDBRANCH  17  19
ENDBRANCH  12  17
ENDBRANCH   7  11
ENDBRANCH   3   6
ENDBRANCH   1   2
BRANCH   1  25
ATOM     25  C   UNL A   1      31.808  29.901  25.563  1.00  0.00     0.023 C 
BRANCH  25  26
ATOM     26  C   UNL A   1      32.274  29.056  26.759  1.00  0.00     0.023 C 
BRANCH  26  27
ATOM     27  C   UNL A   1      33.447  29.640  27.544  1.00  0.00     0.116 C 
BRANCH  27  28
ATOM     28  N   UNL A   1      33.751  31.019  27.173  1.00  0.00    -0.352 N 
ATOM     29  C   UNL A   1      34.801  31.801  27.609  1.00  0.00     0.251 C 
ATOM     30  H   UNL A   1      33.132  31.441  26.533  1.00  0.00     0.163 HD
ATOM     31  O   UNL A   1      34.716  33.026  27.569  1.00  0.00    -0.269 OA
BRANCH  29  32
ATOM     32  C   UNL A   1      36.025  31.153  28.116  1.00  0.00     0.039 A 
ATOM     33  C   UNL A   1      36.240  29.784  27.939  1.00  0.00     0.014 A 
ATOM     34  C   UNL A   1      36.973  31.940  28.771  1.00  0.00     0.014 A 
ATOM     35  C   UNL A   1      37.456  29.235  28.345  1.00  0.00     0.010 A 
ATOM     36  C   UNL A   1      38.213  31.422  29.073  1.00  0.00     0.010 A 
ATOM     37  C   UNL A   1      38.454  30.065  28.887  1.00  0.00    -0.014 A 
BRANCH  37  38
ATOM     38  C   UNL A   1      39.813  29.557  29.076  1.00  0.00     0.031 A 
ATOM     39  C   UNL A   1      40.189  29.389  30.506  1.00  0.00     0.074 A 
ATOM     40  C   UNL A   1      40.599  29.076  28.087  1.00  0.00     0.049 A 
ATOM     41  N   UNL A   1      40.981  30.140  31.194  1.00  0.00    -0.248 NA
ATOM     42  C   UNL A   1      39.464  28.392  31.313  1.00  0.00     0.031 C 
ATOM     43  C   UNL A   1      40.256  28.909  26.670  1.00  0.00     0.029 A 
ATOM     44  N   UNL A   1      41.845  28.527  28.156  1.00  0.00    -0.354 N 
ATOM     45  C   UNL A   1      41.074  29.538  32.444  1.00  0.00     0.074 A 
ATOM     46  C   UNL A   1      39.959  28.629  32.530  1.00  0.00     0.031 C 
ATOM     47  C   UNL A   1      41.160  28.096  26.076  1.00  0.00     0.029 A 
ATOM     48  C   UNL A   1      42.231  27.822  27.016  1.00  0.00     0.049 A 
ATOM     49  H   UNL A   1      42.426  28.619  28.946  1.00  0.00     0.167 HD
ATOM     50  C   UNL A   1      42.229  29.602  33.165  1.00  0.00     0.031 A 
ATOM     51  C   UNL A   1      43.344  27.058  26.854  1.00  0.00     0.031 A 
ATOM     52  C   UNL A   1      43.130  30.594  32.626  1.00  0.00     0.049 A 
ATOM     53  C   UNL A   1      44.329  27.516  27.860  1.00  0.00     0.074 A 
ATOM     54  C   UNL A   1      43.064  31.948  32.370  1.00  0.00     0.029 A 
ATOM     55  N   UNL A   1      44.179  30.114  31.878  1.00  0.00    -0.354 N 
ATOM     56  N   UNL A   1      44.877  28.698  27.833  1.00  0.00    -0.248 NA
ATOM     57  C   UNL A   1      44.385  26.831  29.138  1.00  0.00     0.031 C 
ATOM     58  C   UNL A   1      43.780  32.130  31.149  1.00  0.00     0.029 A 
ATOM     59  C   UNL A   1      44.319  30.900  30.767  1.00  0.00     0.049 A 
ATOM     60  H   UNL A   1      44.736  29.333  32.103  1.00  0.00     0.167 HD
ATOM     61  C   UNL A   1      44.916  29.093  29.160  1.00  0.00     0.074 A 
ATOM     62  C   UNL A   1      44.721  27.860  29.922  1.00  0.00     0.031 C 
ATOM     63  C   UNL A   1      44.817  30.414  29.497  1.00  0.00     0.031 A 
BRANCH  50  64
ATOM     64  C   UNL A   1      42.741  28.464  34.024  1.00  0.00    -0.014 A 
ATOM     65  C   UNL A   1      43.384  27.379  33.389  1.00  0.00     0.010 A 
ATOM     66  C   UNL A   1      42.357  28.272  35.368  1.00  0.00     0.010 A 
ATOM     67  C   UNL A   1      43.548  26.147  34.035  1.00  0.00     0.020 A 
ATOM     68  C   UNL A   1      42.558  27.064  36.036  1.00  0.00     0.020 A 
ATOM     69  C   UNL A   1      43.122  25.996  35.353  1.00  0.00     0.054 A 
BRANCH  69  70
ATOM     70  S   UNL A   1      43.262  24.380  36.152  1.00  0.00     0.124 S 
ATOM     71  O   UNL A   1      44.519  23.884  35.602  1.00  0.00    -0.237 OA
ATOM     72  O   UNL A   1      43.284  24.739  37.567  1.00  0.00    -0.237 OA
ATOM     73  O   UNL A   1      42.060  23.677  35.710  1.00  0.00    -0.744 OA
ENDBRANCH  69  70
ENDBRANCH  50  64
BRANCH  51  74
ATOM     74  C   UNL A   1      43.525  25.798  26.087  1.00  0.00    -0.014 A 
ATOM     75  C   UNL A   1      44.736  25.527  25.416  1.00  0.00     0.010 A 
ATOM     76  C   UNL A   1      42.632  24.726  26.273  1.00  0.00     0.010 A 
ATOM     77  C   UNL A   1      45.077  24.219  25.027  1.00  0.00     0.020 A 
ATOM     78  C   UNL A   1      42.961  23.421  25.882  1.00  0.00     0.020 A 
ATOM     79  C   UNL A   1      44.195  23.168  25.288  1.00  0.00     0.054 A 
BRANCH  79  80
ATOM     80  S   UNL A   1      44.725  21.455  24.975  1.00  0.00     0.124 S 
ATOM     81  O   UNL A   1      46.045  21.418  25.597  1.00  0.00    -0.237 OA
ATOM     82  O   UNL A   1      43.690  20.673  25.644  1.00  0.00    -0.237 OA
ATOM     83  O   UNL A   1      44.723  21.356  23.516  1.00  0.00    -0.744 OA
ENDBRANCH  79  80
ENDBRANCH  51  74
BRANCH  63  84
ATOM     84  C   UNL A   1      45.059  31.448  28.422  1.00  0.00    -0.014 A 
ATOM     85  C   UNL A   1      44.093  31.889  27.497  1.00  0.00     0.010 A 
ATOM     86  C   UNL A   1      46.319  32.074  28.417  1.00  0.00     0.010 A 
ATOM     87  C   UNL A   1      44.399  32.894  26.564  1.00  0.00     0.020 A 
ATOM     88  C   UNL A   1      46.622  33.089  27.509  1.00  0.00     0.020 A 
ATOM     89  C   UNL A   1      45.666  33.483  26.573  1.00  0.00     0.054 A 
BRANCH  89  90
ATOM     90  S   UNL A   1      46.065  34.781  25.369  1.00  0.00     0.124 S 
ATOM     91  O   UNL A   1      47.491  34.574  25.140  1.00  0.00    -0.237 OA
ATOM     92  O   UNL A   1      45.193  34.457  24.243  1.00  0.00    -0.237 OA
ATOM     93  O   UNL A   1      45.724  36.019  26.068  1.00  0.00    -0.744 OA
ENDBRANCH  89  90
ENDBRANCH  63  84
ENDBRANCH  37  38
ENDBRANCH  29  32
ENDBRANCH  27  28
ENDBRANCH  26  27
ENDBRANCH  25  26
ENDBRANCH   1  25
TORSDOF 19
ENDMDL
MODEL 2
REMARK VINA RESULT:     -11.3      2.843      8.336
REMARK SMILES CN(CC[NH+](C)C)C(=O)N1CC(n2cc(C(=O)NCCCCNC(=O)c3ccc(-c4c5nc(c(-c6ccc(S(=O)(=O)[O-])cc6)c6ccc([nH]6)c(-c6ccc(S(=O)(=O)[O-])cc6)c6nc(c(-c7ccc(S(=O)(=O)[O-])cc7)c7ccc4[nH]7)C=C6)C=C5)cc3)nn2)C1
REMARK SMILES IDX 19 1 18 2 16 3 17 4 15 6 13 7 14 8 87 9 86 10 12 11 8 12
REMARK SMILES IDX 9 13 10 14 11 15 88 16 2 17 1 18 3 19 4 20 5 21 6 22 7 23
REMARK SMILES IDX 20 25 21 26 22 27 23 28 24 29 25 31 26 32 27 33 85 34 28 35
REMARK SMILES IDX 84 36 29 37 30 38 31 39 78 40 32 41 83 42 77 43 79 44 33 45
REMARK SMILES IDX 82 46 76 47 75 48 34 50 64 51 45 52 63 53 46 54 49 55 62 56
REMARK SMILES IDX 80 57 47 58 48 59 61 61 81 62 50 63 35 64 36 65 44 66 37 67
REMARK SMILES IDX 43 68 38 69 39 70 40 71 41 72 42 73 65 74 66 75 74 76 67 77
REMARK SMILES IDX 73 78 68 79 69 80 70 81 71 82 72 83 51 84 52 85 60 86 53 87
REMARK SMILES IDX 59 88 54 89 55 90 56 91 57 92 58 93
REMARK H PARENT 18 5 5 24 23 30 79 49 49 60
REMARK Flexibility Score: inf
ROOT
ATOM      1  C   UNL A   1      36.203  21.057  25.322  1.00  0.00     0.116 C 
ENDROOT
BRANCH   1   2
ATOM      2  N   UNL A   1      35.375  19.891  25.076  1.00  0.00    -0.351 N 
ATOM      3  C   UNL A   1      34.038  19.766  24.777  1.00  0.00     0.273 C 
ATOM      4  O   UNL A   1      33.628  18.630  24.513  1.00  0.00    -0.267 OA
ATOM      5  H   UNL A   1      35.857  19.034  25.133  1.00  0.00     0.163 HD
BRANCH   3   6
ATOM      6  C   UNL A   1      33.152  20.922  24.750  1.00  0.00     0.170 A 
ATOM      7  N   UNL A   1      32.062  22.760  25.118  1.00  0.00    -0.245 N 
ATOM      8  C   UNL A   1      32.787  21.795  25.756  1.00  0.00     0.145 A 
ATOM      9  N   UNL A   1      31.859  22.449  23.833  1.00  0.00    -0.066 NA
ATOM     10  N   UNL A   1      32.499  21.311  23.598  1.00  0.00    -0.125 NA
BRANCH   7  11
ATOM     11  C   UNL A   1      31.729  24.003  25.731  1.00  0.00     0.148 C 
ATOM     12  C   UNL A   1      31.779  27.030  26.286  1.00  0.00     0.320 C 
ATOM     13  O   UNL A   1      30.842  26.915  27.072  1.00  0.00    -0.248 OA
ATOM     14  N   UNL A   1      32.121  26.012  25.417  1.00  0.00    -0.320 N 
ATOM     15  C   UNL A   1      31.134  25.078  24.831  1.00  0.00     0.150 C 
ATOM     16  C   UNL A   1      32.979  24.893  25.824  1.00  0.00     0.150 C 
BRANCH  12  17
ATOM     17  N   UNL A   1      32.509  28.196  26.097  1.00  0.00    -0.322 N 
ATOM     18  C   UNL A   1      32.431  29.311  27.030  1.00  0.00     0.149 C 
BRANCH  17  19
ATOM     19  C   UNL A   1      33.498  28.258  25.022  1.00  0.00     0.182 C 
BRANCH  19  20
ATOM     20  C   UNL A   1      33.060  29.076  23.771  1.00  0.00     0.283 C 
BRANCH  20  21
ATOM     21  N   UNL A   1      32.572  28.393  22.558  1.00  0.00    -0.338 N 
ATOM     22  C   UNL A   1      33.370  27.235  22.179  1.00  0.00     0.332 C 
ATOM     23  C   UNL A   1      31.139  28.130  22.563  1.00  0.00     0.332 C 
ATOM     24  H   UNL A   1      32.712  29.071  21.808  1.00  0.00     0.347 HD
ENDBRANCH  20  21
ENDBRANCH  19  20
ENDBRANCH  17  19
ENDBRANCH  12  17
ENDBRANCH   7  11
ENDBRANCH   3   6
ENDBRANCH   1   2
BRANCH   1  25
ATOM     25  C   UNL A   1      37.582  20.927  24.668  1.00  0.00     0.023 C 
BRANCH  25  26
ATOM     26  C   UNL A   1      38.381  19.678  25.072  1.00  0.00     0.023 C 
BRANCH  26  27
ATOM     27  C   UNL A   1      39.475  19.919  26.112  1.00  0.00     0.116 C 
BRANCH  27  28
ATOM     28  N   UNL A   1      40.708  19.194  25.819  1.00  0.00    -0.352 N 
ATOM     29  C   UNL A   1      41.987  19.705  25.724  1.00  0.00     0.251 C 
ATOM     30  H   UNL A   1      40.616  18.225  25.673  1.00  0.00     0.163 HD
ATOM     31  O   UNL A   1      42.843  19.108  25.076  1.00  0.00    -0.269 OA
BRANCH  29  32
ATOM     32  C   UNL A   1      42.316  20.967  26.412  1.00  0.00     0.039 A 
ATOM     33  C   UNL A   1      42.609  22.126  25.689  1.00  0.00     0.014 A 
ATOM     34  C   UNL A   1      42.321  20.983  27.807  1.00  0.00     0.014 A 
ATOM     35  C   UNL A   1      42.815  23.319  26.381  1.00  0.00     0.010 A 
ATOM     36  C   UNL A   1      42.417  22.178  28.486  1.00  0.00     0.010 A 
ATOM     37  C   UNL A   1      42.689  23.347  27.782  1.00  0.00    -0.014 A 
BRANCH  37  38
ATOM     38  C   UNL A   1      42.647  24.624  28.493  1.00  0.00     0.031 A 
ATOM     39  C   UNL A   1      41.443  25.439  28.176  1.00  0.00     0.074 A 
ATOM     40  C   UNL A   1      43.479  24.972  29.500  1.00  0.00     0.049 A 
ATOM     41  N   UNL A   1      41.393  26.496  27.436  1.00  0.00    -0.248 NA
ATOM     42  C   UNL A   1      40.119  24.923  28.566  1.00  0.00     0.031 C 
ATOM     43  C   UNL A   1      44.529  24.155  30.118  1.00  0.00     0.029 A 
ATOM     44  N   UNL A   1      43.491  26.099  30.268  1.00  0.00    -0.354 N 
ATOM     45  C   UNL A   1      40.076  26.937  27.504  1.00  0.00     0.074 A 
ATOM     46  C   UNL A   1      39.310  25.823  28.001  1.00  0.00     0.031 C 
ATOM     47  C   UNL A   1      44.904  24.709  31.294  1.00  0.00     0.029 A 
ATOM     48  C   UNL A   1      44.251  25.998  31.434  1.00  0.00     0.049 A 
ATOM     49  H   UNL A   1      43.004  26.919  30.019  1.00  0.00     0.167 HD
ATOM     50  C   UNL A   1      39.782  28.267  27.450  1.00  0.00     0.031 A 
ATOM     51  C   UNL A   1      44.331  26.898  32.448  1.00  0.00     0.031 A 
ATOM     52  C   UNL A   1      40.920  29.038  27.003  1.00  0.00     0.049 A 
ATOM     53  C   UNL A   1      43.926  28.209  31.892  1.00  0.00     0.074 A 
ATOM     54  C   UNL A   1      41.730  29.040  25.886  1.00  0.00     0.029 A 
ATOM     55  N   UNL A   1      41.613  29.713  27.980  1.00  0.00    -0.354 N 
ATOM     56  N   UNL A   1      44.620  28.843  30.990  1.00  0.00    -0.248 NA
ATOM     57  C   UNL A   1      42.539  28.617  32.013  1.00  0.00     0.031 C 
ATOM     58  C   UNL A   1      43.040  29.318  26.379  1.00  0.00     0.029 A 
ATOM     59  C   UNL A   1      42.953  29.557  27.752  1.00  0.00     0.049 A 
ATOM     60  H   UNL A   1      41.212  30.223  28.722  1.00  0.00     0.167 HD
ATOM     61  C   UNL A   1      43.670  29.372  30.130  1.00  0.00     0.074 A 
ATOM     62  C   UNL A   1      42.415  29.309  30.877  1.00  0.00     0.031 C 
ATOM     63  C   UNL A   1      43.949  29.540  28.803  1.00  0.00     0.031 A 
BRANCH  50  64
ATOM     64  C   UNL A   1      38.666  28.909  28.250  1.00  0.00    -0.014 A 
ATOM     65  C   UNL A   1      37.731  29.718  27.568  1.00  0.00     0.010 A 
ATOM     66  C   UNL A   1      38.672  28.997  29.657  1.00  0.00     0.010 A 
ATOM     67  C   UNL A   1      36.916  30.627  28.254  1.00  0.00     0.020 A 
ATOM     68  C   UNL A   1      37.831  29.865  30.354  1.00  0.00     0.020 A 
ATOM     69  C   UNL A   1      36.981  30.702  29.645  1.00  0.00     0.054 A 
BRANCH  69  70
ATOM     70  S   UNL A   1      35.987  31.936  30.515  1.00  0.00     0.124 S 
ATOM     71  O   UNL A   1      35.734  31.269  31.788  1.00  0.00    -0.237 OA
ATOM     72  O   UNL A   1      36.893  33.080  30.564  1.00  0.00    -0.237 OA
ATOM     73  O   UNL A   1      34.822  32.105  29.650  1.00  0.00    -0.744 OA
ENDBRANCH  69  70
ENDBRANCH  50  64
BRANCH  51  74
ATOM     74  C   UNL A   1      44.468  26.669  33.910  1.00  0.00    -0.014 A 
ATOM     75  C   UNL A   1      43.561  25.837  34.601  1.00  0.00     0.010 A 
ATOM     76  C   UNL A   1      45.666  27.010  34.567  1.00  0.00     0.010 A 
ATOM     77  C   UNL A   1      43.881  25.298  35.860  1.00  0.00     0.020 A 
ATOM     78  C   UNL A   1      45.989  26.482  35.825  1.00  0.00     0.020 A 
ATOM     79  C   UNL A   1      45.108  25.604  36.453  1.00  0.00     0.054 A 
BRANCH  79  80
ATOM     80  S   UNL A   1      45.608  24.744  37.977  1.00  0.00     0.124 S 
ATOM     81  O   UNL A   1      44.688  25.298  38.964  1.00  0.00    -0.237 OA
ATOM     82  O   UNL A   1      45.397  23.340  37.634  1.00  0.00    -0.237 OA
ATOM     83  O   UNL A   1      47.008  25.131  38.145  1.00  0.00    -0.744 OA
ENDBRANCH  79  80
ENDBRANCH  51  74
BRANCH  63  84
ATOM     84  C   UNL A   1      45.396  29.519  28.366  1.00  0.00    -0.014 A 
ATOM     85  C   UNL A   1      46.087  28.373  27.923  1.00  0.00     0.010 A 
ATOM     86  C   UNL A   1      46.061  30.757  28.314  1.00  0.00     0.010 A 
ATOM     87  C   UNL A   1      47.419  28.463  27.488  1.00  0.00     0.020 A 
ATOM     88  C   UNL A   1      47.376  30.857  27.861  1.00  0.00     0.020 A 
ATOM     89  C   UNL A   1      48.057  29.706  27.467  1.00  0.00     0.054 A 
BRANCH  89  90
ATOM     90  S   UNL A   1      49.779  29.825  26.907  1.00  0.00     0.124 S 
ATOM     91  O   UNL A   1      49.820  28.870  25.803  1.00  0.00    -0.237 OA
ATOM     92  O   UNL A   1      49.901  31.230  26.527  1.00  0.00    -0.237 OA
ATOM     93  O   UNL A   1      50.556  29.441  28.085  1.00  0.00    -0.744 OA
ENDBRANCH  89  90
ENDBRANCH  63  84
ENDBRANCH  37  38
ENDBRANCH  29  32
ENDBRANCH  27  28
ENDBRANCH  26  27
ENDBRANCH  25  26
ENDBRANCH   1  25
TORSDOF 19
ENDMDL
MODEL 3
REMARK VINA RESULT:     -11.3      2.260      9.758
REMARK SMILES CN(CC[NH+](C)C)C(=O)N1CC(n2cc(C(=O)NCCCCNC(=O)c3ccc(-c4c5nc(c(-c6ccc(S(=O)(=O)[O-])cc6)c6ccc([nH]6)c(-c6ccc(S(=O)(=O)[O-])cc6)c6nc(c(-c7ccc(S(=O)(=O)[O-])cc7)c7ccc4[nH]7)C=C6)C=C5)cc3)nn2)C1
REMARK SMILES IDX 19 1 18 2 16 3 17 4 15 6 13 7 14 8 87 9 86 10 12 11 8 12
REMARK SMILES IDX 9 13 10 14 11 15 88 16 2 17 1 18 3 19 4 20 5 21 6 22 7 23
REMARK SMILES IDX 20 25 21 26 22 27 23 28 24 29 25 31 26 32 27 33 85 34 28 35
REMARK SMILES IDX 84 36 29 37 30 38 31 39 78 40 32 41 83 42 77 43 79 44 33 45
REMARK SMILES IDX 82 46 76 47 75 48 34 50 64 51 45 52 63 53 46 54 49 55 62 56
REMARK SMILES IDX 80 57 47 58 48 59 61 61 81 62 50 63 35 64 36 65 44 66 37 67
REMARK SMILES IDX 43 68 38 69 39 70 40 71 41 72 42 73 65 74 66 75 74 76 67 77
REMARK SMILES IDX 73 78 68 79 69 80 70 81 71 82 72 83 51 84 52 85 60 86 53 87
REMARK SMILES IDX 59 88 54 89 55 90 56 91 57 92 58 93
REMARK H PARENT 18 5 5 24 23 30 79 49 49 60
REMARK Flexibility Score: inf
ROOT
ATOM      1  C   UNL A   1      36.226  21.803  26.000  1.00  0.00     0.116 C 
ENDROOT
BRANCH   1   2
ATOM      2  N   UNL A   1      35.361  20.694  25.641  1.00  0.00    -0.351 N 
ATOM      3  C   UNL A   1      34.258  20.624  24.821  1.00  0.00     0.273 C 
ATOM      4  O   UNL A   1      33.781  19.501  24.621  1.00  0.00    -0.267 OA
ATOM      5  H   UNL A   1      35.606  19.837  26.059  1.00  0.00     0.163 HD
BRANCH   3   6
ATOM      6  C   UNL A   1      33.695  21.815  24.198  1.00  0.00     0.170 A 
ATOM      7  N   UNL A   1      32.554  23.574  23.647  1.00  0.00    -0.245 N 
ATOM      8  C   UNL A   1      32.466  22.421  24.372  1.00  0.00     0.145 A 
ATOM      9  N   UNL A   1      33.694  23.628  22.950  1.00  0.00    -0.066 NA
ATOM     10  N   UNL A   1      34.393  22.543  23.256  1.00  0.00    -0.125 NA
BRANCH   7  11
ATOM     11  C   UNL A   1      31.612  24.636  23.775  1.00  0.00     0.148 C 
ATOM     12  C   UNL A   1      30.497  27.504  23.696  1.00  0.00     0.320 C 
ATOM     13  O   UNL A   1      29.368  27.086  23.941  1.00  0.00    -0.248 OA
ATOM     14  N   UNL A   1      31.514  26.652  23.311  1.00  0.00    -0.320 N 
ATOM     15  C   UNL A   1      31.288  25.426  22.513  1.00  0.00     0.150 C 
ATOM     16  C   UNL A   1      32.317  25.904  24.285  1.00  0.00     0.150 C 
BRANCH  12  17
ATOM     17  N   UNL A   1      30.849  28.847  23.663  1.00  0.00    -0.322 N 
ATOM     18  C   UNL A   1      31.279  29.559  24.858  1.00  0.00     0.149 C 
BRANCH  17  19
ATOM     19  C   UNL A   1      30.941  29.533  22.376  1.00  0.00     0.182 C 
BRANCH  19  20
ATOM     20  C   UNL A   1      29.590  30.078  21.823  1.00  0.00     0.283 C 
BRANCH  20  21
ATOM     21  N   UNL A   1      29.198  31.483  22.043  1.00  0.00    -0.338 N 
ATOM     22  C   UNL A   1      28.285  31.999  21.032  1.00  0.00     0.332 C 
ATOM     23  C   UNL A   1      28.774  31.772  23.405  1.00  0.00     0.332 C 
ATOM     24  H   UNL A   1      30.061  32.013  21.918  1.00  0.00     0.347 HD
ENDBRANCH  20  21
ENDBRANCH  19  20
ENDBRANCH  17  19
ENDBRANCH  12  17
ENDBRANCH   7  11
ENDBRANCH   3   6
ENDBRANCH   1   2
BRANCH   1  25
ATOM     25  C   UNL A   1      37.454  21.886  25.090  1.00  0.00     0.023 C 
BRANCH  25  26
ATOM     26  C   UNL A   1      38.595  20.918  25.440  1.00  0.00     0.023 C 
BRANCH  26  27
ATOM     27  C   UNL A   1      39.702  21.512  26.311  1.00  0.00     0.116 C 
BRANCH  27  28
ATOM     28  N   UNL A   1      40.977  20.815  26.164  1.00  0.00    -0.352 N 
ATOM     29  C   UNL A   1      42.235  21.370  26.044  1.00  0.00     0.251 C 
ATOM     30  H   UNL A   1      40.933  19.832  26.149  1.00  0.00     0.163 HD
ATOM     31  O   UNL A   1      43.142  20.733  25.515  1.00  0.00    -0.269 OA
BRANCH  29  32
ATOM     32  C   UNL A   1      42.480  22.729  26.564  1.00  0.00     0.039 A 
ATOM     33  C   UNL A   1      42.310  23.852  25.750  1.00  0.00     0.014 A 
ATOM     34  C   UNL A   1      42.880  22.871  27.893  1.00  0.00     0.014 A 
ATOM     35  C   UNL A   1      42.455  25.119  26.312  1.00  0.00     0.010 A 
ATOM     36  C   UNL A   1      42.917  24.119  28.474  1.00  0.00     0.010 A 
ATOM     37  C   UNL A   1      42.731  25.250  27.685  1.00  0.00    -0.014 A 
BRANCH  37  38
ATOM     38  C   UNL A   1      42.632  26.556  28.337  1.00  0.00     0.031 A 
ATOM     39  C   UNL A   1      43.795  27.443  28.065  1.00  0.00     0.074 A 
ATOM     40  C   UNL A   1      41.523  27.027  28.950  1.00  0.00     0.049 A 
ATOM     41  N   UNL A   1      44.751  27.741  28.880  1.00  0.00    -0.248 NA
ATOM     42  C   UNL A   1      44.027  27.900  26.684  1.00  0.00     0.031 C 
ATOM     43  C   UNL A   1      40.208  26.384  29.044  1.00  0.00     0.029 A 
ATOM     44  N   UNL A   1      41.301  28.241  29.531  1.00  0.00    -0.354 N 
ATOM     45  C   UNL A   1      45.551  28.653  28.200  1.00  0.00     0.074 A 
ATOM     46  C   UNL A   1      45.200  28.526  26.808  1.00  0.00     0.031 C 
ATOM     47  C   UNL A   1      39.282  27.294  29.425  1.00  0.00     0.029 A 
ATOM     48  C   UNL A   1      39.957  28.534  29.763  1.00  0.00     0.049 A 
ATOM     49  H   UNL A   1      42.029  28.861  29.768  1.00  0.00     0.167 HD
ATOM     50  C   UNL A   1      46.197  29.650  28.868  1.00  0.00     0.031 A 
ATOM     51  C   UNL A   1      39.430  29.711  30.191  1.00  0.00     0.031 A 
ATOM     52  C   UNL A   1      46.195  29.413  30.293  1.00  0.00     0.049 A 
ATOM     53  C   UNL A   1      40.518  30.445  30.876  1.00  0.00     0.074 A 
ATOM     54  C   UNL A   1      46.629  28.399  31.123  1.00  0.00     0.029 A 
ATOM     55  N   UNL A   1      45.294  30.149  31.026  1.00  0.00    -0.354 N 
ATOM     56  N   UNL A   1      41.061  30.038  31.988  1.00  0.00    -0.248 NA
ATOM     57  C   UNL A   1      41.303  31.396  30.110  1.00  0.00     0.031 C 
ATOM     58  C   UNL A   1      45.640  28.311  32.149  1.00  0.00     0.029 A 
ATOM     59  C   UNL A   1      44.703  29.325  31.945  1.00  0.00     0.049 A 
ATOM     60  H   UNL A   1      45.104  31.108  30.909  1.00  0.00     0.167 HD
ATOM     61  C   UNL A   1      42.412  30.299  31.831  1.00  0.00     0.074 A 
ATOM     62  C   UNL A   1      42.483  31.245  30.718  1.00  0.00     0.031 C 
ATOM     63  C   UNL A   1      43.349  29.504  32.430  1.00  0.00     0.031 A 
BRANCH  50  64
ATOM     64  C   UNL A   1      46.389  31.044  28.306  1.00  0.00    -0.014 A 
ATOM     65  C   UNL A   1      45.244  31.839  28.076  1.00  0.00     0.010 A 
ATOM     66  C   UNL A   1      47.594  31.486  27.722  1.00  0.00     0.010 A 
ATOM     67  C   UNL A   1      45.290  32.958  27.235  1.00  0.00     0.020 A 
ATOM     68  C   UNL A   1      47.660  32.626  26.921  1.00  0.00     0.020 A 
ATOM     69  C   UNL A   1      46.499  33.336  26.653  1.00  0.00     0.054 A 
BRANCH  69  70
ATOM     70  S   UNL A   1      46.532  34.732  25.504  1.00  0.00     0.124 S 
ATOM     71  O   UNL A   1      45.451  34.387  24.586  1.00  0.00    -0.237 OA
ATOM     72  O   UNL A   1      46.277  35.864  26.390  1.00  0.00    -0.237 OA
ATOM     73  O   UNL A   1      47.879  34.677  24.942  1.00  0.00    -0.744 OA
ENDBRANCH  69  70
ENDBRANCH  50  64
BRANCH  51  74
ATOM     74  C   UNL A   1      38.146  30.364  29.825  1.00  0.00    -0.014 A 
ATOM     75  C   UNL A   1      36.990  30.179  30.613  1.00  0.00     0.010 A 
ATOM     76  C   UNL A   1      38.131  31.413  28.886  1.00  0.00     0.010 A 
ATOM     77  C   UNL A   1      35.900  31.065  30.527  1.00  0.00     0.020 A 
ATOM     78  C   UNL A   1      37.046  32.295  28.789  1.00  0.00     0.020 A 
ATOM     79  C   UNL A   1      35.948  32.135  29.631  1.00  0.00     0.054 A 
BRANCH  79  80
ATOM     80  S   UNL A   1      34.635  33.395  29.670  1.00  0.00     0.124 S 
ATOM     81  O   UNL A   1      35.365  34.617  29.345  1.00  0.00    -0.237 OA
ATOM     82  O   UNL A   1      33.708  32.922  28.646  1.00  0.00    -0.237 OA
ATOM     83  O   UNL A   1      34.128  33.320  31.039  1.00  0.00    -0.744 OA
ENDBRANCH  79  80
ENDBRANCH  51  74
BRANCH  63  84
ATOM     84  C   UNL A   1      42.908  28.601  33.559  1.00  0.00    -0.014 A 
ATOM     85  C   UNL A   1      42.582  27.238  33.419  1.00  0.00     0.010 A 
ATOM     86  C   UNL A   1      42.918  29.154  34.852  1.00  0.00     0.010 A 
ATOM     87  C   UNL A   1      42.230  26.466  34.539  1.00  0.00     0.020 A 
ATOM     88  C   UNL A   1      42.592  28.388  35.972  1.00  0.00     0.020 A 
ATOM     89  C   UNL A   1      42.232  27.051  35.809  1.00  0.00     0.054 A 
BRANCH  89  90
ATOM     90  S   UNL A   1      41.777  26.057  37.258  1.00  0.00     0.124 S 
ATOM     91  O   UNL A   1      40.508  26.653  37.666  1.00  0.00    -0.237 OA
ATOM     92  O   UNL A   1      41.690  24.706  36.709  1.00  0.00    -0.237 OA
ATOM     93  O   UNL A   1      42.886  26.268  38.187  1.00  0.00    -0.744 OA
ENDBRANCH  89  90
ENDBRANCH  63  84
ENDBRANCH  37  38
ENDBRANCH  29  32
ENDBRANCH  27  28
ENDBRANCH  26  27
ENDBRANCH  25  26
ENDBRANCH   1  25
TORSDOF 19
ENDMDL
