MODEL 1
REMARK VINA RESULT:     -13.2      0.000      0.000
REMARK SMILES Cc1ccccc1OCC(=O)N[C@@H](Cc1c[nH]c2ccccc12)C(=O)NCCCCNC(=O)c1ccc(-c2c3nc(c(-c4ccc(S(=O)(=O)[O-])cc4)c4ccc([nH]4)c(-c4ccc(S(=O)(=O)[O-])cc4)c4nc(c(-c5ccc(S(=O)(=O)[O-])cc5)c5ccc2[nH]5)C=C4)C=C3)cc1
REMARK SMILES IDX 28 1 27 2 26 3 24 4 25 5 13 7 12 8 10 9 11 10 9 12 8 13 7 14
REMARK SMILES IDX 1 15 2 16 3 17 4 18 6 19 5 20 14 21 15 22 16 23 23 24 17 25
REMARK SMILES IDX 18 26 22 27 19 29 21 30 20 31 29 32 30 33 31 34 32 35 33 37
REMARK SMILES IDX 34 38 35 39 93 40 36 41 92 42 37 43 38 44 39 45 86 46 40 47
REMARK SMILES IDX 91 48 85 49 87 50 41 51 90 52 84 53 83 54 42 56 72 57 53 58
REMARK SMILES IDX 71 59 54 60 57 61 70 62 88 63 55 64 56 65 69 67 89 68 58 69
REMARK SMILES IDX 43 70 44 71 52 72 45 73 51 74 46 75 47 76 48 77 49 78 50 79
REMARK SMILES IDX 73 80 74 81 82 82 75 83 81 84 76 85 77 86 78 87 79 88 80 89
REMARK SMILES IDX 59 90 60 91 68 92 61 93 67 94 62 95 63 96 64 97 65 98 66 99
REMARK H PARENT 26 6 12 11 17 28 31 36 87 55 57 66
REMARK Flexibility Score: inf
ROOT
ATOM      1  C   UNL A   1      33.990  28.988  24.979  1.00  0.00     0.023 C 
ENDROOT
BRANCH   1   2
ATOM      2  C   UNL A   1      32.561  29.503  24.795  1.00  0.00     0.116 C 
BRANCH   2   3
ATOM      3  N   UNL A   1      31.926  29.139  23.534  1.00  0.00    -0.354 N 
ATOM      4  C   UNL A   1      31.187  28.042  23.180  1.00  0.00     0.242 C 
ATOM      5  O   UNL A   1      30.432  28.172  22.207  1.00  0.00    -0.273 OA
ATOM      6  H   UNL A   1      32.049  29.796  22.811  1.00  0.00     0.163 HD
BRANCH   4   7
ATOM      7  C   UNL A   1      31.209  26.691  23.944  1.00  0.00     0.175 C 
BRANCH   7   8
ATOM      8  N   UNL A   1      30.675  26.851  25.298  1.00  0.00    -0.341 N 
ATOM      9  C   UNL A   1      31.309  26.500  26.452  1.00  0.00     0.258 C 
ATOM     10  O   UNL A   1      31.167  27.204  27.452  1.00  0.00    -0.271 OA
ATOM     11  H   UNL A   1      29.779  27.247  25.382  1.00  0.00     0.164 HD
BRANCH   9  12
ATOM     12  C   UNL A   1      32.174  25.235  26.481  1.00  0.00     0.329 C 
BRANCH  12  13
ATOM     13  O   UNL A   1      33.564  25.340  26.234  1.00  0.00    -0.484 OA
BRANCH  13  14
ATOM     14  C   UNL A   1      34.320  24.259  25.875  1.00  0.00     0.122 A 
ATOM     15  C   UNL A   1      33.879  22.602  27.823  1.00  0.00     0.048 C 
ATOM     16  C   UNL A   1      34.494  23.026  26.521  1.00  0.00    -0.009 A 
ATOM     17  C   UNL A   1      35.318  22.054  25.906  1.00  0.00     0.007 A 
ATOM     18  C   UNL A   1      36.005  22.312  24.723  1.00  0.00     0.001 A 
ATOM     19  C   UNL A   1      35.042  24.512  24.695  1.00  0.00     0.047 A 
ATOM     20  C   UNL A   1      35.878  23.554  24.120  1.00  0.00     0.004 A 
ENDBRANCH  13  14
ENDBRANCH  12  13
ENDBRANCH   9  12
ENDBRANCH   7   8
BRANCH   7  21
ATOM     21  C   UNL A   1      30.660  25.493  23.145  1.00  0.00     0.072 C 
BRANCH  21  22
ATOM     22  C   UNL A   1      31.642  24.406  22.867  1.00  0.00    -0.020 A 
ATOM     23  C   UNL A   1      32.519  24.351  21.800  1.00  0.00     0.087 A 
ATOM     24  C   UNL A   1      31.810  23.197  23.611  1.00  0.00     0.003 A 
ATOM     25  N   UNL A   1      33.117  23.116  21.800  1.00  0.00    -0.361 N 
ATOM     26  C   UNL A   1      32.646  22.375  22.860  1.00  0.00     0.046 A 
ATOM     27  C   UNL A   1      31.250  22.685  24.802  1.00  0.00     0.010 A 
ATOM     28  H   UNL A   1      33.781  22.808  21.142  1.00  0.00     0.166 HD
ATOM     29  C   UNL A   1      32.870  21.037  23.192  1.00  0.00     0.026 A 
ATOM     30  C   UNL A   1      31.517  21.365  25.176  1.00  0.00     0.001 A 
ATOM     31  C   UNL A   1      32.298  20.545  24.367  1.00  0.00     0.002 A 
ENDBRANCH  21  22
ENDBRANCH   7  21
ENDBRANCH   4   7
ENDBRANCH   2   3
ENDBRANCH   1   2
BRANCH   1  32
ATOM     32  C   UNL A   1      34.348  28.484  26.377  1.00  0.00     0.023 C 
BRANCH  32  33
ATOM     33  C   UNL A   1      34.312  29.537  27.477  1.00  0.00     0.116 C 
BRANCH  33  34
ATOM     34  N   UNL A   1      35.161  30.696  27.279  1.00  0.00    -0.352 N 
ATOM     35  C   UNL A   1      36.314  30.956  28.017  1.00  0.00     0.251 C 
ATOM     36  H   UNL A   1      34.907  31.339  26.577  1.00  0.00     0.163 HD
ATOM     37  O   UNL A   1      36.612  32.065  28.417  1.00  0.00    -0.269 OA
BRANCH  35  38
ATOM     38  C   UNL A   1      37.261  29.821  28.159  1.00  0.00     0.039 A 
ATOM     39  C   UNL A   1      37.291  29.120  29.371  1.00  0.00     0.014 A 
ATOM     40  C   UNL A   1      38.236  29.601  27.191  1.00  0.00     0.014 A 
ATOM     41  C   UNL A   1      38.396  28.324  29.678  1.00  0.00     0.010 A 
ATOM     42  C   UNL A   1      39.373  28.905  27.536  1.00  0.00     0.010 A 
ATOM     43  C   UNL A   1      39.472  28.298  28.793  1.00  0.00    -0.014 A 
BRANCH  43  44
ATOM     44  C   UNL A   1      40.774  27.712  29.081  1.00  0.00     0.031 A 
ATOM     45  C   UNL A   1      41.081  26.337  28.616  1.00  0.00     0.074 A 
ATOM     46  C   UNL A   1      41.744  28.502  29.595  1.00  0.00     0.049 A 
ATOM     47  N   UNL A   1      42.049  25.606  29.062  1.00  0.00    -0.248 NA
ATOM     48  C   UNL A   1      40.257  25.654  27.621  1.00  0.00     0.031 C 
ATOM     49  C   UNL A   1      43.181  28.253  29.565  1.00  0.00     0.029 A 
ATOM     50  N   UNL A   1      41.605  29.609  30.444  1.00  0.00    -0.354 N 
ATOM     51  C   UNL A   1      42.145  24.501  28.240  1.00  0.00     0.074 A 
ATOM     52  C   UNL A   1      40.964  24.541  27.411  1.00  0.00     0.031 C 
ATOM     53  C   UNL A   1      43.757  28.959  30.552  1.00  0.00     0.029 A 
ATOM     54  C   UNL A   1      42.681  29.533  31.347  1.00  0.00     0.049 A 
ATOM     55  H   UNL A   1      40.901  30.296  30.416  1.00  0.00     0.167 HD
ATOM     56  C   UNL A   1      43.279  23.744  28.242  1.00  0.00     0.031 A 
ATOM     57  C   UNL A   1      42.550  29.378  32.697  1.00  0.00     0.031 A 
ATOM     58  C   UNL A   1      44.231  24.210  29.245  1.00  0.00     0.049 A 
ATOM     59  C   UNL A   1      43.278  28.166  33.223  1.00  0.00     0.074 A 
ATOM     60  C   UNL A   1      45.338  25.038  29.162  1.00  0.00     0.029 A 
ATOM     61  N   UNL A   1      43.931  24.077  30.597  1.00  0.00    -0.354 N 
ATOM     62  N   UNL A   1      43.607  27.141  32.488  1.00  0.00    -0.248 NA
ATOM     63  C   UNL A   1      43.639  27.998  34.626  1.00  0.00     0.031 C 
ATOM     64  C   UNL A   1      45.645  25.484  30.472  1.00  0.00     0.029 A 
ATOM     65  C   UNL A   1      44.748  24.899  31.350  1.00  0.00     0.049 A 
ATOM     66  H   UNL A   1      43.236  23.484  30.963  1.00  0.00     0.167 HD
ATOM     67  C   UNL A   1      44.187  26.189  33.282  1.00  0.00     0.074 A 
ATOM     68  C   UNL A   1      44.197  26.776  34.609  1.00  0.00     0.031 C 
ATOM     69  C   UNL A   1      44.595  24.983  32.794  1.00  0.00     0.031 A 
BRANCH  56  70
ATOM     70  C   UNL A   1      43.650  22.791  27.122  1.00  0.00    -0.014 A 
ATOM     71  C   UNL A   1      42.824  21.678  26.858  1.00  0.00     0.010 A 
ATOM     72  C   UNL A   1      44.818  22.890  26.341  1.00  0.00     0.010 A 
ATOM     73  C   UNL A   1      43.196  20.667  25.957  1.00  0.00     0.020 A 
ATOM     74  C   UNL A   1      45.223  21.869  25.465  1.00  0.00     0.020 A 
ATOM     75  C   UNL A   1      44.413  20.753  25.289  1.00  0.00     0.054 A 
BRANCH  75  76
ATOM     76  S   UNL A   1      44.924  19.393  24.204  1.00  0.00     0.124 S 
ATOM     77  O   UNL A   1      46.372  19.368  24.391  1.00  0.00    -0.237 OA
ATOM     78  O   UNL A   1      44.196  18.257  24.763  1.00  0.00    -0.237 OA
ATOM     79  O   UNL A   1      44.482  19.822  22.879  1.00  0.00    -0.744 OA
ENDBRANCH  75  76
ENDBRANCH  56  70
BRANCH  57  80
ATOM     80  C   UNL A   1      41.268  29.866  33.274  1.00  0.00    -0.014 A 
ATOM     81  C   UNL A   1      41.037  31.253  33.298  1.00  0.00     0.010 A 
ATOM     82  C   UNL A   1      40.175  28.985  33.378  1.00  0.00     0.010 A 
ATOM     83  C   UNL A   1      39.732  31.746  33.224  1.00  0.00     0.020 A 
ATOM     84  C   UNL A   1      38.869  29.479  33.281  1.00  0.00     0.020 A 
ATOM     85  C   UNL A   1      38.669  30.850  33.111  1.00  0.00     0.054 A 
BRANCH  85  86
ATOM     86  S   UNL A   1      37.083  31.485  32.489  1.00  0.00     0.124 S 
ATOM     87  O   UNL A   1      36.331  30.263  32.231  1.00  0.00    -0.237 OA
ATOM     88  O   UNL A   1      36.625  32.280  33.630  1.00  0.00    -0.237 OA
ATOM     89  O   UNL A   1      37.471  32.253  31.311  1.00  0.00    -0.744 OA
ENDBRANCH  85  86
ENDBRANCH  57  80
BRANCH  69  90
ATOM     90  C   UNL A   1      44.981  23.807  33.648  1.00  0.00    -0.014 A 
ATOM     91  C   UNL A   1      44.085  22.781  33.998  1.00  0.00     0.010 A 
ATOM     92  C   UNL A   1      46.333  23.636  34.021  1.00  0.00     0.010 A 
ATOM     93  C   UNL A   1      44.499  21.682  34.759  1.00  0.00     0.020 A 
ATOM     94  C   UNL A   1      46.767  22.519  34.741  1.00  0.00     0.020 A 
ATOM     95  C   UNL A   1      45.836  21.563  35.134  1.00  0.00     0.054 A 
BRANCH  95  96
ATOM     96  S   UNL A   1      46.369  20.115  36.080  1.00  0.00     0.124 S 
ATOM     97  O   UNL A   1      47.822  20.268  36.067  1.00  0.00    -0.237 OA
ATOM     98  O   UNL A   1      45.730  20.316  37.379  1.00  0.00    -0.237 OA
ATOM     99  O   UNL A   1      45.849  18.991  35.306  1.00  0.00    -0.744 OA
ENDBRANCH  95  96
ENDBRANCH  69  90
ENDBRANCH  43  44
ENDBRANCH  35  38
ENDBRANCH  33  34
ENDBRANCH  32  33
ENDBRANCH   1  32
TORSDOF 20
ENDMDL
MODEL 2
REMARK VINA RESULT:     -12.8      4.508     10.845
REMARK SMILES Cc1ccccc1OCC(=O)N[C@@H](Cc1c[nH]c2ccccc12)C(=O)NCCCCNC(=O)c1ccc(-c2c3nc(c(-c4ccc(S(=O)(=O)[O-])cc4)c4ccc([nH]4)c(-c4ccc(S(=O)(=O)[O-])cc4)c4nc(c(-c5ccc(S(=O)(=O)[O-])cc5)c5ccc2[nH]5)C=C4)C=C3)cc1
REMARK SMILES IDX 28 1 27 2 26 3 24 4 25 5 13 7 12 8 10 9 11 10 9 12 8 13 7 14
REMARK SMILES IDX 1 15 2 16 3 17 4 18 6 19 5 20 14 21 15 22 16 23 23 24 17 25
REMARK SMILES IDX 18 26 22 27 19 29 21 30 20 31 29 32 30 33 31 34 32 35 33 37
REMARK SMILES IDX 34 38 35 39 93 40 36 41 92 42 37 43 38 44 39 45 86 46 40 47
REMARK SMILES IDX 91 48 85 49 87 50 41 51 90 52 84 53 83 54 42 56 72 57 53 58
REMARK SMILES IDX 71 59 54 60 57 61 70 62 88 63 55 64 56 65 69 67 89 68 58 69
REMARK SMILES IDX 43 70 44 71 52 72 45 73 51 74 46 75 47 76 48 77 49 78 50 79
REMARK SMILES IDX 73 80 74 81 82 82 75 83 81 84 76 85 77 86 78 87 79 88 80 89
REMARK SMILES IDX 59 90 60 91 68 92 61 93 67 94 62 95 63 96 64 97 65 98 66 99
REMARK H PARENT 26 6 12 11 17 28 31 36 87 55 57 66
REMARK Flexibility Score: inf
ROOT
ATOM      1  C   UNL A   1      36.942  22.475  23.948  1.00  0.00     0.023 C 
ENDROOT
BRANCH   1   2
ATOM      2  C   UNL A   1      35.693  23.344  23.784  1.00  0.00     0.116 C 
BRANCH   2   3
ATOM      3  N   UNL A   1      34.870  23.036  22.621  1.00  0.00    -0.354 N 
ATOM      4  C   UNL A   1      33.539  23.248  22.378  1.00  0.00     0.242 C 
ATOM      5  O   UNL A   1      33.190  23.279  21.190  1.00  0.00    -0.273 OA
ATOM      6  H   UNL A   1      35.354  22.602  21.882  1.00  0.00     0.163 HD
BRANCH   4   7
ATOM      7  C   UNL A   1      32.477  23.493  23.483  1.00  0.00     0.175 C 
BRANCH   7   8
ATOM      8  N   UNL A   1      31.619  24.627  23.137  1.00  0.00    -0.341 N 
ATOM      9  C   UNL A   1      32.012  25.929  23.053  1.00  0.00     0.258 C 
ATOM     10  O   UNL A   1      31.518  26.650  22.186  1.00  0.00    -0.271 OA
ATOM     11  H   UNL A   1      30.673  24.431  22.948  1.00  0.00     0.164 HD
BRANCH   9  12
ATOM     12  C   UNL A   1      33.051  26.466  24.043  1.00  0.00     0.329 C 
BRANCH  12  13
ATOM     13  O   UNL A   1      32.646  26.813  25.354  1.00  0.00    -0.484 OA
BRANCH  13  14
ATOM     14  C   UNL A   1      32.742  28.092  25.828  1.00  0.00     0.122 A 
ATOM     15  C   UNL A   1      30.928  29.333  24.450  1.00  0.00     0.048 C 
ATOM     16  C   UNL A   1      32.013  29.239  25.483  1.00  0.00    -0.009 A 
ATOM     17  C   UNL A   1      32.296  30.447  26.163  1.00  0.00     0.007 A 
ATOM     18  C   UNL A   1      33.313  30.539  27.110  1.00  0.00     0.001 A 
ATOM     19  C   UNL A   1      33.783  28.209  26.768  1.00  0.00     0.047 A 
ATOM     20  C   UNL A   1      34.071  29.417  27.404  1.00  0.00     0.004 A 
ENDBRANCH  13  14
ENDBRANCH  12  13
ENDBRANCH   9  12
ENDBRANCH   7   8
BRANCH   7  21
ATOM     21  C   UNL A   1      31.748  22.223  23.964  1.00  0.00     0.072 C 
BRANCH  21  22
ATOM     22  C   UNL A   1      32.623  21.165  24.546  1.00  0.00    -0.020 A 
ATOM     23  C   UNL A   1      33.480  21.312  25.619  1.00  0.00     0.087 A 
ATOM     24  C   UNL A   1      32.783  19.829  24.060  1.00  0.00     0.003 A 
ATOM     25  N   UNL A   1      34.233  20.171  25.727  1.00  0.00    -0.361 N 
ATOM     26  C   UNL A   1      33.867  19.281  24.742  1.00  0.00     0.046 A 
ATOM     27  C   UNL A   1      32.174  19.071  23.037  1.00  0.00     0.010 A 
ATOM     28  H   UNL A   1      34.929  20.012  26.405  1.00  0.00     0.166 HD
ATOM     29  C   UNL A   1      34.430  18.055  24.383  1.00  0.00     0.026 A 
ATOM     30  C   UNL A   1      32.692  17.813  22.711  1.00  0.00     0.001 A 
ATOM     31  C   UNL A   1      33.821  17.324  23.360  1.00  0.00     0.002 A 
ENDBRANCH  21  22
ENDBRANCH   7  21
ENDBRANCH   4   7
ENDBRANCH   2   3
ENDBRANCH   1   2
BRANCH   1  32
ATOM     32  C   UNL A   1      37.390  22.206  25.385  1.00  0.00     0.023 C 
BRANCH  32  33
ATOM     33  C   UNL A   1      38.016  23.395  26.104  1.00  0.00     0.116 C 
BRANCH  33  34
ATOM     34  N   UNL A   1      39.091  23.087  27.028  1.00  0.00    -0.352 N 
ATOM     35  C   UNL A   1      40.167  23.934  27.285  1.00  0.00     0.251 C 
ATOM     36  H   UNL A   1      39.058  22.225  27.503  1.00  0.00     0.163 HD
ATOM     37  O   UNL A   1      41.312  23.540  27.401  1.00  0.00    -0.269 OA
BRANCH  35  38
ATOM     38  C   UNL A   1      39.822  25.350  27.575  1.00  0.00     0.039 A 
ATOM     39  C   UNL A   1      40.301  26.346  26.715  1.00  0.00     0.014 A 
ATOM     40  C   UNL A   1      39.221  25.688  28.783  1.00  0.00     0.014 A 
ATOM     41  C   UNL A   1      40.328  27.673  27.149  1.00  0.00     0.010 A 
ATOM     42  C   UNL A   1      39.347  26.976  29.253  1.00  0.00     0.010 A 
ATOM     43  C   UNL A   1      39.935  27.962  28.454  1.00  0.00    -0.014 A 
BRANCH  43  44
ATOM     44  C   UNL A   1      40.128  29.244  29.119  1.00  0.00     0.031 A 
ATOM     45  C   UNL A   1      39.045  30.256  29.093  1.00  0.00     0.074 A 
ATOM     46  C   UNL A   1      41.212  29.409  29.909  1.00  0.00     0.049 A 
ATOM     47  N   UNL A   1      39.201  31.510  29.363  1.00  0.00    -0.248 NA
ATOM     48  C   UNL A   1      37.679  29.920  28.697  1.00  0.00     0.031 C 
ATOM     49  C   UNL A   1      41.383  30.405  30.962  1.00  0.00     0.029 A 
ATOM     50  N   UNL A   1      42.483  28.830  29.776  1.00  0.00    -0.354 N 
ATOM     51  C   UNL A   1      37.943  32.074  29.450  1.00  0.00     0.074 A 
ATOM     52  C   UNL A   1      37.039  31.063  28.953  1.00  0.00     0.031 C 
ATOM     53  C   UNL A   1      42.697  30.579  31.175  1.00  0.00     0.029 A 
ATOM     54  C   UNL A   1      43.398  29.834  30.140  1.00  0.00     0.049 A 
ATOM     55  H   UNL A   1      42.691  27.912  29.487  1.00  0.00     0.167 HD
ATOM     56  C   UNL A   1      37.775  33.280  30.064  1.00  0.00     0.031 A 
ATOM     57  C   UNL A   1      44.336  30.366  29.303  1.00  0.00     0.031 A 
ATOM     58  C   UNL A   1      39.052  33.852  30.478  1.00  0.00     0.049 A 
ATOM     59  C   UNL A   1      44.222  31.864  29.171  1.00  0.00     0.074 A 
ATOM     60  C   UNL A   1      39.723  33.850  31.689  1.00  0.00     0.029 A 
ATOM     61  N   UNL A   1      39.964  34.272  29.516  1.00  0.00    -0.354 N 
ATOM     62  N   UNL A   1      43.133  32.535  29.425  1.00  0.00    -0.248 NA
ATOM     63  C   UNL A   1      45.309  32.709  28.690  1.00  0.00     0.031 C 
ATOM     64  C   UNL A   1      41.078  34.179  31.435  1.00  0.00     0.029 A 
ATOM     65  C   UNL A   1      41.219  34.415  30.078  1.00  0.00     0.049 A 
ATOM     66  H   UNL A   1      39.747  34.442  28.571  1.00  0.00     0.167 HD
ATOM     67  C   UNL A   1      43.343  33.855  29.137  1.00  0.00     0.074 A 
ATOM     68  C   UNL A   1      44.723  33.918  28.692  1.00  0.00     0.031 C 
ATOM     69  C   UNL A   1      42.363  34.795  29.264  1.00  0.00     0.031 A 
BRANCH  56  70
ATOM     70  C   UNL A   1      36.436  33.780  30.572  1.00  0.00    -0.014 A 
ATOM     71  C   UNL A   1      35.454  34.191  29.645  1.00  0.00     0.010 A 
ATOM     72  C   UNL A   1      36.102  33.934  31.931  1.00  0.00     0.010 A 
ATOM     73  C   UNL A   1      34.266  34.823  30.044  1.00  0.00     0.020 A 
ATOM     74  C   UNL A   1      34.935  34.599  32.345  1.00  0.00     0.020 A 
ATOM     75  C   UNL A   1      34.028  35.054  31.395  1.00  0.00     0.054 A 
BRANCH  75  76
ATOM     76  S   UNL A   1      32.537  35.958  31.889  1.00  0.00     0.124 S 
ATOM     77  O   UNL A   1      31.984  36.379  30.605  1.00  0.00    -0.237 OA
ATOM     78  O   UNL A   1      31.772  34.937  32.600  1.00  0.00    -0.237 OA
ATOM     79  O   UNL A   1      33.050  37.042  32.723  1.00  0.00    -0.744 OA
ENDBRANCH  75  76
ENDBRANCH  56  70
BRANCH  57  80
ATOM     80  C   UNL A   1      44.769  29.485  28.185  1.00  0.00    -0.014 A 
ATOM     81  C   UNL A   1      45.427  28.284  28.504  1.00  0.00     0.010 A 
ATOM     82  C   UNL A   1      44.166  29.625  26.921  1.00  0.00     0.010 A 
ATOM     83  C   UNL A   1      45.312  27.178  27.658  1.00  0.00     0.020 A 
ATOM     84  C   UNL A   1      44.033  28.510  26.085  1.00  0.00     0.020 A 
ATOM     85  C   UNL A   1      44.528  27.276  26.509  1.00  0.00     0.054 A 
BRANCH  85  86
ATOM     86  S   UNL A   1      43.962  25.734  25.731  1.00  0.00     0.124 S 
ATOM     87  O   UNL A   1      45.099  25.362  24.898  1.00  0.00    -0.237 OA
ATOM     88  O   UNL A   1      43.735  24.887  26.903  1.00  0.00    -0.237 OA
ATOM     89  O   UNL A   1      42.758  26.143  25.016  1.00  0.00    -0.744 OA
ENDBRANCH  85  86
ENDBRANCH  57  80
BRANCH  69  90
ATOM     90  C   UNL A   1      42.446  36.191  28.710  1.00  0.00    -0.014 A 
ATOM     91  C   UNL A   1      43.113  37.242  29.363  1.00  0.00     0.010 A 
ATOM     92  C   UNL A   1      41.949  36.451  27.413  1.00  0.00     0.010 A 
ATOM     93  C   UNL A   1      43.203  38.515  28.789  1.00  0.00     0.020 A 
ATOM     94  C   UNL A   1      42.074  37.706  26.811  1.00  0.00     0.020 A 
ATOM     95  C   UNL A   1      42.675  38.742  27.520  1.00  0.00     0.054 A 
BRANCH  95  96
ATOM     96  S   UNL A   1      42.836  40.380  26.768  1.00  0.00     0.124 S 
ATOM     97  O   UNL A   1      41.476  40.627  26.294  1.00  0.00    -0.237 OA
ATOM     98  O   UNL A   1      43.270  41.214  27.886  1.00  0.00    -0.237 OA
ATOM     99  O   UNL A   1      43.838  40.179  25.725  1.00  0.00    -0.744 OA
ENDBRANCH  95  96
ENDBRANCH  69  90
ENDBRANCH  43  44
ENDBRANCH  35  38
ENDBRANCH  33  34
ENDBRANCH  32  33
ENDBRANCH   1  32
TORSDOF 20
ENDMDL
MODEL 3
REMARK VINA RESULT:     -12.7      1.312      2.659
REMARK SMILES Cc1ccccc1OCC(=O)N[C@@H](Cc1c[nH]c2ccccc12)C(=O)NCCCCNC(=O)c1ccc(-c2c3nc(c(-c4ccc(S(=O)(=O)[O-])cc4)c4ccc([nH]4)c(-c4ccc(S(=O)(=O)[O-])cc4)c4nc(c(-c5ccc(S(=O)(=O)[O-])cc5)c5ccc2[nH]5)C=C4)C=C3)cc1
REMARK SMILES IDX 28 1 27 2 26 3 24 4 25 5 13 7 12 8 10 9 11 10 9 12 8 13 7 14
REMARK SMILES IDX 1 15 2 16 3 17 4 18 6 19 5 20 14 21 15 22 16 23 23 24 17 25
REMARK SMILES IDX 18 26 22 27 19 29 21 30 20 31 29 32 30 33 31 34 32 35 33 37
REMARK SMILES IDX 34 38 35 39 93 40 36 41 92 42 37 43 38 44 39 45 86 46 40 47
REMARK SMILES IDX 91 48 85 49 87 50 41 51 90 52 84 53 83 54 42 56 72 57 53 58
REMARK SMILES IDX 71 59 54 60 57 61 70 62 88 63 55 64 56 65 69 67 89 68 58 69
REMARK SMILES IDX 43 70 44 71 52 72 45 73 51 74 46 75 47 76 48 77 49 78 50 79
REMARK SMILES IDX 73 80 74 81 82 82 75 83 81 84 76 85 77 86 78 87 79 88 80 89
REMARK SMILES IDX 59 90 60 91 68 92 61 93 67 94 62 95 63 96 64 97 65 98 66 99
REMARK H PARENT 26 6 12 11 17 28 31 36 87 55 57 66
REMARK Flexibility Score: inf
ROOT
ATOM      1  C   UNL A   1      32.214  28.207  26.879  1.00  0.00     0.023 C 
ENDROOT
BRANCH   1   2
ATOM      2  C   UNL A   1      32.338  26.792  26.309  1.00  0.00     0.116 C 
BRANCH   2   3
ATOM      3  N   UNL A   1      31.262  25.878  26.674  1.00  0.00    -0.354 N 
ATOM      4  C   UNL A   1      31.047  24.565  26.354  1.00  0.00     0.242 C 
ATOM      5  O   UNL A   1      30.307  23.922  27.111  1.00  0.00    -0.273 OA
ATOM      6  H   UNL A   1      30.569  26.274  27.252  1.00  0.00     0.163 HD
BRANCH   4   7
ATOM      7  C   UNL A   1      31.703  23.842  25.147  1.00  0.00     0.175 C 
BRANCH   7   8
ATOM      8  N   UNL A   1      32.074  22.471  25.501  1.00  0.00    -0.341 N 
ATOM      9  C   UNL A   1      33.199  22.097  26.174  1.00  0.00     0.258 C 
ATOM     10  O   UNL A   1      33.136  21.162  26.973  1.00  0.00    -0.271 OA
ATOM     11  H   UNL A   1      31.456  21.755  25.230  1.00  0.00     0.164 HD
BRANCH   9  12
ATOM     12  C   UNL A   1      34.513  22.841  25.915  1.00  0.00     0.329 C 
BRANCH  12  13
ATOM     13  O   UNL A   1      35.368  22.398  24.878  1.00  0.00    -0.484 OA
BRANCH  13  14
ATOM     14  C   UNL A   1      36.602  21.869  25.133  1.00  0.00     0.122 A 
ATOM     15  C   UNL A   1      37.949  23.947  25.906  1.00  0.00     0.048 C 
ATOM     16  C   UNL A   1      37.772  22.490  25.594  1.00  0.00    -0.009 A 
ATOM     17  C   UNL A   1      38.920  21.690  25.809  1.00  0.00     0.007 A 
ATOM     18  C   UNL A   1      38.935  20.330  25.514  1.00  0.00     0.001 A 
ATOM     19  C   UNL A   1      36.645  20.498  24.815  1.00  0.00     0.047 A 
ATOM     20  C   UNL A   1      37.795  19.732  25.000  1.00  0.00     0.004 A 
ENDBRANCH  13  14
ENDBRANCH  12  13
ENDBRANCH   9  12
ENDBRANCH   7   8
BRANCH   7  21
ATOM     21  C   UNL A   1      30.949  24.007  23.813  1.00  0.00     0.072 C 
BRANCH  21  22
ATOM     22  C   UNL A   1      31.280  25.239  23.041  1.00  0.00    -0.020 A 
ATOM     23  C   UNL A   1      32.389  25.429  22.239  1.00  0.00     0.087 A 
ATOM     24  C   UNL A   1      30.547  26.467  23.040  1.00  0.00     0.003 A 
ATOM     25  N   UNL A   1      32.423  26.745  21.856  1.00  0.00    -0.361 N 
ATOM     26  C   UNL A   1      31.342  27.409  22.390  1.00  0.00     0.046 A 
ATOM     27  C   UNL A   1      29.331  26.891  23.617  1.00  0.00     0.010 A 
ATOM     28  H   UNL A   1      33.113  27.153  21.285  1.00  0.00     0.166 HD
ATOM     29  C   UNL A   1      31.024  28.769  22.376  1.00  0.00     0.026 A 
ATOM     30  C   UNL A   1      28.973  28.242  23.555  1.00  0.00     0.001 A 
ATOM     31  C   UNL A   1      29.822  29.172  22.963  1.00  0.00     0.002 A 
ENDBRANCH  21  22
ENDBRANCH   7  21
ENDBRANCH   4   7
ENDBRANCH   2   3
ENDBRANCH   1   2
BRANCH   1  32
ATOM     32  C   UNL A   1      33.314  29.191  26.479  1.00  0.00     0.023 C 
BRANCH  32  33
ATOM     33  C   UNL A   1      34.373  29.450  27.544  1.00  0.00     0.116 C 
BRANCH  33  34
ATOM     34  N   UNL A   1      35.216  30.611  27.335  1.00  0.00    -0.352 N 
ATOM     35  C   UNL A   1      36.380  30.873  28.055  1.00  0.00     0.251 C 
ATOM     36  H   UNL A   1      34.948  31.256  26.640  1.00  0.00     0.163 HD
ATOM     37  O   UNL A   1      36.682  31.981  28.453  1.00  0.00    -0.269 OA
BRANCH  35  38
ATOM     38  C   UNL A   1      37.333  29.739  28.178  1.00  0.00     0.039 A 
ATOM     39  C   UNL A   1      37.331  28.987  29.359  1.00  0.00     0.014 A 
ATOM     40  C   UNL A   1      38.339  29.568  27.232  1.00  0.00     0.014 A 
ATOM     41  C   UNL A   1      38.433  28.187  29.666  1.00  0.00     0.010 A 
ATOM     42  C   UNL A   1      39.470  28.866  27.582  1.00  0.00     0.010 A 
ATOM     43  C   UNL A   1      39.536  28.207  28.815  1.00  0.00    -0.014 A 
BRANCH  43  44
ATOM     44  C   UNL A   1      40.834  27.618  29.117  1.00  0.00     0.031 A 
ATOM     45  C   UNL A   1      41.143  26.243  28.656  1.00  0.00     0.074 A 
ATOM     46  C   UNL A   1      41.799  28.407  29.641  1.00  0.00     0.049 A 
ATOM     47  N   UNL A   1      42.104  25.510  29.114  1.00  0.00    -0.248 NA
ATOM     48  C   UNL A   1      40.329  25.561  27.653  1.00  0.00     0.031 C 
ATOM     49  C   UNL A   1      43.236  28.155  29.628  1.00  0.00     0.029 A 
ATOM     50  N   UNL A   1      41.653  29.515  30.489  1.00  0.00    -0.354 N 
ATOM     51  C   UNL A   1      42.208  24.405  28.294  1.00  0.00     0.074 A 
ATOM     52  C   UNL A   1      41.036  24.446  27.451  1.00  0.00     0.031 C 
ATOM     53  C   UNL A   1      43.802  28.861  30.621  1.00  0.00     0.029 A 
ATOM     54  C   UNL A   1      42.719  29.437  31.404  1.00  0.00     0.049 A 
ATOM     55  H   UNL A   1      40.950  30.203  30.452  1.00  0.00     0.167 HD
ATOM     56  C   UNL A   1      43.341  23.646  28.308  1.00  0.00     0.031 A 
ATOM     57  C   UNL A   1      42.571  29.283  32.752  1.00  0.00     0.031 A 
ATOM     58  C   UNL A   1      44.283  24.110  29.322  1.00  0.00     0.049 A 
ATOM     59  C   UNL A   1      43.291  28.070  33.287  1.00  0.00     0.074 A 
ATOM     60  C   UNL A   1      45.392  24.936  29.251  1.00  0.00     0.029 A 
ATOM     61  N   UNL A   1      43.967  23.979  30.670  1.00  0.00    -0.354 N 
ATOM     62  N   UNL A   1      43.627  27.044  32.557  1.00  0.00    -0.248 NA
ATOM     63  C   UNL A   1      43.637  27.902  34.694  1.00  0.00     0.031 C 
ATOM     64  C   UNL A   1      45.685  25.382  30.564  1.00  0.00     0.029 A 
ATOM     65  C   UNL A   1      44.777  24.799  31.432  1.00  0.00     0.049 A 
ATOM     66  H   UNL A   1      43.266  23.387  31.029  1.00  0.00     0.167 HD
ATOM     67  C   UNL A   1      44.196  26.092  33.357  1.00  0.00     0.074 A 
ATOM     68  C   UNL A   1      44.192  26.679  34.684  1.00  0.00     0.031 C 
ATOM     69  C   UNL A   1      44.608  24.885  32.874  1.00  0.00     0.031 A 
BRANCH  56  70
ATOM     70  C   UNL A   1      43.723  22.692  27.193  1.00  0.00    -0.014 A 
ATOM     71  C   UNL A   1      42.841  21.647  26.843  1.00  0.00     0.010 A 
ATOM     72  C   UNL A   1      44.948  22.722  26.499  1.00  0.00     0.010 A 
ATOM     73  C   UNL A   1      43.204  20.630  25.946  1.00  0.00     0.020 A 
ATOM     74  C   UNL A   1      45.341  21.692  25.627  1.00  0.00     0.020 A 
ATOM     75  C   UNL A   1      44.469  20.641  25.366  1.00  0.00     0.054 A 
BRANCH  75  76
ATOM     76  S   UNL A   1      44.958  19.270  24.286  1.00  0.00     0.124 S 
ATOM     77  O   UNL A   1      44.528  19.736  22.971  1.00  0.00    -0.237 OA
ATOM     78  O   UNL A   1      46.403  19.210  24.492  1.00  0.00    -0.237 OA
ATOM     79  O   UNL A   1      44.209  18.131  24.811  1.00  0.00    -0.744 OA
ENDBRANCH  75  76
ENDBRANCH  56  70
BRANCH  57  80
ATOM     80  C   UNL A   1      41.284  29.774  33.315  1.00  0.00    -0.014 A 
ATOM     81  C   UNL A   1      41.195  31.128  33.684  1.00  0.00     0.010 A 
ATOM     82  C   UNL A   1      40.102  29.047  33.077  1.00  0.00     0.010 A 
ATOM     83  C   UNL A   1      39.967  31.791  33.620  1.00  0.00     0.020 A 
ATOM     84  C   UNL A   1      38.877  29.717  32.992  1.00  0.00     0.020 A 
ATOM     85  C   UNL A   1      38.841  31.099  33.174  1.00  0.00     0.054 A 
BRANCH  85  86
ATOM     86  S   UNL A   1      37.419  32.074  32.596  1.00  0.00     0.124 S 
ATOM     87  O   UNL A   1      36.393  31.055  32.404  1.00  0.00    -0.237 OA
ATOM     88  O   UNL A   1      37.209  32.976  33.730  1.00  0.00    -0.237 OA
ATOM     89  O   UNL A   1      37.919  32.707  31.381  1.00  0.00    -0.744 OA
ENDBRANCH  85  86
ENDBRANCH  57  80
BRANCH  69  90
ATOM     90  C   UNL A   1      44.981  23.708  33.734  1.00  0.00    -0.014 A 
ATOM     91  C   UNL A   1      44.117  22.627  33.979  1.00  0.00     0.010 A 
ATOM     92  C   UNL A   1      46.303  23.601  34.222  1.00  0.00     0.010 A 
ATOM     93  C   UNL A   1      44.523  21.532  34.750  1.00  0.00     0.020 A 
ATOM     94  C   UNL A   1      46.733  22.489  34.954  1.00  0.00     0.020 A 
ATOM     95  C   UNL A   1      45.826  21.474  35.240  1.00  0.00     0.054 A 
BRANCH  95  96
ATOM     96  S   UNL A   1      46.354  20.032  36.198  1.00  0.00     0.124 S 
ATOM     97  O   UNL A   1      45.850  18.930  35.382  1.00  0.00    -0.237 OA
ATOM     98  O   UNL A   1      47.808  20.172  36.231  1.00  0.00    -0.237 OA
ATOM     99  O   UNL A   1      45.690  20.216  37.486  1.00  0.00    -0.744 OA
ENDBRANCH  95  96
ENDBRANCH  69  90
ENDBRANCH  43  44
ENDBRANCH  35  38
ENDBRANCH  33  34
ENDBRANCH  32  33
ENDBRANCH   1  32
TORSDOF 20
ENDMDL
