MODEL 1
REMARK VINA RESULT:     -12.9      0.000      0.000
REMARK SMILES O=C(C[C@H](NC(=O)[C@]12C[C@H]3C[C@H](C[C@H](C3)C1)C2)c1cccc([N+](=O)[O-])c1)NCCCCNC(=O)c1ccc(-c2c3nc(c(-c4ccc(S(=O)(=O)[O-])cc4)c4ccc([nH]4)c(-c4ccc(S(=O)(=O)[O-])cc4)c4nc(c(-c5ccc(S(=O)(=O)[O-])cc5)c5ccc2[nH]5)C=C4)C=C3)cc1
REMARK SMILES IDX 29 1 28 2 27 3 1 4 2 5 3 7 4 8 18 9 19 10 26 11 20 12 22 13
REMARK SMILES IDX 21 14 23 15 24 16 25 17 5 18 6 19 7 21 8 22 9 23 16 24 17 25
REMARK SMILES IDX 10 26 14 27 12 28 11 29 15 30 13 31 30 32 31 33 32 34 33 35
REMARK SMILES IDX 34 37 35 38 36 39 94 40 37 41 93 42 38 43 39 44 40 45 87 46
REMARK SMILES IDX 41 47 92 48 86 49 88 50 42 51 91 52 85 53 84 54 43 56 73 57
REMARK SMILES IDX 54 58 72 59 55 60 58 61 71 62 89 63 56 64 57 65 70 67 90 68
REMARK SMILES IDX 59 69 44 70 45 71 53 72 46 73 52 74 47 75 48 76 49 77 50 78
REMARK SMILES IDX 51 79 74 80 75 81 83 82 76 83 82 84 77 85 78 86 79 87 80 88
REMARK SMILES IDX 81 89 60 90 61 91 69 92 62 93 68 94 63 95 64 96 65 97 66 98
REMARK SMILES IDX 67 99
REMARK H PARENT 27 6 5 20 32 36 88 55 58 66
REMARK Flexibility Score: inf
ROOT
ATOM      1  C   UNL A   1      38.479  22.292  25.959  1.00  0.00     0.023 C 
ENDROOT
BRANCH   1   2
ATOM      2  C   UNL A   1      37.938  21.080  25.196  1.00  0.00     0.116 C 
BRANCH   2   3
ATOM      3  N   UNL A   1      36.583  20.782  25.610  1.00  0.00    -0.356 N 
ATOM      4  O   UNL A   1      35.500  22.229  24.182  1.00  0.00    -0.275 OA
ATOM      5  C   UNL A   1      35.484  21.464  25.138  1.00  0.00     0.222 C 
ATOM      6  H   UNL A   1      36.441  20.056  26.259  1.00  0.00     0.163 HD
BRANCH   5   7
ATOM      7  C   UNL A   1      34.239  21.168  25.935  1.00  0.00     0.129 C 
BRANCH   7   8
ATOM      8  C   UNL A   1      32.903  21.395  25.197  1.00  0.00     0.122 C 
BRANCH   8   9
ATOM      9  C   UNL A   1      32.609  20.132  24.409  1.00  0.00    -0.018 A 
ATOM     10  C   UNL A   1      32.283  20.159  23.043  1.00  0.00     0.006 A 
ATOM     11  C   UNL A   1      32.792  18.887  25.048  1.00  0.00     0.091 A 
ATOM     12  C   UNL A   1      32.288  18.974  22.296  1.00  0.00     0.007 A 
ATOM     13  C   UNL A   1      32.815  17.712  24.287  1.00  0.00     0.269 A 
ATOM     14  C   UNL A   1      32.585  17.752  22.907  1.00  0.00     0.085 A 
BRANCH  13  15
ATOM     15  N   UNL A   1      33.204  16.454  24.929  1.00  0.00     0.062 N 
ATOM     16  O   UNL A   1      32.847  16.271  26.102  1.00  0.00    -0.258 OA
ATOM     17  O   UNL A   1      33.851  15.642  24.252  1.00  0.00    -0.258 OA
ENDBRANCH  13  15
ENDBRANCH   8   9
BRANCH   8  18
ATOM     18  N   UNL A   1      31.794  21.911  26.030  1.00  0.00    -0.348 N 
ATOM     19  C   UNL A   1      31.241  23.118  26.341  1.00  0.00     0.226 C 
ATOM     20  H   UNL A   1      31.321  21.177  26.486  1.00  0.00     0.164 HD
ATOM     21  O   UNL A   1      30.516  23.091  27.346  1.00  0.00    -0.274 OA
BRANCH  19  22
ATOM     22  C   UNL A   1      31.433  24.453  25.573  1.00  0.00     0.050 C 
ATOM     23  C   UNL A   1      30.975  24.299  24.087  1.00  0.00     0.020 C 
ATOM     24  C   UNL A   1      32.910  24.840  25.505  1.00  0.00     0.020 C 
ATOM     25  C   UNL A   1      30.613  25.611  26.178  1.00  0.00     0.020 C 
ATOM     26  C   UNL A   1      31.235  25.594  23.283  1.00  0.00    -0.010 C 
ATOM     27  C   UNL A   1      33.177  26.136  24.751  1.00  0.00    -0.010 C 
ATOM     28  C   UNL A   1      30.873  26.922  25.396  1.00  0.00    -0.010 C 
ATOM     29  C   UNL A   1      30.454  26.752  23.926  1.00  0.00     0.007 C 
ATOM     30  C   UNL A   1      32.732  25.937  23.306  1.00  0.00     0.007 C 
ATOM     31  C   UNL A   1      32.373  27.257  25.434  1.00  0.00     0.007 C 
ENDBRANCH  19  22
ENDBRANCH   8  18
ENDBRANCH   7   8
ENDBRANCH   5   7
ENDBRANCH   2   3
ENDBRANCH   1   2
BRANCH   1  32
ATOM     32  C   UNL A   1      39.733  22.016  26.798  1.00  0.00     0.023 C 
BRANCH  32  33
ATOM     33  C   UNL A   1      40.495  23.255  27.260  1.00  0.00     0.116 C 
BRANCH  33  34
ATOM     34  N   UNL A   1      40.958  24.068  26.149  1.00  0.00    -0.352 N 
ATOM     35  C   UNL A   1      41.161  25.426  26.093  1.00  0.00     0.251 C 
ATOM     36  H   UNL A   1      41.155  23.577  25.319  1.00  0.00     0.163 HD
ATOM     37  O   UNL A   1      41.394  25.963  25.011  1.00  0.00    -0.269 OA
BRANCH  35  38
ATOM     38  C   UNL A   1      41.068  26.242  27.322  1.00  0.00     0.039 A 
ATOM     39  C   UNL A   1      42.076  27.172  27.592  1.00  0.00     0.014 A 
ATOM     40  C   UNL A   1      39.994  26.099  28.205  1.00  0.00     0.014 A 
ATOM     41  C   UNL A   1      41.972  28.002  28.711  1.00  0.00     0.010 A 
ATOM     42  C   UNL A   1      39.855  26.976  29.278  1.00  0.00     0.010 A 
ATOM     43  C   UNL A   1      40.842  27.938  29.543  1.00  0.00    -0.014 A 
BRANCH  43  44
ATOM     44  C   UNL A   1      40.669  28.879  30.682  1.00  0.00     0.031 A 
ATOM     45  C   UNL A   1      41.543  28.766  31.904  1.00  0.00     0.074 A 
ATOM     46  C   UNL A   1      39.689  29.803  30.639  1.00  0.00     0.049 A 
ATOM     47  N   UNL A   1      41.508  29.468  33.007  1.00  0.00    -0.248 NA
ATOM     48  C   UNL A   1      42.574  27.715  31.894  1.00  0.00     0.031 C 
ATOM     49  C   UNL A   1      38.758  30.000  29.525  1.00  0.00     0.029 A 
ATOM     50  N   UNL A   1      39.311  30.755  31.556  1.00  0.00    -0.354 N 
ATOM     51  C   UNL A   1      42.495  28.935  33.828  1.00  0.00     0.074 A 
ATOM     52  C   UNL A   1      43.082  27.823  33.114  1.00  0.00     0.031 C 
ATOM     53  C   UNL A   1      37.947  31.034  29.805  1.00  0.00     0.029 A 
ATOM     54  C   UNL A   1      38.264  31.542  31.137  1.00  0.00     0.049 A 
ATOM     55  H   UNL A   1      39.749  30.862  32.431  1.00  0.00     0.167 HD
ATOM     56  C   UNL A   1      42.888  29.345  35.058  1.00  0.00     0.031 A 
ATOM     57  C   UNL A   1      37.626  32.557  31.752  1.00  0.00     0.031 A 
ATOM     58  C   UNL A   1      42.311  30.461  35.760  1.00  0.00     0.049 A 
ATOM     59  C   UNL A   1      38.067  32.977  33.127  1.00  0.00     0.074 A 
ATOM     60  C   UNL A   1      42.685  30.988  36.985  1.00  0.00     0.029 A 
ATOM     61  N   UNL A   1      41.242  31.219  35.308  1.00  0.00    -0.354 N 
ATOM     62  N   UNL A   1      39.039  32.493  33.863  1.00  0.00    -0.248 NA
ATOM     63  C   UNL A   1      37.329  34.083  33.751  1.00  0.00     0.031 C 
ATOM     64  C   UNL A   1      41.800  32.021  37.304  1.00  0.00     0.029 A 
ATOM     65  C   UNL A   1      40.921  32.187  36.245  1.00  0.00     0.049 A 
ATOM     66  H   UNL A   1      40.780  31.088  34.450  1.00  0.00     0.167 HD
ATOM     67  C   UNL A   1      39.051  33.260  35.023  1.00  0.00     0.074 A 
ATOM     68  C   UNL A   1      37.997  34.244  34.886  1.00  0.00     0.031 C 
ATOM     69  C   UNL A   1      39.867  33.160  36.102  1.00  0.00     0.031 A 
BRANCH  56  70
ATOM     70  C   UNL A   1      43.991  28.574  35.737  1.00  0.00    -0.014 A 
ATOM     71  C   UNL A   1      45.341  28.936  35.576  1.00  0.00     0.010 A 
ATOM     72  C   UNL A   1      43.667  27.517  36.608  1.00  0.00     0.010 A 
ATOM     73  C   UNL A   1      46.347  28.237  36.250  1.00  0.00     0.020 A 
ATOM     74  C   UNL A   1      44.666  26.835  37.307  1.00  0.00     0.020 A 
ATOM     75  C   UNL A   1      46.002  27.193  37.114  1.00  0.00     0.054 A 
BRANCH  75  76
ATOM     76  S   UNL A   1      47.326  26.337  38.012  1.00  0.00     0.124 S 
ATOM     77  O   UNL A   1      48.465  27.222  37.786  1.00  0.00    -0.237 OA
ATOM     78  O   UNL A   1      46.815  26.307  39.380  1.00  0.00    -0.237 OA
ATOM     79  O   UNL A   1      47.409  25.035  37.352  1.00  0.00    -0.744 OA
ENDBRANCH  75  76
ENDBRANCH  56  70
BRANCH  57  80
ATOM     80  C   UNL A   1      36.519  33.269  31.055  1.00  0.00    -0.014 A 
ATOM     81  C   UNL A   1      35.222  33.270  31.600  1.00  0.00     0.010 A 
ATOM     82  C   UNL A   1      36.757  33.969  29.858  1.00  0.00     0.010 A 
ATOM     83  C   UNL A   1      34.183  33.949  30.958  1.00  0.00     0.020 A 
ATOM     84  C   UNL A   1      35.727  34.674  29.229  1.00  0.00     0.020 A 
ATOM     85  C   UNL A   1      34.444  34.653  29.779  1.00  0.00     0.054 A 
BRANCH  85  86
ATOM     86  S   UNL A   1      33.094  35.585  29.003  1.00  0.00     0.124 S 
ATOM     87  O   UNL A   1      32.352  36.069  30.163  1.00  0.00    -0.237 OA
ATOM     88  O   UNL A   1      33.813  36.602  28.239  1.00  0.00    -0.237 OA
ATOM     89  O   UNL A   1      32.407  34.580  28.194  1.00  0.00    -0.744 OA
ENDBRANCH  85  86
ENDBRANCH  57  80
BRANCH  69  90
ATOM     90  C   UNL A   1      39.682  34.162  37.212  1.00  0.00    -0.014 A 
ATOM     91  C   UNL A   1      38.874  33.880  38.328  1.00  0.00     0.010 A 
ATOM     92  C   UNL A   1      40.379  35.384  37.163  1.00  0.00     0.010 A 
ATOM     93  C   UNL A   1      38.742  34.815  39.358  1.00  0.00     0.020 A 
ATOM     94  C   UNL A   1      40.275  36.307  38.206  1.00  0.00     0.020 A 
ATOM     95  C   UNL A   1      39.445  36.022  39.291  1.00  0.00     0.054 A 
BRANCH  95  96
ATOM     96  S   UNL A   1      39.291  37.198  40.663  1.00  0.00     0.124 S 
ATOM     97  O   UNL A   1      38.336  38.166  40.129  1.00  0.00    -0.237 OA
ATOM     98  O   UNL A   1      38.792  36.358  41.749  1.00  0.00    -0.237 OA
ATOM     99  O   UNL A   1      40.650  37.700  40.846  1.00  0.00    -0.744 OA
ENDBRANCH  95  96
ENDBRANCH  69  90
ENDBRANCH  43  44
ENDBRANCH  35  38
ENDBRANCH  33  34
ENDBRANCH  32  33
ENDBRANCH   1  32
TORSDOF 19
ENDMDL
MODEL 2
REMARK VINA RESULT:     -12.8      2.678      8.732
REMARK SMILES O=C(C[C@H](NC(=O)[C@]12C[C@H]3C[C@H](C[C@H](C3)C1)C2)c1cccc([N+](=O)[O-])c1)NCCCCNC(=O)c1ccc(-c2c3nc(c(-c4ccc(S(=O)(=O)[O-])cc4)c4ccc([nH]4)c(-c4ccc(S(=O)(=O)[O-])cc4)c4nc(c(-c5ccc(S(=O)(=O)[O-])cc5)c5ccc2[nH]5)C=C4)C=C3)cc1
REMARK SMILES IDX 29 1 28 2 27 3 1 4 2 5 3 7 4 8 18 9 19 10 26 11 20 12 22 13
REMARK SMILES IDX 21 14 23 15 24 16 25 17 5 18 6 19 7 21 8 22 9 23 16 24 17 25
REMARK SMILES IDX 10 26 14 27 12 28 11 29 15 30 13 31 30 32 31 33 32 34 33 35
REMARK SMILES IDX 34 37 35 38 36 39 94 40 37 41 93 42 38 43 39 44 40 45 87 46
REMARK SMILES IDX 41 47 92 48 86 49 88 50 42 51 91 52 85 53 84 54 43 56 73 57
REMARK SMILES IDX 54 58 72 59 55 60 58 61 71 62 89 63 56 64 57 65 70 67 90 68
REMARK SMILES IDX 59 69 44 70 45 71 53 72 46 73 52 74 47 75 48 76 49 77 50 78
REMARK SMILES IDX 51 79 74 80 75 81 83 82 76 83 82 84 77 85 78 86 79 87 80 88
REMARK SMILES IDX 81 89 60 90 61 91 69 92 62 93 68 94 63 95 64 96 65 97 66 98
REMARK SMILES IDX 67 99
REMARK H PARENT 27 6 5 20 32 36 88 55 58 66
REMARK Flexibility Score: inf
ROOT
ATOM      1  C   UNL A   1      31.953  30.681  26.618  1.00  0.00     0.023 C 
ENDROOT
BRANCH   1   2
ATOM      2  C   UNL A   1      33.029  30.081  27.526  1.00  0.00     0.116 C 
BRANCH   2   3
ATOM      3  N   UNL A   1      33.023  28.636  27.436  1.00  0.00    -0.356 N 
ATOM      4  O   UNL A   1      34.333  28.441  25.551  1.00  0.00    -0.275 OA
ATOM      5  C   UNL A   1      33.590  27.945  26.389  1.00  0.00     0.222 C 
ATOM      6  H   UNL A   1      32.593  28.123  28.158  1.00  0.00     0.163 HD
BRANCH   5   7
ATOM      7  C   UNL A   1      33.194  26.490  26.380  1.00  0.00     0.129 C 
BRANCH   7   8
ATOM      8  C   UNL A   1      31.681  26.210  26.275  1.00  0.00     0.122 C 
BRANCH   8   9
ATOM      9  C   UNL A   1      31.282  26.452  24.830  1.00  0.00    -0.018 A 
ATOM     10  C   UNL A   1      30.027  26.974  24.476  1.00  0.00     0.006 A 
ATOM     11  C   UNL A   1      32.255  26.260  23.826  1.00  0.00     0.091 A 
ATOM     12  C   UNL A   1      29.800  27.435  23.173  1.00  0.00     0.007 A 
ATOM     13  C   UNL A   1      32.024  26.743  22.533  1.00  0.00     0.269 A 
ATOM     14  C   UNL A   1      30.807  27.351  22.206  1.00  0.00     0.085 A 
BRANCH  13  15
ATOM     15  N   UNL A   1      33.116  26.717  21.556  1.00  0.00     0.062 N 
ATOM     16  O   UNL A   1      33.941  27.642  21.590  1.00  0.00    -0.258 OA
ATOM     17  O   UNL A   1      33.156  25.761  20.768  1.00  0.00    -0.258 OA
ENDBRANCH  13  15
ENDBRANCH   8   9
BRANCH   8  18
ATOM     18  N   UNL A   1      31.226  24.931  26.865  1.00  0.00    -0.348 N 
ATOM     19  C   UNL A   1      31.182  23.614  26.512  1.00  0.00     0.226 C 
ATOM     20  H   UNL A   1      30.850  25.069  27.765  1.00  0.00     0.164 HD
ATOM     21  O   UNL A   1      30.410  22.937  27.207  1.00  0.00    -0.274 OA
BRANCH  19  22
ATOM     22  C   UNL A   1      31.984  22.931  25.374  1.00  0.00     0.050 C 
ATOM     23  C   UNL A   1      32.038  21.385  25.596  1.00  0.00     0.020 C 
ATOM     24  C   UNL A   1      33.441  23.392  25.376  1.00  0.00     0.020 C 
ATOM     25  C   UNL A   1      31.360  23.162  23.983  1.00  0.00     0.020 C 
ATOM     26  C   UNL A   1      32.904  20.693  24.518  1.00  0.00    -0.010 C 
ATOM     27  C   UNL A   1      34.296  22.749  24.292  1.00  0.00    -0.010 C 
ATOM     28  C   UNL A   1      32.223  22.491  22.886  1.00  0.00    -0.010 C 
ATOM     29  C   UNL A   1      32.301  20.974  23.132  1.00  0.00     0.007 C 
ATOM     30  C   UNL A   1      34.336  21.248  24.555  1.00  0.00     0.007 C 
ATOM     31  C   UNL A   1      33.650  23.061  22.930  1.00  0.00     0.007 C 
ENDBRANCH  19  22
ENDBRANCH   8  18
ENDBRANCH   7   8
ENDBRANCH   5   7
ENDBRANCH   2   3
ENDBRANCH   1   2
BRANCH   1  32
ATOM     32  C   UNL A   1      31.769  32.198  26.753  1.00  0.00     0.023 C 
BRANCH  32  33
ATOM     33  C   UNL A   1      32.951  32.947  27.363  1.00  0.00     0.116 C 
BRANCH  33  34
ATOM     34  N   UNL A   1      32.606  34.301  27.759  1.00  0.00    -0.352 N 
ATOM     35  C   UNL A   1      33.102  35.054  28.796  1.00  0.00     0.251 C 
ATOM     36  H   UNL A   1      31.922  34.742  27.206  1.00  0.00     0.163 HD
ATOM     37  O   UNL A   1      32.565  36.124  29.083  1.00  0.00    -0.269 OA
BRANCH  35  38
ATOM     38  C   UNL A   1      34.255  34.567  29.584  1.00  0.00     0.039 A 
ATOM     39  C   UNL A   1      34.029  34.057  30.864  1.00  0.00     0.014 A 
ATOM     40  C   UNL A   1      35.552  34.608  29.065  1.00  0.00     0.014 A 
ATOM     41  C   UNL A   1      35.093  33.527  31.598  1.00  0.00     0.010 A 
ATOM     42  C   UNL A   1      36.599  34.013  29.766  1.00  0.00     0.010 A 
ATOM     43  C   UNL A   1      36.382  33.466  31.040  1.00  0.00    -0.014 A 
BRANCH  43  44
ATOM     44  C   UNL A   1      37.506  32.819  31.767  1.00  0.00     0.031 A 
ATOM     45  C   UNL A   1      38.205  31.620  31.180  1.00  0.00     0.074 A 
ATOM     46  C   UNL A   1      37.865  33.277  32.983  1.00  0.00     0.049 A 
ATOM     47  N   UNL A   1      39.173  30.903  31.688  1.00  0.00    -0.248 NA
ATOM     48  C   UNL A   1      37.742  31.155  29.862  1.00  0.00     0.031 C 
ATOM     49  C   UNL A   1      37.252  34.414  33.675  1.00  0.00     0.029 A 
ATOM     50  N   UNL A   1      38.835  32.847  33.855  1.00  0.00    -0.354 N 
ATOM     51  C   UNL A   1      39.423  29.893  30.765  1.00  0.00     0.074 A 
ATOM     52  C   UNL A   1      38.475  30.065  29.687  1.00  0.00     0.031 C 
ATOM     53  C   UNL A   1      37.887  34.616  34.841  1.00  0.00     0.029 A 
ATOM     54  C   UNL A   1      38.917  33.596  35.006  1.00  0.00     0.049 A 
ATOM     55  H   UNL A   1      39.417  32.073  33.673  1.00  0.00     0.167 HD
ATOM     56  C   UNL A   1      40.366  28.922  30.805  1.00  0.00     0.031 A 
ATOM     57  C   UNL A   1      39.727  33.477  36.076  1.00  0.00     0.031 A 
ATOM     58  C   UNL A   1      41.317  28.762  31.874  1.00  0.00     0.049 A 
ATOM     59  C   UNL A   1      40.750  32.375  36.106  1.00  0.00     0.074 A 
ATOM     60  C   UNL A   1      42.349  27.844  31.973  1.00  0.00     0.029 A 
ATOM     61  N   UNL A   1      41.354  29.530  33.028  1.00  0.00    -0.354 N 
ATOM     62  N   UNL A   1      41.005  31.464  35.197  1.00  0.00    -0.248 NA
ATOM     63  C   UNL A   1      41.599  32.290  37.301  1.00  0.00     0.031 C 
ATOM     64  C   UNL A   1      42.967  28.013  33.214  1.00  0.00     0.029 A 
ATOM     65  C   UNL A   1      42.369  29.085  33.858  1.00  0.00     0.049 A 
ATOM     66  H   UNL A   1      40.748  30.279  33.227  1.00  0.00     0.167 HD
ATOM     67  C   UNL A   1      42.067  30.718  35.698  1.00  0.00     0.074 A 
ATOM     68  C   UNL A   1      42.412  31.291  36.982  1.00  0.00     0.031 C 
ATOM     69  C   UNL A   1      42.702  29.659  35.138  1.00  0.00     0.031 A 
BRANCH  56  70
ATOM     70  C   UNL A   1      40.414  27.940  29.662  1.00  0.00    -0.014 A 
ATOM     71  C   UNL A   1      41.394  28.034  28.659  1.00  0.00     0.010 A 
ATOM     72  C   UNL A   1      39.508  26.863  29.633  1.00  0.00     0.010 A 
ATOM     73  C   UNL A   1      41.450  27.089  27.631  1.00  0.00     0.020 A 
ATOM     74  C   UNL A   1      39.579  25.898  28.625  1.00  0.00     0.020 A 
ATOM     75  C   UNL A   1      40.543  26.024  27.623  1.00  0.00     0.054 A 
BRANCH  75  76
ATOM     76  S   UNL A   1      40.672  24.784  26.305  1.00  0.00     0.124 S 
ATOM     77  O   UNL A   1      41.663  23.862  26.853  1.00  0.00    -0.237 OA
ATOM     78  O   UNL A   1      39.309  24.265  26.222  1.00  0.00    -0.237 OA
ATOM     79  O   UNL A   1      41.113  25.555  25.144  1.00  0.00    -0.744 OA
ENDBRANCH  75  76
ENDBRANCH  56  70
BRANCH  57  80
ATOM     80  C   UNL A   1      39.622  34.451  37.198  1.00  0.00    -0.014 A 
ATOM     81  C   UNL A   1      38.845  34.148  38.330  1.00  0.00     0.010 A 
ATOM     82  C   UNL A   1      40.316  35.674  37.153  1.00  0.00     0.010 A 
ATOM     83  C   UNL A   1      38.756  35.052  39.392  1.00  0.00     0.020 A 
ATOM     84  C   UNL A   1      40.253  36.568  38.226  1.00  0.00     0.020 A 
ATOM     85  C   UNL A   1      39.467  36.254  39.336  1.00  0.00     0.054 A 
BRANCH  85  86
ATOM     86  S   UNL A   1      39.390  37.380  40.757  1.00  0.00     0.124 S 
ATOM     87  O   UNL A   1      40.788  37.773  40.909  1.00  0.00    -0.237 OA
ATOM     88  O   UNL A   1      38.485  38.424  40.282  1.00  0.00    -0.237 OA
ATOM     89  O   UNL A   1      38.855  36.542  41.828  1.00  0.00    -0.744 OA
ENDBRANCH  85  86
ENDBRANCH  57  80
BRANCH  69  90
ATOM     90  C   UNL A   1      43.862  29.064  35.892  1.00  0.00    -0.014 A 
ATOM     91  C   UNL A   1      43.701  27.939  36.721  1.00  0.00     0.010 A 
ATOM     92  C   UNL A   1      45.150  29.605  35.719  1.00  0.00     0.010 A 
ATOM     93  C   UNL A   1      44.799  27.389  37.387  1.00  0.00     0.020 A 
ATOM     94  C   UNL A   1      46.255  29.038  36.357  1.00  0.00     0.020 A 
ATOM     95  C   UNL A   1      46.070  27.941  37.199  1.00  0.00     0.054 A 
BRANCH  95  96
ATOM     96  S   UNL A   1      47.485  27.178  38.040  1.00  0.00     0.124 S 
ATOM     97  O   UNL A   1      46.861  26.046  38.719  1.00  0.00    -0.237 OA
ATOM     98  O   UNL A   1      48.369  26.835  36.930  1.00  0.00    -0.237 OA
ATOM     99  O   UNL A   1      47.978  28.236  38.919  1.00  0.00    -0.744 OA
ENDBRANCH  95  96
ENDBRANCH  69  90
ENDBRANCH  43  44
ENDBRANCH  35  38
ENDBRANCH  33  34
ENDBRANCH  32  33
ENDBRANCH   1  32
TORSDOF 19
ENDMDL
MODEL 3
REMARK VINA RESULT:     -12.7      2.681      8.906
REMARK SMILES O=C(C[C@H](NC(=O)[C@]12C[C@H]3C[C@H](C[C@H](C3)C1)C2)c1cccc([N+](=O)[O-])c1)NCCCCNC(=O)c1ccc(-c2c3nc(c(-c4ccc(S(=O)(=O)[O-])cc4)c4ccc([nH]4)c(-c4ccc(S(=O)(=O)[O-])cc4)c4nc(c(-c5ccc(S(=O)(=O)[O-])cc5)c5ccc2[nH]5)C=C4)C=C3)cc1
REMARK SMILES IDX 29 1 28 2 27 3 1 4 2 5 3 7 4 8 18 9 19 10 26 11 20 12 22 13
REMARK SMILES IDX 21 14 23 15 24 16 25 17 5 18 6 19 7 21 8 22 9 23 16 24 17 25
REMARK SMILES IDX 10 26 14 27 12 28 11 29 15 30 13 31 30 32 31 33 32 34 33 35
REMARK SMILES IDX 34 37 35 38 36 39 94 40 37 41 93 42 38 43 39 44 40 45 87 46
REMARK SMILES IDX 41 47 92 48 86 49 88 50 42 51 91 52 85 53 84 54 43 56 73 57
REMARK SMILES IDX 54 58 72 59 55 60 58 61 71 62 89 63 56 64 57 65 70 67 90 68
REMARK SMILES IDX 59 69 44 70 45 71 53 72 46 73 52 74 47 75 48 76 49 77 50 78
REMARK SMILES IDX 51 79 74 80 75 81 83 82 76 83 82 84 77 85 78 86 79 87 80 88
REMARK SMILES IDX 81 89 60 90 61 91 69 92 62 93 68 94 63 95 64 96 65 97 66 98
REMARK SMILES IDX 67 99
REMARK H PARENT 27 6 5 20 32 36 88 55 58 66
REMARK Flexibility Score: inf
ROOT
ATOM      1  C   UNL A   1      31.892  30.724  26.593  1.00  0.00     0.023 C 
ENDROOT
BRANCH   1   2
ATOM      2  C   UNL A   1      33.064  30.108  27.361  1.00  0.00     0.116 C 
BRANCH   2   3
ATOM      3  N   UNL A   1      33.001  28.663  27.312  1.00  0.00    -0.356 N 
ATOM      4  O   UNL A   1      34.656  28.335  25.744  1.00  0.00    -0.275 OA
ATOM      5  C   UNL A   1      33.732  27.906  26.425  1.00  0.00     0.222 C 
ATOM      6  H   UNL A   1      32.406  28.198  27.945  1.00  0.00     0.163 HD
BRANCH   5   7
ATOM      7  C   UNL A   1      33.271  26.472  26.376  1.00  0.00     0.129 C 
BRANCH   7   8
ATOM      8  C   UNL A   1      31.746  26.264  26.267  1.00  0.00     0.122 C 
BRANCH   8   9
ATOM      9  C   UNL A   1      31.363  26.523  24.821  1.00  0.00    -0.018 A 
ATOM     10  C   UNL A   1      30.105  27.032  24.459  1.00  0.00     0.006 A 
ATOM     11  C   UNL A   1      32.352  26.363  23.828  1.00  0.00     0.091 A 
ATOM     12  C   UNL A   1      29.889  27.511  23.160  1.00  0.00     0.007 A 
ATOM     13  C   UNL A   1      32.131  26.864  22.540  1.00  0.00     0.269 A 
ATOM     14  C   UNL A   1      30.910  27.459  22.206  1.00  0.00     0.085 A 
BRANCH  13  15
ATOM     15  N   UNL A   1      33.237  26.871  21.578  1.00  0.00     0.062 N 
ATOM     16  O   UNL A   1      33.287  25.948  20.753  1.00  0.00    -0.258 OA
ATOM     17  O   UNL A   1      34.042  27.812  21.638  1.00  0.00    -0.258 OA
ENDBRANCH  13  15
ENDBRANCH   8   9
BRANCH   8  18
ATOM     18  N   UNL A   1      31.229  25.009  26.857  1.00  0.00    -0.348 N 
ATOM     19  C   UNL A   1      31.175  23.686  26.530  1.00  0.00     0.226 C 
ATOM     20  H   UNL A   1      30.806  25.175  27.730  1.00  0.00     0.164 HD
ATOM     21  O   UNL A   1      30.350  23.041  27.193  1.00  0.00    -0.274 OA
BRANCH  19  22
ATOM     22  C   UNL A   1      32.025  22.960  25.455  1.00  0.00     0.050 C 
ATOM     23  C   UNL A   1      31.491  23.285  24.023  1.00  0.00     0.020 C 
ATOM     24  C   UNL A   1      31.909  21.442  25.595  1.00  0.00     0.020 C 
ATOM     25  C   UNL A   1      33.509  23.378  25.485  1.00  0.00     0.020 C 
ATOM     26  C   UNL A   1      32.272  22.506  22.940  1.00  0.00    -0.010 C 
ATOM     27  C   UNL A   1      32.707  20.660  24.560  1.00  0.00    -0.010 C 
ATOM     28  C   UNL A   1      34.313  22.595  24.419  1.00  0.00    -0.010 C 
ATOM     29  C   UNL A   1      33.758  22.893  23.015  1.00  0.00     0.007 C 
ATOM     30  C   UNL A   1      32.144  20.994  23.184  1.00  0.00     0.007 C 
ATOM     31  C   UNL A   1      34.182  21.085  24.679  1.00  0.00     0.007 C 
ENDBRANCH  19  22
ENDBRANCH   8  18
ENDBRANCH   7   8
ENDBRANCH   5   7
ENDBRANCH   2   3
ENDBRANCH   1   2
BRANCH   1  32
ATOM     32  C   UNL A   1      31.667  32.220  26.852  1.00  0.00     0.023 C 
BRANCH  32  33
ATOM     33  C   UNL A   1      32.890  32.986  27.347  1.00  0.00     0.116 C 
BRANCH  33  34
ATOM     34  N   UNL A   1      32.559  34.325  27.803  1.00  0.00    -0.352 N 
ATOM     35  C   UNL A   1      33.064  35.028  28.870  1.00  0.00     0.251 C 
ATOM     36  H   UNL A   1      31.877  34.796  27.272  1.00  0.00     0.163 HD
ATOM     37  O   UNL A   1      32.539  36.088  29.205  1.00  0.00    -0.269 OA
BRANCH  35  38
ATOM     38  C   UNL A   1      34.215  34.496  29.632  1.00  0.00     0.039 A 
ATOM     39  C   UNL A   1      33.997  33.988  30.915  1.00  0.00     0.014 A 
ATOM     40  C   UNL A   1      35.502  34.493  29.087  1.00  0.00     0.014 A 
ATOM     41  C   UNL A   1      35.057  33.417  31.624  1.00  0.00     0.010 A 
ATOM     42  C   UNL A   1      36.541  33.858  29.764  1.00  0.00     0.010 A 
ATOM     43  C   UNL A   1      36.331  33.313  31.040  1.00  0.00    -0.014 A 
BRANCH  43  44
ATOM     44  C   UNL A   1      37.446  32.623  31.741  1.00  0.00     0.031 A 
ATOM     45  C   UNL A   1      37.910  33.102  33.091  1.00  0.00     0.074 A 
ATOM     46  C   UNL A   1      38.078  31.596  31.138  1.00  0.00     0.049 A 
ATOM     47  N   UNL A   1      38.892  32.653  33.830  1.00  0.00    -0.248 NA
ATOM     48  C   UNL A   1      37.194  34.247  33.678  1.00  0.00     0.031 C 
ATOM     49  C   UNL A   1      37.742  31.051  29.820  1.00  0.00     0.029 A 
ATOM     50  N   UNL A   1      39.134  30.822  31.555  1.00  0.00    -0.354 N 
ATOM     51  C   UNL A   1      38.924  33.468  34.956  1.00  0.00     0.074 A 
ATOM     52  C   UNL A   1      37.893  34.467  34.783  1.00  0.00     0.031 C 
ATOM     53  C   UNL A   1      38.546  30.008  29.556  1.00  0.00     0.029 A 
ATOM     54  C   UNL A   1      39.487  29.839  30.660  1.00  0.00     0.049 A 
ATOM     55  H   UNL A   1      39.595  30.960  32.414  1.00  0.00     0.167 HD
ATOM     56  C   UNL A   1      39.729  33.383  36.043  1.00  0.00     0.031 A 
ATOM     57  C   UNL A   1      40.459  28.907  30.715  1.00  0.00     0.031 A 
ATOM     58  C   UNL A   1      40.746  32.379  36.218  1.00  0.00     0.049 A 
ATOM     59  C   UNL A   1      41.354  28.849  31.923  1.00  0.00     0.074 A 
ATOM     60  C   UNL A   1      41.570  32.176  37.312  1.00  0.00     0.029 A 
ATOM     61  N   UNL A   1      41.082  31.414  35.280  1.00  0.00    -0.354 N 
ATOM     62  N   UNL A   1      41.331  29.597  33.001  1.00  0.00    -0.248 NA
ATOM     63  C   UNL A   1      42.400  27.818  31.924  1.00  0.00     0.031 C 
ATOM     64  C   UNL A   1      42.449  31.133  37.010  1.00  0.00     0.029 A 
ATOM     65  C   UNL A   1      42.124  30.636  35.758  1.00  0.00     0.049 A 
ATOM     66  H   UNL A   1      40.646  31.301  34.406  1.00  0.00     0.167 HD
ATOM     67  C   UNL A   1      42.339  29.103  33.823  1.00  0.00     0.074 A 
ATOM     68  C   UNL A   1      42.942  27.988  33.122  1.00  0.00     0.031 C 
ATOM     69  C   UNL A   1      42.722  29.531  35.051  1.00  0.00     0.031 A 
BRANCH  56  70
ATOM     70  C   UNL A   1      39.555  34.412  37.130  1.00  0.00    -0.014 A 
ATOM     71  C   UNL A   1      38.928  34.090  38.347  1.00  0.00     0.010 A 
ATOM     72  C   UNL A   1      40.093  35.702  36.959  1.00  0.00     0.010 A 
ATOM     73  C   UNL A   1      38.815  35.045  39.360  1.00  0.00     0.020 A 
ATOM     74  C   UNL A   1      40.010  36.651  37.981  1.00  0.00     0.020 A 
ATOM     75  C   UNL A   1      39.361  36.319  39.172  1.00  0.00     0.054 A 
BRANCH  75  76
ATOM     76  S   UNL A   1      39.243  37.523  40.525  1.00  0.00     0.124 S 
ATOM     77  O   UNL A   1      38.318  38.508  39.972  1.00  0.00    -0.237 OA
ATOM     78  O   UNL A   1      38.718  36.716  41.624  1.00  0.00    -0.237 OA
ATOM     79  O   UNL A   1      40.618  37.987  40.698  1.00  0.00    -0.744 OA
ENDBRANCH  75  76
ENDBRANCH  56  70
BRANCH  57  80
ATOM     80  C   UNL A   1      40.615  27.931  29.602  1.00  0.00    -0.014 A 
ATOM     81  C   UNL A   1      41.711  28.023  28.726  1.00  0.00     0.010 A 
ATOM     82  C   UNL A   1      39.686  26.889  29.425  1.00  0.00     0.010 A 
ATOM     83  C   UNL A   1      41.871  27.100  27.688  1.00  0.00     0.020 A 
ATOM     84  C   UNL A   1      39.858  25.947  28.407  1.00  0.00     0.020 A 
ATOM     85  C   UNL A   1      40.946  26.063  27.541  1.00  0.00     0.054 A 
BRANCH  85  86
ATOM     86  S   UNL A   1      41.213  24.837  26.229  1.00  0.00     0.124 S 
ATOM     87  O   UNL A   1      40.132  23.887  26.477  1.00  0.00    -0.237 OA
ATOM     88  O   UNL A   1      41.086  25.641  25.017  1.00  0.00    -0.237 OA
ATOM     89  O   UNL A   1      42.560  24.338  26.498  1.00  0.00    -0.744 OA
ENDBRANCH  85  86
ENDBRANCH  57  80
BRANCH  69  90
ATOM     90  C   UNL A   1      43.827  28.775  35.740  1.00  0.00    -0.014 A 
ATOM     91  C   UNL A   1      45.173  29.165  35.616  1.00  0.00     0.010 A 
ATOM     92  C   UNL A   1      43.505  27.689  36.575  1.00  0.00     0.010 A 
ATOM     93  C   UNL A   1      46.177  28.463  36.289  1.00  0.00     0.020 A 
ATOM     94  C   UNL A   1      44.502  27.005  37.275  1.00  0.00     0.020 A 
ATOM     95  C   UNL A   1      45.834  27.389  37.116  1.00  0.00     0.054 A 
BRANCH  95  96
ATOM     96  S   UNL A   1      47.153  26.524  38.013  1.00  0.00     0.124 S 
ATOM     97  O   UNL A   1      47.840  27.627  38.680  1.00  0.00    -0.237 OA
ATOM     98  O   UNL A   1      46.407  25.627  38.891  1.00  0.00    -0.237 OA
ATOM     99  O   UNL A   1      47.916  25.863  36.958  1.00  0.00    -0.744 OA
ENDBRANCH  95  96
ENDBRANCH  69  90
ENDBRANCH  43  44
ENDBRANCH  35  38
ENDBRANCH  33  34
ENDBRANCH  32  33
ENDBRANCH   1  32
TORSDOF 19
ENDMDL
