MODEL 1
REMARK VINA RESULT:     -10.7      0.000      0.000
REMARK SMILES C[C@H](CNS(=O)(=O)c1ccc(C(=O)NCCCCNC(=O)c2ccc(-c3c4nc(c(-c5ccc(S(=O)(=O)[O-])cc5)c5ccc([nH]5)c(-c5ccc(S(=O)(=O)[O-])cc5)c5nc(c(-c6ccc(S(=O)(=O)[O-])cc6)c6ccc3[nH]6)C=C5)C=C4)cc2)cc1F)[NH+](C)C
REMARK SMILES IDX 15 1 14 2 12 3 13 4 11 6 8 7 9 8 83 9 10 10 82 11 84 12 5 13
REMARK SMILES IDX 6 14 7 15 4 16 3 18 2 19 1 20 85 21 86 22 87 23 16 25 17 26
REMARK SMILES IDX 18 27 19 28 20 29 21 31 22 32 23 33 81 34 24 35 80 36 25 37
REMARK SMILES IDX 26 38 27 39 74 40 28 41 79 42 73 43 75 44 29 45 78 46 72 47
REMARK SMILES IDX 71 48 30 50 60 51 41 52 59 53 42 54 45 55 58 56 76 57 43 58
REMARK SMILES IDX 44 59 57 61 77 62 46 63 31 64 32 65 40 66 33 67 39 68 34 69
REMARK SMILES IDX 35 70 36 71 37 72 38 73 61 74 62 75 70 76 63 77 69 78 64 79
REMARK SMILES IDX 65 80 66 81 67 82 68 83 47 84 48 85 56 86 49 87 55 88 50 89
REMARK SMILES IDX 51 90 52 91 53 92 54 93
REMARK H PARENT 14 5 4 17 85 24 19 30 75 49 45 60
REMARK Flexibility Score: inf
ROOT
ATOM      1  C   UNL A   1      34.249  21.708  27.063  1.00  0.00     0.116 C 
ENDROOT
BRANCH   1   2
ATOM      2  N   UNL A   1      33.258  20.841  26.450  1.00  0.00    -0.352 N 
ATOM      3  C   UNL A   1      32.494  20.933  25.315  1.00  0.00     0.251 C 
ATOM      4  O   UNL A   1      31.809  19.951  25.025  1.00  0.00    -0.269 OA
ATOM      5  H   UNL A   1      33.102  20.012  26.957  1.00  0.00     0.163 HD
BRANCH   3   6
ATOM      6  C   UNL A   1      32.421  22.131  24.422  1.00  0.00     0.042 A 
ATOM      7  C   UNL A   1      32.390  24.539  22.932  1.00  0.00     0.118 A 
ATOM      8  C   UNL A   1      31.900  24.522  24.241  1.00  0.00     0.026 A 
ATOM      9  C   UNL A   1      32.851  23.363  22.376  1.00  0.00     0.144 A 
ATOM     10  C   UNL A   1      31.920  23.326  24.975  1.00  0.00     0.015 A 
ATOM     11  C   UNL A   1      32.873  22.178  23.108  1.00  0.00     0.054 A 
ATOM     12  F   UNL A   1      33.332  23.293  21.135  1.00  0.00    -0.205 F 
BRANCH   7  13
ATOM     13  S   UNL A   1      32.464  26.074  22.071  1.00  0.00     0.243 S 
ATOM     14  O   UNL A   1      31.413  26.069  21.078  1.00  0.00    -0.207 OA
ATOM     15  O   UNL A   1      33.851  26.264  21.699  1.00  0.00    -0.207 OA
BRANCH  13  16
ATOM     16  N   UNL A   1      32.155  27.299  23.179  1.00  0.00    -0.205 NA
ATOM     17  H   UNL A   1      31.632  26.885  23.951  1.00  0.00     0.141 HD
BRANCH  16  18
ATOM     18  C   UNL A   1      31.392  28.479  22.715  1.00  0.00     0.163 C 
BRANCH  18  19
ATOM     19  C   UNL A   1      30.091  28.719  23.538  1.00  0.00     0.195 C 
ATOM     20  C   UNL A   1      29.795  30.207  23.770  1.00  0.00     0.076 C 
BRANCH  19  21
ATOM     21  N   UNL A   1      28.945  27.925  23.014  1.00  0.00    -0.337 N 
ATOM     22  C   UNL A   1      28.756  26.709  23.814  1.00  0.00     0.332 C 
ATOM     23  C   UNL A   1      27.672  28.648  22.947  1.00  0.00     0.332 C 
ATOM     24  H   UNL A   1      29.203  27.704  22.052  1.00  0.00     0.347 HD
ENDBRANCH  19  21
ENDBRANCH  18  19
ENDBRANCH  16  18
ENDBRANCH  13  16
ENDBRANCH   7  13
ENDBRANCH   3   6
ENDBRANCH   1   2
BRANCH   1  25
ATOM     25  C   UNL A   1      35.481  21.898  26.170  1.00  0.00     0.023 C 
BRANCH  25  26
ATOM     26  C   UNL A   1      35.673  23.321  25.640  1.00  0.00     0.023 C 
BRANCH  26  27
ATOM     27  C   UNL A   1      37.049  23.596  25.043  1.00  0.00     0.116 C 
BRANCH  27  28
ATOM     28  N   UNL A   1      38.053  22.608  25.412  1.00  0.00    -0.352 N 
ATOM     29  C   UNL A   1      39.185  22.811  26.170  1.00  0.00     0.251 C 
ATOM     30  H   UNL A   1      37.906  21.691  25.084  1.00  0.00     0.163 HD
ATOM     31  O   UNL A   1      40.003  21.913  26.329  1.00  0.00    -0.269 OA
BRANCH  29  32
ATOM     32  C   UNL A   1      39.416  24.155  26.739  1.00  0.00     0.039 A 
ATOM     33  C   UNL A   1      38.970  24.426  28.034  1.00  0.00     0.014 A 
ATOM     34  C   UNL A   1      40.145  25.105  26.021  1.00  0.00     0.014 A 
ATOM     35  C   UNL A   1      39.331  25.629  28.647  1.00  0.00     0.010 A 
ATOM     36  C   UNL A   1      40.550  26.276  26.652  1.00  0.00     0.010 A 
ATOM     37  C   UNL A   1      40.160  26.541  27.975  1.00  0.00    -0.014 A 
BRANCH  37  38
ATOM     38  C   UNL A   1      40.655  27.776  28.630  1.00  0.00     0.031 A 
ATOM     39  C   UNL A   1      42.036  27.806  29.219  1.00  0.00     0.074 A 
ATOM     40  C   UNL A   1      39.827  28.828  28.789  1.00  0.00     0.049 A 
ATOM     41  N   UNL A   1      42.595  28.723  29.966  1.00  0.00    -0.248 NA
ATOM     42  C   UNL A   1      42.891  26.636  28.959  1.00  0.00     0.031 C 
ATOM     43  C   UNL A   1      38.452  28.910  28.289  1.00  0.00     0.029 A 
ATOM     44  N   UNL A   1      40.014  30.023  29.438  1.00  0.00    -0.354 N 
ATOM     45  C   UNL A   1      43.852  28.230  30.290  1.00  0.00     0.074 A 
ATOM     46  C   UNL A   1      43.964  26.921  29.682  1.00  0.00     0.031 C 
ATOM     47  C   UNL A   1      37.925  30.095  28.642  1.00  0.00     0.029 A 
ATOM     48  C   UNL A   1      38.907  30.838  29.427  1.00  0.00     0.049 A 
ATOM     49  H   UNL A   1      40.863  30.273  29.870  1.00  0.00     0.167 HD
ATOM     50  C   UNL A   1      44.829  28.817  31.020  1.00  0.00     0.031 A 
ATOM     51  C   UNL A   1      38.696  32.039  29.998  1.00  0.00     0.031 A 
ATOM     52  C   UNL A   1      44.724  30.127  31.603  1.00  0.00     0.049 A 
ATOM     53  C   UNL A   1      39.800  32.677  30.797  1.00  0.00     0.074 A 
ATOM     54  C   UNL A   1      45.677  30.829  32.318  1.00  0.00     0.029 A 
ATOM     55  N   UNL A   1      43.599  30.934  31.534  1.00  0.00    -0.354 N 
ATOM     56  N   UNL A   1      40.998  32.211  31.059  1.00  0.00    -0.248 NA
ATOM     57  C   UNL A   1      39.525  34.001  31.374  1.00  0.00     0.031 C 
ATOM     58  C   UNL A   1      45.119  32.050  32.707  1.00  0.00     0.029 A 
ATOM     59  C   UNL A   1      43.830  32.123  32.200  1.00  0.00     0.049 A 
ATOM     60  H   UNL A   1      42.759  30.696  31.078  1.00  0.00     0.167 HD
ATOM     61  C   UNL A   1      41.630  33.198  31.807  1.00  0.00     0.074 A 
ATOM     62  C   UNL A   1      40.684  34.285  31.955  1.00  0.00     0.031 C 
ATOM     63  C   UNL A   1      42.882  33.201  32.322  1.00  0.00     0.031 A 
BRANCH  50  64
ATOM     64  C   UNL A   1      46.095  28.035  31.233  1.00  0.00    -0.014 A 
ATOM     65  C   UNL A   1      47.146  28.091  30.299  1.00  0.00     0.010 A 
ATOM     66  C   UNL A   1      46.247  27.252  32.391  1.00  0.00     0.010 A 
ATOM     67  C   UNL A   1      48.306  27.339  30.496  1.00  0.00     0.020 A 
ATOM     68  C   UNL A   1      47.417  26.517  32.603  1.00  0.00     0.020 A 
ATOM     69  C   UNL A   1      48.430  26.550  31.643  1.00  0.00     0.054 A 
BRANCH  69  70
ATOM     70  S   UNL A   1      49.948  25.584  31.878  1.00  0.00     0.124 S 
ATOM     71  O   UNL A   1      50.214  25.112  30.523  1.00  0.00    -0.237 OA
ATOM     72  O   UNL A   1      50.887  26.578  32.393  1.00  0.00    -0.237 OA
ATOM     73  O   UNL A   1      49.554  24.550  32.833  1.00  0.00    -0.744 OA
ENDBRANCH  69  70
ENDBRANCH  50  64
BRANCH  51  74
ATOM     74  C   UNL A   1      37.388  32.724  29.823  1.00  0.00    -0.014 A 
ATOM     75  C   UNL A   1      36.398  32.621  30.815  1.00  0.00     0.010 A 
ATOM     76  C   UNL A   1      37.136  33.500  28.678  1.00  0.00     0.010 A 
ATOM     77  C   UNL A   1      35.171  33.274  30.660  1.00  0.00     0.020 A 
ATOM     78  C   UNL A   1      35.918  34.171  28.530  1.00  0.00     0.020 A 
ATOM     79  C   UNL A   1      34.939  34.046  29.518  1.00  0.00     0.054 A 
BRANCH  79  80
ATOM     80  S   UNL A   1      33.365  34.936  29.365  1.00  0.00     0.124 S 
ATOM     81  O   UNL A   1      32.661  34.135  28.369  1.00  0.00    -0.237 OA
ATOM     82  O   UNL A   1      32.830  34.872  30.723  1.00  0.00    -0.237 OA
ATOM     83  O   UNL A   1      33.772  36.269  28.928  1.00  0.00    -0.744 OA
ENDBRANCH  79  80
ENDBRANCH  51  74
BRANCH  63  84
ATOM     84  C   UNL A   1      43.332  34.432  33.058  1.00  0.00    -0.014 A 
ATOM     85  C   UNL A   1      43.683  35.602  32.363  1.00  0.00     0.010 A 
ATOM     86  C   UNL A   1      43.304  34.445  34.464  1.00  0.00     0.010 A 
ATOM     87  C   UNL A   1      44.002  36.767  33.067  1.00  0.00     0.020 A 
ATOM     88  C   UNL A   1      43.604  35.613  35.168  1.00  0.00     0.020 A 
ATOM     89  C   UNL A   1      43.956  36.767  34.464  1.00  0.00     0.054 A 
BRANCH  89  90
ATOM     90  S   UNL A   1      44.285  38.313  35.354  1.00  0.00     0.124 S 
ATOM     91  O   UNL A   1      43.548  38.110  36.598  1.00  0.00    -0.237 OA
ATOM     92  O   UNL A   1      45.742  38.310  35.478  1.00  0.00    -0.237 OA
ATOM     93  O   UNL A   1      43.746  39.342  34.468  1.00  0.00    -0.744 OA
ENDBRANCH  89  90
ENDBRANCH  63  84
ENDBRANCH  37  38
ENDBRANCH  29  32
ENDBRANCH  27  28
ENDBRANCH  26  27
ENDBRANCH  25  26
ENDBRANCH   1  25
TORSDOF 19
ENDMDL
MODEL 2
REMARK VINA RESULT:     -10.5      3.957      8.464
REMARK SMILES C[C@H](CNS(=O)(=O)c1ccc(C(=O)NCCCCNC(=O)c2ccc(-c3c4nc(c(-c5ccc(S(=O)(=O)[O-])cc5)c5ccc([nH]5)c(-c5ccc(S(=O)(=O)[O-])cc5)c5nc(c(-c6ccc(S(=O)(=O)[O-])cc6)c6ccc3[nH]6)C=C5)C=C4)cc2)cc1F)[NH+](C)C
REMARK SMILES IDX 15 1 14 2 12 3 13 4 11 6 8 7 9 8 83 9 10 10 82 11 84 12 5 13
REMARK SMILES IDX 6 14 7 15 4 16 3 18 2 19 1 20 85 21 86 22 87 23 16 25 17 26
REMARK SMILES IDX 18 27 19 28 20 29 21 31 22 32 23 33 81 34 24 35 80 36 25 37
REMARK SMILES IDX 26 38 27 39 74 40 28 41 79 42 73 43 75 44 29 45 78 46 72 47
REMARK SMILES IDX 71 48 30 50 60 51 41 52 59 53 42 54 45 55 58 56 76 57 43 58
REMARK SMILES IDX 44 59 57 61 77 62 46 63 31 64 32 65 40 66 33 67 39 68 34 69
REMARK SMILES IDX 35 70 36 71 37 72 38 73 61 74 62 75 70 76 63 77 69 78 64 79
REMARK SMILES IDX 65 80 66 81 67 82 68 83 47 84 48 85 56 86 49 87 55 88 50 89
REMARK SMILES IDX 51 90 52 91 53 92 54 93
REMARK H PARENT 14 5 4 17 85 24 19 30 75 49 45 60
REMARK Flexibility Score: inf
ROOT
ATOM      1  C   UNL A   1      34.200  29.233  26.751  1.00  0.00     0.116 C 
ENDROOT
BRANCH   1   2
ATOM      2  N   UNL A   1      34.189  29.009  25.317  1.00  0.00    -0.352 N 
ATOM      3  C   UNL A   1      33.661  28.028  24.517  1.00  0.00     0.251 C 
ATOM      4  O   UNL A   1      33.748  28.197  23.299  1.00  0.00    -0.269 OA
ATOM      5  H   UNL A   1      34.661  29.711  24.811  1.00  0.00     0.163 HD
BRANCH   3   6
ATOM      6  C   UNL A   1      33.009  26.776  25.010  1.00  0.00     0.042 A 
ATOM      7  C   UNL A   1      31.918  24.432  26.166  1.00  0.00     0.118 A 
ATOM      8  C   UNL A   1      33.300  24.640  26.183  1.00  0.00     0.026 A 
ATOM      9  C   UNL A   1      31.110  25.365  25.549  1.00  0.00     0.144 A 
ATOM     10  C   UNL A   1      33.835  25.805  25.611  1.00  0.00     0.015 A 
ATOM     11  C   UNL A   1      31.642  26.522  24.984  1.00  0.00     0.054 A 
ATOM     12  F   UNL A   1      29.784  25.240  25.487  1.00  0.00    -0.205 F 
BRANCH   7  13
ATOM     13  S   UNL A   1      31.260  23.023  26.993  1.00  0.00     0.243 S 
ATOM     14  O   UNL A   1      29.968  23.393  27.527  1.00  0.00    -0.207 OA
ATOM     15  O   UNL A   1      32.316  22.527  27.852  1.00  0.00    -0.207 OA
BRANCH  13  16
ATOM     16  N   UNL A   1      31.044  21.811  25.850  1.00  0.00    -0.205 NA
ATOM     17  H   UNL A   1      31.003  20.924  26.351  1.00  0.00     0.141 HD
BRANCH  16  18
ATOM     18  C   UNL A   1      32.065  21.669  24.788  1.00  0.00     0.163 C 
BRANCH  18  19
ATOM     19  C   UNL A   1      33.128  20.578  25.115  1.00  0.00     0.195 C 
ATOM     20  C   UNL A   1      32.822  19.227  24.454  1.00  0.00     0.076 C 
BRANCH  19  21
ATOM     21  N   UNL A   1      34.518  21.074  24.913  1.00  0.00    -0.337 N 
ATOM     22  C   UNL A   1      34.522  22.222  23.997  1.00  0.00     0.332 C 
ATOM     23  C   UNL A   1      35.226  21.447  26.139  1.00  0.00     0.332 C 
ATOM     24  H   UNL A   1      35.021  20.280  24.518  1.00  0.00     0.347 HD
ENDBRANCH  19  21
ENDBRANCH  18  19
ENDBRANCH  16  18
ENDBRANCH  13  16
ENDBRANCH   7  13
ENDBRANCH   3   6
ENDBRANCH   1   2
BRANCH   1  25
ATOM     25  C   UNL A   1      32.832  29.684  27.276  1.00  0.00     0.023 C 
BRANCH  25  26
ATOM     26  C   UNL A   1      32.489  31.149  26.994  1.00  0.00     0.023 C 
BRANCH  26  27
ATOM     27  C   UNL A   1      33.473  32.156  27.581  1.00  0.00     0.116 C 
BRANCH  27  28
ATOM     28  N   UNL A   1      32.908  33.486  27.759  1.00  0.00    -0.352 N 
ATOM     29  C   UNL A   1      33.304  34.446  28.664  1.00  0.00     0.251 C 
ATOM     30  H   UNL A   1      32.160  33.727  27.166  1.00  0.00     0.163 HD
ATOM     31  O   UNL A   1      32.680  35.495  28.779  1.00  0.00    -0.269 OA
BRANCH  29  32
ATOM     32  C   UNL A   1      34.463  34.156  29.533  1.00  0.00     0.039 A 
ATOM     33  C   UNL A   1      34.248  33.515  30.755  1.00  0.00     0.014 A 
ATOM     34  C   UNL A   1      35.758  34.442  29.095  1.00  0.00     0.014 A 
ATOM     35  C   UNL A   1      35.344  33.081  31.506  1.00  0.00     0.010 A 
ATOM     36  C   UNL A   1      36.845  33.961  29.815  1.00  0.00     0.010 A 
ATOM     37  C   UNL A   1      36.648  33.263  31.018  1.00  0.00    -0.014 A 
BRANCH  37  38
ATOM     38  C   UNL A   1      37.831  32.721  31.730  1.00  0.00     0.031 A 
ATOM     39  C   UNL A   1      38.555  31.529  31.173  1.00  0.00     0.074 A 
ATOM     40  C   UNL A   1      38.184  33.232  32.927  1.00  0.00     0.049 A 
ATOM     41  N   UNL A   1      39.503  30.812  31.718  1.00  0.00    -0.248 NA
ATOM     42  C   UNL A   1      38.136  31.066  29.840  1.00  0.00     0.031 C 
ATOM     43  C   UNL A   1      37.540  34.369  33.589  1.00  0.00     0.029 A 
ATOM     44  N   UNL A   1      39.160  32.844  33.811  1.00  0.00    -0.354 N 
ATOM     45  C   UNL A   1      39.775  29.796  30.810  1.00  0.00     0.074 A 
ATOM     46  C   UNL A   1      38.871  29.972  29.693  1.00  0.00     0.031 C 
ATOM     47  C   UNL A   1      38.144  34.591  34.769  1.00  0.00     0.029 A 
ATOM     48  C   UNL A   1      39.187  33.590  34.966  1.00  0.00     0.049 A 
ATOM     49  H   UNL A   1      39.782  32.102  33.634  1.00  0.00     0.167 HD
ATOM     50  C   UNL A   1      40.698  28.810  30.895  1.00  0.00     0.031 A 
ATOM     51  C   UNL A   1      39.953  33.471  36.067  1.00  0.00     0.031 A 
ATOM     52  C   UNL A   1      41.609  28.651  31.996  1.00  0.00     0.049 A 
ATOM     53  C   UNL A   1      40.979  32.374  36.136  1.00  0.00     0.074 A 
ATOM     54  C   UNL A   1      42.614  27.713  32.151  1.00  0.00     0.029 A 
ATOM     55  N   UNL A   1      41.629  29.452  33.126  1.00  0.00    -0.354 N 
ATOM     56  N   UNL A   1      41.248  31.446  35.249  1.00  0.00    -0.248 NA
ATOM     57  C   UNL A   1      41.806  32.309  37.349  1.00  0.00     0.031 C 
ATOM     58  C   UNL A   1      43.224  27.929  33.391  1.00  0.00     0.029 A 
ATOM     59  C   UNL A   1      42.623  29.026  33.989  1.00  0.00     0.049 A 
ATOM     60  H   UNL A   1      41.026  30.212  33.292  1.00  0.00     0.167 HD
ATOM     61  C   UNL A   1      42.294  30.704  35.785  1.00  0.00     0.074 A 
ATOM     62  C   UNL A   1      42.610  31.291  37.072  1.00  0.00     0.031 C 
ATOM     63  C   UNL A   1      42.935  29.634  35.257  1.00  0.00     0.031 A 
BRANCH  50  64
ATOM     64  C   UNL A   1      40.758  27.821  29.764  1.00  0.00    -0.014 A 
ATOM     65  C   UNL A   1      41.873  27.767  28.909  1.00  0.00     0.010 A 
ATOM     66  C   UNL A   1      39.695  26.921  29.566  1.00  0.00     0.010 A 
ATOM     67  C   UNL A   1      41.904  26.862  27.846  1.00  0.00     0.020 A 
ATOM     68  C   UNL A   1      39.734  25.998  28.517  1.00  0.00     0.020 A 
ATOM     69  C   UNL A   1      40.830  25.989  27.652  1.00  0.00     0.054 A 
BRANCH  69  70
ATOM     70  S   UNL A   1      40.893  24.821  26.266  1.00  0.00     0.124 S 
ATOM     71  O   UNL A   1      41.083  25.716  25.129  1.00  0.00    -0.237 OA
ATOM     72  O   UNL A   1      42.041  23.981  26.603  1.00  0.00    -0.237 OA
ATOM     73  O   UNL A   1      39.597  24.148  26.321  1.00  0.00    -0.744 OA
ENDBRANCH  69  70
ENDBRANCH  50  64
BRANCH  51  74
ATOM     74  C   UNL A   1      39.785  34.429  37.192  1.00  0.00    -0.014 A 
ATOM     75  C   UNL A   1      39.026  34.071  38.319  1.00  0.00     0.010 A 
ATOM     76  C   UNL A   1      40.403  35.692  37.153  1.00  0.00     0.010 A 
ATOM     77  C   UNL A   1      38.876  34.965  39.385  1.00  0.00     0.020 A 
ATOM     78  C   UNL A   1      40.273  36.579  38.226  1.00  0.00     0.020 A 
ATOM     79  C   UNL A   1      39.502  36.213  39.331  1.00  0.00     0.054 A 
BRANCH  79  80
ATOM     80  S   UNL A   1      39.348  37.333  40.751  1.00  0.00     0.124 S 
ATOM     81  O   UNL A   1      40.735  37.725  40.978  1.00  0.00    -0.237 OA
ATOM     82  O   UNL A   1      38.469  38.381  40.236  1.00  0.00    -0.237 OA
ATOM     83  O   UNL A   1      38.755  36.489  41.785  1.00  0.00    -0.744 OA
ENDBRANCH  79  80
ENDBRANCH  51  74
BRANCH  63  84
ATOM     84  C   UNL A   1      44.076  29.047  36.039  1.00  0.00    -0.014 A 
ATOM     85  C   UNL A   1      45.361  29.613  35.978  1.00  0.00     0.010 A 
ATOM     86  C   UNL A   1      43.832  27.979  36.922  1.00  0.00     0.010 A 
ATOM     87  C   UNL A   1      46.386  29.116  36.788  1.00  0.00     0.020 A 
ATOM     88  C   UNL A   1      44.850  27.494  37.745  1.00  0.00     0.020 A 
ATOM     89  C   UNL A   1      46.123  28.063  37.670  1.00  0.00     0.054 A 
BRANCH  89  90
ATOM     90  S   UNL A   1      47.444  27.494  38.776  1.00  0.00     0.124 S 
ATOM     91  O   UNL A   1      47.002  28.013  40.067  1.00  0.00    -0.237 OA
ATOM     92  O   UNL A   1      47.384  26.041  38.629  1.00  0.00    -0.237 OA
ATOM     93  O   UNL A   1      48.645  28.119  38.229  1.00  0.00    -0.744 OA
ENDBRANCH  89  90
ENDBRANCH  63  84
ENDBRANCH  37  38
ENDBRANCH  29  32
ENDBRANCH  27  28
ENDBRANCH  26  27
ENDBRANCH  25  26
ENDBRANCH   1  25
TORSDOF 19
ENDMDL
MODEL 3
REMARK VINA RESULT:     -10.3      2.536      9.369
REMARK SMILES C[C@H](CNS(=O)(=O)c1ccc(C(=O)NCCCCNC(=O)c2ccc(-c3c4nc(c(-c5ccc(S(=O)(=O)[O-])cc5)c5ccc([nH]5)c(-c5ccc(S(=O)(=O)[O-])cc5)c5nc(c(-c6ccc(S(=O)(=O)[O-])cc6)c6ccc3[nH]6)C=C5)C=C4)cc2)cc1F)[NH+](C)C
REMARK SMILES IDX 15 1 14 2 12 3 13 4 11 6 8 7 9 8 83 9 10 10 82 11 84 12 5 13
REMARK SMILES IDX 6 14 7 15 4 16 3 18 2 19 1 20 85 21 86 22 87 23 16 25 17 26
REMARK SMILES IDX 18 27 19 28 20 29 21 31 22 32 23 33 81 34 24 35 80 36 25 37
REMARK SMILES IDX 26 38 27 39 74 40 28 41 79 42 73 43 75 44 29 45 78 46 72 47
REMARK SMILES IDX 71 48 30 50 60 51 41 52 59 53 42 54 45 55 58 56 76 57 43 58
REMARK SMILES IDX 44 59 57 61 77 62 46 63 31 64 32 65 40 66 33 67 39 68 34 69
REMARK SMILES IDX 35 70 36 71 37 72 38 73 61 74 62 75 70 76 63 77 69 78 64 79
REMARK SMILES IDX 65 80 66 81 67 82 68 83 47 84 48 85 56 86 49 87 55 88 50 89
REMARK SMILES IDX 51 90 52 91 53 92 54 93
REMARK H PARENT 14 5 4 17 85 24 19 30 75 49 45 60
REMARK Flexibility Score: inf
ROOT
ATOM      1  C   UNL A   1      33.703  28.627  22.659  1.00  0.00     0.116 C 
ENDROOT
BRANCH   1   2
ATOM      2  N   UNL A   1      32.312  28.466  22.279  1.00  0.00    -0.352 N 
ATOM      3  C   UNL A   1      31.436  27.410  22.319  1.00  0.00     0.251 C 
ATOM      4  O   UNL A   1      30.267  27.646  22.005  1.00  0.00    -0.269 OA
ATOM      5  H   UNL A   1      31.911  29.288  21.915  1.00  0.00     0.163 HD
BRANCH   3   6
ATOM      6  C   UNL A   1      31.796  26.009  22.698  1.00  0.00     0.042 A 
ATOM      7  C   UNL A   1      32.218  23.315  23.463  1.00  0.00     0.118 A 
ATOM      8  C   UNL A   1      31.428  24.151  24.258  1.00  0.00     0.026 A 
ATOM      9  C   UNL A   1      32.809  23.835  22.330  1.00  0.00     0.144 A 
ATOM     10  C   UNL A   1      31.220  25.484  23.872  1.00  0.00     0.015 A 
ATOM     11  C   UNL A   1      32.599  25.158  21.948  1.00  0.00     0.054 A 
ATOM     12  F   UNL A   1      33.577  23.107  21.521  1.00  0.00    -0.205 F 
BRANCH   7  13
ATOM     13  S   UNL A   1      32.368  21.616  23.903  1.00  0.00     0.243 S 
ATOM     14  O   UNL A   1      32.105  20.833  22.717  1.00  0.00    -0.207 OA
ATOM     15  O   UNL A   1      31.587  21.439  25.110  1.00  0.00    -0.207 OA
BRANCH  13  16
ATOM     16  N   UNL A   1      33.955  21.350  24.386  1.00  0.00    -0.205 NA
ATOM     17  H   UNL A   1      34.008  20.395  24.740  1.00  0.00     0.141 HD
BRANCH  16  18
ATOM     18  C   UNL A   1      34.521  22.236  25.426  1.00  0.00     0.163 C 
BRANCH  18  19
ATOM     19  C   UNL A   1      35.099  23.561  24.841  1.00  0.00     0.195 C 
ATOM     20  C   UNL A   1      34.758  24.790  25.693  1.00  0.00     0.076 C 
BRANCH  19  21
ATOM     21  N   UNL A   1      36.537  23.429  24.477  1.00  0.00    -0.337 N 
ATOM     22  C   UNL A   1      37.316  22.965  25.632  1.00  0.00     0.332 C 
ATOM     23  C   UNL A   1      36.809  22.546  23.341  1.00  0.00     0.332 C 
ATOM     24  H   UNL A   1      36.818  24.366  24.190  1.00  0.00     0.347 HD
ENDBRANCH  19  21
ENDBRANCH  18  19
ENDBRANCH  16  18
ENDBRANCH  13  16
ENDBRANCH   7  13
ENDBRANCH   3   6
ENDBRANCH   1   2
BRANCH   1  25
ATOM     25  C   UNL A   1      33.980  28.100  24.072  1.00  0.00     0.023 C 
BRANCH  25  26
ATOM     26  C   UNL A   1      33.167  28.778  25.178  1.00  0.00     0.023 C 
BRANCH  26  27
ATOM     27  C   UNL A   1      33.908  28.943  26.501  1.00  0.00     0.116 C 
BRANCH  27  28
ATOM     28  N   UNL A   1      33.817  30.287  27.055  1.00  0.00    -0.352 N 
ATOM     29  C   UNL A   1      34.729  30.915  27.873  1.00  0.00     0.251 C 
ATOM     30  H   UNL A   1      33.015  30.805  26.816  1.00  0.00     0.163 HD
ATOM     31  O   UNL A   1      34.488  32.017  28.352  1.00  0.00    -0.269 OA
BRANCH  29  32
ATOM     32  C   UNL A   1      35.980  30.202  28.207  1.00  0.00     0.039 A 
ATOM     33  C   UNL A   1      37.021  30.193  27.276  1.00  0.00     0.014 A 
ATOM     34  C   UNL A   1      36.144  29.623  29.467  1.00  0.00     0.014 A 
ATOM     35  C   UNL A   1      38.266  29.675  27.642  1.00  0.00     0.010 A 
ATOM     36  C   UNL A   1      37.398  29.159  29.848  1.00  0.00     0.010 A 
ATOM     37  C   UNL A   1      38.473  29.195  28.945  1.00  0.00    -0.014 A 
BRANCH  37  38
ATOM     38  C   UNL A   1      39.807  28.739  29.407  1.00  0.00     0.031 A 
ATOM     39  C   UNL A   1      40.700  29.683  30.158  1.00  0.00     0.074 A 
ATOM     40  C   UNL A   1      40.254  27.516  29.057  1.00  0.00     0.049 A 
ATOM     41  N   UNL A   1      41.951  29.534  30.507  1.00  0.00    -0.248 NA
ATOM     42  C   UNL A   1      40.116  30.980  30.542  1.00  0.00     0.031 C 
ATOM     43  C   UNL A   1      39.493  26.517  28.302  1.00  0.00     0.029 A 
ATOM     44  N   UNL A   1      41.468  26.913  29.272  1.00  0.00    -0.354 N 
ATOM     45  C   UNL A   1      42.315  30.725  31.123  1.00  0.00     0.074 A 
ATOM     46  C   UNL A   1      41.161  31.597  31.075  1.00  0.00     0.031 C 
ATOM     47  C   UNL A   1      40.256  25.425  28.125  1.00  0.00     0.029 A 
ATOM     48  C   UNL A   1      41.570  25.660  28.716  1.00  0.00     0.049 A 
ATOM     49  H   UNL A   1      42.198  27.338  29.778  1.00  0.00     0.167 HD
ATOM     50  C   UNL A   1      43.500  31.059  31.685  1.00  0.00     0.031 A 
ATOM     51  C   UNL A   1      42.607  24.802  28.671  1.00  0.00     0.031 A 
ATOM     52  C   UNL A   1      44.637  30.182  31.752  1.00  0.00     0.049 A 
ATOM     53  C   UNL A   1      43.911  25.191  29.311  1.00  0.00     0.074 A 
ATOM     54  C   UNL A   1      45.866  30.411  32.345  1.00  0.00     0.029 A 
ATOM     55  N   UNL A   1      44.683  28.907  31.212  1.00  0.00    -0.354 N 
ATOM     56  N   UNL A   1      44.224  26.307  29.924  1.00  0.00    -0.248 NA
ATOM     57  C   UNL A   1      45.000  24.205  29.256  1.00  0.00     0.031 C 
ATOM     58  C   UNL A   1      46.667  29.283  32.137  1.00  0.00     0.029 A 
ATOM     59  C   UNL A   1      45.922  28.338  31.449  1.00  0.00     0.049 A 
ATOM     60  H   UNL A   1      43.944  28.469  30.730  1.00  0.00     0.167 HD
ATOM     61  C   UNL A   1      45.536  26.147  30.352  1.00  0.00     0.074 A 
ATOM     62  C   UNL A   1      45.959  24.827  29.931  1.00  0.00     0.031 C 
ATOM     63  C   UNL A   1      46.318  27.016  31.036  1.00  0.00     0.031 A 
BRANCH  50  64
ATOM     64  C   UNL A   1      43.623  32.440  32.266  1.00  0.00    -0.014 A 
ATOM     65  C   UNL A   1      43.306  32.689  33.613  1.00  0.00     0.010 A 
ATOM     66  C   UNL A   1      44.081  33.499  31.461  1.00  0.00     0.010 A 
ATOM     67  C   UNL A   1      43.399  33.982  34.133  1.00  0.00     0.020 A 
ATOM     68  C   UNL A   1      44.198  34.789  31.984  1.00  0.00     0.020 A 
ATOM     69  C   UNL A   1      43.836  35.026  33.312  1.00  0.00     0.054 A 
BRANCH  69  70
ATOM     70  S   UNL A   1      43.952  36.696  34.010  1.00  0.00     0.124 S 
ATOM     71  O   UNL A   1      42.769  36.745  34.865  1.00  0.00    -0.237 OA
ATOM     72  O   UNL A   1      45.233  36.666  34.712  1.00  0.00    -0.237 OA
ATOM     73  O   UNL A   1      43.909  37.565  32.836  1.00  0.00    -0.744 OA
ENDBRANCH  69  70
ENDBRANCH  50  64
BRANCH  51  74
ATOM     74  C   UNL A   1      42.449  23.483  28.003  1.00  0.00    -0.014 A 
ATOM     75  C   UNL A   1      42.996  23.265  26.728  1.00  0.00     0.010 A 
ATOM     76  C   UNL A   1      41.773  22.432  28.649  1.00  0.00     0.010 A 
ATOM     77  C   UNL A   1      42.861  22.022  26.102  1.00  0.00     0.020 A 
ATOM     78  C   UNL A   1      41.654  21.182  28.035  1.00  0.00     0.020 A 
ATOM     79  C   UNL A   1      42.190  20.987  26.760  1.00  0.00     0.054 A 
BRANCH  79  80
ATOM     80  S   UNL A   1      42.079  19.363  25.959  1.00  0.00     0.124 S 
ATOM     81  O   UNL A   1      42.896  19.560  24.765  1.00  0.00    -0.237 OA
ATOM     82  O   UNL A   1      42.640  18.470  26.970  1.00  0.00    -0.237 OA
ATOM     83  O   UNL A   1      40.647  19.200  25.721  1.00  0.00    -0.744 OA
ENDBRANCH  79  80
ENDBRANCH  51  74
BRANCH  63  84
ATOM     84  C   UNL A   1      47.700  26.562  31.418  1.00  0.00    -0.014 A 
ATOM     85  C   UNL A   1      47.933  25.906  32.638  1.00  0.00     0.010 A 
ATOM     86  C   UNL A   1      48.753  26.706  30.497  1.00  0.00     0.010 A 
ATOM     87  C   UNL A   1      49.203  25.402  32.932  1.00  0.00     0.020 A 
ATOM     88  C   UNL A   1      50.018  26.187  30.781  1.00  0.00     0.020 A 
ATOM     89  C   UNL A   1      50.236  25.541  32.000  1.00  0.00     0.054 A 
BRANCH  89  90
ATOM     90  S   UNL A   1      51.852  24.800  32.363  1.00  0.00     0.124 S 
ATOM     91  O   UNL A   1      51.585  23.379  32.165  1.00  0.00    -0.237 OA
ATOM     92  O   UNL A   1      52.723  25.421  31.367  1.00  0.00    -0.237 OA
ATOM     93  O   UNL A   1      52.113  25.201  33.743  1.00  0.00    -0.744 OA
ENDBRANCH  89  90
ENDBRANCH  63  84
ENDBRANCH  37  38
ENDBRANCH  29  32
ENDBRANCH  27  28
ENDBRANCH  26  27
ENDBRANCH  25  26
ENDBRANCH   1  25
TORSDOF 19
ENDMDL
