MODEL 1
REMARK VINA RESULT:      -9.9      0.000      0.000
REMARK SMILES CO[C@H]1C[C@@H](C(=O)NCCCCNC(=O)c2ccc(-c3c4nc(c(-c5ccc(S(=O)(=O)[O-])cc5)c5ccc([nH]5)c(-c5ccc(S(=O)(=O)[O-])cc5)c5nc(c(-c6ccc(S(=O)(=O)[O-])cc6)c6ccc3[nH]6)C=C5)C=C4)cc2)N(C(=O)CSc2cccs2)C1
REMARK SMILES IDX 10 1 9 2 8 3 6 4 7 5 5 7 3 8 4 9 86 10 76 11 2 12 1 13 77 14
REMARK SMILES IDX 78 15 79 16 80 17 81 18 82 19 85 20 83 21 84 22 11 23 12 24
REMARK SMILES IDX 13 25 14 26 15 28 16 29 17 30 75 31 18 32 74 33 19 34 20 35
REMARK SMILES IDX 21 36 68 37 22 38 73 39 67 40 69 41 23 42 72 43 66 44 65 45
REMARK SMILES IDX 24 47 54 48 35 49 53 50 36 51 39 52 52 53 70 54 37 55 38 56
REMARK SMILES IDX 51 58 71 59 40 60 25 61 26 62 34 63 27 64 33 65 28 66 29 67
REMARK SMILES IDX 30 68 31 69 32 70 55 71 56 72 64 73 57 74 63 75 58 76 59 77
REMARK SMILES IDX 60 78 61 79 62 80 41 81 42 82 50 83 43 84 49 85 44 86 45 87
REMARK SMILES IDX 46 88 47 89 48 90
REMARK H PARENT 8 6 13 27 69 46 39 57
REMARK Flexibility Score: inf
ROOT
ATOM      1  C   UNL A   1      31.671  31.158  26.066  1.00  0.00     0.023 C 
ENDROOT
BRANCH   1   2
ATOM      2  C   UNL A   1      32.660  29.998  26.181  1.00  0.00     0.116 C 
BRANCH   2   3
ATOM      3  N   UNL A   1      33.349  29.741  24.932  1.00  0.00    -0.354 N 
ATOM      4  C   UNL A   1      33.440  28.614  24.181  1.00  0.00     0.242 C 
ATOM      5  O   UNL A   1      33.852  28.752  23.024  1.00  0.00    -0.273 OA
ATOM      6  H   UNL A   1      33.834  30.516  24.566  1.00  0.00     0.163 HD
BRANCH   4   7
ATOM      7  C   UNL A   1      32.893  27.253  24.637  1.00  0.00     0.177 C 
ATOM      8  C   UNL A   1      33.224  24.872  24.435  1.00  0.00     0.139 C 
ATOM      9  C   UNL A   1      33.965  26.198  24.328  1.00  0.00     0.069 C 
ATOM     10  C   UNL A   1      31.816  25.219  23.952  1.00  0.00     0.152 C 
ATOM     11  N   UNL A   1      31.668  26.664  24.083  1.00  0.00    -0.327 N 
BRANCH   8  12
ATOM     12  O   UNL A   1      33.802  23.893  23.576  1.00  0.00    -0.380 OA
ATOM     13  C   UNL A   1      33.175  23.832  22.304  1.00  0.00     0.195 C 
ENDBRANCH   8  12
BRANCH  11  14
ATOM     14  C   UNL A   1      30.386  27.187  24.074  1.00  0.00     0.233 C 
ATOM     15  O   UNL A   1      29.448  26.551  24.570  1.00  0.00    -0.274 OA
BRANCH  14  16
ATOM     16  C   UNL A   1      30.086  28.471  23.322  1.00  0.00     0.175 C 
BRANCH  16  17
ATOM     17  S   UNL A   1      28.387  28.618  22.738  1.00  0.00    -0.105 SA
BRANCH  17  18
ATOM     18  C   UNL A   1      28.290  30.314  22.331  1.00  0.00     0.060 A 
ATOM     19  C   UNL A   1      28.030  30.834  21.082  1.00  0.00     0.027 A 
ATOM     20  S   UNL A   1      28.606  31.537  23.481  1.00  0.00    -0.137 S 
ATOM     21  C   UNL A   1      28.096  32.259  21.071  1.00  0.00     0.013 A 
ATOM     22  C   UNL A   1      28.397  32.770  22.314  1.00  0.00     0.066 A 
ENDBRANCH  17  18
ENDBRANCH  16  17
ENDBRANCH  14  16
ENDBRANCH  11  14
ENDBRANCH   4   7
ENDBRANCH   2   3
ENDBRANCH   1   2
BRANCH   1  23
ATOM     23  C   UNL A   1      31.747  32.205  27.183  1.00  0.00     0.023 C 
BRANCH  23  24
ATOM     24  C   UNL A   1      33.050  32.995  27.250  1.00  0.00     0.116 C 
BRANCH  24  25
ATOM     25  N   UNL A   1      32.892  34.271  27.927  1.00  0.00    -0.352 N 
ATOM     26  C   UNL A   1      33.535  34.741  29.049  1.00  0.00     0.251 C 
ATOM     27  H   UNL A   1      32.234  34.886  27.528  1.00  0.00     0.163 HD
ATOM     28  O   UNL A   1      33.158  35.781  29.582  1.00  0.00    -0.269 OA
BRANCH  26  29
ATOM     29  C   UNL A   1      34.660  33.973  29.628  1.00  0.00     0.039 A 
ATOM     30  C   UNL A   1      35.964  34.258  29.211  1.00  0.00     0.014 A 
ATOM     31  C   UNL A   1      34.434  32.989  30.594  1.00  0.00     0.014 A 
ATOM     32  C   UNL A   1      37.044  33.611  29.818  1.00  0.00     0.010 A 
ATOM     33  C   UNL A   1      35.513  32.397  31.246  1.00  0.00     0.010 A 
ATOM     34  C   UNL A   1      36.830  32.706  30.871  1.00  0.00    -0.014 A 
BRANCH  34  35
ATOM     35  C   UNL A   1      37.963  32.082  31.605  1.00  0.00     0.031 A 
ATOM     36  C   UNL A   1      38.411  32.643  32.927  1.00  0.00     0.074 A 
ATOM     37  C   UNL A   1      38.642  31.060  31.043  1.00  0.00     0.049 A 
ATOM     38  N   UNL A   1      39.439  32.304  33.662  1.00  0.00    -0.248 NA
ATOM     39  C   UNL A   1      37.614  33.749  33.483  1.00  0.00     0.031 C 
ATOM     40  C   UNL A   1      38.332  30.442  29.752  1.00  0.00     0.029 A 
ATOM     41  N   UNL A   1      39.747  30.371  31.481  1.00  0.00    -0.354 N 
ATOM     42  C   UNL A   1      39.425  33.165  34.754  1.00  0.00     0.074 A 
ATOM     43  C   UNL A   1      38.313  34.070  34.561  1.00  0.00     0.031 C 
ATOM     44  C   UNL A   1      39.212  29.456  29.512  1.00  0.00     0.029 A 
ATOM     45  C   UNL A   1      40.177  29.401  30.606  1.00  0.00     0.049 A 
ATOM     46  H   UNL A   1      40.190  30.555  32.340  1.00  0.00     0.167 HD
ATOM     47  C   UNL A   1      40.252  33.189  35.827  1.00  0.00     0.031 A 
ATOM     48  C   UNL A   1      41.237  28.570  30.665  1.00  0.00     0.031 A 
ATOM     49  C   UNL A   1      41.352  32.282  36.019  1.00  0.00     0.049 A 
ATOM     50  C   UNL A   1      42.155  28.632  31.855  1.00  0.00     0.074 A 
ATOM     51  C   UNL A   1      42.214  32.194  37.099  1.00  0.00     0.029 A 
ATOM     52  N   UNL A   1      41.745  31.308  35.115  1.00  0.00    -0.354 N 
ATOM     53  N   UNL A   1      42.090  29.414  32.906  1.00  0.00    -0.248 NA
ATOM     54  C   UNL A   1      43.286  27.692  31.872  1.00  0.00     0.031 C 
ATOM     55  C   UNL A   1      43.160  31.203  36.823  1.00  0.00     0.029 A 
ATOM     56  C   UNL A   1      42.851  30.631  35.600  1.00  0.00     0.049 A 
ATOM     57  H   UNL A   1      41.302  31.124  34.255  1.00  0.00     0.167 HD
ATOM     58  C   UNL A   1      43.151  29.040  33.722  1.00  0.00     0.074 A 
ATOM     59  C   UNL A   1      43.836  27.956  33.050  1.00  0.00     0.031 C 
ATOM     60  C   UNL A   1      43.522  29.549  34.923  1.00  0.00     0.031 A 
BRANCH  47  61
ATOM     61  C   UNL A   1      40.003  34.243  36.873  1.00  0.00    -0.014 A 
ATOM     62  C   UNL A   1      40.675  35.479  36.835  1.00  0.00     0.010 A 
ATOM     63  C   UNL A   1      39.054  34.014  37.886  1.00  0.00     0.010 A 
ATOM     64  C   UNL A   1      40.436  36.447  37.815  1.00  0.00     0.020 A 
ATOM     65  C   UNL A   1      38.789  34.990  38.850  1.00  0.00     0.020 A 
ATOM     66  C   UNL A   1      39.496  36.194  38.818  1.00  0.00     0.054 A 
BRANCH  66  67
ATOM     67  S   UNL A   1      39.192  37.476  40.065  1.00  0.00     0.124 S 
ATOM     68  O   UNL A   1      38.182  38.302  39.408  1.00  0.00    -0.237 OA
ATOM     69  O   UNL A   1      38.722  36.703  41.211  1.00  0.00    -0.237 OA
ATOM     70  O   UNL A   1      40.498  38.110  40.238  1.00  0.00    -0.744 OA
ENDBRANCH  66  67
ENDBRANCH  47  61
BRANCH  48  71
ATOM     71  C   UNL A   1      41.484  27.601  29.561  1.00  0.00    -0.014 A 
ATOM     72  C   UNL A   1      40.679  26.455  29.424  1.00  0.00     0.010 A 
ATOM     73  C   UNL A   1      42.519  27.823  28.634  1.00  0.00     0.010 A 
ATOM     74  C   UNL A   1      40.916  25.542  28.393  1.00  0.00     0.020 A 
ATOM     75  C   UNL A   1      42.740  26.927  27.584  1.00  0.00     0.020 A 
ATOM     76  C   UNL A   1      41.944  25.785  27.478  1.00  0.00     0.054 A 
BRANCH  76  77
ATOM     77  S   UNL A   1      42.199  24.612  26.116  1.00  0.00     0.124 S 
ATOM     78  O   UNL A   1      40.997  23.788  26.198  1.00  0.00    -0.237 OA
ATOM     79  O   UNL A   1      42.285  25.492  24.953  1.00  0.00    -0.237 OA
ATOM     80  O   UNL A   1      43.446  23.940  26.473  1.00  0.00    -0.744 OA
ENDBRANCH  76  77
ENDBRANCH  48  71
BRANCH  60  81
ATOM     81  C   UNL A   1      44.699  28.916  35.617  1.00  0.00    -0.014 A 
ATOM     82  C   UNL A   1      44.538  27.808  36.468  1.00  0.00     0.010 A 
ATOM     83  C   UNL A   1      45.996  29.395  35.355  1.00  0.00     0.010 A 
ATOM     84  C   UNL A   1      45.651  27.204  37.060  1.00  0.00     0.020 A 
ATOM     85  C   UNL A   1      47.113  28.778  35.922  1.00  0.00     0.020 A 
ATOM     86  C   UNL A   1      46.933  27.692  36.779  1.00  0.00     0.054 A 
BRANCH  86  87
ATOM     87  S   UNL A   1      48.365  26.852  37.511  1.00  0.00     0.124 S 
ATOM     88  O   UNL A   1      47.900  25.471  37.593  1.00  0.00    -0.237 OA
ATOM     89  O   UNL A   1      49.419  27.104  36.530  1.00  0.00    -0.237 OA
ATOM     90  O   UNL A   1      48.544  27.527  38.795  1.00  0.00    -0.744 OA
ENDBRANCH  86  87
ENDBRANCH  60  81
ENDBRANCH  34  35
ENDBRANCH  26  29
ENDBRANCH  24  25
ENDBRANCH  23  24
ENDBRANCH   1  23
TORSDOF 19
ENDMDL
MODEL 2
REMARK VINA RESULT:      -9.4      6.396      9.054
REMARK SMILES CO[C@H]1C[C@@H](C(=O)NCCCCNC(=O)c2ccc(-c3c4nc(c(-c5ccc(S(=O)(=O)[O-])cc5)c5ccc([nH]5)c(-c5ccc(S(=O)(=O)[O-])cc5)c5nc(c(-c6ccc(S(=O)(=O)[O-])cc6)c6ccc3[nH]6)C=C5)C=C4)cc2)N(C(=O)CSc2cccs2)C1
REMARK SMILES IDX 10 1 9 2 8 3 6 4 7 5 5 7 3 8 4 9 86 10 76 11 2 12 1 13 77 14
REMARK SMILES IDX 78 15 79 16 80 17 81 18 82 19 85 20 83 21 84 22 11 23 12 24
REMARK SMILES IDX 13 25 14 26 15 28 16 29 17 30 75 31 18 32 74 33 19 34 20 35
REMARK SMILES IDX 21 36 68 37 22 38 73 39 67 40 69 41 23 42 72 43 66 44 65 45
REMARK SMILES IDX 24 47 54 48 35 49 53 50 36 51 39 52 52 53 70 54 37 55 38 56
REMARK SMILES IDX 51 58 71 59 40 60 25 61 26 62 34 63 27 64 33 65 28 66 29 67
REMARK SMILES IDX 30 68 31 69 32 70 55 71 56 72 64 73 57 74 63 75 58 76 59 77
REMARK SMILES IDX 60 78 61 79 62 80 41 81 42 82 50 83 43 84 49 85 44 86 45 87
REMARK SMILES IDX 46 88 47 89 48 90
REMARK H PARENT 8 6 13 27 69 46 39 57
REMARK Flexibility Score: inf
ROOT
ATOM      1  C   UNL A   1      34.509  30.823  27.363  1.00  0.00     0.023 C 
ENDROOT
BRANCH   1   2
ATOM      2  C   UNL A   1      33.933  29.533  26.777  1.00  0.00     0.116 C 
BRANCH   2   3
ATOM      3  N   UNL A   1      32.739  29.100  27.475  1.00  0.00    -0.354 N 
ATOM      4  C   UNL A   1      31.729  28.282  27.087  1.00  0.00     0.242 C 
ATOM      5  O   UNL A   1      30.986  27.858  27.980  1.00  0.00    -0.273 OA
ATOM      6  H   UNL A   1      32.646  29.461  28.386  1.00  0.00     0.163 HD
BRANCH   4   7
ATOM      7  C   UNL A   1      31.592  27.732  25.660  1.00  0.00     0.177 C 
ATOM      8  C   UNL A   1      30.497  28.103  23.542  1.00  0.00     0.139 C 
ATOM      9  C   UNL A   1      30.950  28.831  24.801  1.00  0.00     0.069 C 
ATOM     10  C   UNL A   1      30.119  26.716  24.059  1.00  0.00     0.152 C 
ATOM     11  N   UNL A   1      30.794  26.542  25.340  1.00  0.00    -0.327 N 
BRANCH   8  12
ATOM     12  O   UNL A   1      29.354  28.734  22.972  1.00  0.00    -0.380 OA
ATOM     13  C   UNL A   1      29.369  30.146  23.116  1.00  0.00     0.195 C 
ENDBRANCH   8  12
BRANCH  11  14
ATOM     14  C   UNL A   1      30.926  25.255  25.833  1.00  0.00     0.233 C 
ATOM     15  O   UNL A   1      30.126  24.822  26.672  1.00  0.00    -0.274 OA
BRANCH  14  16
ATOM     16  C   UNL A   1      32.137  24.415  25.471  1.00  0.00     0.175 C 
BRANCH  16  17
ATOM     17  S   UNL A   1      31.940  23.419  23.980  1.00  0.00    -0.105 SA
BRANCH  17  18
ATOM     18  C   UNL A   1      32.426  21.836  24.535  1.00  0.00     0.060 A 
ATOM     19  C   UNL A   1      32.941  21.536  25.777  1.00  0.00     0.027 A 
ATOM     20  S   UNL A   1      32.383  20.468  23.512  1.00  0.00    -0.137 S 
ATOM     21  C   UNL A   1      33.309  20.163  25.887  1.00  0.00     0.013 A 
ATOM     22  C   UNL A   1      33.053  19.467  24.726  1.00  0.00     0.066 A 
ENDBRANCH  17  18
ENDBRANCH  16  17
ENDBRANCH  14  16
ENDBRANCH  11  14
ENDBRANCH   4   7
ENDBRANCH   2   3
ENDBRANCH   1   2
BRANCH   1  23
ATOM     23  C   UNL A   1      35.953  30.734  27.867  1.00  0.00     0.023 C 
BRANCH  23  24
ATOM     24  C   UNL A   1      36.372  29.372  28.409  1.00  0.00     0.116 C 
BRANCH  24  25
ATOM     25  N   UNL A   1      36.421  29.342  29.862  1.00  0.00    -0.352 N 
ATOM     26  C   UNL A   1      37.466  28.988  30.685  1.00  0.00     0.251 C 
ATOM     27  H   UNL A   1      35.592  29.612  30.320  1.00  0.00     0.163 HD
ATOM     28  O   UNL A   1      37.279  28.861  31.892  1.00  0.00    -0.269 OA
BRANCH  26  29
ATOM     29  C   UNL A   1      38.804  28.730  30.108  1.00  0.00     0.039 A 
ATOM     30  C   UNL A   1      39.189  29.416  28.952  1.00  0.00     0.014 A 
ATOM     31  C   UNL A   1      39.684  27.830  30.714  1.00  0.00     0.014 A 
ATOM     32  C   UNL A   1      40.483  29.258  28.450  1.00  0.00     0.010 A 
ATOM     33  C   UNL A   1      40.995  27.728  30.254  1.00  0.00     0.010 A 
ATOM     34  C   UNL A   1      41.411  28.445  29.121  1.00  0.00    -0.014 A 
BRANCH  34  35
ATOM     35  C   UNL A   1      42.825  28.339  28.671  1.00  0.00     0.031 A 
ATOM     36  C   UNL A   1      43.758  29.509  28.820  1.00  0.00     0.074 A 
ATOM     37  C   UNL A   1      43.247  27.217  28.051  1.00  0.00     0.049 A 
ATOM     38  N   UNL A   1      44.989  29.644  28.395  1.00  0.00    -0.248 NA
ATOM     39  C   UNL A   1      43.231  30.693  29.518  1.00  0.00     0.031 C 
ATOM     40  C   UNL A   1      42.435  26.022  27.813  1.00  0.00     0.029 A 
ATOM     41  N   UNL A   1      44.463  26.906  27.492  1.00  0.00    -0.354 N 
ATOM     42  C   UNL A   1      45.375  30.931  28.753  1.00  0.00     0.074 A 
ATOM     43  C   UNL A   1      44.234  31.550  29.391  1.00  0.00     0.031 C 
ATOM     44  C   UNL A   1      43.179  25.103  27.175  1.00  0.00     0.029 A 
ATOM     45  C   UNL A   1      44.504  25.658  26.915  1.00  0.00     0.049 A 
ATOM     46  H   UNL A   1      45.233  27.519  27.502  1.00  0.00     0.167 HD
ATOM     47  C   UNL A   1      46.575  31.536  28.582  1.00  0.00     0.031 A 
ATOM     48  C   UNL A   1      45.489  25.033  26.239  1.00  0.00     0.031 A 
ATOM     49  C   UNL A   1      47.711  30.914  27.955  1.00  0.00     0.049 A 
ATOM     50  C   UNL A   1      46.805  25.734  26.041  1.00  0.00     0.074 A 
ATOM     51  C   UNL A   1      48.985  31.427  27.782  1.00  0.00     0.029 A 
ATOM     52  N   UNL A   1      47.713  29.645  27.396  1.00  0.00    -0.354 N 
ATOM     53  N   UNL A   1      47.170  26.929  26.440  1.00  0.00    -0.248 NA
ATOM     54  C   UNL A   1      47.847  24.999  25.309  1.00  0.00     0.031 C 
ATOM     55  C   UNL A   1      49.741  30.490  27.072  1.00  0.00     0.029 A 
ATOM     56  C   UNL A   1      48.958  29.368  26.857  1.00  0.00     0.049 A 
ATOM     57  H   UNL A   1      46.943  29.031  27.385  1.00  0.00     0.167 HD
ATOM     58  C   UNL A   1      48.491  27.077  26.034  1.00  0.00     0.074 A 
ATOM     59  C   UNL A   1      48.865  25.846  25.368  1.00  0.00     0.031 C 
ATOM     60  C   UNL A   1      49.321  28.136  26.201  1.00  0.00     0.031 A 
BRANCH  47  61
ATOM     61  C   UNL A   1      46.716  32.953  29.071  1.00  0.00    -0.014 A 
ATOM     62  C   UNL A   1      47.151  33.231  30.380  1.00  0.00     0.010 A 
ATOM     63  C   UNL A   1      46.452  34.025  28.199  1.00  0.00     0.010 A 
ATOM     64  C   UNL A   1      47.276  34.551  30.821  1.00  0.00     0.020 A 
ATOM     65  C   UNL A   1      46.605  35.347  28.625  1.00  0.00     0.020 A 
ATOM     66  C   UNL A   1      46.999  35.600  29.941  1.00  0.00     0.054 A 
BRANCH  66  67
ATOM     67  S   UNL A   1      47.187  37.304  30.535  1.00  0.00     0.124 S 
ATOM     68  O   UNL A   1      45.796  37.722  30.696  1.00  0.00    -0.237 OA
ATOM     69  O   UNL A   1      47.938  37.130  31.776  1.00  0.00    -0.237 OA
ATOM     70  O   UNL A   1      47.916  37.970  29.458  1.00  0.00    -0.744 OA
ENDBRANCH  66  67
ENDBRANCH  47  61
BRANCH  48  71
ATOM     71  C   UNL A   1      45.268  23.661  25.704  1.00  0.00    -0.014 A 
ATOM     72  C   UNL A   1      45.001  23.462  24.338  1.00  0.00     0.010 A 
ATOM     73  C   UNL A   1      45.334  22.542  26.557  1.00  0.00     0.010 A 
ATOM     74  C   UNL A   1      44.787  22.174  23.837  1.00  0.00     0.020 A 
ATOM     75  C   UNL A   1      45.150  21.251  26.054  1.00  0.00     0.020 A 
ATOM     76  C   UNL A   1      44.865  21.077  24.699  1.00  0.00     0.054 A 
BRANCH  76  77
ATOM     77  S   UNL A   1      44.635  19.411  24.016  1.00  0.00     0.124 S 
ATOM     78  O   UNL A   1      45.864  18.742  24.430  1.00  0.00    -0.237 OA
ATOM     79  O   UNL A   1      43.415  18.962  24.683  1.00  0.00    -0.237 OA
ATOM     80  O   UNL A   1      44.502  19.645  22.580  1.00  0.00    -0.744 OA
ENDBRANCH  76  77
ENDBRANCH  48  71
BRANCH  60  81
ATOM     81  C   UNL A   1      50.733  28.006  25.695  1.00  0.00    -0.014 A 
ATOM     82  C   UNL A   1      51.082  28.399  24.391  1.00  0.00     0.010 A 
ATOM     83  C   UNL A   1      51.739  27.548  26.565  1.00  0.00     0.010 A 
ATOM     84  C   UNL A   1      52.410  28.318  23.961  1.00  0.00     0.020 A 
ATOM     85  C   UNL A   1      53.071  27.492  26.149  1.00  0.00     0.020 A 
ATOM     86  C   UNL A   1      53.397  27.868  24.845  1.00  0.00     0.054 A 
BRANCH  86  87
ATOM     87  S   UNL A   1      55.121  27.830  24.283  1.00  0.00     0.124 S 
ATOM     88  O   UNL A   1      55.138  26.646  23.430  1.00  0.00    -0.237 OA
ATOM     89  O   UNL A   1      55.259  29.108  23.588  1.00  0.00    -0.237 OA
ATOM     90  O   UNL A   1      55.888  27.717  25.522  1.00  0.00    -0.744 OA
ENDBRANCH  86  87
ENDBRANCH  60  81
ENDBRANCH  34  35
ENDBRANCH  26  29
ENDBRANCH  24  25
ENDBRANCH  23  24
ENDBRANCH   1  23
TORSDOF 19
ENDMDL
MODEL 3
REMARK VINA RESULT:      -9.3      2.699      9.032
REMARK SMILES CO[C@H]1C[C@@H](C(=O)NCCCCNC(=O)c2ccc(-c3c4nc(c(-c5ccc(S(=O)(=O)[O-])cc5)c5ccc([nH]5)c(-c5ccc(S(=O)(=O)[O-])cc5)c5nc(c(-c6ccc(S(=O)(=O)[O-])cc6)c6ccc3[nH]6)C=C5)C=C4)cc2)N(C(=O)CSc2cccs2)C1
REMARK SMILES IDX 10 1 9 2 8 3 6 4 7 5 5 7 3 8 4 9 86 10 76 11 2 12 1 13 77 14
REMARK SMILES IDX 78 15 79 16 80 17 81 18 82 19 85 20 83 21 84 22 11 23 12 24
REMARK SMILES IDX 13 25 14 26 15 28 16 29 17 30 75 31 18 32 74 33 19 34 20 35
REMARK SMILES IDX 21 36 68 37 22 38 73 39 67 40 69 41 23 42 72 43 66 44 65 45
REMARK SMILES IDX 24 47 54 48 35 49 53 50 36 51 39 52 52 53 70 54 37 55 38 56
REMARK SMILES IDX 51 58 71 59 40 60 25 61 26 62 34 63 27 64 33 65 28 66 29 67
REMARK SMILES IDX 30 68 31 69 32 70 55 71 56 72 64 73 57 74 63 75 58 76 59 77
REMARK SMILES IDX 60 78 61 79 62 80 41 81 42 82 50 83 43 84 49 85 44 86 45 87
REMARK SMILES IDX 46 88 47 89 48 90
REMARK H PARENT 8 6 13 27 69 46 39 57
REMARK Flexibility Score: inf
ROOT
ATOM      1  C   UNL A   1      38.042  24.184  26.862  1.00  0.00     0.023 C 
ENDROOT
BRANCH   1   2
ATOM      2  C   UNL A   1      36.639  23.916  26.316  1.00  0.00     0.116 C 
BRANCH   2   3
ATOM      3  N   UNL A   1      36.666  23.114  25.109  1.00  0.00    -0.354 N 
ATOM      4  C   UNL A   1      35.775  22.217  24.616  1.00  0.00     0.242 C 
ATOM      5  O   UNL A   1      35.913  21.894  23.431  1.00  0.00    -0.273 OA
ATOM      6  H   UNL A   1      37.467  23.243  24.551  1.00  0.00     0.163 HD
BRANCH   4   7
ATOM      7  C   UNL A   1      34.535  21.750  25.393  1.00  0.00     0.177 C 
ATOM      8  C   UNL A   1      32.919  19.966  25.562  1.00  0.00     0.139 C 
ATOM      9  C   UNL A   1      34.340  20.257  25.096  1.00  0.00     0.069 C 
ATOM     10  C   UNL A   1      32.184  21.275  25.275  1.00  0.00     0.152 C 
ATOM     11  N   UNL A   1      33.199  22.317  25.172  1.00  0.00    -0.327 N 
BRANCH   8  12
ATOM     12  O   UNL A   1      32.338  18.910  24.803  1.00  0.00    -0.380 OA
ATOM     13  C   UNL A   1      32.459  19.102  23.401  1.00  0.00     0.195 C 
ENDBRANCH   8  12
BRANCH  11  14
ATOM     14  C   UNL A   1      32.790  23.634  25.292  1.00  0.00     0.233 C 
ATOM     15  O   UNL A   1      32.596  24.129  26.409  1.00  0.00    -0.274 OA
BRANCH  14  16
ATOM     16  C   UNL A   1      32.426  24.440  24.058  1.00  0.00     0.175 C 
BRANCH  16  17
ATOM     17  S   UNL A   1      33.834  25.157  23.189  1.00  0.00    -0.105 SA
BRANCH  17  18
ATOM     18  C   UNL A   1      33.573  26.867  23.426  1.00  0.00     0.060 A 
ATOM     19  C   UNL A   1      33.471  27.817  22.433  1.00  0.00     0.027 A 
ATOM     20  S   UNL A   1      33.500  27.561  24.986  1.00  0.00    -0.137 S 
ATOM     21  C   UNL A   1      33.336  29.134  22.963  1.00  0.00     0.013 A 
ATOM     22  C   UNL A   1      33.332  29.136  24.341  1.00  0.00     0.066 A 
ENDBRANCH  17  18
ENDBRANCH  16  17
ENDBRANCH  14  16
ENDBRANCH  11  14
ENDBRANCH   4   7
ENDBRANCH   2   3
ENDBRANCH   1   2
BRANCH   1  23
ATOM     23  C   UNL A   1      39.114  23.165  26.460  1.00  0.00     0.023 C 
BRANCH  23  24
ATOM     24  C   UNL A   1      40.513  23.442  26.999  1.00  0.00     0.116 C 
BRANCH  24  25
ATOM     25  N   UNL A   1      41.390  24.027  25.998  1.00  0.00    -0.352 N 
ATOM     26  C   UNL A   1      41.808  25.332  25.870  1.00  0.00     0.251 C 
ATOM     27  H   UNL A   1      41.733  23.404  25.316  1.00  0.00     0.163 HD
ATOM     28  O   UNL A   1      42.418  25.685  24.865  1.00  0.00    -0.269 OA
BRANCH  26  29
ATOM     29  C   UNL A   1      41.492  26.313  26.932  1.00  0.00     0.039 A 
ATOM     30  C   UNL A   1      40.646  25.934  27.978  1.00  0.00     0.014 A 
ATOM     31  C   UNL A   1      42.043  27.597  26.908  1.00  0.00     0.014 A 
ATOM     32  C   UNL A   1      40.415  26.815  29.039  1.00  0.00     0.010 A 
ATOM     33  C   UNL A   1      41.870  28.446  27.999  1.00  0.00     0.010 A 
ATOM     34  C   UNL A   1      41.060  28.062  29.079  1.00  0.00    -0.014 A 
BRANCH  34  35
ATOM     35  C   UNL A   1      40.916  28.977  30.243  1.00  0.00     0.031 A 
ATOM     36  C   UNL A   1      41.791  28.804  31.455  1.00  0.00     0.074 A 
ATOM     37  C   UNL A   1      39.943  29.912  30.244  1.00  0.00     0.049 A 
ATOM     38  N   UNL A   1      41.745  29.431  32.603  1.00  0.00    -0.248 NA
ATOM     39  C   UNL A   1      42.838  27.773  31.376  1.00  0.00     0.031 C 
ATOM     40  C   UNL A   1      39.006  30.163  29.147  1.00  0.00     0.029 A 
ATOM     41  N   UNL A   1      39.569  30.815  31.210  1.00  0.00    -0.354 N 
ATOM     42  C   UNL A   1      42.740  28.859  33.388  1.00  0.00     0.074 A 
ATOM     43  C   UNL A   1      43.342  27.805  32.601  1.00  0.00     0.031 C 
ATOM     44  C   UNL A   1      38.180  31.164  29.493  1.00  0.00     0.029 A 
ATOM     45  C   UNL A   1      38.494  31.594  30.852  1.00  0.00     0.049 A 
ATOM     46  H   UNL A   1      40.027  30.895  32.077  1.00  0.00     0.167 HD
ATOM     47  C   UNL A   1      43.127  29.191  34.643  1.00  0.00     0.031 A 
ATOM     48  C   UNL A   1      37.824  32.539  31.541  1.00  0.00     0.031 A 
ATOM     49  C   UNL A   1      42.532  30.246  35.419  1.00  0.00     0.049 A 
ATOM     50  C   UNL A   1      38.258  32.874  32.942  1.00  0.00     0.074 A 
ATOM     51  C   UNL A   1      42.890  30.692  36.680  1.00  0.00     0.029 A 
ATOM     52  N   UNL A   1      41.454  31.018  35.015  1.00  0.00    -0.354 N 
ATOM     53  N   UNL A   1      39.239  32.362  33.645  1.00  0.00    -0.248 NA
ATOM     54  C   UNL A   1      37.499  33.922  33.641  1.00  0.00     0.031 C 
ATOM     55  C   UNL A   1      41.996  31.697  37.059  1.00  0.00     0.029 A 
ATOM     56  C   UNL A   1      41.119  31.921  36.010  1.00  0.00     0.049 A 
ATOM     57  H   UNL A   1      40.995  30.937  34.147  1.00  0.00     0.167 HD
ATOM     58  C   UNL A   1      39.235  33.045  34.856  1.00  0.00     0.074 A 
ATOM     59  C   UNL A   1      38.162  34.014  34.786  1.00  0.00     0.031 C 
ATOM     60  C   UNL A   1      40.051  32.885  35.927  1.00  0.00     0.031 A 
BRANCH  47  61
ATOM     61  C   UNL A   1      44.245  28.393  35.260  1.00  0.00    -0.014 A 
ATOM     62  C   UNL A   1      43.984  27.222  35.995  1.00  0.00     0.010 A 
ATOM     63  C   UNL A   1      45.580  28.794  35.068  1.00  0.00     0.010 A 
ATOM     64  C   UNL A   1      45.032  26.493  36.564  1.00  0.00     0.020 A 
ATOM     65  C   UNL A   1      46.633  28.051  35.609  1.00  0.00     0.020 A 
ATOM     66  C   UNL A   1      46.350  26.915  36.370  1.00  0.00     0.054 A 
BRANCH  66  67
ATOM     67  S   UNL A   1      47.691  25.938  37.104  1.00  0.00     0.124 S 
ATOM     68  O   UNL A   1      47.191  24.574  36.947  1.00  0.00    -0.237 OA
ATOM     69  O   UNL A   1      48.837  26.287  36.268  1.00  0.00    -0.237 OA
ATOM     70  O   UNL A   1      47.759  26.421  38.482  1.00  0.00    -0.744 OA
ENDBRANCH  66  67
ENDBRANCH  47  61
BRANCH  48  71
ATOM     71  C   UNL A   1      36.672  33.242  30.912  1.00  0.00    -0.014 A 
ATOM     72  C   UNL A   1      35.381  33.127  31.459  1.00  0.00     0.010 A 
ATOM     73  C   UNL A   1      36.860  34.039  29.767  1.00  0.00     0.010 A 
ATOM     74  C   UNL A   1      34.298  33.781  30.863  1.00  0.00     0.020 A 
ATOM     75  C   UNL A   1      35.785  34.718  29.187  1.00  0.00     0.020 A 
ATOM     76  C   UNL A   1      34.508  34.574  29.732  1.00  0.00     0.054 A 
BRANCH  76  77
ATOM     77  S   UNL A   1      33.096  35.456  29.007  1.00  0.00     0.124 S 
ATOM     78  O   UNL A   1      32.318  35.807  30.191  1.00  0.00    -0.237 OA
ATOM     79  O   UNL A   1      33.740  36.572  28.320  1.00  0.00    -0.237 OA
ATOM     80  O   UNL A   1      32.486  34.460  28.129  1.00  0.00    -0.744 OA
ENDBRANCH  76  77
ENDBRANCH  48  71
BRANCH  60  81
ATOM     81  C   UNL A   1      39.849  33.804  37.103  1.00  0.00    -0.014 A 
ATOM     82  C   UNL A   1      40.538  35.025  37.204  1.00  0.00     0.010 A 
ATOM     83  C   UNL A   1      38.899  33.469  38.086  1.00  0.00     0.010 A 
ATOM     84  C   UNL A   1      40.294  35.886  38.279  1.00  0.00     0.020 A 
ATOM     85  C   UNL A   1      38.632  34.339  39.146  1.00  0.00     0.020 A 
ATOM     86  C   UNL A   1      39.339  35.539  39.242  1.00  0.00     0.054 A 
BRANCH  86  87
ATOM     87  S   UNL A   1      38.998  36.700  40.591  1.00  0.00     0.124 S 
ATOM     88  O   UNL A   1      40.330  36.927  41.144  1.00  0.00    -0.237 OA
ATOM     89  O   UNL A   1      38.406  37.839  39.892  1.00  0.00    -0.237 OA
ATOM     90  O   UNL A   1      38.080  35.965  41.459  1.00  0.00    -0.744 OA
ENDBRANCH  86  87
ENDBRANCH  60  81
ENDBRANCH  34  35
ENDBRANCH  26  29
ENDBRANCH  24  25
ENDBRANCH  23  24
ENDBRANCH   1  23
TORSDOF 19
ENDMDL
