MODEL 1
REMARK VINA RESULT:     -10.4      0.000      0.000
REMARK SMILES CC[C@@H](C)[C@@H](C(=O)NCCCCNC(=O)c1ccc(-c2c3nc(c(-c4ccc(S(=O)(=O)[O-])cc4)c4ccc([nH]4)c(-c4ccc(S(=O)(=O)[O-])cc4)c4nc(c(-c5ccc(S(=O)(=O)[O-])cc5)c5ccc2[nH]5)C=C4)C=C3)cc1)S(=O)(=O)c1ccc(OC)cc1
REMARK SMILES IDX 10 1 9 2 8 3 6 4 7 5 5 7 3 8 4 9 2 10 1 11 76 12 77 13 78 14
REMARK SMILES IDX 79 15 80 16 86 17 81 18 85 19 82 20 83 21 84 22 11 23 12 24
REMARK SMILES IDX 13 25 14 26 15 28 16 29 17 30 75 31 18 32 74 33 19 34 20 35
REMARK SMILES IDX 21 36 68 37 22 38 73 39 67 40 69 41 23 42 72 43 66 44 65 45
REMARK SMILES IDX 24 47 54 48 35 49 53 50 36 51 39 52 52 53 70 54 37 55 38 56
REMARK SMILES IDX 51 58 71 59 40 60 25 61 26 62 34 63 27 64 33 65 28 66 29 67
REMARK SMILES IDX 30 68 31 69 32 70 55 71 56 72 64 73 57 74 63 75 58 76 59 77
REMARK SMILES IDX 60 78 61 79 62 80 41 81 42 82 50 83 43 84 49 85 44 86 45 87
REMARK SMILES IDX 46 88 47 89 48 90
REMARK H PARENT 8 6 13 27 69 46 39 57
REMARK Flexibility Score: inf
ROOT
ATOM      1  C   UNL A   1      35.584  21.865  24.410  1.00  0.00     0.023 C 
ENDROOT
BRANCH   1   2
ATOM      2  C   UNL A   1      34.809  21.820  25.735  1.00  0.00     0.116 C 
BRANCH   2   3
ATOM      3  N   UNL A   1      33.720  20.873  25.677  1.00  0.00    -0.355 N 
ATOM      4  C   UNL A   1      32.394  20.929  25.404  1.00  0.00     0.239 C 
ATOM      5  O   UNL A   1      31.935  19.789  25.290  1.00  0.00    -0.274 OA
ATOM      6  H   UNL A   1      34.014  19.957  25.888  1.00  0.00     0.163 HD
BRANCH   4   7
ATOM      7  C   UNL A   1      31.552  22.208  25.177  1.00  0.00     0.205 C 
BRANCH   7   8
ATOM      8  C   UNL A   1      31.851  23.183  23.966  1.00  0.00     0.014 C 
ATOM      9  C   UNL A   1      30.577  23.889  23.462  1.00  0.00     0.009 C 
BRANCH   8  10
ATOM     10  C   UNL A   1      32.518  22.480  22.786  1.00  0.00     0.002 C 
ATOM     11  C   UNL A   1      33.233  23.316  21.735  1.00  0.00     0.004 C 
ENDBRANCH   8  10
ENDBRANCH   7   8
BRANCH   7  12
ATOM     12  S   UNL A   1      31.587  23.172  26.762  1.00  0.00     0.190 S 
ATOM     13  O   UNL A   1      30.205  23.394  27.164  1.00  0.00    -0.223 OA
ATOM     14  O   UNL A   1      32.460  22.564  27.747  1.00  0.00    -0.223 OA
BRANCH  12  15
ATOM     15  C   UNL A   1      32.255  24.806  26.390  1.00  0.00     0.068 A 
ATOM     16  C   UNL A   1      31.463  25.953  26.443  1.00  0.00     0.024 A 
ATOM     17  C   UNL A   1      33.600  24.931  26.021  1.00  0.00     0.024 A 
ATOM     18  C   UNL A   1      32.007  27.207  26.161  1.00  0.00     0.048 A 
ATOM     19  C   UNL A   1      34.138  26.193  25.720  1.00  0.00     0.048 A 
ATOM     20  C   UNL A   1      33.341  27.337  25.791  1.00  0.00     0.118 A 
BRANCH  20  21
ATOM     21  O   UNL A   1      33.719  28.620  25.527  1.00  0.00    -0.497 OA
ATOM     22  C   UNL A   1      32.950  29.343  24.580  1.00  0.00     0.278 C 
ENDBRANCH  20  21
ENDBRANCH  12  15
ENDBRANCH   7  12
ENDBRANCH   4   7
ENDBRANCH   2   3
ENDBRANCH   1   2
BRANCH   1  23
ATOM     23  C   UNL A   1      36.242  23.202  24.083  1.00  0.00     0.023 C 
BRANCH  23  24
ATOM     24  C   UNL A   1      37.185  23.716  25.152  1.00  0.00     0.116 C 
BRANCH  24  25
ATOM     25  N   UNL A   1      38.233  22.758  25.481  1.00  0.00    -0.352 N 
ATOM     26  C   UNL A   1      39.402  22.953  26.172  1.00  0.00     0.251 C 
ATOM     27  H   UNL A   1      38.080  21.840  25.161  1.00  0.00     0.163 HD
ATOM     28  O   UNL A   1      40.247  22.063  26.212  1.00  0.00    -0.269 OA
BRANCH  26  29
ATOM     29  C   UNL A   1      39.638  24.249  26.833  1.00  0.00     0.039 A 
ATOM     30  C   UNL A   1      39.171  24.443  28.133  1.00  0.00     0.014 A 
ATOM     31  C   UNL A   1      40.364  25.251  26.182  1.00  0.00     0.014 A 
ATOM     32  C   UNL A   1      39.495  25.621  28.805  1.00  0.00     0.010 A 
ATOM     33  C   UNL A   1      40.776  26.370  26.890  1.00  0.00     0.010 A 
ATOM     34  C   UNL A   1      40.334  26.574  28.203  1.00  0.00    -0.014 A 
BRANCH  34  35
ATOM     35  C   UNL A   1      40.748  27.796  28.931  1.00  0.00     0.031 A 
ATOM     36  C   UNL A   1      42.122  27.880  29.540  1.00  0.00     0.074 A 
ATOM     37  C   UNL A   1      39.869  28.805  29.087  1.00  0.00     0.049 A 
ATOM     38  N   UNL A   1      42.666  28.863  30.208  1.00  0.00    -0.248 NA
ATOM     39  C   UNL A   1      42.986  26.693  29.413  1.00  0.00     0.031 C 
ATOM     40  C   UNL A   1      38.483  28.805  28.605  1.00  0.00     0.029 A 
ATOM     41  N   UNL A   1      40.010  30.029  29.688  1.00  0.00    -0.354 N 
ATOM     42  C   UNL A   1      43.922  28.408  30.590  1.00  0.00     0.074 A 
ATOM     43  C   UNL A   1      44.036  27.040  30.140  1.00  0.00     0.031 C 
ATOM     44  C   UNL A   1      37.921  29.990  28.888  1.00  0.00     0.029 A 
ATOM     45  C   UNL A   1      38.889  30.819  29.598  1.00  0.00     0.049 A 
ATOM     46  H   UNL A   1      40.836  30.314  30.141  1.00  0.00     0.167 HD
ATOM     47  C   UNL A   1      44.907  29.079  31.233  1.00  0.00     0.031 A 
ATOM     48  C   UNL A   1      38.670  32.077  30.028  1.00  0.00     0.031 A 
ATOM     49  C   UNL A   1      44.796  30.447  31.658  1.00  0.00     0.049 A 
ATOM     50  C   UNL A   1      39.788  32.814  30.711  1.00  0.00     0.074 A 
ATOM     51  C   UNL A   1      45.755  31.246  32.255  1.00  0.00     0.029 A 
ATOM     52  N   UNL A   1      43.652  31.221  31.529  1.00  0.00    -0.354 N 
ATOM     53  N   UNL A   1      41.001  32.396  30.987  1.00  0.00    -0.248 NA
ATOM     54  C   UNL A   1      39.515  34.196  31.123  1.00  0.00     0.031 C 
ATOM     55  C   UNL A   1      45.176  32.489  32.529  1.00  0.00     0.029 A 
ATOM     56  C   UNL A   1      43.873  32.483  32.054  1.00  0.00     0.049 A 
ATOM     57  H   UNL A   1      42.806  30.918  31.125  1.00  0.00     0.167 HD
ATOM     58  C   UNL A   1      41.643  33.472  31.590  1.00  0.00     0.074 A 
ATOM     59  C   UNL A   1      40.691  34.564  31.615  1.00  0.00     0.031 C 
ATOM     60  C   UNL A   1      42.906  33.551  32.078  1.00  0.00     0.031 A 
BRANCH  47  61
ATOM     61  C   UNL A   1      46.189  28.337  31.505  1.00  0.00    -0.014 A 
ATOM     62  C   UNL A   1      47.252  28.360  30.582  1.00  0.00     0.010 A 
ATOM     63  C   UNL A   1      46.345  27.624  32.708  1.00  0.00     0.010 A 
ATOM     64  C   UNL A   1      48.426  27.647  30.834  1.00  0.00     0.020 A 
ATOM     65  C   UNL A   1      47.530  26.934  32.978  1.00  0.00     0.020 A 
ATOM     66  C   UNL A   1      48.556  26.935  32.030  1.00  0.00     0.054 A 
BRANCH  66  67
ATOM     67  S   UNL A   1      50.100  26.034  32.339  1.00  0.00     0.124 S 
ATOM     68  O   UNL A   1      50.126  25.974  33.799  1.00  0.00    -0.237 OA
ATOM     69  O   UNL A   1      49.870  24.762  31.662  1.00  0.00    -0.237 OA
ATOM     70  O   UNL A   1      51.123  26.884  31.733  1.00  0.00    -0.744 OA
ENDBRANCH  66  67
ENDBRANCH  47  61
BRANCH  48  71
ATOM     71  C   UNL A   1      37.353  32.725  29.787  1.00  0.00    -0.014 A 
ATOM     72  C   UNL A   1      36.295  32.553  30.697  1.00  0.00     0.010 A 
ATOM     73  C   UNL A   1      37.157  33.540  28.658  1.00  0.00     0.010 A 
ATOM     74  C   UNL A   1      35.061  33.171  30.475  1.00  0.00     0.020 A 
ATOM     75  C   UNL A   1      35.932  34.181  28.446  1.00  0.00     0.020 A 
ATOM     76  C   UNL A   1      34.888  33.984  29.351  1.00  0.00     0.054 A 
BRANCH  76  77
ATOM     77  S   UNL A   1      33.297  34.822  29.114  1.00  0.00     0.124 S 
ATOM     78  O   UNL A   1      32.619  33.929  28.180  1.00  0.00    -0.237 OA
ATOM     79  O   UNL A   1      32.752  34.854  30.469  1.00  0.00    -0.237 OA
ATOM     80  O   UNL A   1      33.677  36.126  28.574  1.00  0.00    -0.744 OA
ENDBRANCH  76  77
ENDBRANCH  48  71
BRANCH  60  81
ATOM     81  C   UNL A   1      43.332  34.868  32.666  1.00  0.00    -0.014 A 
ATOM     82  C   UNL A   1      43.788  35.915  31.846  1.00  0.00     0.010 A 
ATOM     83  C   UNL A   1      43.238  35.072  34.054  1.00  0.00     0.010 A 
ATOM     84  C   UNL A   1      44.181  37.130  32.409  1.00  0.00     0.020 A 
ATOM     85  C   UNL A   1      43.602  36.296  34.618  1.00  0.00     0.020 A 
ATOM     86  C   UNL A   1      44.088  37.313  33.793  1.00  0.00     0.054 A 
BRANCH  86  87
ATOM     87  S   UNL A   1      44.577  38.909  34.499  1.00  0.00     0.124 S 
ATOM     88  O   UNL A   1      44.076  38.802  35.866  1.00  0.00    -0.237 OA
ATOM     89  O   UNL A   1      46.031  38.890  34.359  1.00  0.00    -0.237 OA
ATOM     90  O   UNL A   1      43.889  39.885  33.657  1.00  0.00    -0.744 OA
ENDBRANCH  86  87
ENDBRANCH  60  81
ENDBRANCH  34  35
ENDBRANCH  26  29
ENDBRANCH  24  25
ENDBRANCH  23  24
ENDBRANCH   1  23
TORSDOF 19
ENDMDL
MODEL 2
REMARK VINA RESULT:      -9.8      3.982      5.153
REMARK SMILES CC[C@@H](C)[C@@H](C(=O)NCCCCNC(=O)c1ccc(-c2c3nc(c(-c4ccc(S(=O)(=O)[O-])cc4)c4ccc([nH]4)c(-c4ccc(S(=O)(=O)[O-])cc4)c4nc(c(-c5ccc(S(=O)(=O)[O-])cc5)c5ccc2[nH]5)C=C4)C=C3)cc1)S(=O)(=O)c1ccc(OC)cc1
REMARK SMILES IDX 10 1 9 2 8 3 6 4 7 5 5 7 3 8 4 9 2 10 1 11 76 12 77 13 78 14
REMARK SMILES IDX 79 15 80 16 86 17 81 18 85 19 82 20 83 21 84 22 11 23 12 24
REMARK SMILES IDX 13 25 14 26 15 28 16 29 17 30 75 31 18 32 74 33 19 34 20 35
REMARK SMILES IDX 21 36 68 37 22 38 73 39 67 40 69 41 23 42 72 43 66 44 65 45
REMARK SMILES IDX 24 47 54 48 35 49 53 50 36 51 39 52 52 53 70 54 37 55 38 56
REMARK SMILES IDX 51 58 71 59 40 60 25 61 26 62 34 63 27 64 33 65 28 66 29 67
REMARK SMILES IDX 30 68 31 69 32 70 55 71 56 72 64 73 57 74 63 75 58 76 59 77
REMARK SMILES IDX 60 78 61 79 62 80 41 81 42 82 50 83 43 84 49 85 44 86 45 87
REMARK SMILES IDX 46 88 47 89 48 90
REMARK H PARENT 8 6 13 27 69 46 39 57
REMARK Flexibility Score: inf
ROOT
ATOM      1  C   UNL A   1      37.439  20.265  24.961  1.00  0.00     0.023 C 
ENDROOT
BRANCH   1   2
ATOM      2  C   UNL A   1      35.964  20.671  24.825  1.00  0.00     0.116 C 
BRANCH   2   3
ATOM      3  N   UNL A   1      35.413  21.090  26.093  1.00  0.00    -0.355 N 
ATOM      4  C   UNL A   1      34.423  21.922  26.497  1.00  0.00     0.239 C 
ATOM      5  O   UNL A   1      34.213  21.778  27.704  1.00  0.00    -0.274 OA
ATOM      6  H   UNL A   1      35.871  20.665  26.854  1.00  0.00     0.163 HD
BRANCH   4   7
ATOM      7  C   UNL A   1      33.590  22.870  25.599  1.00  0.00     0.205 C 
BRANCH   7   8
ATOM      8  C   UNL A   1      32.522  22.304  24.577  1.00  0.00     0.014 C 
ATOM      9  C   UNL A   1      31.252  23.176  24.523  1.00  0.00     0.009 C 
BRANCH   8  10
ATOM     10  C   UNL A   1      32.113  20.865  24.879  1.00  0.00     0.002 C 
ATOM     11  C   UNL A   1      32.550  19.757  23.931  1.00  0.00     0.004 C 
ENDBRANCH   8  10
ENDBRANCH   7   8
BRANCH   7  12
ATOM     12  S   UNL A   1      34.791  23.956  24.693  1.00  0.00     0.190 S 
ATOM     13  O   UNL A   1      35.989  24.057  25.515  1.00  0.00    -0.223 OA
ATOM     14  O   UNL A   1      34.980  23.527  23.320  1.00  0.00    -0.223 OA
BRANCH  12  15
ATOM     15  C   UNL A   1      34.092  25.618  24.644  1.00  0.00     0.068 A 
ATOM     16  C   UNL A   1      33.837  26.342  25.809  1.00  0.00     0.024 A 
ATOM     17  C   UNL A   1      33.778  26.195  23.407  1.00  0.00     0.024 A 
ATOM     18  C   UNL A   1      33.305  27.630  25.743  1.00  0.00     0.048 A 
ATOM     19  C   UNL A   1      33.226  27.486  23.348  1.00  0.00     0.048 A 
ATOM     20  C   UNL A   1      32.989  28.208  24.518  1.00  0.00     0.118 A 
BRANCH  20  21
ATOM     21  O   UNL A   1      32.459  29.461  24.618  1.00  0.00    -0.497 OA
ATOM     22  C   UNL A   1      32.178  29.946  25.921  1.00  0.00     0.278 C 
ENDBRANCH  20  21
ENDBRANCH  12  15
ENDBRANCH   7  12
ENDBRANCH   4   7
ENDBRANCH   2   3
ENDBRANCH   1   2
BRANCH   1  23
ATOM     23  C   UNL A   1      38.406  21.405  25.261  1.00  0.00     0.023 C 
BRANCH  23  24
ATOM     24  C   UNL A   1      39.354  21.137  26.412  1.00  0.00     0.116 C 
BRANCH  24  25
ATOM     25  N   UNL A   1      40.296  20.063  26.123  1.00  0.00    -0.352 N 
ATOM     26  C   UNL A   1      41.657  20.119  25.969  1.00  0.00     0.251 C 
ATOM     27  H   UNL A   1      39.896  19.168  26.025  1.00  0.00     0.163 HD
ATOM     28  O   UNL A   1      42.270  19.135  25.565  1.00  0.00    -0.269 OA
BRANCH  26  29
ATOM     29  C   UNL A   1      42.362  21.379  26.264  1.00  0.00     0.039 A 
ATOM     30  C   UNL A   1      42.582  22.292  25.234  1.00  0.00     0.014 A 
ATOM     31  C   UNL A   1      42.758  21.675  27.572  1.00  0.00     0.014 A 
ATOM     32  C   UNL A   1      43.141  23.535  25.531  1.00  0.00     0.010 A 
ATOM     33  C   UNL A   1      43.210  22.950  27.881  1.00  0.00     0.010 A 
ATOM     34  C   UNL A   1      43.420  23.887  26.862  1.00  0.00    -0.014 A 
BRANCH  34  35
ATOM     35  C   UNL A   1      43.943  25.231  27.203  1.00  0.00     0.031 A 
ATOM     36  C   UNL A   1      45.394  25.556  26.970  1.00  0.00     0.074 A 
ATOM     37  C   UNL A   1      43.122  26.137  27.770  1.00  0.00     0.049 A 
ATOM     38  N   UNL A   1      46.032  26.673  27.200  1.00  0.00    -0.248 NA
ATOM     39  C   UNL A   1      46.246  24.477  26.442  1.00  0.00     0.031 C 
ATOM     40  C   UNL A   1      41.714  25.909  28.114  1.00  0.00     0.029 A 
ATOM     41  N   UNL A   1      43.349  27.433  28.153  1.00  0.00    -0.354 N 
ATOM     42  C   UNL A   1      47.357  26.425  26.861  1.00  0.00     0.074 A 
ATOM     43  C   UNL A   1      47.446  25.037  26.473  1.00  0.00     0.031 C 
ATOM     44  C   UNL A   1      41.194  27.042  28.610  1.00  0.00     0.029 A 
ATOM     45  C   UNL A   1      42.234  28.064  28.652  1.00  0.00     0.049 A 
ATOM     46  H   UNL A   1      44.227  27.871  28.077  1.00  0.00     0.167 HD
ATOM     47  C   UNL A   1      48.403  27.286  26.844  1.00  0.00     0.031 A 
ATOM     48  C   UNL A   1      42.067  29.328  29.084  1.00  0.00     0.031 A 
ATOM     49  C   UNL A   1      48.303  28.672  27.209  1.00  0.00     0.049 A 
ATOM     50  C   UNL A   1      43.233  30.275  29.026  1.00  0.00     0.074 A 
ATOM     51  C   UNL A   1      49.281  29.648  27.162  1.00  0.00     0.029 A 
ATOM     52  N   UNL A   1      47.151  29.279  27.689  1.00  0.00    -0.354 N 
ATOM     53  N   UNL A   1      44.460  30.045  28.620  1.00  0.00    -0.248 NA
ATOM     54  C   UNL A   1      42.989  31.654  29.467  1.00  0.00     0.031 C 
ATOM     55  C   UNL A   1      48.734  30.836  27.657  1.00  0.00     0.029 A 
ATOM     56  C   UNL A   1      47.399  30.612  27.962  1.00  0.00     0.049 A 
ATOM     57  H   UNL A   1      46.286  28.827  27.817  1.00  0.00     0.167 HD
ATOM     58  C   UNL A   1      45.130  31.257  28.738  1.00  0.00     0.074 A 
ATOM     59  C   UNL A   1      44.166  32.220  29.232  1.00  0.00     0.031 C 
ATOM     60  C   UNL A   1      46.426  31.549  28.464  1.00  0.00     0.031 A 
BRANCH  47  61
ATOM     61  C   UNL A   1      49.739  26.744  26.408  1.00  0.00    -0.014 A 
ATOM     62  C   UNL A   1      50.589  26.090  27.319  1.00  0.00     0.010 A 
ATOM     63  C   UNL A   1      50.143  26.871  25.067  1.00  0.00     0.010 A 
ATOM     64  C   UNL A   1      51.837  25.614  26.910  1.00  0.00     0.020 A 
ATOM     65  C   UNL A   1      51.379  26.370  24.646  1.00  0.00     0.020 A 
ATOM     66  C   UNL A   1      52.226  25.761  25.575  1.00  0.00     0.054 A 
BRANCH  66  67
ATOM     67  S   UNL A   1      53.843  25.116  25.067  1.00  0.00     0.124 S 
ATOM     68  O   UNL A   1      54.663  25.404  26.240  1.00  0.00    -0.237 OA
ATOM     69  O   UNL A   1      53.564  23.703  24.827  1.00  0.00    -0.237 OA
ATOM     70  O   UNL A   1      54.166  25.896  23.873  1.00  0.00    -0.744 OA
ENDBRANCH  66  67
ENDBRANCH  47  61
BRANCH  48  71
ATOM     71  C   UNL A   1      40.733  29.777  29.568  1.00  0.00    -0.014 A 
ATOM     72  C   UNL A   1      39.703  30.065  28.656  1.00  0.00     0.010 A 
ATOM     73  C   UNL A   1      40.478  29.894  30.946  1.00  0.00     0.010 A 
ATOM     74  C   UNL A   1      38.447  30.477  29.111  1.00  0.00     0.020 A 
ATOM     75  C   UNL A   1      39.215  30.281  31.406  1.00  0.00     0.020 A 
ATOM     76  C   UNL A   1      38.210  30.580  30.485  1.00  0.00     0.054 A 
BRANCH  76  77
ATOM     77  S   UNL A   1      36.556  31.059  31.055  1.00  0.00     0.124 S 
ATOM     78  O   UNL A   1      35.826  31.186  29.798  1.00  0.00    -0.237 OA
ATOM     79  O   UNL A   1      36.173  29.930  31.899  1.00  0.00    -0.237 OA
ATOM     80  O   UNL A   1      36.793  32.310  31.773  1.00  0.00    -0.744 OA
ENDBRANCH  76  77
ENDBRANCH  48  71
BRANCH  60  81
ATOM     81  C   UNL A   1      46.868  32.971  28.677  1.00  0.00    -0.014 A 
ATOM     82  C   UNL A   1      47.414  33.385  29.905  1.00  0.00     0.010 A 
ATOM     83  C   UNL A   1      46.772  33.894  27.620  1.00  0.00     0.010 A 
ATOM     84  C   UNL A   1      47.818  34.709  30.085  1.00  0.00     0.020 A 
ATOM     85  C   UNL A   1      47.202  35.211  27.787  1.00  0.00     0.020 A 
ATOM     86  C   UNL A   1      47.707  35.615  29.025  1.00  0.00     0.054 A 
BRANCH  86  87
ATOM     87  S   UNL A   1      48.265  37.322  29.273  1.00  0.00     0.124 S 
ATOM     88  O   UNL A   1      47.000  38.049  29.332  1.00  0.00    -0.237 OA
ATOM     89  O   UNL A   1      49.002  37.239  30.532  1.00  0.00    -0.237 OA
ATOM     90  O   UNL A   1      49.086  37.592  28.095  1.00  0.00    -0.744 OA
ENDBRANCH  86  87
ENDBRANCH  60  81
ENDBRANCH  34  35
ENDBRANCH  26  29
ENDBRANCH  24  25
ENDBRANCH  23  24
ENDBRANCH   1  23
TORSDOF 19
ENDMDL
MODEL 3
REMARK VINA RESULT:      -9.6      2.318      2.998
REMARK SMILES CC[C@@H](C)[C@@H](C(=O)NCCCCNC(=O)c1ccc(-c2c3nc(c(-c4ccc(S(=O)(=O)[O-])cc4)c4ccc([nH]4)c(-c4ccc(S(=O)(=O)[O-])cc4)c4nc(c(-c5ccc(S(=O)(=O)[O-])cc5)c5ccc2[nH]5)C=C4)C=C3)cc1)S(=O)(=O)c1ccc(OC)cc1
REMARK SMILES IDX 10 1 9 2 8 3 6 4 7 5 5 7 3 8 4 9 2 10 1 11 76 12 77 13 78 14
REMARK SMILES IDX 79 15 80 16 86 17 81 18 85 19 82 20 83 21 84 22 11 23 12 24
REMARK SMILES IDX 13 25 14 26 15 28 16 29 17 30 75 31 18 32 74 33 19 34 20 35
REMARK SMILES IDX 21 36 68 37 22 38 73 39 67 40 69 41 23 42 72 43 66 44 65 45
REMARK SMILES IDX 24 47 54 48 35 49 53 50 36 51 39 52 52 53 70 54 37 55 38 56
REMARK SMILES IDX 51 58 71 59 40 60 25 61 26 62 34 63 27 64 33 65 28 66 29 67
REMARK SMILES IDX 30 68 31 69 32 70 55 71 56 72 64 73 57 74 63 75 58 76 59 77
REMARK SMILES IDX 60 78 61 79 62 80 41 81 42 82 50 83 43 84 49 85 44 86 45 87
REMARK SMILES IDX 46 88 47 89 48 90
REMARK H PARENT 8 6 13 27 69 46 39 57
REMARK Flexibility Score: inf
ROOT
ATOM      1  C   UNL A   1      35.641  21.994  24.769  1.00  0.00     0.023 C 
ENDROOT
BRANCH   1   2
ATOM      2  C   UNL A   1      34.822  21.846  26.060  1.00  0.00     0.116 C 
BRANCH   2   3
ATOM      3  N   UNL A   1      33.759  20.880  25.903  1.00  0.00    -0.355 N 
ATOM      4  C   UNL A   1      32.462  20.915  25.514  1.00  0.00     0.239 C 
ATOM      5  O   UNL A   1      32.035  19.768  25.356  1.00  0.00    -0.274 OA
ATOM      6  H   UNL A   1      34.050  19.969  26.136  1.00  0.00     0.163 HD
BRANCH   4   7
ATOM      7  C   UNL A   1      31.620  22.181  25.218  1.00  0.00     0.205 C 
BRANCH   7   8
ATOM      8  C   UNL A   1      31.947  23.111  23.980  1.00  0.00     0.014 C 
ATOM      9  C   UNL A   1      30.676  23.740  23.375  1.00  0.00     0.009 C 
BRANCH   8  10
ATOM     10  C   UNL A   1      32.705  22.385  22.872  1.00  0.00     0.002 C 
ATOM     11  C   UNL A   1      31.979  21.333  22.045  1.00  0.00     0.004 C 
ENDBRANCH   8  10
ENDBRANCH   7   8
BRANCH   7  12
ATOM     12  S   UNL A   1      31.610  23.202  26.766  1.00  0.00     0.190 S 
ATOM     13  O   UNL A   1      30.220  23.354  27.175  1.00  0.00    -0.223 OA
ATOM     14  O   UNL A   1      32.527  22.685  27.763  1.00  0.00    -0.223 OA
BRANCH  12  15
ATOM     15  C   UNL A   1      32.173  24.859  26.328  1.00  0.00     0.068 A 
ATOM     16  C   UNL A   1      31.293  25.939  26.255  1.00  0.00     0.024 A 
ATOM     17  C   UNL A   1      33.526  25.070  26.037  1.00  0.00     0.024 A 
ATOM     18  C   UNL A   1      31.755  27.213  25.924  1.00  0.00     0.048 A 
ATOM     19  C   UNL A   1      33.984  26.352  25.686  1.00  0.00     0.048 A 
ATOM     20  C   UNL A   1      33.097  27.428  25.630  1.00  0.00     0.118 A 
BRANCH  20  21
ATOM     21  O   UNL A   1      33.392  28.720  25.305  1.00  0.00    -0.497 OA
ATOM     22  C   UNL A   1      33.284  29.690  26.334  1.00  0.00     0.278 C 
ENDBRANCH  20  21
ENDBRANCH  12  15
ENDBRANCH   7  12
ENDBRANCH   4   7
ENDBRANCH   2   3
ENDBRANCH   1   2
BRANCH   1  23
ATOM     23  C   UNL A   1      36.412  23.303  24.630  1.00  0.00     0.023 C 
BRANCH  23  24
ATOM     24  C   UNL A   1      37.424  23.555  25.729  1.00  0.00     0.116 C 
BRANCH  24  25
ATOM     25  N   UNL A   1      38.170  22.355  26.088  1.00  0.00    -0.352 N 
ATOM     26  C   UNL A   1      39.458  22.238  26.546  1.00  0.00     0.251 C 
ATOM     27  H   UNL A   1      37.679  21.508  25.988  1.00  0.00     0.163 HD
ATOM     28  O   UNL A   1      39.976  21.129  26.641  1.00  0.00    -0.269 OA
BRANCH  26  29
ATOM     29  C   UNL A   1      40.213  23.457  26.888  1.00  0.00     0.039 A 
ATOM     30  C   UNL A   1      40.156  24.555  26.030  1.00  0.00     0.014 A 
ATOM     31  C   UNL A   1      40.934  23.527  28.083  1.00  0.00     0.014 A 
ATOM     32  C   UNL A   1      40.769  25.748  26.408  1.00  0.00     0.010 A 
ATOM     33  C   UNL A   1      41.447  24.744  28.506  1.00  0.00     0.010 A 
ATOM     34  C   UNL A   1      41.383  25.863  27.666  1.00  0.00    -0.014 A 
BRANCH  34  35
ATOM     35  C   UNL A   1      41.974  27.146  28.114  1.00  0.00     0.031 A 
ATOM     36  C   UNL A   1      43.463  27.354  28.047  1.00  0.00     0.074 A 
ATOM     37  C   UNL A   1      41.173  28.100  28.629  1.00  0.00     0.049 A 
ATOM     38  N   UNL A   1      44.163  28.404  28.387  1.00  0.00    -0.248 NA
ATOM     39  C   UNL A   1      44.277  26.223  27.567  1.00  0.00     0.031 C 
ATOM     40  C   UNL A   1      39.723  27.982  28.814  1.00  0.00     0.029 A 
ATOM     41  N   UNL A   1      41.463  29.360  29.085  1.00  0.00    -0.354 N 
ATOM     42  C   UNL A   1      45.491  28.056  28.178  1.00  0.00     0.074 A 
ATOM     43  C   UNL A   1      45.508  26.677  27.746  1.00  0.00     0.031 C 
ATOM     44  C   UNL A   1      39.247  29.139  29.299  1.00  0.00     0.029 A 
ATOM     45  C   UNL A   1      40.356  30.066  29.490  1.00  0.00     0.049 A 
ATOM     46  H   UNL A   1      42.377  29.723  29.119  1.00  0.00     0.167 HD
ATOM     47  C   UNL A   1      46.599  28.824  28.305  1.00  0.00     0.031 A 
ATOM     48  C   UNL A   1      40.246  31.327  29.953  1.00  0.00     0.031 A 
ATOM     49  C   UNL A   1      46.573  30.201  28.713  1.00  0.00     0.049 A 
ATOM     50  C   UNL A   1      41.485  32.172  30.055  1.00  0.00     0.074 A 
ATOM     51  C   UNL A   1      47.628  31.092  28.808  1.00  0.00     0.029 A 
ATOM     52  N   UNL A   1      45.430  30.889  29.095  1.00  0.00    -0.354 N 
ATOM     53  N   UNL A   1      42.726  31.851  29.770  1.00  0.00    -0.248 NA
ATOM     54  C   UNL A   1      41.308  33.552  30.524  1.00  0.00     0.031 C 
ATOM     55  C   UNL A   1      47.128  32.306  29.291  1.00  0.00     0.029 A 
ATOM     56  C   UNL A   1      45.755  32.187  29.446  1.00  0.00     0.049 A 
ATOM     57  H   UNL A   1      44.522  30.509  29.114  1.00  0.00     0.167 HD
ATOM     58  C   UNL A   1      43.476  32.998  30.007  1.00  0.00     0.074 A 
ATOM     59  C   UNL A   1      42.545  34.023  30.436  1.00  0.00     0.031 C 
ATOM     60  C   UNL A   1      44.812  33.187  29.881  1.00  0.00     0.031 A 
BRANCH  47  61
ATOM     61  C   UNL A   1      47.926  28.185  27.990  1.00  0.00    -0.014 A 
ATOM     62  C   UNL A   1      48.705  27.593  29.001  1.00  0.00     0.010 A 
ATOM     63  C   UNL A   1      48.393  28.156  26.663  1.00  0.00     0.010 A 
ATOM     64  C   UNL A   1      49.946  27.026  28.701  1.00  0.00     0.020 A 
ATOM     65  C   UNL A   1      49.620  27.562  26.353  1.00  0.00     0.020 A 
ATOM     66  C   UNL A   1      50.397  27.017  27.378  1.00  0.00     0.054 A 
BRANCH  66  67
ATOM     67  S   UNL A   1      52.003  26.256  27.014  1.00  0.00     0.124 S 
ATOM     68  O   UNL A   1      52.508  27.116  25.947  1.00  0.00    -0.237 OA
ATOM     69  O   UNL A   1      52.704  26.362  28.290  1.00  0.00    -0.237 OA
ATOM     70  O   UNL A   1      51.656  24.896  26.607  1.00  0.00    -0.744 OA
ENDBRANCH  66  67
ENDBRANCH  47  61
BRANCH  48  71
ATOM     71  C   UNL A   1      38.910  31.871  30.313  1.00  0.00    -0.014 A 
ATOM     72  C   UNL A   1      38.103  32.486  29.338  1.00  0.00     0.010 A 
ATOM     73  C   UNL A   1      38.424  31.757  31.628  1.00  0.00     0.010 A 
ATOM     74  C   UNL A   1      36.843  32.988  29.675  1.00  0.00     0.020 A 
ATOM     75  C   UNL A   1      37.153  32.235  31.963  1.00  0.00     0.020 A 
ATOM     76  C   UNL A   1      36.374  32.858  30.986  1.00  0.00     0.054 A 
BRANCH  76  77
ATOM     77  S   UNL A   1      34.713  33.465  31.386  1.00  0.00     0.124 S 
ATOM     78  O   UNL A   1      34.174  32.371  32.188  1.00  0.00    -0.237 OA
ATOM     79  O   UNL A   1      34.994  34.702  32.110  1.00  0.00    -0.237 OA
ATOM     80  O   UNL A   1      34.092  33.648  30.075  1.00  0.00    -0.744 OA
ENDBRANCH  76  77
ENDBRANCH  48  71
BRANCH  60  81
ATOM     81  C   UNL A   1      45.344  34.559  30.197  1.00  0.00    -0.014 A 
ATOM     82  C   UNL A   1      45.778  34.888  31.492  1.00  0.00     0.010 A 
ATOM     83  C   UNL A   1      45.445  35.516  29.172  1.00  0.00     0.010 A 
ATOM     84  C   UNL A   1      46.267  36.167  31.767  1.00  0.00     0.020 A 
ATOM     85  C   UNL A   1      45.960  36.786  29.436  1.00  0.00     0.020 A 
ATOM     86  C   UNL A   1      46.353  37.109  30.737  1.00  0.00     0.054 A 
BRANCH  86  87
ATOM     87  S   UNL A   1      47.018  38.754  31.111  1.00  0.00     0.124 S 
ATOM     88  O   UNL A   1      46.112  39.623  30.364  1.00  0.00    -0.237 OA
ATOM     89  O   UNL A   1      46.900  38.825  32.565  1.00  0.00    -0.237 OA
ATOM     90  O   UNL A   1      48.387  38.697  30.605  1.00  0.00    -0.744 OA
ENDBRANCH  86  87
ENDBRANCH  60  81
ENDBRANCH  34  35
ENDBRANCH  26  29
ENDBRANCH  24  25
ENDBRANCH  23  24
ENDBRANCH   1  23
TORSDOF 19
ENDMDL
