MODEL 1
REMARK VINA RESULT:     -11.6      0.000      0.000
REMARK SMILES COc1ccc(/C=N/Nc2cccc(C(=O)NCCCCNC(=O)c3ccc(-c4c5nc(c(-c6ccc(S(=O)(=O)[O-])cc6)c6ccc([nH]6)c(-c6ccc(S(=O)(=O)[O-])cc6)c6nc(c(-c7ccc(S(=O)(=O)[O-])cc7)c7ccc4[nH]7)C=C6)C=C5)cc3)c2)cc1O
REMARK SMILES IDX 19 1 18 2 17 3 15 4 16 5 14 7 10 8 11 9 85 10 12 11 13 12
REMARK SMILES IDX 9 13 8 15 7 16 6 17 3 18 4 19 87 20 5 21 86 22 2 23 1 24
REMARK SMILES IDX 88 25 20 27 21 28 22 29 23 30 24 32 25 33 26 34 84 35 27 36
REMARK SMILES IDX 83 37 28 38 29 39 30 40 77 41 31 42 82 43 76 44 78 45 32 46
REMARK SMILES IDX 81 47 75 48 74 49 33 51 63 52 44 53 62 54 45 55 48 56 61 57
REMARK SMILES IDX 79 58 46 59 47 60 60 62 80 63 49 64 34 65 35 66 43 67 36 68
REMARK SMILES IDX 42 69 37 70 38 71 39 72 40 73 41 74 64 75 65 76 73 77 66 78
REMARK SMILES IDX 72 79 67 80 68 81 69 82 70 83 71 84 50 85 51 86 59 87 52 88
REMARK SMILES IDX 58 89 53 90 54 91 55 92 56 93 57 94
REMARK H PARENT 17 6 9 14 88 26 22 31 78 50 48 61
REMARK Flexibility Score: inf
ROOT
ATOM      1  C   UNL A   1      32.646  29.339  24.970  1.00  0.00     0.023 C 
ENDROOT
BRANCH   1   2
ATOM      2  C   UNL A   1      31.213  29.877  25.015  1.00  0.00     0.116 C 
BRANCH   2   3
ATOM      3  N   UNL A   1      30.665  30.001  23.678  1.00  0.00    -0.352 N 
ATOM      4  C   UNL A   1      30.341  29.070  22.723  1.00  0.00     0.251 C 
ATOM      5  O   UNL A   1      29.854  29.488  21.671  1.00  0.00    -0.269 OA
ATOM      6  H   UNL A   1      30.495  30.931  23.403  1.00  0.00     0.163 HD
BRANCH   4   7
ATOM      7  C   UNL A   1      30.492  27.596  22.908  1.00  0.00     0.041 A 
ATOM      8  C   UNL A   1      31.481  25.412  22.422  1.00  0.00     0.057 A 
ATOM      9  C   UNL A   1      30.730  24.850  23.459  1.00  0.00     0.028 A 
ATOM     10  C   UNL A   1      31.307  26.771  22.130  1.00  0.00     0.041 A 
ATOM     11  C   UNL A   1      29.856  25.638  24.207  1.00  0.00     0.003 A 
ATOM     12  C   UNL A   1      29.751  27.005  23.942  1.00  0.00     0.014 A 
BRANCH   8  13
ATOM     13  N   UNL A   1      32.480  24.636  21.798  1.00  0.00    -0.278 N 
ATOM     14  H   UNL A   1      32.778  24.908  20.900  1.00  0.00     0.190 HD
BRANCH  13  15
ATOM     15  N   UNL A   1      33.059  23.536  22.357  1.00  0.00    -0.183 NA
ATOM     16  C   UNL A   1      32.245  22.574  22.673  1.00  0.00     0.141 C 
BRANCH  16  17
ATOM     17  C   UNL A   1      32.702  21.292  23.241  1.00  0.00    -0.002 A 
ATOM     18  C   UNL A   1      33.524  18.897  24.486  1.00  0.00     0.160 A 
ATOM     19  C   UNL A   1      32.543  18.905  23.477  1.00  0.00     0.051 A 
ATOM     20  C   UNL A   1      34.105  20.117  24.843  1.00  0.00     0.158 A 
ATOM     21  C   UNL A   1      32.133  20.086  22.851  1.00  0.00     0.014 A 
ATOM     22  C   UNL A   1      33.690  21.308  24.228  1.00  0.00     0.060 A 
BRANCH  18  23
ATOM     23  O   UNL A   1      33.723  17.637  24.967  1.00  0.00    -0.493 OA
ATOM     24  C   UNL A   1      33.552  16.490  24.158  1.00  0.00     0.278 C 
ENDBRANCH  18  23
BRANCH  20  25
ATOM     25  O   UNL A   1      35.074  20.311  25.784  1.00  0.00    -0.504 OA
ATOM     26  H   UNL A   1      35.026  19.862  26.606  1.00  0.00     0.293 HD
ENDBRANCH  20  25
ENDBRANCH  16  17
ENDBRANCH  13  15
ENDBRANCH   8  13
ENDBRANCH   4   7
ENDBRANCH   2   3
ENDBRANCH   1   2
BRANCH   1  27
ATOM     27  C   UNL A   1      32.899  28.157  25.907  1.00  0.00     0.023 C 
BRANCH  27  28
ATOM     28  C   UNL A   1      33.607  28.516  27.208  1.00  0.00     0.116 C 
BRANCH  28  29
ATOM     29  N   UNL A   1      33.554  29.935  27.528  1.00  0.00    -0.352 N 
ATOM     30  C   UNL A   1      34.540  30.713  28.087  1.00  0.00     0.251 C 
ATOM     31  H   UNL A   1      32.708  30.394  27.320  1.00  0.00     0.163 HD
ATOM     32  O   UNL A   1      34.321  31.883  28.384  1.00  0.00    -0.269 OA
BRANCH  30  33
ATOM     33  C   UNL A   1      35.861  30.110  28.359  1.00  0.00     0.039 A 
ATOM     34  C   UNL A   1      36.847  30.175  27.373  1.00  0.00     0.014 A 
ATOM     35  C   UNL A   1      36.133  29.526  29.599  1.00  0.00     0.014 A 
ATOM     36  C   UNL A   1      38.133  29.710  27.658  1.00  0.00     0.010 A 
ATOM     37  C   UNL A   1      37.430  29.130  29.903  1.00  0.00     0.010 A 
ATOM     38  C   UNL A   1      38.443  29.218  28.936  1.00  0.00    -0.014 A 
BRANCH  38  39
ATOM     39  C   UNL A   1      39.825  28.804  29.283  1.00  0.00     0.031 A 
ATOM     40  C   UNL A   1      40.752  29.763  29.975  1.00  0.00     0.074 A 
ATOM     41  C   UNL A   1      40.267  27.588  28.907  1.00  0.00     0.049 A 
ATOM     42  N   UNL A   1      42.001  29.595  30.325  1.00  0.00    -0.248 NA
ATOM     43  C   UNL A   1      40.215  31.098  30.286  1.00  0.00     0.031 C 
ATOM     44  C   UNL A   1      39.484  26.590  28.174  1.00  0.00     0.029 A 
ATOM     45  N   UNL A   1      41.489  26.988  29.082  1.00  0.00    -0.354 N 
ATOM     46  C   UNL A   1      42.406  30.805  30.875  1.00  0.00     0.074 A 
ATOM     47  C   UNL A   1      41.285  31.712  30.769  1.00  0.00     0.031 C 
ATOM     48  C   UNL A   1      40.237  25.496  27.983  1.00  0.00     0.029 A 
ATOM     49  C   UNL A   1      41.563  25.724  28.550  1.00  0.00     0.049 A 
ATOM     50  H   UNL A   1      42.241  27.422  29.546  1.00  0.00     0.167 HD
ATOM     51  C   UNL A   1      43.598  31.126  31.434  1.00  0.00     0.031 A 
ATOM     52  C   UNL A   1      42.582  24.844  28.518  1.00  0.00     0.031 A 
ATOM     53  C   UNL A   1      44.706  30.216  31.549  1.00  0.00     0.049 A 
ATOM     54  C   UNL A   1      43.886  25.208  29.170  1.00  0.00     0.074 A 
ATOM     55  C   UNL A   1      45.927  30.419  32.168  1.00  0.00     0.029 A 
ATOM     56  N   UNL A   1      44.731  28.931  31.026  1.00  0.00    -0.354 N 
ATOM     57  N   UNL A   1      44.221  26.327  29.768  1.00  0.00    -0.248 NA
ATOM     58  C   UNL A   1      44.942  24.188  29.158  1.00  0.00     0.031 C 
ATOM     59  C   UNL A   1      46.707  29.273  31.977  1.00  0.00     0.029 A 
ATOM     60  C   UNL A   1      45.955  28.338  31.284  1.00  0.00     0.049 A 
ATOM     61  H   UNL A   1      43.987  28.505  30.541  1.00  0.00     0.167 HD
ATOM     62  C   UNL A   1      45.523  26.139  30.220  1.00  0.00     0.074 A 
ATOM     63  C   UNL A   1      45.905  24.793  29.841  1.00  0.00     0.031 C 
ATOM     64  C   UNL A   1      46.326  27.002  30.889  1.00  0.00     0.031 A 
BRANCH  51  65
ATOM     65  C   UNL A   1      43.758  32.533  31.950  1.00  0.00    -0.014 A 
ATOM     66  C   UNL A   1      44.265  33.556  31.129  1.00  0.00     0.010 A 
ATOM     67  C   UNL A   1      43.394  32.836  33.274  1.00  0.00     0.010 A 
ATOM     68  C   UNL A   1      44.465  34.841  31.640  1.00  0.00     0.020 A 
ATOM     69  C   UNL A   1      43.565  34.127  33.782  1.00  0.00     0.020 A 
ATOM     70  C   UNL A   1      44.123  35.116  32.968  1.00  0.00     0.054 A 
BRANCH  70  71
ATOM     71  S   UNL A   1      44.406  36.787  33.612  1.00  0.00     0.124 S 
ATOM     72  O   UNL A   1      43.773  37.613  32.587  1.00  0.00    -0.237 OA
ATOM     73  O   UNL A   1      43.722  36.755  34.902  1.00  0.00    -0.237 OA
ATOM     74  O   UNL A   1      45.861  36.889  33.685  1.00  0.00    -0.744 OA
ENDBRANCH  70  71
ENDBRANCH  51  65
BRANCH  52  75
ATOM     75  C   UNL A   1      42.387  23.520  27.869  1.00  0.00    -0.014 A 
ATOM     76  C   UNL A   1      42.875  23.283  26.572  1.00  0.00     0.010 A 
ATOM     77  C   UNL A   1      41.761  22.471  28.567  1.00  0.00     0.010 A 
ATOM     78  C   UNL A   1      42.740  22.022  25.984  1.00  0.00     0.020 A 
ATOM     79  C   UNL A   1      41.644  21.203  27.991  1.00  0.00     0.020 A 
ATOM     80  C   UNL A   1      42.131  20.988  26.701  1.00  0.00     0.054 A 
BRANCH  80  81
ATOM     81  S   UNL A   1      42.046  19.337  25.951  1.00  0.00     0.124 S 
ATOM     82  O   UNL A   1      42.893  19.495  24.773  1.00  0.00    -0.237 OA
ATOM     83  O   UNL A   1      42.583  18.482  27.007  1.00  0.00    -0.237 OA
ATOM     84  O   UNL A   1      40.621  19.159  25.681  1.00  0.00    -0.744 OA
ENDBRANCH  80  81
ENDBRANCH  52  75
BRANCH  64  85
ATOM     85  C   UNL A   1      47.697  26.513  31.271  1.00  0.00    -0.014 A 
ATOM     86  C   UNL A   1      48.783  26.631  30.386  1.00  0.00     0.010 A 
ATOM     87  C   UNL A   1      47.910  25.972  32.552  1.00  0.00     0.010 A 
ATOM     88  C   UNL A   1      50.053  26.189  30.765  1.00  0.00     0.020 A 
ATOM     89  C   UNL A   1      49.184  25.552  32.944  1.00  0.00     0.020 A 
ATOM     90  C   UNL A   1      50.245  25.649  32.041  1.00  0.00     0.054 A 
BRANCH  90  91
ATOM     91  S   UNL A   1      51.910  25.117  32.525  1.00  0.00     0.124 S 
ATOM     92  O   UNL A   1      52.754  25.943  31.665  1.00  0.00    -0.237 OA
ATOM     93  O   UNL A   1      51.952  25.443  33.948  1.00  0.00    -0.237 OA
ATOM     94  O   UNL A   1      51.919  23.688  32.219  1.00  0.00    -0.744 OA
ENDBRANCH  90  91
ENDBRANCH  64  85
ENDBRANCH  38  39
ENDBRANCH  30  33
ENDBRANCH  28  29
ENDBRANCH  27  28
ENDBRANCH   1  27
TORSDOF 19
ENDMDL
MODEL 2
REMARK VINA RESULT:     -11.3      4.461     10.653
REMARK SMILES COc1ccc(/C=N/Nc2cccc(C(=O)NCCCCNC(=O)c3ccc(-c4c5nc(c(-c6ccc(S(=O)(=O)[O-])cc6)c6ccc([nH]6)c(-c6ccc(S(=O)(=O)[O-])cc6)c6nc(c(-c7ccc(S(=O)(=O)[O-])cc7)c7ccc4[nH]7)C=C6)C=C5)cc3)c2)cc1O
REMARK SMILES IDX 19 1 18 2 17 3 15 4 16 5 14 7 10 8 11 9 85 10 12 11 13 12
REMARK SMILES IDX 9 13 8 15 7 16 6 17 3 18 4 19 87 20 5 21 86 22 2 23 1 24
REMARK SMILES IDX 88 25 20 27 21 28 22 29 23 30 24 32 25 33 26 34 84 35 27 36
REMARK SMILES IDX 83 37 28 38 29 39 30 40 77 41 31 42 82 43 76 44 78 45 32 46
REMARK SMILES IDX 81 47 75 48 74 49 33 51 63 52 44 53 62 54 45 55 48 56 61 57
REMARK SMILES IDX 79 58 46 59 47 60 60 62 80 63 49 64 34 65 35 66 43 67 36 68
REMARK SMILES IDX 42 69 37 70 38 71 39 72 40 73 41 74 64 75 65 76 73 77 66 78
REMARK SMILES IDX 72 79 67 80 68 81 69 82 70 83 71 84 50 85 51 86 59 87 52 88
REMARK SMILES IDX 58 89 53 90 54 91 55 92 56 93 57 94
REMARK H PARENT 17 6 9 14 88 26 22 31 78 50 48 61
REMARK Flexibility Score: inf
ROOT
ATOM      1  C   UNL A   1      38.825  21.669  25.918  1.00  0.00     0.023 C 
ENDROOT
BRANCH   1   2
ATOM      2  C   UNL A   1      37.888  22.879  25.880  1.00  0.00     0.116 C 
BRANCH   2   3
ATOM      3  N   UNL A   1      37.417  23.126  24.531  1.00  0.00    -0.352 N 
ATOM      4  C   UNL A   1      36.188  22.975  23.939  1.00  0.00     0.251 C 
ATOM      5  O   UNL A   1      36.086  23.306  22.757  1.00  0.00    -0.269 OA
ATOM      6  H   UNL A   1      38.113  23.467  23.923  1.00  0.00     0.163 HD
BRANCH   4   7
ATOM      7  C   UNL A   1      34.969  22.493  24.656  1.00  0.00     0.041 A 
ATOM      8  C   UNL A   1      32.809  22.796  25.763  1.00  0.00     0.057 A 
ATOM      9  C   UNL A   1      32.689  21.409  25.890  1.00  0.00     0.028 A 
ATOM     10  C   UNL A   1      33.978  23.317  25.193  1.00  0.00     0.041 A 
ATOM     11  C   UNL A   1      33.696  20.565  25.424  1.00  0.00     0.003 A 
ATOM     12  C   UNL A   1      34.821  21.105  24.797  1.00  0.00     0.014 A 
BRANCH   8  13
ATOM     13  N   UNL A   1      31.705  23.614  26.083  1.00  0.00    -0.278 N 
ATOM     14  H   UNL A   1      30.969  23.212  26.598  1.00  0.00     0.190 HD
BRANCH  13  15
ATOM     15  N   UNL A   1      31.592  24.925  25.726  1.00  0.00    -0.183 NA
ATOM     16  C   UNL A   1      30.667  25.189  24.852  1.00  0.00     0.141 C 
BRANCH  16  17
ATOM     17  C   UNL A   1      30.370  26.557  24.389  1.00  0.00    -0.002 A 
ATOM     18  C   UNL A   1      29.954  29.171  23.412  1.00  0.00     0.160 A 
ATOM     19  C   UNL A   1      29.053  28.127  23.132  1.00  0.00     0.051 A 
ATOM     20  C   UNL A   1      31.061  28.883  24.216  1.00  0.00     0.158 A 
ATOM     21  C   UNL A   1      29.249  26.830  23.616  1.00  0.00     0.014 A 
ATOM     22  C   UNL A   1      31.270  27.580  24.695  1.00  0.00     0.060 A 
BRANCH  18  23
ATOM     23  O   UNL A   1      29.571  30.327  22.800  1.00  0.00    -0.493 OA
ATOM     24  C   UNL A   1      28.565  30.352  21.807  1.00  0.00     0.278 C 
ENDBRANCH  18  23
BRANCH  20  25
ATOM     25  O   UNL A   1      32.034  29.758  24.605  1.00  0.00    -0.504 OA
ATOM     26  H   UNL A   1      32.289  30.457  24.036  1.00  0.00     0.293 HD
ENDBRANCH  20  25
ENDBRANCH  16  17
ENDBRANCH  13  15
ENDBRANCH   8  13
ENDBRANCH   4   7
ENDBRANCH   2   3
ENDBRANCH   1   2
BRANCH   1  27
ATOM     27  C   UNL A   1      40.028  21.840  26.846  1.00  0.00     0.023 C 
BRANCH  27  28
ATOM     28  C   UNL A   1      40.367  23.286  27.189  1.00  0.00     0.116 C 
BRANCH  28  29
ATOM     29  N   UNL A   1      40.881  24.048  26.060  1.00  0.00    -0.352 N 
ATOM     30  C   UNL A   1      41.224  25.378  26.024  1.00  0.00     0.251 C 
ATOM     31  H   UNL A   1      40.996  23.550  25.219  1.00  0.00     0.163 HD
ATOM     32  O   UNL A   1      41.562  25.910  24.971  1.00  0.00    -0.269 OA
BRANCH  30  33
ATOM     33  C   UNL A   1      41.146  26.173  27.268  1.00  0.00     0.039 A 
ATOM     34  C   UNL A   1      42.179  27.065  27.563  1.00  0.00     0.014 A 
ATOM     35  C   UNL A   1      40.036  26.067  28.109  1.00  0.00     0.014 A 
ATOM     36  C   UNL A   1      42.065  27.902  28.674  1.00  0.00     0.010 A 
ATOM     37  C   UNL A   1      39.893  26.950  29.173  1.00  0.00     0.010 A 
ATOM     38  C   UNL A   1      40.905  27.876  29.466  1.00  0.00    -0.014 A 
BRANCH  38  39
ATOM     39  C   UNL A   1      40.728  28.821  30.597  1.00  0.00     0.031 A 
ATOM     40  C   UNL A   1      41.572  28.688  31.835  1.00  0.00     0.074 A 
ATOM     41  C   UNL A   1      39.756  29.751  30.539  1.00  0.00     0.049 A 
ATOM     42  N   UNL A   1      41.538  29.394  32.934  1.00  0.00    -0.248 NA
ATOM     43  C   UNL A   1      42.562  27.599  31.849  1.00  0.00     0.031 C 
ATOM     44  C   UNL A   1      38.830  29.940  29.420  1.00  0.00     0.029 A 
ATOM     45  N   UNL A   1      39.379  30.708  31.447  1.00  0.00    -0.354 N 
ATOM     46  C   UNL A   1      42.481  28.823  33.780  1.00  0.00     0.074 A 
ATOM     47  C   UNL A   1      43.038  27.685  33.083  1.00  0.00     0.031 C 
ATOM     48  C   UNL A   1      38.007  30.963  29.698  1.00  0.00     0.029 A 
ATOM     49  C   UNL A   1      38.326  31.483  31.025  1.00  0.00     0.049 A 
ATOM     50  H   UNL A   1      39.821  30.829  32.318  1.00  0.00     0.167 HD
ATOM     51  C   UNL A   1      42.864  29.221  35.017  1.00  0.00     0.031 A 
ATOM     52  C   UNL A   1      37.684  32.498  31.635  1.00  0.00     0.031 A 
ATOM     53  C   UNL A   1      42.316  30.362  35.701  1.00  0.00     0.049 A 
ATOM     54  C   UNL A   1      38.143  32.944  32.994  1.00  0.00     0.074 A 
ATOM     55  C   UNL A   1      42.690  30.895  36.923  1.00  0.00     0.029 A 
ATOM     56  N   UNL A   1      41.272  31.143  35.227  1.00  0.00    -0.354 N 
ATOM     57  N   UNL A   1      39.102  32.448  33.742  1.00  0.00    -0.248 NA
ATOM     58  C   UNL A   1      37.447  34.094  33.587  1.00  0.00     0.031 C 
ATOM     59  C   UNL A   1      41.839  31.969  37.208  1.00  0.00     0.029 A 
ATOM     60  C   UNL A   1      40.970  32.137  36.141  1.00  0.00     0.049 A 
ATOM     61  H   UNL A   1      40.813  31.008  34.366  1.00  0.00     0.167 HD
ATOM     62  C   UNL A   1      39.135  33.238  34.886  1.00  0.00     0.074 A 
ATOM     63  C   UNL A   1      38.113  34.252  34.722  1.00  0.00     0.031 C 
ATOM     64  C   UNL A   1      39.940  33.132  35.971  1.00  0.00     0.031 A 
BRANCH  51  65
ATOM     65  C   UNL A   1      43.919  28.398  35.709  1.00  0.00    -0.014 A 
ATOM     66  C   UNL A   1      43.570  27.322  36.546  1.00  0.00     0.010 A 
ATOM     67  C   UNL A   1      45.278  28.703  35.518  1.00  0.00     0.010 A 
ATOM     68  C   UNL A   1      44.557  26.606  37.228  1.00  0.00     0.020 A 
ATOM     69  C   UNL A   1      46.271  27.971  36.176  1.00  0.00     0.020 A 
ATOM     70  C   UNL A   1      45.902  26.943  37.047  1.00  0.00     0.054 A 
BRANCH  70  71
ATOM     71  S   UNL A   1      47.164  26.009  37.955  1.00  0.00     0.124 S 
ATOM     72  O   UNL A   1      46.821  26.315  39.342  1.00  0.00    -0.237 OA
ATOM     73  O   UNL A   1      46.912  24.633  37.535  1.00  0.00    -0.237 OA
ATOM     74  O   UNL A   1      48.423  26.580  37.484  1.00  0.00    -0.744 OA
ENDBRANCH  70  71
ENDBRANCH  51  65
BRANCH  52  75
ATOM     75  C   UNL A   1      36.559  33.177  30.939  1.00  0.00    -0.014 A 
ATOM     76  C   UNL A   1      35.288  33.246  31.537  1.00  0.00     0.010 A 
ATOM     77  C   UNL A   1      36.767  33.807  29.698  1.00  0.00     0.010 A 
ATOM     78  C   UNL A   1      34.246  33.932  30.907  1.00  0.00     0.020 A 
ATOM     79  C   UNL A   1      35.733  34.514  29.076  1.00  0.00     0.020 A 
ATOM     80  C   UNL A   1      34.477  34.568  29.684  1.00  0.00     0.054 A 
BRANCH  80  81
ATOM     81  S   UNL A   1      33.133  35.525  28.929  1.00  0.00     0.124 S 
ATOM     82  O   UNL A   1      32.446  34.512  28.135  1.00  0.00    -0.237 OA
ATOM     83  O   UNL A   1      32.404  36.019  30.093  1.00  0.00    -0.237 OA
ATOM     84  O   UNL A   1      33.836  36.553  28.162  1.00  0.00    -0.744 OA
ENDBRANCH  80  81
ENDBRANCH  52  75
BRANCH  64  85
ATOM     85  C   UNL A   1      39.762  34.151  37.064  1.00  0.00    -0.014 A 
ATOM     86  C   UNL A   1      40.253  35.461  36.925  1.00  0.00     0.010 A 
ATOM     87  C   UNL A   1      39.050  33.804  38.227  1.00  0.00     0.010 A 
ATOM     88  C   UNL A   1      40.060  36.398  37.943  1.00  0.00     0.020 A 
ATOM     89  C   UNL A   1      38.835  34.746  39.237  1.00  0.00     0.020 A 
ATOM     90  C   UNL A   1      39.355  36.034  39.094  1.00  0.00     0.054 A 
BRANCH  90  91
ATOM     91  S   UNL A   1      39.086  37.279  40.385  1.00  0.00     0.124 S 
ATOM     92  O   UNL A   1      38.470  38.369  39.633  1.00  0.00    -0.237 OA
ATOM     93  O   UNL A   1      38.206  36.585  41.323  1.00  0.00    -0.237 OA
ATOM     94  O   UNL A   1      40.431  37.552  40.889  1.00  0.00    -0.744 OA
ENDBRANCH  90  91
ENDBRANCH  64  85
ENDBRANCH  38  39
ENDBRANCH  30  33
ENDBRANCH  28  29
ENDBRANCH  27  28
ENDBRANCH   1  27
TORSDOF 19
ENDMDL
MODEL 3
REMARK VINA RESULT:     -10.8      3.778      9.001
REMARK SMILES COc1ccc(/C=N/Nc2cccc(C(=O)NCCCCNC(=O)c3ccc(-c4c5nc(c(-c6ccc(S(=O)(=O)[O-])cc6)c6ccc([nH]6)c(-c6ccc(S(=O)(=O)[O-])cc6)c6nc(c(-c7ccc(S(=O)(=O)[O-])cc7)c7ccc4[nH]7)C=C6)C=C5)cc3)c2)cc1O
REMARK SMILES IDX 19 1 18 2 17 3 15 4 16 5 14 7 10 8 11 9 85 10 12 11 13 12
REMARK SMILES IDX 9 13 8 15 7 16 6 17 3 18 4 19 87 20 5 21 86 22 2 23 1 24
REMARK SMILES IDX 88 25 20 27 21 28 22 29 23 30 24 32 25 33 26 34 84 35 27 36
REMARK SMILES IDX 83 37 28 38 29 39 30 40 77 41 31 42 82 43 76 44 78 45 32 46
REMARK SMILES IDX 81 47 75 48 74 49 33 51 63 52 44 53 62 54 45 55 48 56 61 57
REMARK SMILES IDX 79 58 46 59 47 60 60 62 80 63 49 64 34 65 35 66 43 67 36 68
REMARK SMILES IDX 42 69 37 70 38 71 39 72 40 73 41 74 64 75 65 76 73 77 66 78
REMARK SMILES IDX 72 79 67 80 68 81 69 82 70 83 71 84 50 85 51 86 59 87 52 88
REMARK SMILES IDX 58 89 53 90 54 91 55 92 56 93 57 94
REMARK H PARENT 17 6 9 14 88 26 22 31 78 50 48 61
REMARK Flexibility Score: inf
ROOT
ATOM      1  C   UNL A   1      36.987  20.056  25.043  1.00  0.00     0.023 C 
ENDROOT
BRANCH   1   2
ATOM      2  C   UNL A   1      35.687  20.864  25.074  1.00  0.00     0.116 C 
BRANCH   2   3
ATOM      3  N   UNL A   1      35.958  22.271  25.296  1.00  0.00    -0.352 N 
ATOM      4  C   UNL A   1      35.194  23.397  25.124  1.00  0.00     0.251 C 
ATOM      5  O   UNL A   1      35.700  24.476  25.437  1.00  0.00    -0.269 OA
ATOM      6  H   UNL A   1      36.865  22.452  25.635  1.00  0.00     0.163 HD
BRANCH   4   7
ATOM      7  C   UNL A   1      33.781  23.382  24.639  1.00  0.00     0.041 A 
ATOM      8  C   UNL A   1      31.406  23.953  24.777  1.00  0.00     0.057 A 
ATOM      9  C   UNL A   1      31.198  23.355  23.531  1.00  0.00     0.028 A 
ATOM     10  C   UNL A   1      32.690  23.909  25.335  1.00  0.00     0.041 A 
ATOM     11  C   UNL A   1      32.257  22.760  22.846  1.00  0.00     0.003 A 
ATOM     12  C   UNL A   1      33.542  22.789  23.391  1.00  0.00     0.014 A 
BRANCH   8  13
ATOM     13  N   UNL A   1      30.361  24.695  25.367  1.00  0.00    -0.278 N 
ATOM     14  H   UNL A   1      30.044  24.414  26.256  1.00  0.00     0.190 HD
BRANCH  13  15
ATOM     15  N   UNL A   1      29.764  25.775  24.788  1.00  0.00    -0.183 NA
ATOM     16  C   UNL A   1      30.530  26.494  24.022  1.00  0.00     0.141 C 
BRANCH  16  17
ATOM     17  C   UNL A   1      30.040  27.668  23.276  1.00  0.00    -0.002 A 
ATOM     18  C   UNL A   1      29.043  29.980  22.003  1.00  0.00     0.160 A 
ATOM     19  C   UNL A   1      30.413  29.657  21.978  1.00  0.00     0.051 A 
ATOM     20  C   UNL A   1      28.176  29.104  22.661  1.00  0.00     0.158 A 
ATOM     21  C   UNL A   1      30.915  28.511  22.602  1.00  0.00     0.014 A 
ATOM     22  C   UNL A   1      28.674  27.958  23.300  1.00  0.00     0.060 A 
BRANCH  18  23
ATOM     23  O   UNL A   1      28.806  31.160  21.362  1.00  0.00    -0.493 OA
ATOM     24  C   UNL A   1      28.042  32.193  21.951  1.00  0.00     0.278 C 
ENDBRANCH  18  23
BRANCH  20  25
ATOM     25  O   UNL A   1      26.823  29.237  22.783  1.00  0.00    -0.504 OA
ATOM     26  H   UNL A   1      26.255  28.568  22.455  1.00  0.00     0.293 HD
ENDBRANCH  20  25
ENDBRANCH  16  17
ENDBRANCH  13  15
ENDBRANCH   8  13
ENDBRANCH   4   7
ENDBRANCH   2   3
ENDBRANCH   1   2
BRANCH   1  27
ATOM     27  C   UNL A   1      38.253  20.910  24.968  1.00  0.00     0.023 C 
BRANCH  27  28
ATOM     28  C   UNL A   1      39.201  20.750  26.151  1.00  0.00     0.116 C 
BRANCH  28  29
ATOM     29  N   UNL A   1      40.075  19.590  26.045  1.00  0.00    -0.352 N 
ATOM     30  C   UNL A   1      41.448  19.560  26.095  1.00  0.00     0.251 C 
ATOM     31  H   UNL A   1      39.629  18.722  25.920  1.00  0.00     0.163 HD
ATOM     32  O   UNL A   1      42.059  18.514  25.900  1.00  0.00    -0.269 OA
BRANCH  30  33
ATOM     33  C   UNL A   1      42.184  20.815  26.352  1.00  0.00     0.039 A 
ATOM     34  C   UNL A   1      42.605  21.584  25.265  1.00  0.00     0.014 A 
ATOM     35  C   UNL A   1      42.413  21.249  27.660  1.00  0.00     0.014 A 
ATOM     36  C   UNL A   1      43.201  22.825  25.493  1.00  0.00     0.010 A 
ATOM     37  C   UNL A   1      42.941  22.515  27.882  1.00  0.00     0.010 A 
ATOM     38  C   UNL A   1      43.341  23.316  26.802  1.00  0.00    -0.014 A 
BRANCH  38  39
ATOM     39  C   UNL A   1      43.890  24.671  27.057  1.00  0.00     0.031 A 
ATOM     40  C   UNL A   1      42.975  25.796  27.456  1.00  0.00     0.074 A 
ATOM     41  C   UNL A   1      45.201  24.904  26.857  1.00  0.00     0.049 A 
ATOM     42  N   UNL A   1      43.265  27.050  27.686  1.00  0.00    -0.248 NA
ATOM     43  C   UNL A   1      41.544  25.475  27.583  1.00  0.00     0.031 C 
ATOM     44  C   UNL A   1      46.180  23.911  26.408  1.00  0.00     0.029 A 
ATOM     45  N   UNL A   1      45.936  26.055  26.995  1.00  0.00    -0.354 N 
ATOM     46  C   UNL A   1      42.054  27.673  27.961  1.00  0.00     0.074 A 
ATOM     47  C   UNL A   1      41.022  26.669  27.824  1.00  0.00     0.031 C 
ATOM     48  C   UNL A   1      47.388  24.490  26.330  1.00  0.00     0.029 A 
ATOM     49  C   UNL A   1      47.267  25.899  26.693  1.00  0.00     0.049 A 
ATOM     50  H   UNL A   1      45.546  26.912  27.285  1.00  0.00     0.167 HD
ATOM     51  C   UNL A   1      41.822  28.961  28.314  1.00  0.00     0.031 A 
ATOM     52  C   UNL A   1      48.279  26.787  26.703  1.00  0.00     0.031 A 
ATOM     53  C   UNL A   1      42.853  29.953  28.462  1.00  0.00     0.049 A 
ATOM     54  C   UNL A   1      48.007  28.203  27.126  1.00  0.00     0.074 A 
ATOM     55  C   UNL A   1      42.732  31.263  28.892  1.00  0.00     0.029 A 
ATOM     56  N   UNL A   1      44.195  29.748  28.178  1.00  0.00    -0.354 N 
ATOM     57  N   UNL A   1      46.866  28.753  27.473  1.00  0.00    -0.248 NA
ATOM     58  C   UNL A   1      49.158  29.114  27.177  1.00  0.00     0.031 C 
ATOM     59  C   UNL A   1      43.994  31.863  28.821  1.00  0.00     0.029 A 
ATOM     60  C   UNL A   1      44.910  30.913  28.397  1.00  0.00     0.049 A 
ATOM     61  H   UNL A   1      44.582  28.898  27.866  1.00  0.00     0.167 HD
ATOM     62  C   UNL A   1      47.166  30.071  27.799  1.00  0.00     0.074 A 
ATOM     63  C   UNL A   1      48.596  30.229  27.626  1.00  0.00     0.031 C 
ATOM     64  C   UNL A   1      46.332  31.058  28.207  1.00  0.00     0.031 A 
BRANCH  51  65
ATOM     65  C   UNL A   1      40.389  29.363  28.549  1.00  0.00    -0.014 A 
ATOM     66  C   UNL A   1      39.484  29.492  27.479  1.00  0.00     0.010 A 
ATOM     67  C   UNL A   1      39.940  29.612  29.858  1.00  0.00     0.010 A 
ATOM     68  C   UNL A   1      38.175  29.924  27.707  1.00  0.00     0.020 A 
ATOM     69  C   UNL A   1      38.623  30.017  30.094  1.00  0.00     0.020 A 
ATOM     70  C   UNL A   1      37.756  30.194  29.013  1.00  0.00     0.054 A 
BRANCH  70  71
ATOM     71  S   UNL A   1      36.057  30.768  29.280  1.00  0.00     0.124 S 
ATOM     72  O   UNL A   1      36.026  30.943  30.731  1.00  0.00    -0.237 OA
ATOM     73  O   UNL A   1      36.006  32.001  28.499  1.00  0.00    -0.237 OA
ATOM     74  O   UNL A   1      35.236  29.675  28.766  1.00  0.00    -0.744 OA
ENDBRANCH  70  71
ENDBRANCH  51  65
BRANCH  52  75
ATOM     75  C   UNL A   1      49.647  26.344  26.327  1.00  0.00    -0.014 A 
ATOM     76  C   UNL A   1      50.118  26.518  25.014  1.00  0.00     0.010 A 
ATOM     77  C   UNL A   1      50.507  25.795  27.296  1.00  0.00     0.010 A 
ATOM     78  C   UNL A   1      51.424  26.151  24.676  1.00  0.00     0.020 A 
ATOM     79  C   UNL A   1      51.821  25.448  26.966  1.00  0.00     0.020 A 
ATOM     80  C   UNL A   1      52.270  25.624  25.657  1.00  0.00     0.054 A 
BRANCH  80  81
ATOM     81  S   UNL A   1      53.986  25.237  25.214  1.00  0.00     0.124 S 
ATOM     82  O   UNL A   1      54.705  25.611  26.428  1.00  0.00    -0.237 OA
ATOM     83  O   UNL A   1      53.925  23.806  24.930  1.00  0.00    -0.237 OA
ATOM     84  O   UNL A   1      54.238  26.085  24.050  1.00  0.00    -0.744 OA
ENDBRANCH  80  81
ENDBRANCH  52  75
BRANCH  64  85
ATOM     85  C   UNL A   1      46.946  32.398  28.511  1.00  0.00    -0.014 A 
ATOM     86  C   UNL A   1      47.432  32.701  29.796  1.00  0.00     0.010 A 
ATOM     87  C   UNL A   1      47.083  33.349  27.483  1.00  0.00     0.010 A 
ATOM     88  C   UNL A   1      48.016  33.943  30.054  1.00  0.00     0.020 A 
ATOM     89  C   UNL A   1      47.689  34.583  27.733  1.00  0.00     0.020 A 
ATOM     90  C   UNL A   1      48.139  34.878  29.021  1.00  0.00     0.054 A 
BRANCH  90  91
ATOM     91  S   UNL A   1      48.935  36.469  29.372  1.00  0.00     0.124 S 
ATOM     92  O   UNL A   1      47.786  37.335  29.626  1.00  0.00    -0.237 OA
ATOM     93  O   UNL A   1      49.764  36.166  30.536  1.00  0.00    -0.237 OA
ATOM     94  O   UNL A   1      49.676  36.763  28.147  1.00  0.00    -0.744 OA
ENDBRANCH  90  91
ENDBRANCH  64  85
ENDBRANCH  38  39
ENDBRANCH  30  33
ENDBRANCH  28  29
ENDBRANCH  27  28
ENDBRANCH   1  27
TORSDOF 19
ENDMDL
