MODEL 1
REMARK VINA RESULT:     -12.3      0.000      0.000
REMARK SMILES CC(C)(Cn1ccc2ccc([N+](=O)[O-])cc21)C(=O)NCCCCNC(=O)c1ccc(-c2c3nc(c(-c4ccc(S(=O)(=O)[O-])cc4)c4ccc([nH]4)c(-c4ccc(S(=O)(=O)[O-])cc4)c4nc(c(-c5ccc(S(=O)(=O)[O-])cc5)c5ccc2[nH]5)C=C4)C=C3)cc1
REMARK SMILES IDX 21 1 20 2 19 3 17 4 18 5 2 7 1 8 3 9 4 10 5 11 6 12 16 13
REMARK SMILES IDX 7 14 8 15 15 16 9 17 11 18 10 19 12 20 13 21 14 22 22 23
REMARK SMILES IDX 23 24 24 25 25 26 26 28 27 29 28 30 86 31 29 32 85 33 30 34
REMARK SMILES IDX 31 35 32 36 79 37 33 38 84 39 78 40 80 41 34 42 83 43 77 44
REMARK SMILES IDX 76 45 35 47 65 48 46 49 64 50 47 51 50 52 63 53 81 54 48 55
REMARK SMILES IDX 49 56 62 58 82 59 51 60 36 61 37 62 45 63 38 64 44 65 39 66
REMARK SMILES IDX 40 67 41 68 42 69 43 70 66 71 67 72 75 73 68 74 74 75 69 76
REMARK SMILES IDX 70 77 71 78 72 79 73 80 52 81 53 82 61 83 54 84 60 85 55 86
REMARK SMILES IDX 56 87 57 88 58 89 59 90
REMARK H PARENT 19 6 24 27 80 46 50 57
REMARK Flexibility Score: inf
ROOT
ATOM      1  C   UNL A   1      39.088  23.408  26.713  1.00  0.00     0.023 C 
ENDROOT
BRANCH   1   2
ATOM      2  C   UNL A   1      37.772  23.919  26.139  1.00  0.00     0.116 C 
BRANCH   2   3
ATOM      3  N   UNL A   1      37.588  23.580  24.741  1.00  0.00    -0.356 N 
ATOM      4  C   UNL A   1      36.502  23.208  24.013  1.00  0.00     0.227 C 
ATOM      5  O   UNL A   1      36.676  23.144  22.791  1.00  0.00    -0.274 OA
ATOM      6  H   UNL A   1      38.418  23.626  24.212  1.00  0.00     0.163 HD
BRANCH   4   7
ATOM      7  C   UNL A   1      35.129  22.897  24.638  1.00  0.00     0.061 C 
ATOM      8  C   UNL A   1      35.102  21.389  25.002  1.00  0.00     0.023 C 
ATOM      9  C   UNL A   1      33.995  23.060  23.606  1.00  0.00     0.023 C 
BRANCH   7  10
ATOM     10  C   UNL A   1      34.863  23.773  25.895  1.00  0.00     0.138 C 
BRANCH  10  11
ATOM     11  N   UNL A   1      33.466  24.096  26.167  1.00  0.00    -0.346 N 
ATOM     12  C   UNL A   1      32.533  23.196  26.613  1.00  0.00     0.087 A 
ATOM     13  C   UNL A   1      32.873  25.336  26.016  1.00  0.00     0.055 A 
ATOM     14  C   UNL A   1      31.302  23.811  26.600  1.00  0.00     0.028 A 
ATOM     15  C   UNL A   1      31.497  25.152  26.179  1.00  0.00     0.000 A 
ATOM     16  C   UNL A   1      33.419  26.586  25.686  1.00  0.00     0.112 A 
ATOM     17  C   UNL A   1      30.623  26.229  25.930  1.00  0.00     0.017 A 
ATOM     18  C   UNL A   1      32.525  27.622  25.380  1.00  0.00     0.271 A 
ATOM     19  C   UNL A   1      31.143  27.455  25.498  1.00  0.00     0.086 A 
BRANCH  18  20
ATOM     20  N   UNL A   1      33.065  28.889  24.867  1.00  0.00     0.062 N 
ATOM     21  O   UNL A   1      33.384  29.759  25.692  1.00  0.00    -0.258 OA
ATOM     22  O   UNL A   1      33.187  29.014  23.639  1.00  0.00    -0.258 OA
ENDBRANCH  18  20
ENDBRANCH  10  11
ENDBRANCH   7  10
ENDBRANCH   4   7
ENDBRANCH   2   3
ENDBRANCH   1   2
BRANCH   1  23
ATOM     23  C   UNL A   1      39.546  22.032  26.221  1.00  0.00     0.023 C 
BRANCH  23  24
ATOM     24  C   UNL A   1      40.938  21.605  26.685  1.00  0.00     0.116 C 
BRANCH  24  25
ATOM     25  N   UNL A   1      42.005  21.999  25.789  1.00  0.00    -0.352 N 
ATOM     26  C   UNL A   1      42.799  23.105  25.650  1.00  0.00     0.251 C 
ATOM     27  H   UNL A   1      42.209  21.306  25.120  1.00  0.00     0.163 HD
ATOM     28  O   UNL A   1      43.735  22.985  24.854  1.00  0.00    -0.269 OA
BRANCH  26  29
ATOM     29  C   UNL A   1      42.592  24.421  26.319  1.00  0.00     0.039 A 
ATOM     30  C   UNL A   1      42.892  24.719  27.645  1.00  0.00     0.014 A 
ATOM     31  C   UNL A   1      41.964  25.415  25.538  1.00  0.00     0.014 A 
ATOM     32  C   UNL A   1      42.484  25.933  28.200  1.00  0.00     0.010 A 
ATOM     33  C   UNL A   1      41.567  26.635  26.085  1.00  0.00     0.010 A 
ATOM     34  C   UNL A   1      41.785  26.878  27.434  1.00  0.00    -0.014 A 
BRANCH  34  35
ATOM     35  C   UNL A   1      41.423  28.149  28.067  1.00  0.00     0.031 A 
ATOM     36  C   UNL A   1      42.440  29.221  27.897  1.00  0.00     0.074 A 
ATOM     37  C   UNL A   1      40.273  28.418  28.721  1.00  0.00     0.049 A 
ATOM     38  N   UNL A   1      43.212  29.712  28.810  1.00  0.00    -0.248 NA
ATOM     39  C   UNL A   1      42.731  29.699  26.538  1.00  0.00     0.031 C 
ATOM     40  C   UNL A   1      39.064  27.597  28.824  1.00  0.00     0.029 A 
ATOM     41  N   UNL A   1      39.926  29.551  29.404  1.00  0.00    -0.354 N 
ATOM     42  C   UNL A   1      43.971  30.693  28.185  1.00  0.00     0.074 A 
ATOM     43  C   UNL A   1      43.733  30.549  26.769  1.00  0.00     0.031 C 
ATOM     44  C   UNL A   1      38.053  28.339  29.339  1.00  0.00     0.029 A 
ATOM     45  C   UNL A   1      38.582  29.628  29.753  1.00  0.00     0.049 A 
ATOM     46  H   UNL A   1      40.576  30.255  29.630  1.00  0.00     0.167 HD
ATOM     47  C   UNL A   1      44.597  31.676  28.889  1.00  0.00     0.031 A 
ATOM     48  C   UNL A   1      37.948  30.668  30.355  1.00  0.00     0.031 A 
ATOM     49  C   UNL A   1      44.693  31.361  30.288  1.00  0.00     0.049 A 
ATOM     50  C   UNL A   1      38.978  31.438  31.086  1.00  0.00     0.074 A 
ATOM     51  C   UNL A   1      45.328  30.380  31.021  1.00  0.00     0.029 A 
ATOM     52  N   UNL A   1      43.740  31.903  31.115  1.00  0.00    -0.354 N 
ATOM     53  N   UNL A   1      39.615  30.983  32.125  1.00  0.00    -0.248 NA
ATOM     54  C   UNL A   1      39.584  32.582  30.429  1.00  0.00     0.031 C 
ATOM     55  C   UNL A   1      44.431  30.072  32.084  1.00  0.00     0.029 A 
ATOM     56  C   UNL A   1      43.327  30.924  31.985  1.00  0.00     0.049 A 
ATOM     57  H   UNL A   1      43.411  32.829  31.088  1.00  0.00     0.167 HD
ATOM     58  C   UNL A   1      40.902  31.479  31.991  1.00  0.00     0.074 A 
ATOM     59  C   UNL A   1      40.790  32.547  30.999  1.00  0.00     0.031 C 
ATOM     60  C   UNL A   1      41.975  30.802  32.497  1.00  0.00     0.031 A 
BRANCH  47  61
ATOM     61  C   UNL A   1      44.826  33.061  28.347  1.00  0.00    -0.014 A 
ATOM     62  C   UNL A   1      43.802  33.808  27.730  1.00  0.00     0.010 A 
ATOM     63  C   UNL A   1      46.020  33.744  28.653  1.00  0.00     0.010 A 
ATOM     64  C   UNL A   1      43.969  35.146  27.378  1.00  0.00     0.020 A 
ATOM     65  C   UNL A   1      46.184  35.103  28.342  1.00  0.00     0.020 A 
ATOM     66  C   UNL A   1      45.161  35.789  27.688  1.00  0.00     0.054 A 
BRANCH  66  67
ATOM     67  S   UNL A   1      45.318  37.538  27.257  1.00  0.00     0.124 S 
ATOM     68  O   UNL A   1      46.285  37.491  26.163  1.00  0.00    -0.237 OA
ATOM     69  O   UNL A   1      43.952  37.890  26.876  1.00  0.00    -0.237 OA
ATOM     70  O   UNL A   1      45.800  38.155  28.490  1.00  0.00    -0.744 OA
ENDBRANCH  66  67
ENDBRANCH  47  61
BRANCH  48  71
ATOM     71  C   UNL A   1      36.644  31.285  29.991  1.00  0.00    -0.014 A 
ATOM     72  C   UNL A   1      36.410  31.686  28.661  1.00  0.00     0.010 A 
ATOM     73  C   UNL A   1      35.791  31.795  30.992  1.00  0.00     0.010 A 
ATOM     74  C   UNL A   1      35.429  32.638  28.353  1.00  0.00     0.020 A 
ATOM     75  C   UNL A   1      34.803  32.751  30.689  1.00  0.00     0.020 A 
ATOM     76  C   UNL A   1      34.659  33.195  29.375  1.00  0.00     0.054 A 
BRANCH  76  77
ATOM     77  S   UNL A   1      33.544  34.572  28.967  1.00  0.00     0.124 S 
ATOM     78  O   UNL A   1      33.005  34.923  30.282  1.00  0.00    -0.237 OA
ATOM     79  O   UNL A   1      34.461  35.556  28.389  1.00  0.00    -0.237 OA
ATOM     80  O   UNL A   1      32.591  33.990  28.036  1.00  0.00    -0.744 OA
ENDBRANCH  76  77
ENDBRANCH  48  71
BRANCH  60  81
ATOM     81  C   UNL A   1      41.728  29.679  33.486  1.00  0.00    -0.014 A 
ATOM     82  C   UNL A   1      41.827  29.991  34.854  1.00  0.00     0.010 A 
ATOM     83  C   UNL A   1      41.569  28.324  33.124  1.00  0.00     0.010 A 
ATOM     84  C   UNL A   1      41.809  28.992  35.829  1.00  0.00     0.020 A 
ATOM     85  C   UNL A   1      41.521  27.316  34.102  1.00  0.00     0.020 A 
ATOM     86  C   UNL A   1      41.667  27.657  35.449  1.00  0.00     0.054 A 
BRANCH  86  87
ATOM     87  S   UNL A   1      41.705  26.390  36.747  1.00  0.00     0.124 S 
ATOM     88  O   UNL A   1      42.903  26.757  37.500  1.00  0.00    -0.237 OA
ATOM     89  O   UNL A   1      40.440  26.607  37.447  1.00  0.00    -0.237 OA
ATOM     90  O   UNL A   1      41.797  25.131  36.014  1.00  0.00    -0.744 OA
ENDBRANCH  86  87
ENDBRANCH  60  81
ENDBRANCH  34  35
ENDBRANCH  26  29
ENDBRANCH  24  25
ENDBRANCH  23  24
ENDBRANCH   1  23
TORSDOF 17
ENDMDL
MODEL 2
REMARK VINA RESULT:     -12.3      1.952      3.701
REMARK SMILES CC(C)(Cn1ccc2ccc([N+](=O)[O-])cc21)C(=O)NCCCCNC(=O)c1ccc(-c2c3nc(c(-c4ccc(S(=O)(=O)[O-])cc4)c4ccc([nH]4)c(-c4ccc(S(=O)(=O)[O-])cc4)c4nc(c(-c5ccc(S(=O)(=O)[O-])cc5)c5ccc2[nH]5)C=C4)C=C3)cc1
REMARK SMILES IDX 21 1 20 2 19 3 17 4 18 5 2 7 1 8 3 9 4 10 5 11 6 12 16 13
REMARK SMILES IDX 7 14 8 15 15 16 9 17 11 18 10 19 12 20 13 21 14 22 22 23
REMARK SMILES IDX 23 24 24 25 25 26 26 28 27 29 28 30 86 31 29 32 85 33 30 34
REMARK SMILES IDX 31 35 32 36 79 37 33 38 84 39 78 40 80 41 34 42 83 43 77 44
REMARK SMILES IDX 76 45 35 47 65 48 46 49 64 50 47 51 50 52 63 53 81 54 48 55
REMARK SMILES IDX 49 56 62 58 82 59 51 60 36 61 37 62 45 63 38 64 44 65 39 66
REMARK SMILES IDX 40 67 41 68 42 69 43 70 66 71 67 72 75 73 68 74 74 75 69 76
REMARK SMILES IDX 70 77 71 78 72 79 73 80 52 81 53 82 61 83 54 84 60 85 55 86
REMARK SMILES IDX 56 87 57 88 58 89 59 90
REMARK H PARENT 19 6 24 27 80 46 50 57
REMARK Flexibility Score: inf
ROOT
ATOM      1  C   UNL A   1      39.244  21.685  25.859  1.00  0.00     0.023 C 
ENDROOT
BRANCH   1   2
ATOM      2  C   UNL A   1      37.917  21.072  25.427  1.00  0.00     0.116 C 
BRANCH   2   3
ATOM      3  N   UNL A   1      37.399  21.637  24.195  1.00  0.00    -0.356 N 
ATOM      4  C   UNL A   1      36.345  22.450  23.921  1.00  0.00     0.227 C 
ATOM      5  O   UNL A   1      36.284  22.870  22.760  1.00  0.00    -0.274 OA
ATOM      6  H   UNL A   1      37.915  21.380  23.397  1.00  0.00     0.163 HD
BRANCH   4   7
ATOM      7  C   UNL A   1      35.288  22.850  24.967  1.00  0.00     0.061 C 
ATOM      8  C   UNL A   1      34.313  23.855  24.301  1.00  0.00     0.023 C 
ATOM      9  C   UNL A   1      35.921  23.645  26.127  1.00  0.00     0.023 C 
BRANCH   7  10
ATOM     10  C   UNL A   1      34.519  21.608  25.504  1.00  0.00     0.138 C 
BRANCH  10  11
ATOM     11  N   UNL A   1      33.762  20.847  24.515  1.00  0.00    -0.346 N 
ATOM     12  C   UNL A   1      32.812  21.382  23.684  1.00  0.00     0.087 A 
ATOM     13  C   UNL A   1      33.878  19.491  24.267  1.00  0.00     0.055 A 
ATOM     14  C   UNL A   1      32.200  20.350  23.010  1.00  0.00     0.028 A 
ATOM     15  C   UNL A   1      32.834  19.144  23.406  1.00  0.00     0.000 A 
ATOM     16  C   UNL A   1      34.768  18.533  24.778  1.00  0.00     0.112 A 
ATOM     17  C   UNL A   1      32.617  17.786  23.100  1.00  0.00     0.017 A 
ATOM     18  C   UNL A   1      34.490  17.185  24.511  1.00  0.00     0.271 A 
ATOM     19  C   UNL A   1      33.431  16.807  23.684  1.00  0.00     0.086 A 
BRANCH  18  20
ATOM     20  N   UNL A   1      35.303  16.155  25.171  1.00  0.00     0.062 N 
ATOM     21  O   UNL A   1      36.351  16.514  25.731  1.00  0.00    -0.258 OA
ATOM     22  O   UNL A   1      34.891  14.985  25.148  1.00  0.00    -0.258 OA
ENDBRANCH  18  20
ENDBRANCH  10  11
ENDBRANCH   7  10
ENDBRANCH   4   7
ENDBRANCH   2   3
ENDBRANCH   1   2
BRANCH   1  23
ATOM     23  C   UNL A   1      40.328  20.696  26.299  1.00  0.00     0.023 C 
BRANCH  23  24
ATOM     24  C   UNL A   1      41.619  21.333  26.813  1.00  0.00     0.116 C 
BRANCH  24  25
ATOM     25  N   UNL A   1      42.414  21.968  25.783  1.00  0.00    -0.352 N 
ATOM     26  C   UNL A   1      42.821  23.247  25.519  1.00  0.00     0.251 C 
ATOM     27  H   UNL A   1      42.741  21.326  25.112  1.00  0.00     0.163 HD
ATOM     28  O   UNL A   1      43.656  23.359  24.617  1.00  0.00    -0.269 OA
BRANCH  26  29
ATOM     29  C   UNL A   1      42.305  24.483  26.174  1.00  0.00     0.039 A 
ATOM     30  C   UNL A   1      41.354  25.351  25.645  1.00  0.00     0.014 A 
ATOM     31  C   UNL A   1      42.905  24.822  27.405  1.00  0.00     0.014 A 
ATOM     32  C   UNL A   1      41.088  26.568  26.275  1.00  0.00     0.010 A 
ATOM     33  C   UNL A   1      42.633  26.031  28.046  1.00  0.00     0.010 A 
ATOM     34  C   UNL A   1      41.756  26.930  27.455  1.00  0.00    -0.014 A 
BRANCH  34  35
ATOM     35  C   UNL A   1      41.399  28.203  28.087  1.00  0.00     0.031 A 
ATOM     36  C   UNL A   1      42.415  29.275  27.906  1.00  0.00     0.074 A 
ATOM     37  C   UNL A   1      40.253  28.473  28.749  1.00  0.00     0.049 A 
ATOM     38  N   UNL A   1      43.193  29.768  28.813  1.00  0.00    -0.248 NA
ATOM     39  C   UNL A   1      42.695  29.749  26.544  1.00  0.00     0.031 C 
ATOM     40  C   UNL A   1      39.046  27.652  28.862  1.00  0.00     0.029 A 
ATOM     41  N   UNL A   1      39.912  29.608  29.431  1.00  0.00    -0.354 N 
ATOM     42  C   UNL A   1      43.947  30.748  28.179  1.00  0.00     0.074 A 
ATOM     43  C   UNL A   1      43.699  30.601  26.765  1.00  0.00     0.031 C 
ATOM     44  C   UNL A   1      38.039  28.396  29.383  1.00  0.00     0.029 A 
ATOM     45  C   UNL A   1      38.571  29.685  29.790  1.00  0.00     0.049 A 
ATOM     46  H   UNL A   1      40.563  30.312  29.651  1.00  0.00     0.167 HD
ATOM     47  C   UNL A   1      44.578  31.733  28.876  1.00  0.00     0.031 A 
ATOM     48  C   UNL A   1      37.940  30.726  30.394  1.00  0.00     0.031 A 
ATOM     49  C   UNL A   1      44.684  31.421  30.275  1.00  0.00     0.049 A 
ATOM     50  C   UNL A   1      38.975  31.499  31.115  1.00  0.00     0.074 A 
ATOM     51  C   UNL A   1      45.326  30.443  31.006  1.00  0.00     0.029 A 
ATOM     52  N   UNL A   1      43.737  31.965  31.108  1.00  0.00    -0.354 N 
ATOM     53  N   UNL A   1      39.621  31.046  32.151  1.00  0.00    -0.248 NA
ATOM     54  C   UNL A   1      39.576  32.642  30.451  1.00  0.00     0.031 C 
ATOM     55  C   UNL A   1      44.436  30.137  32.076  1.00  0.00     0.029 A 
ATOM     56  C   UNL A   1      43.331  30.988  31.983  1.00  0.00     0.049 A 
ATOM     57  H   UNL A   1      43.408  32.891  31.082  1.00  0.00     0.167 HD
ATOM     58  C   UNL A   1      40.906  31.542  32.006  1.00  0.00     0.074 A 
ATOM     59  C   UNL A   1      40.786  32.608  31.013  1.00  0.00     0.031 C 
ATOM     60  C   UNL A   1      41.983  30.867  32.506  1.00  0.00     0.031 A 
BRANCH  47  61
ATOM     61  C   UNL A   1      44.803  33.116  28.329  1.00  0.00    -0.014 A 
ATOM     62  C   UNL A   1      43.743  34.019  28.104  1.00  0.00     0.010 A 
ATOM     63  C   UNL A   1      46.112  33.633  28.247  1.00  0.00     0.010 A 
ATOM     64  C   UNL A   1      43.965  35.350  27.755  1.00  0.00     0.020 A 
ATOM     65  C   UNL A   1      46.346  34.982  27.939  1.00  0.00     0.020 A 
ATOM     66  C   UNL A   1      45.268  35.827  27.676  1.00  0.00     0.054 A 
BRANCH  66  67
ATOM     67  S   UNL A   1      45.508  37.572  27.268  1.00  0.00     0.124 S 
ATOM     68  O   UNL A   1      46.349  37.487  26.077  1.00  0.00    -0.237 OA
ATOM     69  O   UNL A   1      44.141  38.033  27.043  1.00  0.00    -0.237 OA
ATOM     70  O   UNL A   1      46.162  38.116  28.456  1.00  0.00    -0.744 OA
ENDBRANCH  66  67
ENDBRANCH  47  61
BRANCH  48  71
ATOM     71  C   UNL A   1      36.633  31.342  30.038  1.00  0.00    -0.014 A 
ATOM     72  C   UNL A   1      36.387  31.733  28.708  1.00  0.00     0.010 A 
ATOM     73  C   UNL A   1      35.791  31.862  31.043  1.00  0.00     0.010 A 
ATOM     74  C   UNL A   1      35.404  32.683  28.402  1.00  0.00     0.020 A 
ATOM     75  C   UNL A   1      34.802  32.816  30.743  1.00  0.00     0.020 A 
ATOM     76  C   UNL A   1      34.645  33.249  29.426  1.00  0.00     0.054 A 
BRANCH  76  77
ATOM     77  S   UNL A   1      33.527  34.625  29.019  1.00  0.00     0.124 S 
ATOM     78  O   UNL A   1      32.606  33.994  28.072  1.00  0.00    -0.237 OA
ATOM     79  O   UNL A   1      32.948  34.954  30.322  1.00  0.00    -0.237 OA
ATOM     80  O   UNL A   1      34.406  35.638  28.457  1.00  0.00    -0.744 OA
ENDBRANCH  76  77
ENDBRANCH  48  71
BRANCH  60  81
ATOM     81  C   UNL A   1      41.743  29.746  33.500  1.00  0.00    -0.014 A 
ATOM     82  C   UNL A   1      41.974  30.029  34.858  1.00  0.00     0.010 A 
ATOM     83  C   UNL A   1      41.466  28.411  33.137  1.00  0.00     0.010 A 
ATOM     84  C   UNL A   1      41.969  29.017  35.820  1.00  0.00     0.020 A 
ATOM     85  C   UNL A   1      41.431  27.392  34.105  1.00  0.00     0.020 A 
ATOM     86  C   UNL A   1      41.709  27.701  35.438  1.00  0.00     0.054 A 
BRANCH  86  87
ATOM     87  S   UNL A   1      41.769  26.413  36.714  1.00  0.00     0.124 S 
ATOM     88  O   UNL A   1      41.992  25.204  35.923  1.00  0.00    -0.237 OA
ATOM     89  O   UNL A   1      42.900  26.831  37.542  1.00  0.00    -0.237 OA
ATOM     90  O   UNL A   1      40.464  26.494  37.365  1.00  0.00    -0.744 OA
ENDBRANCH  86  87
ENDBRANCH  60  81
ENDBRANCH  34  35
ENDBRANCH  26  29
ENDBRANCH  24  25
ENDBRANCH  23  24
ENDBRANCH   1  23
TORSDOF 17
ENDMDL
MODEL 3
REMARK VINA RESULT:     -11.8      2.904      9.679
REMARK SMILES CC(C)(Cn1ccc2ccc([N+](=O)[O-])cc21)C(=O)NCCCCNC(=O)c1ccc(-c2c3nc(c(-c4ccc(S(=O)(=O)[O-])cc4)c4ccc([nH]4)c(-c4ccc(S(=O)(=O)[O-])cc4)c4nc(c(-c5ccc(S(=O)(=O)[O-])cc5)c5ccc2[nH]5)C=C4)C=C3)cc1
REMARK SMILES IDX 21 1 20 2 19 3 17 4 18 5 2 7 1 8 3 9 4 10 5 11 6 12 16 13
REMARK SMILES IDX 7 14 8 15 15 16 9 17 11 18 10 19 12 20 13 21 14 22 22 23
REMARK SMILES IDX 23 24 24 25 25 26 26 28 27 29 28 30 86 31 29 32 85 33 30 34
REMARK SMILES IDX 31 35 32 36 79 37 33 38 84 39 78 40 80 41 34 42 83 43 77 44
REMARK SMILES IDX 76 45 35 47 65 48 46 49 64 50 47 51 50 52 63 53 81 54 48 55
REMARK SMILES IDX 49 56 62 58 82 59 51 60 36 61 37 62 45 63 38 64 44 65 39 66
REMARK SMILES IDX 40 67 41 68 42 69 43 70 66 71 67 72 75 73 68 74 74 75 69 76
REMARK SMILES IDX 70 77 71 78 72 79 73 80 52 81 53 82 61 83 54 84 60 85 55 86
REMARK SMILES IDX 56 87 57 88 58 89 59 90
REMARK H PARENT 19 6 24 27 80 46 50 57
REMARK Flexibility Score: inf
ROOT
ATOM      1  C   UNL A   1      35.090  30.763  27.697  1.00  0.00     0.023 C 
ENDROOT
BRANCH   1   2
ATOM      2  C   UNL A   1      34.419  29.626  26.935  1.00  0.00     0.116 C 
BRANCH   2   3
ATOM      3  N   UNL A   1      33.261  30.053  26.172  1.00  0.00    -0.356 N 
ATOM      4  C   UNL A   1      32.312  29.377  25.473  1.00  0.00     0.227 C 
ATOM      5  O   UNL A   1      31.364  30.058  25.066  1.00  0.00    -0.274 OA
ATOM      6  H   UNL A   1      33.140  31.031  26.156  1.00  0.00     0.163 HD
BRANCH   4   7
ATOM      7  C   UNL A   1      32.377  27.863  25.203  1.00  0.00     0.061 C 
ATOM      8  C   UNL A   1      31.100  27.463  24.418  1.00  0.00     0.023 C 
ATOM      9  C   UNL A   1      32.287  27.055  26.514  1.00  0.00     0.023 C 
BRANCH   7  10
ATOM     10  C   UNL A   1      33.656  27.480  24.406  1.00  0.00     0.138 C 
BRANCH  10  11
ATOM     11  N   UNL A   1      33.495  26.440  23.395  1.00  0.00    -0.346 N 
ATOM     12  C   UNL A   1      33.150  26.672  22.089  1.00  0.00     0.087 A 
ATOM     13  C   UNL A   1      33.657  25.080  23.592  1.00  0.00     0.055 A 
ATOM     14  C   UNL A   1      32.933  25.458  21.479  1.00  0.00     0.028 A 
ATOM     15  C   UNL A   1      33.205  24.444  22.433  1.00  0.00     0.000 A 
ATOM     16  C   UNL A   1      34.099  24.356  24.711  1.00  0.00     0.112 A 
ATOM     17  C   UNL A   1      33.115  23.038  22.410  1.00  0.00     0.017 A 
ATOM     18  C   UNL A   1      33.937  22.964  24.686  1.00  0.00     0.271 A 
ATOM     19  C   UNL A   1      33.452  22.305  23.554  1.00  0.00     0.086 A 
BRANCH  18  20
ATOM     20  N   UNL A   1      34.231  22.199  25.905  1.00  0.00     0.062 N 
ATOM     21  O   UNL A   1      33.276  21.707  26.525  1.00  0.00    -0.258 OA
ATOM     22  O   UNL A   1      35.419  22.073  26.240  1.00  0.00    -0.258 OA
ENDBRANCH  18  20
ENDBRANCH  10  11
ENDBRANCH   7  10
ENDBRANCH   4   7
ENDBRANCH   2   3
ENDBRANCH   1   2
BRANCH   1  23
ATOM     23  C   UNL A   1      34.204  31.971  28.018  1.00  0.00     0.023 C 
BRANCH  23  24
ATOM     24  C   UNL A   1      34.846  33.030  28.913  1.00  0.00     0.116 C 
BRANCH  24  25
ATOM     25  N   UNL A   1      34.564  32.861  30.323  1.00  0.00    -0.352 N 
ATOM     26  C   UNL A   1      35.220  32.303  31.385  1.00  0.00     0.251 C 
ATOM     27  H   UNL A   1      33.692  33.239  30.579  1.00  0.00     0.163 HD
ATOM     28  O   UNL A   1      34.713  32.519  32.490  1.00  0.00    -0.269 OA
BRANCH  26  29
ATOM     29  C   UNL A   1      36.427  31.430  31.309  1.00  0.00     0.039 A 
ATOM     30  C   UNL A   1      37.749  31.865  31.301  1.00  0.00     0.014 A 
ATOM     31  C   UNL A   1      36.179  30.050  31.157  1.00  0.00     0.014 A 
ATOM     32  C   UNL A   1      38.783  30.963  31.044  1.00  0.00     0.010 A 
ATOM     33  C   UNL A   1      37.209  29.142  30.914  1.00  0.00     0.010 A 
ATOM     34  C   UNL A   1      38.513  29.606  30.809  1.00  0.00    -0.014 A 
BRANCH  34  35
ATOM     35  C   UNL A   1      39.647  28.705  30.587  1.00  0.00     0.031 A 
ATOM     36  C   UNL A   1      40.448  28.428  31.810  1.00  0.00     0.074 A 
ATOM     37  C   UNL A   1      39.974  28.103  29.424  1.00  0.00     0.049 A 
ATOM     38  N   UNL A   1      41.644  28.846  32.067  1.00  0.00    -0.248 NA
ATOM     39  C   UNL A   1      39.797  27.731  32.929  1.00  0.00     0.031 C 
ATOM     40  C   UNL A   1      39.219  28.061  28.170  1.00  0.00     0.029 A 
ATOM     41  N   UNL A   1      41.067  27.330  29.143  1.00  0.00    -0.354 N 
ATOM     42  C   UNL A   1      41.976  28.318  33.308  1.00  0.00     0.074 A 
ATOM     43  C   UNL A   1      40.762  27.758  33.850  1.00  0.00     0.031 C 
ATOM     44  C   UNL A   1      39.766  27.138  27.341  1.00  0.00     0.029 A 
ATOM     45  C   UNL A   1      40.997  26.645  27.935  1.00  0.00     0.049 A 
ATOM     46  H   UNL A   1      41.841  27.264  29.747  1.00  0.00     0.167 HD
ATOM     47  C   UNL A   1      43.269  28.214  33.722  1.00  0.00     0.031 A 
ATOM     48  C   UNL A   1      41.892  25.748  27.445  1.00  0.00     0.031 A 
ATOM     49  C   UNL A   1      44.156  29.024  32.933  1.00  0.00     0.049 A 
ATOM     50  C   UNL A   1      43.191  26.038  28.090  1.00  0.00     0.074 A 
ATOM     51  C   UNL A   1      44.297  30.379  32.715  1.00  0.00     0.029 A 
ATOM     52  N   UNL A   1      44.832  28.398  31.916  1.00  0.00    -0.354 N 
ATOM     53  N   UNL A   1      43.877  27.122  27.874  1.00  0.00    -0.248 NA
ATOM     54  C   UNL A   1      43.555  25.293  29.283  1.00  0.00     0.031 C 
ATOM     55  C   UNL A   1      44.657  30.497  31.341  1.00  0.00     0.029 A 
ATOM     56  C   UNL A   1      44.782  29.210  30.810  1.00  0.00     0.049 A 
ATOM     57  H   UNL A   1      45.275  27.521  31.969  1.00  0.00     0.167 HD
ATOM     58  C   UNL A   1      44.436  27.434  29.102  1.00  0.00     0.074 A 
ATOM     59  C   UNL A   1      44.301  26.214  29.896  1.00  0.00     0.031 C 
ATOM     60  C   UNL A   1      44.712  28.727  29.443  1.00  0.00     0.031 A 
BRANCH  47  61
ATOM     61  C   UNL A   1      43.757  27.122  34.636  1.00  0.00    -0.014 A 
ATOM     62  C   UNL A   1      43.856  25.779  34.219  1.00  0.00     0.010 A 
ATOM     63  C   UNL A   1      44.353  27.455  35.869  1.00  0.00     0.010 A 
ATOM     64  C   UNL A   1      44.460  24.801  35.008  1.00  0.00     0.020 A 
ATOM     65  C   UNL A   1      45.001  26.487  36.651  1.00  0.00     0.020 A 
ATOM     66  C   UNL A   1      45.033  25.161  36.221  1.00  0.00     0.054 A 
BRANCH  66  67
ATOM     67  S   UNL A   1      45.848  23.869  37.189  1.00  0.00     0.124 S 
ATOM     68  O   UNL A   1      45.268  22.657  36.618  1.00  0.00    -0.237 OA
ATOM     69  O   UNL A   1      47.259  24.096  36.888  1.00  0.00    -0.237 OA
ATOM     70  O   UNL A   1      45.449  24.164  38.563  1.00  0.00    -0.744 OA
ENDBRANCH  66  67
ENDBRANCH  47  61
BRANCH  48  71
ATOM     71  C   UNL A   1      41.622  24.421  26.829  1.00  0.00    -0.014 A 
ATOM     72  C   UNL A   1      40.649  23.574  27.396  1.00  0.00     0.010 A 
ATOM     73  C   UNL A   1      42.543  23.852  25.926  1.00  0.00     0.010 A 
ATOM     74  C   UNL A   1      40.658  22.195  27.151  1.00  0.00     0.020 A 
ATOM     75  C   UNL A   1      42.558  22.467  25.675  1.00  0.00     0.020 A 
ATOM     76  C   UNL A   1      41.637  21.644  26.325  1.00  0.00     0.054 A 
BRANCH  76  77
ATOM     77  S   UNL A   1      41.745  19.834  26.196  1.00  0.00     0.124 S 
ATOM     78  O   UNL A   1      42.146  19.458  27.553  1.00  0.00    -0.237 OA
ATOM     79  O   UNL A   1      40.376  19.464  25.830  1.00  0.00    -0.237 OA
ATOM     80  O   UNL A   1      42.745  19.612  25.165  1.00  0.00    -0.744 OA
ENDBRANCH  76  77
ENDBRANCH  48  71
BRANCH  60  81
ATOM     81  C   UNL A   1      44.711  29.785  28.355  1.00  0.00    -0.014 A 
ATOM     82  C   UNL A   1      45.960  30.267  27.924  1.00  0.00     0.010 A 
ATOM     83  C   UNL A   1      43.550  30.424  27.871  1.00  0.00     0.010 A 
ATOM     84  C   UNL A   1      46.058  31.370  27.073  1.00  0.00     0.020 A 
ATOM     85  C   UNL A   1      43.640  31.516  26.991  1.00  0.00     0.020 A 
ATOM     86  C   UNL A   1      44.897  31.997  26.619  1.00  0.00     0.054 A 
BRANCH  86  87
ATOM     87  S   UNL A   1      45.075  33.459  25.561  1.00  0.00     0.124 S 
ATOM     88  O   UNL A   1      44.548  32.981  24.283  1.00  0.00    -0.237 OA
ATOM     89  O   UNL A   1      44.245  34.453  26.241  1.00  0.00    -0.237 OA
ATOM     90  O   UNL A   1      46.508  33.738  25.573  1.00  0.00    -0.744 OA
ENDBRANCH  86  87
ENDBRANCH  60  81
ENDBRANCH  34  35
ENDBRANCH  26  29
ENDBRANCH  24  25
ENDBRANCH  23  24
ENDBRANCH   1  23
TORSDOF 17
ENDMDL
