MODEL 1
REMARK VINA RESULT:     -11.8      0.000      0.000
REMARK SMILES CCn1cnc(S(=O)(=O)N2CCC(C)(C(=O)NCCCCNC(=O)c3ccc(-c4c5nc(c(-c6ccc(S(=O)(=O)[O-])cc6)c6ccc([nH]6)c(-c6ccc(S(=O)(=O)[O-])cc6)c6nc(c(-c7ccc(S(=O)(=O)[O-])cc7)c7ccc4[nH]7)C=C6)C=C5)cc3)CC2)c1
REMARK SMILES IDX 19 1 18 2 17 3 15 4 16 5 13 7 10 8 11 9 86 10 12 11 85 12
REMARK SMILES IDX 14 13 7 14 8 15 9 16 6 17 3 18 4 19 87 20 5 21 2 22 1 23
REMARK SMILES IDX 20 24 21 25 22 26 23 27 24 29 25 30 26 31 84 32 27 33 83 34
REMARK SMILES IDX 28 35 29 36 30 37 77 38 31 39 82 40 76 41 78 42 32 43 81 44
REMARK SMILES IDX 75 45 74 46 33 48 63 49 44 50 62 51 45 52 48 53 61 54 79 55
REMARK SMILES IDX 46 56 47 57 60 59 80 60 49 61 34 62 35 63 43 64 36 65 42 66
REMARK SMILES IDX 37 67 38 68 39 69 40 70 41 71 64 72 65 73 73 74 66 75 72 76
REMARK SMILES IDX 67 77 68 78 69 79 70 80 71 81 50 82 51 83 59 84 52 85 58 86
REMARK SMILES IDX 53 87 54 88 55 89 56 90 57 91
REMARK H PARENT 17 6 22 28 78 47 48 58
REMARK Flexibility Score: inf
ROOT
ATOM      1  C   UNL A   1      35.286  21.727  25.847  1.00  0.00     0.023 C 
ENDROOT
BRANCH   1   2
ATOM      2  C   UNL A   1      33.957  21.884  25.100  1.00  0.00     0.116 C 
BRANCH   2   3
ATOM      3  N   UNL A   1      34.118  22.536  23.805  1.00  0.00    -0.356 N 
ATOM      4  C   UNL A   1      33.468  23.593  23.228  1.00  0.00     0.226 C 
ATOM      5  O   UNL A   1      33.771  23.876  22.069  1.00  0.00    -0.275 OA
ATOM      6  H   UNL A   1      34.825  22.144  23.243  1.00  0.00     0.163 HD
BRANCH   4   7
ATOM      7  C   UNL A   1      32.383  24.376  23.994  1.00  0.00     0.049 C 
ATOM      8  N   UNL A   1      33.206  26.908  25.207  1.00  0.00    -0.196 NA
ATOM      9  C   UNL A   1      33.176  26.833  23.753  1.00  0.00     0.103 C 
ATOM     10  C   UNL A   1      33.712  25.678  25.830  1.00  0.00     0.103 C 
ATOM     11  C   UNL A   1      32.209  25.755  23.296  1.00  0.00     0.033 C 
ATOM     12  C   UNL A   1      32.774  24.525  25.503  1.00  0.00     0.033 C 
ATOM     13  C   UNL A   1      31.080  23.527  23.975  1.00  0.00     0.022 C 
BRANCH   8  14
ATOM     14  S   UNL A   1      32.229  27.994  26.061  1.00  0.00     0.262 S 
ATOM     15  O   UNL A   1      31.563  27.271  27.122  1.00  0.00    -0.205 OA
ATOM     16  O   UNL A   1      31.481  28.756  25.077  1.00  0.00    -0.205 OA
BRANCH  14  17
ATOM     17  C   UNL A   1      33.185  29.205  26.911  1.00  0.00     0.188 A 
ATOM     18  N   UNL A   1      34.871  30.345  27.716  1.00  0.00    -0.336 N 
ATOM     19  C   UNL A   1      33.757  31.131  27.701  1.00  0.00     0.201 A 
ATOM     20  C   UNL A   1      34.479  29.078  27.378  1.00  0.00     0.129 A 
ATOM     21  N   UNL A   1      32.726  30.485  27.202  1.00  0.00    -0.224 NA
BRANCH  18  22
ATOM     22  C   UNL A   1      36.242  30.801  27.819  1.00  0.00     0.120 C 
ATOM     23  C   UNL A   1      37.242  29.699  28.104  1.00  0.00     0.027 C 
ENDBRANCH  18  22
ENDBRANCH  14  17
ENDBRANCH   8  14
ENDBRANCH   4   7
ENDBRANCH   2   3
ENDBRANCH   1   2
BRANCH   1  24
ATOM     24  C   UNL A   1      36.062  23.020  26.107  1.00  0.00     0.023 C 
BRANCH  24  25
ATOM     25  C   UNL A   1      37.453  23.047  25.495  1.00  0.00     0.116 C 
BRANCH  25  26
ATOM     26  N   UNL A   1      38.359  22.080  26.117  1.00  0.00    -0.352 N 
ATOM     27  C   UNL A   1      39.594  22.323  26.689  1.00  0.00     0.251 C 
ATOM     28  H   UNL A   1      38.052  21.144  26.129  1.00  0.00     0.163 HD
ATOM     29  O   UNL A   1      40.409  21.419  26.829  1.00  0.00    -0.269 OA
BRANCH  27  30
ATOM     30  C   UNL A   1      39.900  23.691  27.136  1.00  0.00     0.039 A 
ATOM     31  C   UNL A   1      38.965  24.724  27.042  1.00  0.00     0.014 A 
ATOM     32  C   UNL A   1      41.148  23.907  27.712  1.00  0.00     0.014 A 
ATOM     33  C   UNL A   1      39.273  25.957  27.614  1.00  0.00     0.010 A 
ATOM     34  C   UNL A   1      41.380  25.059  28.416  1.00  0.00     0.010 A 
ATOM     35  C   UNL A   1      40.478  26.111  28.319  1.00  0.00    -0.014 A 
BRANCH  35  36
ATOM     36  C   UNL A   1      40.775  27.336  29.055  1.00  0.00     0.031 A 
ATOM     37  C   UNL A   1      41.763  28.235  28.400  1.00  0.00     0.074 A 
ATOM     38  C   UNL A   1      40.043  27.748  30.113  1.00  0.00     0.049 A 
ATOM     39  N   UNL A   1      42.971  28.490  28.776  1.00  0.00    -0.248 NA
ATOM     40  C   UNL A   1      41.412  28.812  27.091  1.00  0.00     0.031 C 
ATOM     41  C   UNL A   1      38.825  27.142  30.669  1.00  0.00     0.029 A 
ATOM     42  N   UNL A   1      40.164  28.888  30.844  1.00  0.00    -0.354 N 
ATOM     43  C   UNL A   1      43.454  29.445  27.886  1.00  0.00     0.074 A 
ATOM     44  C   UNL A   1      42.543  29.444  26.768  1.00  0.00     0.031 C 
ATOM     45  C   UNL A   1      38.194  28.036  31.461  1.00  0.00     0.029 A 
ATOM     46  C   UNL A   1      39.053  29.192  31.623  1.00  0.00     0.049 A 
ATOM     47  H   UNL A   1      40.971  29.451  30.823  1.00  0.00     0.167 HD
ATOM     48  C   UNL A   1      44.405  30.349  28.256  1.00  0.00     0.031 A 
ATOM     49  C   UNL A   1      38.843  30.323  32.341  1.00  0.00     0.031 A 
ATOM     50  C   UNL A   1      45.025  29.985  29.505  1.00  0.00     0.049 A 
ATOM     51  C   UNL A   1      40.169  30.947  32.559  1.00  0.00     0.074 A 
ATOM     52  C   UNL A   1      45.738  28.893  29.960  1.00  0.00     0.029 A 
ATOM     53  N   UNL A   1      44.588  30.649  30.628  1.00  0.00    -0.354 N 
ATOM     54  N   UNL A   1      41.114  30.390  33.264  1.00  0.00    -0.248 NA
ATOM     55  C   UNL A   1      40.610  31.965  31.621  1.00  0.00     0.031 C 
ATOM     56  C   UNL A   1      45.289  28.696  31.299  1.00  0.00     0.029 A 
ATOM     57  C   UNL A   1      44.389  29.718  31.614  1.00  0.00     0.049 A 
ATOM     58  H   UNL A   1      44.446  31.619  30.709  1.00  0.00     0.167 HD
ATOM     59  C   UNL A   1      42.285  30.660  32.569  1.00  0.00     0.074 A 
ATOM     60  C   UNL A   1      41.924  31.720  31.629  1.00  0.00     0.031 C 
ATOM     61  C   UNL A   1      43.357  29.813  32.627  1.00  0.00     0.031 A 
BRANCH  48  62
ATOM     62  C   UNL A   1      44.470  31.766  27.727  1.00  0.00    -0.014 A 
ATOM     63  C   UNL A   1      45.478  32.096  26.796  1.00  0.00     0.010 A 
ATOM     64  C   UNL A   1      43.772  32.841  28.315  1.00  0.00     0.010 A 
ATOM     65  C   UNL A   1      45.824  33.430  26.537  1.00  0.00     0.020 A 
ATOM     66  C   UNL A   1      44.077  34.173  28.030  1.00  0.00     0.020 A 
ATOM     67  C   UNL A   1      45.129  34.459  27.171  1.00  0.00     0.054 A 
BRANCH  67  68
ATOM     68  S   UNL A   1      45.656  36.172  26.927  1.00  0.00     0.124 S 
ATOM     69  O   UNL A   1      46.490  36.059  25.735  1.00  0.00    -0.237 OA
ATOM     70  O   UNL A   1      44.383  36.864  26.748  1.00  0.00    -0.237 OA
ATOM     71  O   UNL A   1      46.366  36.490  28.163  1.00  0.00    -0.744 OA
ENDBRANCH  67  68
ENDBRANCH  48  62
BRANCH  49  72
ATOM     72  C   UNL A   1      37.559  31.024  32.583  1.00  0.00    -0.014 A 
ATOM     73  C   UNL A   1      37.379  31.862  33.699  1.00  0.00     0.010 A 
ATOM     74  C   UNL A   1      36.591  31.079  31.559  1.00  0.00     0.010 A 
ATOM     75  C   UNL A   1      36.294  32.755  33.765  1.00  0.00     0.020 A 
ATOM     76  C   UNL A   1      35.507  31.963  31.618  1.00  0.00     0.020 A 
ATOM     77  C   UNL A   1      35.372  32.812  32.714  1.00  0.00     0.054 A 
BRANCH  77  78
ATOM     78  S   UNL A   1      34.059  34.070  32.739  1.00  0.00     0.124 S 
ATOM     79  O   UNL A   1      34.637  35.105  33.591  1.00  0.00    -0.237 OA
ATOM     80  O   UNL A   1      33.921  34.415  31.327  1.00  0.00    -0.237 OA
ATOM     81  O   UNL A   1      32.917  33.361  33.317  1.00  0.00    -0.744 OA
ENDBRANCH  77  78
ENDBRANCH  49  72
BRANCH  61  82
ATOM     82  C   UNL A   1      43.372  28.740  33.694  1.00  0.00    -0.014 A 
ATOM     83  C   UNL A   1      43.995  28.884  34.951  1.00  0.00     0.010 A 
ATOM     84  C   UNL A   1      42.579  27.600  33.470  1.00  0.00     0.010 A 
ATOM     85  C   UNL A   1      43.840  27.903  35.945  1.00  0.00     0.020 A 
ATOM     86  C   UNL A   1      42.407  26.630  34.459  1.00  0.00     0.020 A 
ATOM     87  C   UNL A   1      43.044  26.782  35.692  1.00  0.00     0.054 A 
BRANCH  87  88
ATOM     88  S   UNL A   1      42.800  25.542  36.995  1.00  0.00     0.124 S 
ATOM     89  O   UNL A   1      41.929  24.565  36.345  1.00  0.00    -0.237 OA
ATOM     90  O   UNL A   1      44.161  25.086  37.270  1.00  0.00    -0.237 OA
ATOM     91  O   UNL A   1      42.177  26.296  38.083  1.00  0.00    -0.744 OA
ENDBRANCH  87  88
ENDBRANCH  61  82
ENDBRANCH  35  36
ENDBRANCH  27  30
ENDBRANCH  25  26
ENDBRANCH  24  25
ENDBRANCH   1  24
TORSDOF 17
ENDMDL
MODEL 2
REMARK VINA RESULT:     -11.8      2.895      5.375
REMARK SMILES CCn1cnc(S(=O)(=O)N2CCC(C)(C(=O)NCCCCNC(=O)c3ccc(-c4c5nc(c(-c6ccc(S(=O)(=O)[O-])cc6)c6ccc([nH]6)c(-c6ccc(S(=O)(=O)[O-])cc6)c6nc(c(-c7ccc(S(=O)(=O)[O-])cc7)c7ccc4[nH]7)C=C6)C=C5)cc3)CC2)c1
REMARK SMILES IDX 19 1 18 2 17 3 15 4 16 5 13 7 10 8 11 9 86 10 12 11 85 12
REMARK SMILES IDX 14 13 7 14 8 15 9 16 6 17 3 18 4 19 87 20 5 21 2 22 1 23
REMARK SMILES IDX 20 24 21 25 22 26 23 27 24 29 25 30 26 31 84 32 27 33 83 34
REMARK SMILES IDX 28 35 29 36 30 37 77 38 31 39 82 40 76 41 78 42 32 43 81 44
REMARK SMILES IDX 75 45 74 46 33 48 63 49 44 50 62 51 45 52 48 53 61 54 79 55
REMARK SMILES IDX 46 56 47 57 60 59 80 60 49 61 34 62 35 63 43 64 36 65 42 66
REMARK SMILES IDX 37 67 38 68 39 69 40 70 41 71 64 72 65 73 73 74 66 75 72 76
REMARK SMILES IDX 67 77 68 78 69 79 70 80 71 81 50 82 51 83 59 84 52 85 58 86
REMARK SMILES IDX 53 87 54 88 55 89 56 90 57 91
REMARK H PARENT 17 6 22 28 78 47 48 58
REMARK Flexibility Score: inf
ROOT
ATOM      1  C   UNL A   1      40.215  21.293  26.482  1.00  0.00     0.023 C 
ENDROOT
BRANCH   1   2
ATOM      2  C   UNL A   1      38.877  21.541  25.778  1.00  0.00     0.116 C 
BRANCH   2   3
ATOM      3  N   UNL A   1      38.269  22.810  26.164  1.00  0.00    -0.356 N 
ATOM      4  C   UNL A   1      37.139  23.449  25.734  1.00  0.00     0.226 C 
ATOM      5  O   UNL A   1      36.915  24.569  26.194  1.00  0.00    -0.275 OA
ATOM      6  H   UNL A   1      38.764  23.296  26.864  1.00  0.00     0.163 HD
BRANCH   4   7
ATOM      7  C   UNL A   1      36.202  22.800  24.696  1.00  0.00     0.049 C 
ATOM      8  N   UNL A   1      33.593  21.902  25.669  1.00  0.00    -0.196 NA
ATOM      9  C   UNL A   1      33.847  23.336  25.640  1.00  0.00     0.103 C 
ATOM     10  C   UNL A   1      34.762  21.125  26.095  1.00  0.00     0.103 C 
ATOM     11  C   UNL A   1      34.912  23.667  24.611  1.00  0.00     0.033 C 
ATOM     12  C   UNL A   1      35.889  21.317  25.089  1.00  0.00     0.033 C 
ATOM     13  C   UNL A   1      36.965  22.728  23.343  1.00  0.00     0.022 C 
BRANCH   8  14
ATOM     14  S   UNL A   1      32.350  21.202  24.757  1.00  0.00     0.262 S 
ATOM     15  O   UNL A   1      32.443  21.701  23.402  1.00  0.00    -0.205 OA
ATOM     16  O   UNL A   1      31.129  21.333  25.532  1.00  0.00    -0.205 OA
BRANCH  14  17
ATOM     17  C   UNL A   1      32.568  19.463  24.582  1.00  0.00     0.188 A 
ATOM     18  N   UNL A   1      32.609  17.313  24.989  1.00  0.00    -0.336 N 
ATOM     19  C   UNL A   1      32.597  17.520  23.641  1.00  0.00     0.201 A 
ATOM     20  C   UNL A   1      32.763  18.534  25.586  1.00  0.00     0.129 A 
ATOM     21  N   UNL A   1      32.549  18.804  23.358  1.00  0.00    -0.224 NA
BRANCH  18  22
ATOM     22  C   UNL A   1      32.273  16.080  25.672  1.00  0.00     0.120 C 
ATOM     23  C   UNL A   1      33.217  14.933  25.380  1.00  0.00     0.027 C 
ENDBRANCH  18  22
ENDBRANCH  14  17
ENDBRANCH   8  14
ENDBRANCH   4   7
ENDBRANCH   2   3
ENDBRANCH   1   2
BRANCH   1  24
ATOM     24  C   UNL A   1      40.847  19.918  26.249  1.00  0.00     0.023 C 
BRANCH  24  25
ATOM     25  C   UNL A   1      42.213  19.741  26.891  1.00  0.00     0.116 C 
BRANCH  25  26
ATOM     26  N   UNL A   1      43.271  19.509  25.908  1.00  0.00    -0.352 N 
ATOM     27  C   UNL A   1      43.908  20.443  25.112  1.00  0.00     0.251 C 
ATOM     28  H   UNL A   1      43.564  18.575  25.800  1.00  0.00     0.163 HD
ATOM     29  O   UNL A   1      44.484  20.104  24.085  1.00  0.00    -0.269 OA
BRANCH  27  30
ATOM     30  C   UNL A   1      43.883  21.853  25.533  1.00  0.00     0.039 A 
ATOM     31  C   UNL A   1      43.034  22.787  24.937  1.00  0.00     0.014 A 
ATOM     32  C   UNL A   1      44.706  22.212  26.597  1.00  0.00     0.014 A 
ATOM     33  C   UNL A   1      42.962  24.068  25.482  1.00  0.00     0.010 A 
ATOM     34  C   UNL A   1      44.511  23.410  27.231  1.00  0.00     0.010 A 
ATOM     35  C   UNL A   1      43.691  24.366  26.645  1.00  0.00    -0.014 A 
BRANCH  35  36
ATOM     36  C   UNL A   1      43.533  25.645  27.331  1.00  0.00     0.031 A 
ATOM     37  C   UNL A   1      44.563  26.664  26.997  1.00  0.00     0.074 A 
ATOM     38  C   UNL A   1      42.418  25.972  28.020  1.00  0.00     0.049 A 
ATOM     39  N   UNL A   1      45.507  27.115  27.755  1.00  0.00    -0.248 NA
ATOM     40  C   UNL A   1      44.642  27.138  25.604  1.00  0.00     0.031 C 
ATOM     41  C   UNL A   1      41.173  25.203  28.154  1.00  0.00     0.029 A 
ATOM     42  N   UNL A   1      42.112  27.140  28.645  1.00  0.00    -0.354 N 
ATOM     43  C   UNL A   1      46.149  28.104  27.017  1.00  0.00     0.074 A 
ATOM     44  C   UNL A   1      45.718  27.927  25.653  1.00  0.00     0.031 C 
ATOM     45  C   UNL A   1      40.184  26.013  28.590  1.00  0.00     0.029 A 
ATOM     46  C   UNL A   1      40.763  27.293  28.949  1.00  0.00     0.049 A 
ATOM     47  H   UNL A   1      42.788  27.820  28.865  1.00  0.00     0.167 HD
ATOM     48  C   UNL A   1      46.771  29.156  27.623  1.00  0.00     0.031 A 
ATOM     49  C   UNL A   1      40.158  28.400  29.445  1.00  0.00     0.031 A 
ATOM     50  C   UNL A   1      46.935  28.931  29.037  1.00  0.00     0.049 A 
ATOM     51  C   UNL A   1      41.218  29.228  30.068  1.00  0.00     0.074 A 
ATOM     52  C   UNL A   1      47.571  27.977  29.808  1.00  0.00     0.029 A 
ATOM     53  N   UNL A   1      46.035  29.555  29.870  1.00  0.00    -0.354 N 
ATOM     54  N   UNL A   1      41.906  28.845  31.107  1.00  0.00    -0.248 NA
ATOM     55  C   UNL A   1      41.831  30.272  29.264  1.00  0.00     0.031 C 
ATOM     56  C   UNL A   1      46.694  27.756  30.911  1.00  0.00     0.029 A 
ATOM     57  C   UNL A   1      45.614  28.636  30.795  1.00  0.00     0.049 A 
ATOM     58  H   UNL A   1      45.745  30.494  29.812  1.00  0.00     0.167 HD
ATOM     59  C   UNL A   1      43.202  29.271  30.855  1.00  0.00     0.074 A 
ATOM     60  C   UNL A   1      43.072  30.233  29.761  1.00  0.00     0.031 C 
ATOM     61  C   UNL A   1      44.281  28.602  31.363  1.00  0.00     0.031 A 
BRANCH  48  62
ATOM     62  C   UNL A   1      46.837  30.548  27.033  1.00  0.00    -0.014 A 
ATOM     63  C   UNL A   1      48.052  31.262  27.114  1.00  0.00     0.010 A 
ATOM     64  C   UNL A   1      45.691  31.284  26.664  1.00  0.00     0.010 A 
ATOM     65  C   UNL A   1      48.096  32.650  26.921  1.00  0.00     0.020 A 
ATOM     66  C   UNL A   1      45.733  32.658  26.425  1.00  0.00     0.020 A 
ATOM     67  C   UNL A   1      46.930  33.340  26.594  1.00  0.00     0.054 A 
BRANCH  67  68
ATOM     68  S   UNL A   1      46.969  35.144  26.464  1.00  0.00     0.124 S 
ATOM     69  O   UNL A   1      47.851  35.341  25.319  1.00  0.00    -0.237 OA
ATOM     70  O   UNL A   1      45.562  35.468  26.247  1.00  0.00    -0.237 OA
ATOM     71  O   UNL A   1      47.509  35.566  27.754  1.00  0.00    -0.744 OA
ENDBRANCH  67  68
ENDBRANCH  48  62
BRANCH  49  72
ATOM     72  C   UNL A   1      38.794  28.902  29.153  1.00  0.00    -0.014 A 
ATOM     73  C   UNL A   1      37.883  29.194  30.184  1.00  0.00     0.010 A 
ATOM     74  C   UNL A   1      38.480  29.352  27.854  1.00  0.00     0.010 A 
ATOM     75  C   UNL A   1      36.722  29.949  29.932  1.00  0.00     0.020 A 
ATOM     76  C   UNL A   1      37.326  30.101  27.593  1.00  0.00     0.020 A 
ATOM     77  C   UNL A   1      36.460  30.413  28.639  1.00  0.00     0.054 A 
BRANCH  77  78
ATOM     78  S   UNL A   1      35.039  31.510  28.350  1.00  0.00     0.124 S 
ATOM     79  O   UNL A   1      35.618  32.554  27.511  1.00  0.00    -0.237 OA
ATOM     80  O   UNL A   1      34.082  30.626  27.692  1.00  0.00    -0.237 OA
ATOM     81  O   UNL A   1      34.658  31.939  29.696  1.00  0.00    -0.744 OA
ENDBRANCH  77  78
ENDBRANCH  49  72
BRANCH  61  82
ATOM     82  C   UNL A   1      44.047  27.579  32.453  1.00  0.00    -0.014 A 
ATOM     83  C   UNL A   1      44.098  26.185  32.252  1.00  0.00     0.010 A 
ATOM     84  C   UNL A   1      43.933  28.059  33.770  1.00  0.00     0.010 A 
ATOM     85  C   UNL A   1      44.018  25.299  33.340  1.00  0.00     0.020 A 
ATOM     86  C   UNL A   1      43.871  27.185  34.857  1.00  0.00     0.020 A 
ATOM     87  C   UNL A   1      43.907  25.807  34.638  1.00  0.00     0.054 A 
BRANCH  87  88
ATOM     88  S   UNL A   1      43.858  24.665  36.048  1.00  0.00     0.124 S 
ATOM     89  O   UNL A   1      43.349  25.511  37.125  1.00  0.00    -0.237 OA
ATOM     90  O   UNL A   1      42.950  23.618  35.588  1.00  0.00    -0.237 OA
ATOM     91  O   UNL A   1      45.250  24.241  36.202  1.00  0.00    -0.744 OA
ENDBRANCH  87  88
ENDBRANCH  61  82
ENDBRANCH  35  36
ENDBRANCH  27  30
ENDBRANCH  25  26
ENDBRANCH  24  25
ENDBRANCH   1  24
TORSDOF 17
ENDMDL
MODEL 3
REMARK VINA RESULT:     -11.6      2.523      3.939
REMARK SMILES CCn1cnc(S(=O)(=O)N2CCC(C)(C(=O)NCCCCNC(=O)c3ccc(-c4c5nc(c(-c6ccc(S(=O)(=O)[O-])cc6)c6ccc([nH]6)c(-c6ccc(S(=O)(=O)[O-])cc6)c6nc(c(-c7ccc(S(=O)(=O)[O-])cc7)c7ccc4[nH]7)C=C6)C=C5)cc3)CC2)c1
REMARK SMILES IDX 19 1 18 2 17 3 15 4 16 5 13 7 10 8 11 9 86 10 12 11 85 12
REMARK SMILES IDX 14 13 7 14 8 15 9 16 6 17 3 18 4 19 87 20 5 21 2 22 1 23
REMARK SMILES IDX 20 24 21 25 22 26 23 27 24 29 25 30 26 31 84 32 27 33 83 34
REMARK SMILES IDX 28 35 29 36 30 37 77 38 31 39 82 40 76 41 78 42 32 43 81 44
REMARK SMILES IDX 75 45 74 46 33 48 63 49 44 50 62 51 45 52 48 53 61 54 79 55
REMARK SMILES IDX 46 56 47 57 60 59 80 60 49 61 34 62 35 63 43 64 36 65 42 66
REMARK SMILES IDX 37 67 38 68 39 69 40 70 41 71 64 72 65 73 73 74 66 75 72 76
REMARK SMILES IDX 67 77 68 78 69 79 70 80 71 81 50 82 51 83 59 84 52 85 58 86
REMARK SMILES IDX 53 87 54 88 55 89 56 90 57 91
REMARK H PARENT 17 6 22 28 78 47 48 58
REMARK Flexibility Score: inf
ROOT
ATOM      1  C   UNL A   1      39.420  21.910  26.374  1.00  0.00     0.023 C 
ENDROOT
BRANCH   1   2
ATOM      2  C   UNL A   1      38.039  22.222  25.787  1.00  0.00     0.116 C 
BRANCH   2   3
ATOM      3  N   UNL A   1      37.324  21.019  25.374  1.00  0.00    -0.356 N 
ATOM      4  C   UNL A   1      36.025  20.814  24.998  1.00  0.00     0.226 C 
ATOM      5  O   UNL A   1      35.679  19.653  24.776  1.00  0.00    -0.275 OA
ATOM      6  H   UNL A   1      37.878  20.205  25.364  1.00  0.00     0.163 HD
BRANCH   4   7
ATOM      7  C   UNL A   1      35.032  21.988  24.885  1.00  0.00     0.049 C 
ATOM      8  N   UNL A   1      32.493  21.697  26.309  1.00  0.00    -0.196 NA
ATOM      9  C   UNL A   1      33.705  21.829  27.106  1.00  0.00     0.103 C 
ATOM     10  C   UNL A   1      32.684  20.862  25.118  1.00  0.00     0.103 C 
ATOM     11  C   UNL A   1      34.786  22.544  26.317  1.00  0.00     0.033 C 
ATOM     12  C   UNL A   1      33.704  21.520  24.199  1.00  0.00     0.033 C 
ATOM     13  C   UNL A   1      35.652  23.047  23.929  1.00  0.00     0.022 C 
BRANCH   8  14
ATOM     14  S   UNL A   1      31.241  22.832  26.403  1.00  0.00     0.262 S 
ATOM     15  O   UNL A   1      31.466  23.666  27.563  1.00  0.00    -0.205 OA
ATOM     16  O   UNL A   1      29.996  22.107  26.220  1.00  0.00    -0.205 OA
BRANCH  14  17
ATOM     17  C   UNL A   1      31.284  23.966  25.055  1.00  0.00     0.188 A 
ATOM     18  N   UNL A   1      31.889  25.571  23.697  1.00  0.00    -0.336 N 
ATOM     19  C   UNL A   1      31.055  24.714  23.043  1.00  0.00     0.201 A 
ATOM     20  C   UNL A   1      31.903  25.200  25.014  1.00  0.00     0.129 A 
ATOM     21  N   UNL A   1      30.687  23.721  23.823  1.00  0.00    -0.224 NA
BRANCH  18  22
ATOM     22  C   UNL A   1      32.786  26.532  23.086  1.00  0.00     0.120 C 
ATOM     23  C   UNL A   1      33.843  27.077  24.023  1.00  0.00     0.027 C 
ENDBRANCH  18  22
ENDBRANCH  14  17
ENDBRANCH   8  14
ENDBRANCH   4   7
ENDBRANCH   2   3
ENDBRANCH   1   2
BRANCH   1  24
ATOM     24  C   UNL A   1      39.985  20.524  26.052  1.00  0.00     0.023 C 
BRANCH  24  25
ATOM     25  C   UNL A   1      41.117  20.084  26.966  1.00  0.00     0.116 C 
BRANCH  25  26
ATOM     26  N   UNL A   1      42.314  19.685  26.225  1.00  0.00    -0.352 N 
ATOM     27  C   UNL A   1      43.221  20.503  25.577  1.00  0.00     0.251 C 
ATOM     28  H   UNL A   1      42.496  18.718  26.184  1.00  0.00     0.163 HD
ATOM     29  O   UNL A   1      43.946  20.060  24.694  1.00  0.00    -0.269 OA
BRANCH  27  30
ATOM     30  C   UNL A   1      43.299  21.917  25.980  1.00  0.00     0.039 A 
ATOM     31  C   UNL A   1      42.715  22.933  25.222  1.00  0.00     0.014 A 
ATOM     32  C   UNL A   1      43.935  22.199  27.185  1.00  0.00     0.014 A 
ATOM     33  C   UNL A   1      42.705  24.229  25.736  1.00  0.00     0.010 A 
ATOM     34  C   UNL A   1      43.778  23.431  27.763  1.00  0.00     0.010 A 
ATOM     35  C   UNL A   1      43.222  24.466  27.021  1.00  0.00    -0.014 A 
BRANCH  35  36
ATOM     36  C   UNL A   1      43.102  25.774  27.656  1.00  0.00     0.031 A 
ATOM     37  C   UNL A   1      44.162  26.749  27.285  1.00  0.00     0.074 A 
ATOM     38  C   UNL A   1      41.996  26.162  28.328  1.00  0.00     0.049 A 
ATOM     39  N   UNL A   1      45.117  27.201  28.028  1.00  0.00    -0.248 NA
ATOM     40  C   UNL A   1      44.257  27.167  25.876  1.00  0.00     0.031 C 
ATOM     41  C   UNL A   1      40.728  25.435  28.490  1.00  0.00     0.029 A 
ATOM     42  N   UNL A   1      41.723  27.361  28.908  1.00  0.00    -0.354 N 
ATOM     43  C   UNL A   1      45.790  28.142  27.254  1.00  0.00     0.074 A 
ATOM     44  C   UNL A   1      45.356  27.925  25.897  1.00  0.00     0.031 C 
ATOM     45  C   UNL A   1      39.763  26.290  28.891  1.00  0.00     0.029 A 
ATOM     46  C   UNL A   1      40.379  27.565  29.201  1.00  0.00     0.049 A 
ATOM     47  H   UNL A   1      42.419  28.029  29.103  1.00  0.00     0.167 HD
ATOM     48  C   UNL A   1      46.442  29.197  27.820  1.00  0.00     0.031 A 
ATOM     49  C   UNL A   1      39.806  28.708  29.653  1.00  0.00     0.031 A 
ATOM     50  C   UNL A   1      46.597  29.022  29.243  1.00  0.00     0.049 A 
ATOM     51  C   UNL A   1      40.890  29.528  30.246  1.00  0.00     0.074 A 
ATOM     52  C   UNL A   1      47.203  28.081  30.051  1.00  0.00     0.029 A 
ATOM     53  N   UNL A   1      45.715  29.705  30.048  1.00  0.00    -0.354 N 
ATOM     54  N   UNL A   1      41.564  29.166  31.301  1.00  0.00    -0.248 NA
ATOM     55  C   UNL A   1      41.535  30.521  29.405  1.00  0.00     0.031 C 
ATOM     56  C   UNL A   1      46.319  27.929  31.160  1.00  0.00     0.029 A 
ATOM     57  C   UNL A   1      45.265  28.835  31.008  1.00  0.00     0.049 A 
ATOM     58  H   UNL A   1      45.453  30.648  29.953  1.00  0.00     0.167 HD
ATOM     59  C   UNL A   1      42.873  29.543  31.036  1.00  0.00     0.074 A 
ATOM     60  C   UNL A   1      42.774  30.465  29.905  1.00  0.00     0.031 C 
ATOM     61  C   UNL A   1      43.931  28.863  31.573  1.00  0.00     0.031 A 
BRANCH  48  62
ATOM     62  C   UNL A   1      46.550  30.563  27.178  1.00  0.00    -0.014 A 
ATOM     63  C   UNL A   1      47.823  31.161  27.066  1.00  0.00     0.010 A 
ATOM     64  C   UNL A   1      45.435  31.394  26.942  1.00  0.00     0.010 A 
ATOM     65  C   UNL A   1      47.965  32.534  26.820  1.00  0.00     0.020 A 
ATOM     66  C   UNL A   1      45.566  32.752  26.650  1.00  0.00     0.020 A 
ATOM     67  C   UNL A   1      46.831  33.323  26.630  1.00  0.00     0.054 A 
BRANCH  67  68
ATOM     68  S   UNL A   1      47.014  35.111  26.431  1.00  0.00     0.124 S 
ATOM     69  O   UNL A   1      46.836  35.582  27.800  1.00  0.00    -0.237 OA
ATOM     70  O   UNL A   1      48.365  35.225  25.890  1.00  0.00    -0.237 OA
ATOM     71  O   UNL A   1      45.943  35.462  25.502  1.00  0.00    -0.744 OA
ENDBRANCH  67  68
ENDBRANCH  48  62
BRANCH  49  72
ATOM     72  C   UNL A   1      38.458  29.238  29.338  1.00  0.00    -0.014 A 
ATOM     73  C   UNL A   1      37.564  29.622  30.355  1.00  0.00     0.010 A 
ATOM     74  C   UNL A   1      38.151  29.622  28.016  1.00  0.00     0.010 A 
ATOM     75  C   UNL A   1      36.429  30.400  30.063  1.00  0.00     0.020 A 
ATOM     76  C   UNL A   1      37.022  30.394  27.717  1.00  0.00     0.020 A 
ATOM     77  C   UNL A   1      36.174  30.796  28.746  1.00  0.00     0.054 A 
BRANCH  77  78
ATOM     78  S   UNL A   1      34.789  31.922  28.400  1.00  0.00     0.124 S 
ATOM     79  O   UNL A   1      34.392  32.347  29.739  1.00  0.00    -0.237 OA
ATOM     80  O   UNL A   1      35.412  32.948  27.569  1.00  0.00    -0.237 OA
ATOM     81  O   UNL A   1      33.819  31.072  27.709  1.00  0.00    -0.744 OA
ENDBRANCH  77  78
ENDBRANCH  49  72
BRANCH  61  82
ATOM     82  C   UNL A   1      43.665  27.890  32.701  1.00  0.00    -0.014 A 
ATOM     83  C   UNL A   1      42.863  28.180  33.823  1.00  0.00     0.010 A 
ATOM     84  C   UNL A   1      44.119  26.569  32.530  1.00  0.00     0.010 A 
ATOM     85  C   UNL A   1      42.543  27.179  34.755  1.00  0.00     0.020 A 
ATOM     86  C   UNL A   1      43.790  25.565  33.442  1.00  0.00     0.020 A 
ATOM     87  C   UNL A   1      43.007  25.875  34.556  1.00  0.00     0.054 A 
BRANCH  87  88
ATOM     88  S   UNL A   1      42.547  24.569  35.730  1.00  0.00     0.124 S 
ATOM     89  O   UNL A   1      42.644  23.361  34.914  1.00  0.00    -0.237 OA
ATOM     90  O   UNL A   1      43.556  24.703  36.778  1.00  0.00    -0.237 OA
ATOM     91  O   UNL A   1      41.190  24.930  36.139  1.00  0.00    -0.744 OA
ENDBRANCH  87  88
ENDBRANCH  61  82
ENDBRANCH  35  36
ENDBRANCH  27  30
ENDBRANCH  25  26
ENDBRANCH  24  25
ENDBRANCH   1  24
TORSDOF 17
ENDMDL
