MODEL 1
REMARK VINA RESULT:     -10.1      0.000      0.000
REMARK SMILES CCC[NH2+][C@]1(C(=O)NCCCCNC(=O)c2ccc(-c3c4nc(c(-c5ccc(S(=O)(=O)[O-])cc5)c5ccc([nH]5)c(-c5ccc(S(=O)(=O)[O-])cc5)c5nc(c(-c6ccc(S(=O)(=O)[O-])cc6)c6ccc3[nH]6)C=C5)C=C4)cc2)CCC[C@@H]([N@@H+](C)[C@@H](C)C2CC2)C1
REMARK SMILES IDX 10 1 9 2 8 3 6 4 7 5 5 7 76 8 87 9 77 10 79 11 78 12 4 13
REMARK SMILES IDX 3 16 2 17 1 18 80 19 81 20 82 22 83 23 84 24 85 25 86 26
REMARK SMILES IDX 11 27 12 28 13 29 14 30 15 32 16 33 17 34 75 35 18 36 74 37
REMARK SMILES IDX 19 38 20 39 21 40 68 41 22 42 73 43 67 44 69 45 23 46 72 47
REMARK SMILES IDX 66 48 65 49 24 51 54 52 35 53 53 54 36 55 39 56 52 57 70 58
REMARK SMILES IDX 37 59 38 60 51 62 71 63 40 64 25 65 26 66 34 67 27 68 33 69
REMARK SMILES IDX 28 70 29 71 30 72 31 73 32 74 55 75 56 76 64 77 57 78 63 79
REMARK SMILES IDX 58 80 59 81 60 82 61 83 62 84 41 85 42 86 50 87 43 88 49 89
REMARK SMILES IDX 44 90 45 91 46 92 47 93 48 94
REMARK H PARENT 8 6 4 14 4 15 80 21 13 31 69 50 39 61
REMARK Flexibility Score: inf
ROOT
ATOM      1  C   UNL A   1      37.807  23.782  26.032  1.00  0.00     0.023 C 
ENDROOT
BRANCH   1   2
ATOM      2  C   UNL A   1      36.422  23.348  25.555  1.00  0.00     0.116 C 
BRANCH   2   3
ATOM      3  N   UNL A   1      35.657  22.811  26.660  1.00  0.00    -0.351 N 
ATOM      4  C   UNL A   1      34.326  22.820  26.945  1.00  0.00     0.281 C 
ATOM      5  O   UNL A   1      34.029  22.402  28.072  1.00  0.00    -0.268 OA
ATOM      6  H   UNL A   1      36.205  22.350  27.335  1.00  0.00     0.163 HD
BRANCH   4   7
ATOM      7  C   UNL A   1      33.206  23.217  25.901  1.00  0.00     0.181 C 
ATOM      8  C   UNL A   1      31.844  23.062  26.634  1.00  0.00     0.079 C 
ATOM      9  C   UNL A   1      33.368  24.694  25.428  1.00  0.00     0.144 C 
ATOM     10  C   UNL A   1      30.669  23.615  25.846  1.00  0.00     0.013 C 
ATOM     11  C   UNL A   1      32.111  25.496  25.003  1.00  0.00     0.190 C 
ATOM     12  C   UNL A   1      30.830  25.123  25.748  1.00  0.00     0.065 C 
BRANCH   7  13
ATOM     13  N   UNL A   1      33.275  22.301  24.716  1.00  0.00    -0.333 N 
ATOM     14  H   UNL A   1      32.633  22.651  24.004  1.00  0.00     0.347 HD
ATOM     15  H   UNL A   1      34.245  22.299  24.401  1.00  0.00     0.347 HD
BRANCH  13  16
ATOM     16  C   UNL A   1      32.920  20.904  25.015  1.00  0.00     0.261 C 
BRANCH  16  17
ATOM     17  C   UNL A   1      34.032  19.925  24.623  1.00  0.00     0.058 C 
ATOM     18  C   UNL A   1      33.533  18.523  24.310  1.00  0.00     0.010 C 
ENDBRANCH  16  17
ENDBRANCH  13  16
ENDBRANCH   7  13
BRANCH  11  19
ATOM     19  N   UNL A   1      32.402  26.953  24.826  1.00  0.00    -0.332 N 
ATOM     20  C   UNL A   1      33.594  27.312  25.620  1.00  0.00     0.333 C 
ATOM     21  H   UNL A   1      31.508  27.329  25.140  1.00  0.00     0.348 HD
BRANCH  19  22
ATOM     22  C   UNL A   1      32.488  27.623  23.495  1.00  0.00     0.184 C 
ATOM     23  C   UNL A   1      33.311  26.967  22.379  1.00  0.00     0.075 C 
BRANCH  22  24
ATOM     24  C   UNL A   1      31.247  28.248  22.891  1.00  0.00     0.047 C 
ATOM     25  C   UNL A   1      29.835  27.961  23.324  1.00  0.00     0.010 C 
ATOM     26  C   UNL A   1      30.456  29.318  23.584  1.00  0.00     0.010 C 
ENDBRANCH  22  24
ENDBRANCH  19  22
ENDBRANCH  11  19
ENDBRANCH   4   7
ENDBRANCH   2   3
ENDBRANCH   1   2
BRANCH   1  27
ATOM     27  C   UNL A   1      38.828  22.654  26.152  1.00  0.00     0.023 C 
BRANCH  27  28
ATOM     28  C   UNL A   1      40.074  23.002  26.954  1.00  0.00     0.116 C 
BRANCH  28  29
ATOM     29  N   UNL A   1      41.216  23.382  26.129  1.00  0.00    -0.352 N 
ATOM     30  C   UNL A   1      41.889  24.583  26.095  1.00  0.00     0.251 C 
ATOM     31  H   UNL A   1      41.549  22.688  25.516  1.00  0.00     0.163 HD
ATOM     32  O   UNL A   1      42.786  24.770  25.280  1.00  0.00    -0.269 OA
BRANCH  30  33
ATOM     33  C   UNL A   1      41.478  25.659  27.020  1.00  0.00     0.039 A 
ATOM     34  C   UNL A   1      40.526  25.381  28.003  1.00  0.00     0.014 A 
ATOM     35  C   UNL A   1      42.109  26.904  26.977  1.00  0.00     0.014 A 
ATOM     36  C   UNL A   1      40.284  26.318  29.009  1.00  0.00     0.010 A 
ATOM     37  C   UNL A   1      41.935  27.793  28.029  1.00  0.00     0.010 A 
ATOM     38  C   UNL A   1      41.032  27.506  29.064  1.00  0.00    -0.014 A 
BRANCH  38  39
ATOM     39  C   UNL A   1      40.916  28.452  30.203  1.00  0.00     0.031 A 
ATOM     40  C   UNL A   1      41.780  28.268  31.422  1.00  0.00     0.074 A 
ATOM     41  C   UNL A   1      39.960  29.404  30.189  1.00  0.00     0.049 A 
ATOM     42  N   UNL A   1      41.737  28.899  32.567  1.00  0.00    -0.248 NA
ATOM     43  C   UNL A   1      42.800  27.207  31.360  1.00  0.00     0.031 C 
ATOM     44  C   UNL A   1      39.013  29.646  29.097  1.00  0.00     0.029 A 
ATOM     45  N   UNL A   1      39.614  30.339  31.135  1.00  0.00    -0.354 N 
ATOM     46  C   UNL A   1      42.692  28.288  33.370  1.00  0.00     0.074 A 
ATOM     47  C   UNL A   1      43.269  27.211  32.599  1.00  0.00     0.031 C 
ATOM     48  C   UNL A   1      38.213  30.674  29.424  1.00  0.00     0.029 A 
ATOM     49  C   UNL A   1      38.557  31.137  30.763  1.00  0.00     0.049 A 
ATOM     50  H   UNL A   1      40.079  30.428  31.998  1.00  0.00     0.167 HD
ATOM     51  C   UNL A   1      43.069  28.608  34.630  1.00  0.00     0.031 A 
ATOM     52  C   UNL A   1      37.927  32.125  31.429  1.00  0.00     0.031 A 
ATOM     53  C   UNL A   1      42.524  29.709  35.378  1.00  0.00     0.049 A 
ATOM     54  C   UNL A   1      38.390  32.486  32.813  1.00  0.00     0.074 A 
ATOM     55  C   UNL A   1      42.905  30.171  36.626  1.00  0.00     0.029 A 
ATOM     56  N   UNL A   1      41.490  30.524  34.945  1.00  0.00    -0.354 N 
ATOM     57  N   UNL A   1      39.349  31.946  33.527  1.00  0.00    -0.248 NA
ATOM     58  C   UNL A   1      37.692  33.594  33.481  1.00  0.00     0.031 C 
ATOM     59  C   UNL A   1      42.072  31.241  36.965  1.00  0.00     0.029 A 
ATOM     60  C   UNL A   1      41.204  31.474  35.909  1.00  0.00     0.049 A 
ATOM     61  H   UNL A   1      41.028  30.439  34.080  1.00  0.00     0.167 HD
ATOM     62  C   UNL A   1      39.381  32.661  34.718  1.00  0.00     0.074 A 
ATOM     63  C   UNL A   1      38.358  33.682  34.624  1.00  0.00     0.031 C 
ATOM     64  C   UNL A   1      40.184  32.484  35.796  1.00  0.00     0.031 A 
BRANCH  51  65
ATOM     65  C   UNL A   1      44.127  27.756  35.277  1.00  0.00    -0.014 A 
ATOM     66  C   UNL A   1      43.784  26.617  36.027  1.00  0.00     0.010 A 
ATOM     67  C   UNL A   1      45.486  28.079  35.103  1.00  0.00     0.010 A 
ATOM     68  C   UNL A   1      44.778  25.841  36.628  1.00  0.00     0.020 A 
ATOM     69  C   UNL A   1      46.484  27.288  35.680  1.00  0.00     0.020 A 
ATOM     70  C   UNL A   1      46.121  26.183  36.454  1.00  0.00     0.054 A 
BRANCH  70  71
ATOM     71  S   UNL A   1      47.392  25.144  37.225  1.00  0.00     0.124 S 
ATOM     72  O   UNL A   1      48.261  26.143  37.843  1.00  0.00    -0.237 OA
ATOM     73  O   UNL A   1      46.617  24.325  38.153  1.00  0.00    -0.237 OA
ATOM     74  O   UNL A   1      47.977  24.419  36.100  1.00  0.00    -0.744 OA
ENDBRANCH  70  71
ENDBRANCH  51  65
BRANCH  52  75
ATOM     75  C   UNL A   1      36.794  32.849  30.791  1.00  0.00    -0.014 A 
ATOM     76  C   UNL A   1      37.036  33.810  29.794  1.00  0.00     0.010 A 
ATOM     77  C   UNL A   1      35.467  32.575  31.169  1.00  0.00     0.010 A 
ATOM     78  C   UNL A   1      35.974  34.498  29.200  1.00  0.00     0.020 A 
ATOM     79  C   UNL A   1      34.400  33.243  30.559  1.00  0.00     0.020 A 
ATOM     80  C   UNL A   1      34.662  34.210  29.586  1.00  0.00     0.054 A 
BRANCH  80  81
ATOM     81  S   UNL A   1      33.295  35.078  28.767  1.00  0.00     0.124 S 
ATOM     82  O   UNL A   1      34.003  36.072  27.968  1.00  0.00    -0.237 OA
ATOM     83  O   UNL A   1      32.645  34.008  28.015  1.00  0.00    -0.237 OA
ATOM     84  O   UNL A   1      32.513  35.608  29.881  1.00  0.00    -0.744 OA
ENDBRANCH  80  81
ENDBRANCH  52  75
BRANCH  64  85
ATOM     85  C   UNL A   1      40.009  33.428  36.953  1.00  0.00    -0.014 A 
ATOM     86  C   UNL A   1      39.136  33.122  38.011  1.00  0.00     0.010 A 
ATOM     87  C   UNL A   1      40.785  34.600  37.016  1.00  0.00     0.010 A 
ATOM     88  C   UNL A   1      39.028  33.981  39.106  1.00  0.00     0.020 A 
ATOM     89  C   UNL A   1      40.697  35.450  38.121  1.00  0.00     0.020 A 
ATOM     90  C   UNL A   1      39.811  35.140  39.155  1.00  0.00     0.054 A 
BRANCH  90  91
ATOM     91  S   UNL A   1      39.700  36.208  40.617  1.00  0.00     0.124 S 
ATOM     92  O   UNL A   1      41.047  36.767  40.687  1.00  0.00    -0.237 OA
ATOM     93  O   UNL A   1      38.646  37.150  40.249  1.00  0.00    -0.237 OA
ATOM     94  O   UNL A   1      39.353  35.284  41.695  1.00  0.00    -0.744 OA
ENDBRANCH  90  91
ENDBRANCH  64  85
ENDBRANCH  38  39
ENDBRANCH  30  33
ENDBRANCH  28  29
ENDBRANCH  27  28
ENDBRANCH   1  27
TORSDOF 20
ENDMDL
MODEL 2
REMARK VINA RESULT:     -10.1      5.932      8.497
REMARK SMILES CCC[NH2+][C@]1(C(=O)NCCCCNC(=O)c2ccc(-c3c4nc(c(-c5ccc(S(=O)(=O)[O-])cc5)c5ccc([nH]5)c(-c5ccc(S(=O)(=O)[O-])cc5)c5nc(c(-c6ccc(S(=O)(=O)[O-])cc6)c6ccc3[nH]6)C=C5)C=C4)cc2)CCC[C@@H]([N@@H+](C)[C@@H](C)C2CC2)C1
REMARK SMILES IDX 10 1 9 2 8 3 6 4 7 5 5 7 76 8 87 9 77 10 79 11 78 12 4 13
REMARK SMILES IDX 3 16 2 17 1 18 80 19 81 20 82 22 83 23 84 24 85 25 86 26
REMARK SMILES IDX 11 27 12 28 13 29 14 30 15 32 16 33 17 34 75 35 18 36 74 37
REMARK SMILES IDX 19 38 20 39 21 40 68 41 22 42 73 43 67 44 69 45 23 46 72 47
REMARK SMILES IDX 66 48 65 49 24 51 54 52 35 53 53 54 36 55 39 56 52 57 70 58
REMARK SMILES IDX 37 59 38 60 51 62 71 63 40 64 25 65 26 66 34 67 27 68 33 69
REMARK SMILES IDX 28 70 29 71 30 72 31 73 32 74 55 75 56 76 64 77 57 78 63 79
REMARK SMILES IDX 58 80 59 81 60 82 61 83 62 84 41 85 42 86 50 87 43 88 49 89
REMARK SMILES IDX 44 90 45 91 46 92 47 93 48 94
REMARK H PARENT 8 6 4 14 4 15 80 21 13 31 69 50 39 61
REMARK Flexibility Score: inf
ROOT
ATOM      1  C   UNL A   1      37.498  22.742  25.222  1.00  0.00     0.023 C 
ENDROOT
BRANCH   1   2
ATOM      2  C   UNL A   1      35.973  22.681  25.171  1.00  0.00     0.116 C 
BRANCH   2   3
ATOM      3  N   UNL A   1      35.444  22.265  26.452  1.00  0.00    -0.351 N 
ATOM      4  C   UNL A   1      34.185  21.959  26.870  1.00  0.00     0.281 C 
ATOM      5  O   UNL A   1      34.064  21.796  28.091  1.00  0.00    -0.268 OA
ATOM      6  H   UNL A   1      36.127  22.189  27.157  1.00  0.00     0.163 HD
BRANCH   4   7
ATOM      7  C   UNL A   1      32.970  21.707  25.890  1.00  0.00     0.181 C 
ATOM      8  C   UNL A   1      33.192  22.637  24.664  1.00  0.00     0.079 C 
ATOM      9  C   UNL A   1      32.928  20.224  25.407  1.00  0.00     0.144 C 
ATOM     10  C   UNL A   1      32.232  22.362  23.517  1.00  0.00     0.013 C 
ATOM     11  C   UNL A   1      32.338  19.898  24.011  1.00  0.00     0.190 C 
ATOM     12  C   UNL A   1      32.544  20.985  22.957  1.00  0.00     0.065 C 
BRANCH   7  13
ATOM     13  N   UNL A   1      31.684  22.044  26.582  1.00  0.00    -0.333 N 
ATOM     14  H   UNL A   1      30.911  21.744  25.987  1.00  0.00     0.347 HD
ATOM     15  H   UNL A   1      31.697  21.560  27.480  1.00  0.00     0.347 HD
BRANCH  13  16
ATOM     16  C   UNL A   1      31.516  23.478  26.874  1.00  0.00     0.261 C 
BRANCH  16  17
ATOM     17  C   UNL A   1      30.191  24.028  26.338  1.00  0.00     0.058 C 
ATOM     18  C   UNL A   1      30.265  25.480  25.892  1.00  0.00     0.010 C 
ENDBRANCH  16  17
ENDBRANCH  13  16
ENDBRANCH   7  13
BRANCH  11  19
ATOM     19  N   UNL A   1      32.604  18.484  23.600  1.00  0.00    -0.332 N 
ATOM     20  C   UNL A   1      32.220  18.308  22.185  1.00  0.00     0.333 C 
ATOM     21  H   UNL A   1      32.030  18.009  24.296  1.00  0.00     0.348 HD
BRANCH  19  22
ATOM     22  C   UNL A   1      33.899  17.782  23.841  1.00  0.00     0.184 C 
ATOM     23  C   UNL A   1      35.062  18.556  24.476  1.00  0.00     0.075 C 
BRANCH  22  24
ATOM     24  C   UNL A   1      33.894  16.367  24.383  1.00  0.00     0.047 C 
ATOM     25  C   UNL A   1      34.973  15.766  25.240  1.00  0.00     0.010 C 
ATOM     26  C   UNL A   1      33.603  16.048  25.819  1.00  0.00     0.010 C 
ENDBRANCH  22  24
ENDBRANCH  19  22
ENDBRANCH  11  19
ENDBRANCH   4   7
ENDBRANCH   2   3
ENDBRANCH   1   2
BRANCH   1  27
ATOM     27  C   UNL A   1      38.193  21.385  25.284  1.00  0.00     0.023 C 
BRANCH  27  28
ATOM     28  C   UNL A   1      39.305  21.282  26.317  1.00  0.00     0.116 C 
BRANCH  28  29
ATOM     29  N   UNL A   1      40.112  20.073  26.193  1.00  0.00    -0.352 N 
ATOM     30  C   UNL A   1      41.484  19.951  26.206  1.00  0.00     0.251 C 
ATOM     31  H   UNL A   1      39.610  19.234  26.086  1.00  0.00     0.163 HD
ATOM     32  O   UNL A   1      42.014  18.862  26.008  1.00  0.00    -0.269 OA
BRANCH  30  33
ATOM     33  C   UNL A   1      42.307  21.160  26.410  1.00  0.00     0.039 A 
ATOM     34  C   UNL A   1      42.649  21.943  25.306  1.00  0.00     0.014 A 
ATOM     35  C   UNL A   1      42.648  21.570  27.701  1.00  0.00     0.014 A 
ATOM     36  C   UNL A   1      43.241  23.191  25.505  1.00  0.00     0.010 A 
ATOM     37  C   UNL A   1      43.151  22.849  27.901  1.00  0.00     0.010 A 
ATOM     38  C   UNL A   1      43.441  23.680  26.807  1.00  0.00    -0.014 A 
BRANCH  38  39
ATOM     39  C   UNL A   1      43.921  25.063  27.059  1.00  0.00     0.031 A 
ATOM     40  C   UNL A   1      45.376  25.398  26.867  1.00  0.00     0.074 A 
ATOM     41  C   UNL A   1      43.075  25.984  27.565  1.00  0.00     0.049 A 
ATOM     42  N   UNL A   1      46.013  26.502  27.160  1.00  0.00    -0.248 NA
ATOM     43  C   UNL A   1      46.234  24.339  26.309  1.00  0.00     0.031 C 
ATOM     44  C   UNL A   1      41.655  25.768  27.859  1.00  0.00     0.029 A 
ATOM     45  N   UNL A   1      43.292  27.288  27.940  1.00  0.00    -0.354 N 
ATOM     46  C   UNL A   1      47.348  26.257  26.861  1.00  0.00     0.074 A 
ATOM     47  C   UNL A   1      47.436  24.889  26.404  1.00  0.00     0.031 C 
ATOM     48  C   UNL A   1      41.126  26.903  28.345  1.00  0.00     0.029 A 
ATOM     49  C   UNL A   1      42.173  27.914  28.440  1.00  0.00     0.049 A 
ATOM     50  H   UNL A   1      44.167  27.732  27.860  1.00  0.00     0.167 HD
ATOM     51  C   UNL A   1      48.402  27.102  26.941  1.00  0.00     0.031 A 
ATOM     52  C   UNL A   1      42.009  29.159  28.929  1.00  0.00     0.031 A 
ATOM     53  C   UNL A   1      48.303  28.476  27.353  1.00  0.00     0.049 A 
ATOM     54  C   UNL A   1      43.189  30.090  28.971  1.00  0.00     0.074 A 
ATOM     55  C   UNL A   1      49.298  29.438  27.380  1.00  0.00     0.029 A 
ATOM     56  N   UNL A   1      47.142  29.084  27.803  1.00  0.00    -0.354 N 
ATOM     57  N   UNL A   1      44.429  29.863  28.610  1.00  0.00    -0.248 NA
ATOM     58  C   UNL A   1      42.947  31.448  29.480  1.00  0.00     0.031 C 
ATOM     59  C   UNL A   1      48.746  30.619  27.885  1.00  0.00     0.029 A 
ATOM     60  C   UNL A   1      47.398  30.404  28.129  1.00  0.00     0.049 A 
ATOM     61  H   UNL A   1      46.265  28.643  27.879  1.00  0.00     0.167 HD
ATOM     62  C   UNL A   1      45.110  31.054  28.831  1.00  0.00     0.074 A 
ATOM     63  C   UNL A   1      44.143  32.004  29.340  1.00  0.00     0.031 C 
ATOM     64  C   UNL A   1      46.422  31.336  28.632  1.00  0.00     0.031 A 
BRANCH  51  65
ATOM     65  C   UNL A   1      49.756  26.561  26.569  1.00  0.00    -0.014 A 
ATOM     66  C   UNL A   1      50.607  26.001  27.539  1.00  0.00     0.010 A 
ATOM     67  C   UNL A   1      50.170  26.580  25.224  1.00  0.00     0.010 A 
ATOM     68  C   UNL A   1      51.864  25.511  27.179  1.00  0.00     0.020 A 
ATOM     69  C   UNL A   1      51.416  26.064  24.856  1.00  0.00     0.020 A 
ATOM     70  C   UNL A   1      52.262  25.549  25.840  1.00  0.00     0.054 A 
BRANCH  70  71
ATOM     71  S   UNL A   1      53.890  24.883  25.396  1.00  0.00     0.124 S 
ATOM     72  O   UNL A   1      54.634  25.058  26.642  1.00  0.00    -0.237 OA
ATOM     73  O   UNL A   1      53.584  23.500  25.038  1.00  0.00    -0.237 OA
ATOM     74  O   UNL A   1      54.321  25.729  24.288  1.00  0.00    -0.744 OA
ENDBRANCH  70  71
ENDBRANCH  51  65
BRANCH  52  75
ATOM     75  C   UNL A   1      40.671  29.600  29.410  1.00  0.00    -0.014 A 
ATOM     76  C   UNL A   1      39.657  29.921  28.492  1.00  0.00     0.010 A 
ATOM     77  C   UNL A   1      40.402  29.692  30.787  1.00  0.00     0.010 A 
ATOM     78  C   UNL A   1      38.402  30.345  28.941  1.00  0.00     0.020 A 
ATOM     79  C   UNL A   1      39.141  30.092  31.241  1.00  0.00     0.020 A 
ATOM     80  C   UNL A   1      38.152  30.427  30.314  1.00  0.00     0.054 A 
BRANCH  80  81
ATOM     81  S   UNL A   1      36.502  30.930  30.877  1.00  0.00     0.124 S 
ATOM     82  O   UNL A   1      36.167  29.869  31.820  1.00  0.00    -0.237 OA
ATOM     83  O   UNL A   1      36.755  32.243  31.464  1.00  0.00    -0.237 OA
ATOM     84  O   UNL A   1      35.714  30.949  29.647  1.00  0.00    -0.744 OA
ENDBRANCH  80  81
ENDBRANCH  52  75
BRANCH  64  85
ATOM     85  C   UNL A   1      46.886  32.731  28.942  1.00  0.00    -0.014 A 
ATOM     86  C   UNL A   1      47.413  33.054  30.204  1.00  0.00     0.010 A 
ATOM     87  C   UNL A   1      46.863  33.711  27.933  1.00  0.00     0.010 A 
ATOM     88  C   UNL A   1      47.895  34.340  30.458  1.00  0.00     0.020 A 
ATOM     89  C   UNL A   1      47.365  34.991  28.176  1.00  0.00     0.020 A 
ATOM     90  C   UNL A   1      47.868  35.301  29.442  1.00  0.00     0.054 A 
BRANCH  90  91
ATOM     91  S   UNL A   1      48.557  36.946  29.776  1.00  0.00     0.124 S 
ATOM     92  O   UNL A   1      48.798  36.887  31.215  1.00  0.00    -0.237 OA
ATOM     93  O   UNL A   1      49.753  36.970  28.938  1.00  0.00    -0.237 OA
ATOM     94  O   UNL A   1      47.494  37.857  29.359  1.00  0.00    -0.744 OA
ENDBRANCH  90  91
ENDBRANCH  64  85
ENDBRANCH  38  39
ENDBRANCH  30  33
ENDBRANCH  28  29
ENDBRANCH  27  28
ENDBRANCH   1  27
TORSDOF 20
ENDMDL
MODEL 3
REMARK VINA RESULT:     -10.0      6.137     10.501
REMARK SMILES CCC[NH2+][C@]1(C(=O)NCCCCNC(=O)c2ccc(-c3c4nc(c(-c5ccc(S(=O)(=O)[O-])cc5)c5ccc([nH]5)c(-c5ccc(S(=O)(=O)[O-])cc5)c5nc(c(-c6ccc(S(=O)(=O)[O-])cc6)c6ccc3[nH]6)C=C5)C=C4)cc2)CCC[C@@H]([N@@H+](C)[C@@H](C)C2CC2)C1
REMARK SMILES IDX 10 1 9 2 8 3 6 4 7 5 5 7 76 8 87 9 77 10 79 11 78 12 4 13
REMARK SMILES IDX 3 16 2 17 1 18 80 19 81 20 82 22 83 23 84 24 85 25 86 26
REMARK SMILES IDX 11 27 12 28 13 29 14 30 15 32 16 33 17 34 75 35 18 36 74 37
REMARK SMILES IDX 19 38 20 39 21 40 68 41 22 42 73 43 67 44 69 45 23 46 72 47
REMARK SMILES IDX 66 48 65 49 24 51 54 52 35 53 53 54 36 55 39 56 52 57 70 58
REMARK SMILES IDX 37 59 38 60 51 62 71 63 40 64 25 65 26 66 34 67 27 68 33 69
REMARK SMILES IDX 28 70 29 71 30 72 31 73 32 74 55 75 56 76 64 77 57 78 63 79
REMARK SMILES IDX 58 80 59 81 60 82 61 83 62 84 41 85 42 86 50 87 43 88 49 89
REMARK SMILES IDX 44 90 45 91 46 92 47 93 48 94
REMARK H PARENT 8 6 4 14 4 15 80 21 13 31 69 50 39 61
REMARK Flexibility Score: inf
ROOT
ATOM      1  C   UNL A   1      39.056  22.131  26.130  1.00  0.00     0.023 C 
ENDROOT
BRANCH   1   2
ATOM      2  C   UNL A   1      37.630  22.621  25.887  1.00  0.00     0.116 C 
BRANCH   2   3
ATOM      3  N   UNL A   1      37.389  22.783  24.469  1.00  0.00    -0.351 N 
ATOM      4  C   UNL A   1      36.266  23.068  23.755  1.00  0.00     0.281 C 
ATOM      5  O   UNL A   1      36.387  22.971  22.527  1.00  0.00    -0.268 OA
ATOM      6  H   UNL A   1      38.193  22.663  23.914  1.00  0.00     0.163 HD
BRANCH   4   7
ATOM      7  C   UNL A   1      34.924  23.600  24.403  1.00  0.00     0.181 C 
ATOM      8  C   UNL A   1      35.331  24.710  25.412  1.00  0.00     0.079 C 
ATOM      9  C   UNL A   1      33.976  24.211  23.325  1.00  0.00     0.144 C 
ATOM     10  C   UNL A   1      34.147  25.486  25.965  1.00  0.00     0.013 C 
ATOM     11  C   UNL A   1      33.006  25.351  23.727  1.00  0.00     0.190 C 
ATOM     12  C   UNL A   1      33.524  26.277  24.826  1.00  0.00     0.065 C 
BRANCH   7  13
ATOM     13  N   UNL A   1      34.223  22.477  25.107  1.00  0.00    -0.333 N 
ATOM     14  H   UNL A   1      34.787  22.202  25.911  1.00  0.00     0.347 HD
ATOM     15  H   UNL A   1      33.303  22.826  25.374  1.00  0.00     0.347 HD
BRANCH  13  16
ATOM     16  C   UNL A   1      34.000  21.288  24.266  1.00  0.00     0.261 C 
BRANCH  16  17
ATOM     17  C   UNL A   1      32.512  20.959  24.109  1.00  0.00     0.058 C 
ATOM     18  C   UNL A   1      32.154  20.373  22.752  1.00  0.00     0.010 C 
ENDBRANCH  16  17
ENDBRANCH  13  16
ENDBRANCH   7  13
BRANCH  11  19
ATOM     19  N   UNL A   1      32.360  25.991  22.538  1.00  0.00    -0.332 N 
ATOM     20  C   UNL A   1      32.605  25.158  21.344  1.00  0.00     0.333 C 
ATOM     21  H   UNL A   1      32.830  26.895  22.575  1.00  0.00     0.348 HD
BRANCH  19  22
ATOM     22  C   UNL A   1      30.944  26.460  22.519  1.00  0.00     0.184 C 
ATOM     23  C   UNL A   1      29.936  25.838  23.495  1.00  0.00     0.075 C 
BRANCH  22  24
ATOM     24  C   UNL A   1      30.647  27.939  22.381  1.00  0.00     0.047 C 
ATOM     25  C   UNL A   1      29.884  28.765  23.379  1.00  0.00     0.010 C 
ATOM     26  C   UNL A   1      31.368  28.990  23.172  1.00  0.00     0.010 C 
ENDBRANCH  22  24
ENDBRANCH  19  22
ENDBRANCH  11  19
ENDBRANCH   4   7
ENDBRANCH   2   3
ENDBRANCH   1   2
BRANCH   1  27
ATOM     27  C   UNL A   1      39.329  20.701  25.673  1.00  0.00     0.023 C 
BRANCH  27  28
ATOM     28  C   UNL A   1      40.091  19.844  26.673  1.00  0.00     0.116 C 
BRANCH  28  29
ATOM     29  N   UNL A   1      41.306  19.246  26.129  1.00  0.00    -0.352 N 
ATOM     30  C   UNL A   1      42.528  19.838  25.903  1.00  0.00     0.251 C 
ATOM     31  H   UNL A   1      41.243  18.293  25.892  1.00  0.00     0.163 HD
ATOM     32  O   UNL A   1      43.433  19.211  25.360  1.00  0.00    -0.269 OA
BRANCH  30  33
ATOM     33  C   UNL A   1      42.716  21.255  26.276  1.00  0.00     0.039 A 
ATOM     34  C   UNL A   1      43.011  21.573  27.603  1.00  0.00     0.014 A 
ATOM     35  C   UNL A   1      42.701  22.249  25.296  1.00  0.00     0.014 A 
ATOM     36  C   UNL A   1      43.396  22.875  27.928  1.00  0.00     0.010 A 
ATOM     37  C   UNL A   1      43.174  23.518  25.604  1.00  0.00     0.010 A 
ATOM     38  C   UNL A   1      43.539  23.843  26.920  1.00  0.00    -0.014 A 
BRANCH  38  39
ATOM     39  C   UNL A   1      44.096  25.190  27.202  1.00  0.00     0.031 A 
ATOM     40  C   UNL A   1      43.199  26.277  27.733  1.00  0.00     0.074 A 
ATOM     41  C   UNL A   1      45.376  25.468  26.877  1.00  0.00     0.049 A 
ATOM     42  N   UNL A   1      43.459  27.545  27.915  1.00  0.00    -0.248 NA
ATOM     43  C   UNL A   1      41.816  25.894  28.065  1.00  0.00     0.031 C 
ATOM     44  C   UNL A   1      46.332  24.523  26.294  1.00  0.00     0.029 A 
ATOM     45  N   UNL A   1      46.090  26.637  26.974  1.00  0.00    -0.354 N 
ATOM     46  C   UNL A   1      42.267  28.117  28.343  1.00  0.00     0.074 A 
ATOM     47  C   UNL A   1      41.273  27.067  28.353  1.00  0.00     0.031 C 
ATOM     48  C   UNL A   1      47.510  25.142  26.108  1.00  0.00     0.029 A 
ATOM     49  C   UNL A   1      47.384  26.536  26.516  1.00  0.00     0.049 A 
ATOM     50  H   UNL A   1      45.712  27.470  27.338  1.00  0.00     0.167 HD
ATOM     51  C   UNL A   1      42.026  29.396  28.712  1.00  0.00     0.031 A 
ATOM     52  C   UNL A   1      48.357  27.463  26.425  1.00  0.00     0.031 A 
ATOM     53  C   UNL A   1      43.028  30.427  28.744  1.00  0.00     0.049 A 
ATOM     54  C   UNL A   1      48.075  28.869  26.878  1.00  0.00     0.074 A 
ATOM     55  C   UNL A   1      42.904  31.731  29.191  1.00  0.00     0.029 A 
ATOM     56  N   UNL A   1      44.338  30.269  28.320  1.00  0.00    -0.354 N 
ATOM     57  N   UNL A   1      46.961  29.371  27.354  1.00  0.00    -0.248 NA
ATOM     58  C   UNL A   1      49.182  29.831  26.790  1.00  0.00     0.031 C 
ATOM     59  C   UNL A   1      44.131  32.374  28.999  1.00  0.00     0.029 A 
ATOM     60  C   UNL A   1      45.030  31.458  28.475  1.00  0.00     0.049 A 
ATOM     61  H   UNL A   1      44.720  29.436  27.962  1.00  0.00     0.167 HD
ATOM     62  C   UNL A   1      47.239  30.703  27.638  1.00  0.00     0.074 A 
ATOM     63  C   UNL A   1      48.629  30.924  27.299  1.00  0.00     0.031 C 
ATOM     64  C   UNL A   1      46.414  31.658  28.134  1.00  0.00     0.031 A 
BRANCH  51  65
ATOM     65  C   UNL A   1      40.621  29.750  29.119  1.00  0.00    -0.014 A 
ATOM     66  C   UNL A   1      39.559  29.678  28.199  1.00  0.00     0.010 A 
ATOM     67  C   UNL A   1      40.352  30.125  30.448  1.00  0.00     0.010 A 
ATOM     68  C   UNL A   1      38.262  30.017  28.589  1.00  0.00     0.020 A 
ATOM     69  C   UNL A   1      39.050  30.438  30.849  1.00  0.00     0.020 A 
ATOM     70  C   UNL A   1      38.016  30.398  29.911  1.00  0.00     0.054 A 
BRANCH  70  71
ATOM     71  S   UNL A   1      36.318  30.810  30.397  1.00  0.00     0.124 S 
ATOM     72  O   UNL A   1      35.983  29.698  31.285  1.00  0.00    -0.237 OA
ATOM     73  O   UNL A   1      36.476  32.107  31.050  1.00  0.00    -0.237 OA
ATOM     74  O   UNL A   1      35.591  30.837  29.131  1.00  0.00    -0.744 OA
ENDBRANCH  70  71
ENDBRANCH  51  65
BRANCH  52  75
ATOM     75  C   UNL A   1      49.695  27.089  25.888  1.00  0.00    -0.014 A 
ATOM     76  C   UNL A   1      50.676  26.553  26.739  1.00  0.00     0.010 A 
ATOM     77  C   UNL A   1      49.989  27.257  24.523  1.00  0.00     0.010 A 
ATOM     78  C   UNL A   1      51.937  26.209  26.240  1.00  0.00     0.020 A 
ATOM     79  C   UNL A   1      51.240  26.892  24.015  1.00  0.00     0.020 A 
ATOM     80  C   UNL A   1      52.210  26.381  24.880  1.00  0.00     0.054 A 
BRANCH  80  81
ATOM     81  S   UNL A   1      53.834  25.882  24.241  1.00  0.00     0.124 S 
ATOM     82  O   UNL A   1      53.627  25.954  22.799  1.00  0.00    -0.237 OA
ATOM     83  O   UNL A   1      54.722  26.895  24.806  1.00  0.00    -0.237 OA
ATOM     84  O   UNL A   1      54.014  24.537  24.783  1.00  0.00    -0.744 OA
ENDBRANCH  80  81
ENDBRANCH  52  75
BRANCH  64  85
ATOM     85  C   UNL A   1      46.996  33.025  28.363  1.00  0.00    -0.014 A 
ATOM     86  C   UNL A   1      47.667  33.335  29.558  1.00  0.00     0.010 A 
ATOM     87  C   UNL A   1      46.935  33.986  27.337  1.00  0.00     0.010 A 
ATOM     88  C   UNL A   1      48.253  34.591  29.732  1.00  0.00     0.020 A 
ATOM     89  C   UNL A   1      47.541  35.234  27.499  1.00  0.00     0.020 A 
ATOM     90  C   UNL A   1      48.187  35.533  28.700  1.00  0.00     0.054 A 
BRANCH  90  91
ATOM     91  S   UNL A   1      49.010  37.134  28.924  1.00  0.00     0.124 S 
ATOM     92  O   UNL A   1      50.414  36.782  28.738  1.00  0.00    -0.237 OA
ATOM     93  O   UNL A   1      48.420  37.950  27.866  1.00  0.00    -0.237 OA
ATOM     94  O   UNL A   1      48.640  37.525  30.283  1.00  0.00    -0.744 OA
ENDBRANCH  90  91
ENDBRANCH  64  85
ENDBRANCH  38  39
ENDBRANCH  30  33
ENDBRANCH  28  29
ENDBRANCH  27  28
ENDBRANCH   1  27
TORSDOF 20
ENDMDL
