MODEL 1
REMARK VINA RESULT:     -10.9      0.000      0.000
REMARK SMILES NC(=O)CC[C@@H](C(=O)NCCCCNC(=O)c1ccc(-c2c3nc(c(-c4ccc(S(=O)(=O)[O-])cc4)c4ccc([nH]4)c(-c4ccc(S(=O)(=O)[O-])cc4)c4nc(c(-c5ccc(S(=O)(=O)[O-])cc5)c5ccc2[nH]5)C=C4)C=C3)cc1)N1C(=O)/C(=C/c2ccc(C=O)cc2)SC1=S
REMARK SMILES IDX 11 1 10 2 9 3 7 4 8 5 6 7 5 8 4 9 2 10 1 11 3 14 77 15 78 16
REMARK SMILES IDX 91 17 79 18 80 19 90 20 92 21 81 22 82 23 83 24 89 25 84 26
REMARK SMILES IDX 88 27 85 28 86 29 87 30 12 31 13 32 14 33 15 34 16 36 17 37
REMARK SMILES IDX 18 38 76 39 19 40 75 41 20 42 21 43 22 44 69 45 23 46 74 47
REMARK SMILES IDX 68 48 70 49 24 50 73 51 67 52 66 53 25 55 55 56 36 57 54 58
REMARK SMILES IDX 37 59 40 60 53 61 71 62 38 63 39 64 52 66 72 67 41 68 26 69
REMARK SMILES IDX 27 70 35 71 28 72 34 73 29 74 30 75 31 76 32 77 33 78 56 79
REMARK SMILES IDX 57 80 65 81 58 82 64 83 59 84 60 85 61 86 62 87 63 88 42 89
REMARK SMILES IDX 43 90 51 91 44 92 50 93 45 94 46 95 47 96 48 97 49 98
REMARK H PARENT 9 6 1 12 1 13 14 35 70 54 40 65
REMARK Flexibility Score: inf
ROOT
ATOM      1  C   UNL A   1      34.819  24.072  26.123  1.00  0.00     0.023 C 
ENDROOT
BRANCH   1   2
ATOM      2  C   UNL A   1      34.729  25.215  25.111  1.00  0.00     0.116 C 
BRANCH   2   3
ATOM      3  N   UNL A   1      33.797  26.223  25.568  1.00  0.00    -0.354 N 
ATOM      4  C   UNL A   1      32.582  26.603  25.088  1.00  0.00     0.243 C 
ATOM      5  O   UNL A   1      32.017  27.517  25.699  1.00  0.00    -0.273 OA
ATOM      6  H   UNL A   1      34.095  26.719  26.365  1.00  0.00     0.163 HD
BRANCH   4   7
ATOM      7  C   UNL A   1      31.904  25.868  23.895  1.00  0.00     0.181 C 
BRANCH   7   8
ATOM      8  C   UNL A   1      30.511  26.365  23.446  1.00  0.00     0.045 C 
BRANCH   8   9
ATOM      9  C   UNL A   1      30.348  27.564  22.520  1.00  0.00     0.102 C 
BRANCH   9  10
ATOM     10  C   UNL A   1      30.130  28.947  23.098  1.00  0.00     0.217 C 
ATOM     11  N   UNL A   1      31.183  29.614  23.631  1.00  0.00    -0.370 N 
ATOM     12  H   UNL A   1      31.055  30.514  24.010  1.00  0.00     0.159 HD
ATOM     13  H   UNL A   1      32.076  29.199  23.640  1.00  0.00     0.159 HD
ATOM     14  O   UNL A   1      29.009  29.440  23.185  1.00  0.00    -0.275 OA
ENDBRANCH   9  10
ENDBRANCH   8   9
ENDBRANCH   7   8
BRANCH   7  15
ATOM     15  N   UNL A   1      31.831  24.437  24.327  1.00  0.00    -0.280 N 
ATOM     16  C   UNL A   1      32.448  23.459  23.558  1.00  0.00     0.266 C 
ATOM     17  C   UNL A   1      31.056  23.973  25.370  1.00  0.00     0.149 C 
ATOM     18  O   UNL A   1      33.123  23.631  22.550  1.00  0.00    -0.268 OA
ATOM     19  C   UNL A   1      32.222  22.114  24.137  1.00  0.00     0.081 C 
ATOM     20  S   UNL A   1      31.181  22.219  25.492  1.00  0.00    -0.054 SA
ATOM     21  S   UNL A   1      30.131  24.863  26.439  1.00  0.00    -0.052 S 
ATOM     22  C   UNL A   1      32.835  21.040  23.620  1.00  0.00     0.029 C 
BRANCH  22  23
ATOM     23  C   UNL A   1      32.733  19.661  24.093  1.00  0.00    -0.024 A 
ATOM     24  C   UNL A   1      32.904  19.389  25.456  1.00  0.00     0.009 A 
ATOM     25  C   UNL A   1      32.526  18.605  23.197  1.00  0.00     0.009 A 
ATOM     26  C   UNL A   1      32.849  18.074  25.923  1.00  0.00     0.012 A 
ATOM     27  C   UNL A   1      32.471  17.289  23.660  1.00  0.00     0.012 A 
ATOM     28  C   UNL A   1      32.631  17.028  25.023  1.00  0.00     0.014 A 
BRANCH  28  29
ATOM     29  C   UNL A   1      32.574  15.634  25.503  1.00  0.00     0.260 C 
ATOM     30  O   UNL A   1      33.508  14.855  25.362  1.00  0.00    -0.298 OA
ENDBRANCH  28  29
ENDBRANCH  22  23
ENDBRANCH   7  15
ENDBRANCH   4   7
ENDBRANCH   2   3
ENDBRANCH   1   2
BRANCH   1  31
ATOM     31  C   UNL A   1      35.757  22.945  25.714  1.00  0.00     0.023 C 
BRANCH  31  32
ATOM     32  C   UNL A   1      37.079  23.421  25.129  1.00  0.00     0.116 C 
BRANCH  32  33
ATOM     33  N   UNL A   1      38.200  22.529  25.405  1.00  0.00    -0.352 N 
ATOM     34  C   UNL A   1      39.351  22.810  26.107  1.00  0.00     0.251 C 
ATOM     35  H   UNL A   1      38.125  21.616  25.046  1.00  0.00     0.163 HD
ATOM     36  O   UNL A   1      40.251  21.983  26.195  1.00  0.00    -0.269 OA
BRANCH  34  37
ATOM     37  C   UNL A   1      39.493  24.151  26.704  1.00  0.00     0.039 A 
ATOM     38  C   UNL A   1      39.061  24.357  28.014  1.00  0.00     0.014 A 
ATOM     39  C   UNL A   1      40.173  25.153  26.007  1.00  0.00     0.014 A 
ATOM     40  C   UNL A   1      39.391  25.548  28.661  1.00  0.00     0.010 A 
ATOM     41  C   UNL A   1      40.578  26.295  26.683  1.00  0.00     0.010 A 
ATOM     42  C   UNL A   1      40.196  26.502  28.019  1.00  0.00    -0.014 A 
BRANCH  42  43
ATOM     43  C   UNL A   1      40.661  27.725  28.720  1.00  0.00     0.031 A 
ATOM     44  C   UNL A   1      42.037  27.758  29.327  1.00  0.00     0.074 A 
ATOM     45  C   UNL A   1      39.820  28.766  28.885  1.00  0.00     0.049 A 
ATOM     46  N   UNL A   1      42.594  28.692  30.054  1.00  0.00    -0.248 NA
ATOM     47  C   UNL A   1      42.885  26.572  29.119  1.00  0.00     0.031 C 
ATOM     48  C   UNL A   1      38.441  28.832  28.393  1.00  0.00     0.029 A 
ATOM     49  N   UNL A   1      40.000  29.967  29.523  1.00  0.00    -0.354 N 
ATOM     50  C   UNL A   1      43.843  28.196  30.408  1.00  0.00     0.074 A 
ATOM     51  C   UNL A   1      43.939  26.858  29.867  1.00  0.00     0.031 C 
ATOM     52  C   UNL A   1      37.913  30.023  28.721  1.00  0.00     0.029 A 
ATOM     53  C   UNL A   1      38.896  30.787  29.480  1.00  0.00     0.049 A 
ATOM     54  H   UNL A   1      40.841  30.219  29.970  1.00  0.00     0.167 HD
ATOM     55  C   UNL A   1      44.833  28.807  31.103  1.00  0.00     0.031 A 
ATOM     56  C   UNL A   1      38.697  32.015  29.999  1.00  0.00     0.031 A 
ATOM     57  C   UNL A   1      44.742  30.146  31.616  1.00  0.00     0.049 A 
ATOM     58  C   UNL A   1      39.815  32.680  30.754  1.00  0.00     0.074 A 
ATOM     59  C   UNL A   1      45.713  30.881  32.275  1.00  0.00     0.029 A 
ATOM     60  N   UNL A   1      43.618  30.953  31.526  1.00  0.00    -0.354 N 
ATOM     61  N   UNL A   1      41.015  32.221  31.021  1.00  0.00    -0.248 NA
ATOM     62  C   UNL A   1      39.557  34.032  31.268  1.00  0.00     0.031 C 
ATOM     63  C   UNL A   1      45.159  32.118  32.624  1.00  0.00     0.029 A 
ATOM     64  C   UNL A   1      43.863  32.172  32.135  1.00  0.00     0.049 A 
ATOM     65  H   UNL A   1      42.772  30.698  31.094  1.00  0.00     0.167 HD
ATOM     66  C   UNL A   1      41.663  33.238  31.713  1.00  0.00     0.074 A 
ATOM     67  C   UNL A   1      40.728  34.340  31.809  1.00  0.00     0.031 C 
ATOM     68  C   UNL A   1      42.920  33.259  32.220  1.00  0.00     0.031 A 
BRANCH  55  69
ATOM     69  C   UNL A   1      46.097  28.025  31.338  1.00  0.00    -0.014 A 
ATOM     70  C   UNL A   1      47.188  28.128  30.456  1.00  0.00     0.010 A 
ATOM     71  C   UNL A   1      46.205  27.192  32.467  1.00  0.00     0.010 A 
ATOM     72  C   UNL A   1      48.344  27.373  30.669  1.00  0.00     0.020 A 
ATOM     73  C   UNL A   1      47.372  26.459  32.700  1.00  0.00     0.020 A 
ATOM     74  C   UNL A   1      48.426  26.540  31.789  1.00  0.00     0.054 A 
BRANCH  74  75
ATOM     75  S   UNL A   1      49.944  25.582  32.048  1.00  0.00     0.124 S 
ATOM     76  O   UNL A   1      50.161  25.001  30.726  1.00  0.00    -0.237 OA
ATOM     77  O   UNL A   1      50.905  26.605  32.451  1.00  0.00    -0.237 OA
ATOM     78  O   UNL A   1      49.577  24.629  33.094  1.00  0.00    -0.744 OA
ENDBRANCH  74  75
ENDBRANCH  55  69
BRANCH  56  79
ATOM     79  C   UNL A   1      37.392  32.703  29.802  1.00  0.00    -0.014 A 
ATOM     80  C   UNL A   1      36.332  32.490  30.700  1.00  0.00     0.010 A 
ATOM     81  C   UNL A   1      37.205  33.587  28.723  1.00  0.00     0.010 A 
ATOM     82  C   UNL A   1      35.105  33.134  30.516  1.00  0.00     0.020 A 
ATOM     83  C   UNL A   1      35.988  34.252  28.548  1.00  0.00     0.020 A 
ATOM     84  C   UNL A   1      34.941  34.012  29.441  1.00  0.00     0.054 A 
BRANCH  84  85
ATOM     85  S   UNL A   1      33.357  34.879  29.251  1.00  0.00     0.124 S 
ATOM     86  O   UNL A   1      32.806  34.800  30.600  1.00  0.00    -0.237 OA
ATOM     87  O   UNL A   1      33.775  36.208  28.814  1.00  0.00    -0.237 OA
ATOM     88  O   UNL A   1      32.657  34.090  28.239  1.00  0.00    -0.744 OA
ENDBRANCH  84  85
ENDBRANCH  56  79
BRANCH  68  89
ATOM     89  C   UNL A   1      43.373  34.520  32.902  1.00  0.00    -0.014 A 
ATOM     90  C   UNL A   1      43.164  34.720  34.277  1.00  0.00     0.010 A 
ATOM     91  C   UNL A   1      44.076  35.491  32.164  1.00  0.00     0.010 A 
ATOM     92  C   UNL A   1      43.631  35.880  34.899  1.00  0.00     0.020 A 
ATOM     93  C   UNL A   1      44.567  36.640  32.788  1.00  0.00     0.020 A 
ATOM     94  C   UNL A   1      44.330  36.833  34.151  1.00  0.00     0.054 A 
BRANCH  94  95
ATOM     95  S   UNL A   1      44.972  38.305  34.993  1.00  0.00     0.124 S 
ATOM     96  O   UNL A   1      45.329  37.773  36.305  1.00  0.00    -0.237 OA
ATOM     97  O   UNL A   1      46.097  38.695  34.146  1.00  0.00    -0.237 OA
ATOM     98  O   UNL A   1      43.843  39.232  34.981  1.00  0.00    -0.744 OA
ENDBRANCH  94  95
ENDBRANCH  68  89
ENDBRANCH  42  43
ENDBRANCH  34  37
ENDBRANCH  32  33
ENDBRANCH  31  32
ENDBRANCH   1  31
TORSDOF 20
ENDMDL
MODEL 2
REMARK VINA RESULT:     -10.6      3.824      6.717
REMARK SMILES NC(=O)CC[C@@H](C(=O)NCCCCNC(=O)c1ccc(-c2c3nc(c(-c4ccc(S(=O)(=O)[O-])cc4)c4ccc([nH]4)c(-c4ccc(S(=O)(=O)[O-])cc4)c4nc(c(-c5ccc(S(=O)(=O)[O-])cc5)c5ccc2[nH]5)C=C4)C=C3)cc1)N1C(=O)/C(=C/c2ccc(C=O)cc2)SC1=S
REMARK SMILES IDX 11 1 10 2 9 3 7 4 8 5 6 7 5 8 4 9 2 10 1 11 3 14 77 15 78 16
REMARK SMILES IDX 91 17 79 18 80 19 90 20 92 21 81 22 82 23 83 24 89 25 84 26
REMARK SMILES IDX 88 27 85 28 86 29 87 30 12 31 13 32 14 33 15 34 16 36 17 37
REMARK SMILES IDX 18 38 76 39 19 40 75 41 20 42 21 43 22 44 69 45 23 46 74 47
REMARK SMILES IDX 68 48 70 49 24 50 73 51 67 52 66 53 25 55 55 56 36 57 54 58
REMARK SMILES IDX 37 59 40 60 53 61 71 62 38 63 39 64 52 66 72 67 41 68 26 69
REMARK SMILES IDX 27 70 35 71 28 72 34 73 29 74 30 75 31 76 32 77 33 78 56 79
REMARK SMILES IDX 57 80 65 81 58 82 64 83 59 84 60 85 61 86 62 87 63 88 42 89
REMARK SMILES IDX 43 90 51 91 44 92 50 93 45 94 46 95 47 96 48 97 49 98
REMARK H PARENT 9 6 1 12 1 13 14 35 70 54 40 65
REMARK Flexibility Score: inf
ROOT
ATOM      1  C   UNL A   1      37.638  22.557  25.032  1.00  0.00     0.023 C 
ENDROOT
BRANCH   1   2
ATOM      2  C   UNL A   1      36.132  22.699  25.255  1.00  0.00     0.116 C 
BRANCH   2   3
ATOM      3  N   UNL A   1      35.447  22.868  23.993  1.00  0.00    -0.354 N 
ATOM      4  C   UNL A   1      34.127  23.029  23.704  1.00  0.00     0.243 C 
ATOM      5  O   UNL A   1      33.842  23.141  22.507  1.00  0.00    -0.273 OA
ATOM      6  H   UNL A   1      36.039  22.865  23.206  1.00  0.00     0.163 HD
BRANCH   4   7
ATOM      7  C   UNL A   1      33.052  23.156  24.822  1.00  0.00     0.181 C 
BRANCH   7   8
ATOM      8  C   UNL A   1      31.932  22.091  24.864  1.00  0.00     0.045 C 
BRANCH   8   9
ATOM      9  C   UNL A   1      32.188  20.643  24.465  1.00  0.00     0.102 C 
BRANCH   9  10
ATOM     10  C   UNL A   1      33.243  19.829  25.187  1.00  0.00     0.217 C 
ATOM     11  N   UNL A   1      32.897  19.140  26.301  1.00  0.00    -0.370 N 
ATOM     12  H   UNL A   1      33.573  18.607  26.780  1.00  0.00     0.159 HD
ATOM     13  H   UNL A   1      31.970  19.172  26.632  1.00  0.00     0.159 HD
ATOM     14  O   UNL A   1      34.422  19.856  24.847  1.00  0.00    -0.275 OA
ENDBRANCH   9  10
ENDBRANCH   8   9
ENDBRANCH   7   8
BRANCH   7  15
ATOM     15  N   UNL A   1      32.466  24.519  24.628  1.00  0.00    -0.280 N 
ATOM     16  C   UNL A   1      31.336  24.671  23.836  1.00  0.00     0.266 C 
ATOM     17  C   UNL A   1      33.055  25.691  25.057  1.00  0.00     0.149 C 
ATOM     18  O   UNL A   1      30.693  23.782  23.291  1.00  0.00    -0.268 OA
ATOM     19  C   UNL A   1      30.947  26.098  23.742  1.00  0.00     0.081 C 
ATOM     20  S   UNL A   1      32.092  27.079  24.551  1.00  0.00    -0.054 SA
ATOM     21  S   UNL A   1      34.450  25.872  25.958  1.00  0.00    -0.052 S 
ATOM     22  C   UNL A   1      29.810  26.453  23.127  1.00  0.00     0.029 C 
BRANCH  22  23
ATOM     23  C   UNL A   1      29.282  27.808  22.977  1.00  0.00    -0.024 A 
ATOM     24  C   UNL A   1      27.959  28.074  23.352  1.00  0.00     0.009 A 
ATOM     25  C   UNL A   1      30.059  28.825  22.409  1.00  0.00     0.009 A 
ATOM     26  C   UNL A   1      27.423  29.351  23.180  1.00  0.00     0.012 A 
ATOM     27  C   UNL A   1      29.526  30.104  22.235  1.00  0.00     0.012 A 
ATOM     28  C   UNL A   1      28.210  30.363  22.623  1.00  0.00     0.014 A 
BRANCH  28  29
ATOM     29  C   UNL A   1      27.654  31.717  22.433  1.00  0.00     0.260 C 
ATOM     30  O   UNL A   1      28.114  32.699  23.002  1.00  0.00    -0.298 OA
ENDBRANCH  28  29
ENDBRANCH  22  23
ENDBRANCH   7  15
ENDBRANCH   4   7
ENDBRANCH   2   3
ENDBRANCH   1   2
BRANCH   1  31
ATOM     31  C   UNL A   1      38.182  21.158  25.288  1.00  0.00     0.023 C 
BRANCH  31  32
ATOM     32  C   UNL A   1      39.380  21.121  26.225  1.00  0.00     0.116 C 
BRANCH  32  33
ATOM     33  N   UNL A   1      40.189  19.914  26.100  1.00  0.00    -0.352 N 
ATOM     34  C   UNL A   1      41.562  19.809  26.133  1.00  0.00     0.251 C 
ATOM     35  H   UNL A   1      39.694  19.073  25.976  1.00  0.00     0.163 HD
ATOM     36  O   UNL A   1      42.115  18.733  25.935  1.00  0.00    -0.269 OA
BRANCH  34  37
ATOM     37  C   UNL A   1      42.349  21.035  26.361  1.00  0.00     0.039 A 
ATOM     38  C   UNL A   1      42.680  21.839  25.270  1.00  0.00     0.014 A 
ATOM     39  C   UNL A   1      42.636  21.443  27.666  1.00  0.00     0.014 A 
ATOM     40  C   UNL A   1      43.223  23.104  25.496  1.00  0.00     0.010 A 
ATOM     41  C   UNL A   1      43.091  22.735  27.889  1.00  0.00     0.010 A 
ATOM     42  C   UNL A   1      43.384  23.581  26.807  1.00  0.00    -0.014 A 
BRANCH  42  43
ATOM     43  C   UNL A   1      43.850  24.964  27.078  1.00  0.00     0.031 A 
ATOM     44  C   UNL A   1      45.298  25.317  26.873  1.00  0.00     0.074 A 
ATOM     45  C   UNL A   1      42.995  25.873  27.588  1.00  0.00     0.049 A 
ATOM     46  N   UNL A   1      45.917  26.438  27.137  1.00  0.00    -0.248 NA
ATOM     47  C   UNL A   1      46.170  24.260  26.332  1.00  0.00     0.031 C 
ATOM     48  C   UNL A   1      41.579  25.637  27.886  1.00  0.00     0.029 A 
ATOM     49  N   UNL A   1      43.195  27.180  27.956  1.00  0.00    -0.354 N 
ATOM     50  C   UNL A   1      47.251  26.212  26.818  1.00  0.00     0.074 A 
ATOM     51  C   UNL A   1      47.361  24.833  26.397  1.00  0.00     0.031 C 
ATOM     52  C   UNL A   1      41.034  26.769  28.362  1.00  0.00     0.029 A 
ATOM     53  C   UNL A   1      42.065  27.797  28.442  1.00  0.00     0.049 A 
ATOM     54  H   UNL A   1      44.065  27.633  27.880  1.00  0.00     0.167 HD
ATOM     55  C   UNL A   1      48.290  27.081  26.850  1.00  0.00     0.031 A 
ATOM     56  C   UNL A   1      41.882  29.050  28.905  1.00  0.00     0.031 A 
ATOM     57  C   UNL A   1      48.171  28.458  27.244  1.00  0.00     0.049 A 
ATOM     58  C   UNL A   1      43.046  30.001  28.918  1.00  0.00     0.074 A 
ATOM     59  C   UNL A   1      49.148  29.438  27.248  1.00  0.00     0.029 A 
ATOM     60  N   UNL A   1      47.004  29.051  27.701  1.00  0.00    -0.354 N 
ATOM     61  N   UNL A   1      44.287  29.790  28.548  1.00  0.00    -0.248 NA
ATOM     62  C   UNL A   1      42.784  31.365  29.398  1.00  0.00     0.031 C 
ATOM     63  C   UNL A   1      48.581  30.615  27.751  1.00  0.00     0.029 A 
ATOM     64  C   UNL A   1      47.240  30.381  28.009  1.00  0.00     0.049 A 
ATOM     65  H   UNL A   1      46.137  28.596  27.793  1.00  0.00     0.167 HD
ATOM     66  C   UNL A   1      44.948  30.999  28.729  1.00  0.00     0.074 A 
ATOM     67  C   UNL A   1      43.966  31.942  29.226  1.00  0.00     0.031 C 
ATOM     68  C   UNL A   1      46.249  31.304  28.502  1.00  0.00     0.031 A 
BRANCH  55  69
ATOM     69  C   UNL A   1      49.641  26.559  26.442  1.00  0.00    -0.014 A 
ATOM     70  C   UNL A   1      50.149  26.794  25.151  1.00  0.00     0.010 A 
ATOM     71  C   UNL A   1      50.423  25.842  27.365  1.00  0.00     0.010 A 
ATOM     72  C   UNL A   1      51.392  26.278  24.775  1.00  0.00     0.020 A 
ATOM     73  C   UNL A   1      51.680  25.351  27.002  1.00  0.00     0.020 A 
ATOM     74  C   UNL A   1      52.147  25.556  25.703  1.00  0.00     0.054 A 
BRANCH  74  75
ATOM     75  S   UNL A   1      53.763  24.909  25.191  1.00  0.00     0.124 S 
ATOM     76  O   UNL A   1      54.615  25.319  26.304  1.00  0.00    -0.237 OA
ATOM     77  O   UNL A   1      53.515  23.473  25.086  1.00  0.00    -0.237 OA
ATOM     78  O   UNL A   1      54.022  25.589  23.925  1.00  0.00    -0.744 OA
ENDBRANCH  74  75
ENDBRANCH  55  69
BRANCH  56  79
ATOM     79  C   UNL A   1      40.537  29.480  29.374  1.00  0.00    -0.014 A 
ATOM     80  C   UNL A   1      40.188  29.375  30.731  1.00  0.00     0.010 A 
ATOM     81  C   UNL A   1      39.600  30.012  28.468  1.00  0.00     0.010 A 
ATOM     82  C   UNL A   1      38.924  29.776  31.173  1.00  0.00     0.020 A 
ATOM     83  C   UNL A   1      38.344  30.439  28.910  1.00  0.00     0.020 A 
ATOM     84  C   UNL A   1      38.010  30.307  30.259  1.00  0.00     0.054 A 
BRANCH  84  85
ATOM     85  S   UNL A   1      36.395  30.874  30.863  1.00  0.00     0.124 S 
ATOM     86  O   UNL A   1      35.540  30.645  29.703  1.00  0.00    -0.237 OA
ATOM     87  O   UNL A   1      36.160  29.996  32.007  1.00  0.00    -0.237 OA
ATOM     88  O   UNL A   1      36.632  32.276  31.202  1.00  0.00    -0.744 OA
ENDBRANCH  84  85
ENDBRANCH  56  79
BRANCH  68  89
ATOM     89  C   UNL A   1      46.686  32.720  28.760  1.00  0.00    -0.014 A 
ATOM     90  C   UNL A   1      47.218  33.102  30.003  1.00  0.00     0.010 A 
ATOM     91  C   UNL A   1      46.621  33.664  27.718  1.00  0.00     0.010 A 
ATOM     92  C   UNL A   1      47.658  34.411  30.208  1.00  0.00     0.020 A 
ATOM     93  C   UNL A   1      47.085  34.968  27.912  1.00  0.00     0.020 A 
ATOM     94  C   UNL A   1      47.589  35.337  29.161  1.00  0.00     0.054 A 
BRANCH  94  95
ATOM     95  S   UNL A   1      48.216  37.016  29.436  1.00  0.00     0.124 S 
ATOM     96  O   UNL A   1      49.189  37.157  28.356  1.00  0.00    -0.237 OA
ATOM     97  O   UNL A   1      47.012  37.834  29.308  1.00  0.00    -0.237 OA
ATOM     98  O   UNL A   1      48.782  36.958  30.782  1.00  0.00    -0.744 OA
ENDBRANCH  94  95
ENDBRANCH  68  89
ENDBRANCH  42  43
ENDBRANCH  34  37
ENDBRANCH  32  33
ENDBRANCH  31  32
ENDBRANCH   1  31
TORSDOF 20
ENDMDL
MODEL 3
REMARK VINA RESULT:     -10.4      3.850     10.079
REMARK SMILES NC(=O)CC[C@@H](C(=O)NCCCCNC(=O)c1ccc(-c2c3nc(c(-c4ccc(S(=O)(=O)[O-])cc4)c4ccc([nH]4)c(-c4ccc(S(=O)(=O)[O-])cc4)c4nc(c(-c5ccc(S(=O)(=O)[O-])cc5)c5ccc2[nH]5)C=C4)C=C3)cc1)N1C(=O)/C(=C/c2ccc(C=O)cc2)SC1=S
REMARK SMILES IDX 11 1 10 2 9 3 7 4 8 5 6 7 5 8 4 9 2 10 1 11 3 14 77 15 78 16
REMARK SMILES IDX 91 17 79 18 80 19 90 20 92 21 81 22 82 23 83 24 89 25 84 26
REMARK SMILES IDX 88 27 85 28 86 29 87 30 12 31 13 32 14 33 15 34 16 36 17 37
REMARK SMILES IDX 18 38 76 39 19 40 75 41 20 42 21 43 22 44 69 45 23 46 74 47
REMARK SMILES IDX 68 48 70 49 24 50 73 51 67 52 66 53 25 55 55 56 36 57 54 58
REMARK SMILES IDX 37 59 40 60 53 61 71 62 38 63 39 64 52 66 72 67 41 68 26 69
REMARK SMILES IDX 27 70 35 71 28 72 34 73 29 74 30 75 31 76 32 77 33 78 56 79
REMARK SMILES IDX 57 80 65 81 58 82 64 83 59 84 60 85 61 86 62 87 63 88 42 89
REMARK SMILES IDX 43 90 51 91 44 92 50 93 45 94 46 95 47 96 48 97 49 98
REMARK H PARENT 9 6 1 12 1 13 14 35 70 54 40 65
REMARK Flexibility Score: inf
ROOT
ATOM      1  C   UNL A   1      38.051  23.173  25.183  1.00  0.00     0.023 C 
ENDROOT
BRANCH   1   2
ATOM      2  C   UNL A   1      36.694  23.733  25.612  1.00  0.00     0.116 C 
BRANCH   2   3
ATOM      3  N   UNL A   1      35.687  23.434  24.618  1.00  0.00    -0.354 N 
ATOM      4  C   UNL A   1      34.334  23.322  24.720  1.00  0.00     0.243 C 
ATOM      5  O   UNL A   1      33.731  23.044  23.678  1.00  0.00    -0.273 OA
ATOM      6  H   UNL A   1      36.041  23.286  23.712  1.00  0.00     0.163 HD
BRANCH   4   7
ATOM      7  C   UNL A   1      33.583  23.617  26.052  1.00  0.00     0.181 C 
BRANCH   7   8
ATOM      8  C   UNL A   1      32.953  22.421  26.800  1.00  0.00     0.045 C 
BRANCH   8   9
ATOM      9  C   UNL A   1      33.696  21.100  26.967  1.00  0.00     0.102 C 
BRANCH   9  10
ATOM     10  C   UNL A   1      33.372  19.926  26.067  1.00  0.00     0.217 C 
ATOM     11  N   UNL A   1      32.876  18.790  26.615  1.00  0.00    -0.370 N 
ATOM     12  H   UNL A   1      32.660  18.019  26.041  1.00  0.00     0.159 HD
ATOM     13  H   UNL A   1      32.730  18.735  27.588  1.00  0.00     0.159 HD
ATOM     14  O   UNL A   1      33.638  19.939  24.868  1.00  0.00    -0.275 OA
ENDBRANCH   9  10
ENDBRANCH   8   9
ENDBRANCH   7   8
BRANCH   7  15
ATOM     15  N   UNL A   1      32.528  24.610  25.677  1.00  0.00    -0.280 N 
ATOM     16  C   UNL A   1      32.903  25.851  25.178  1.00  0.00     0.266 C 
ATOM     17  C   UNL A   1      31.181  24.452  25.931  1.00  0.00     0.149 C 
ATOM     18  O   UNL A   1      34.042  26.237  24.944  1.00  0.00    -0.268 OA
ATOM     19  C   UNL A   1      31.713  26.692  24.911  1.00  0.00     0.081 C 
ATOM     20  S   UNL A   1      30.291  25.885  25.416  1.00  0.00    -0.054 SA
ATOM     21  S   UNL A   1      30.406  23.127  26.590  1.00  0.00    -0.052 S 
ATOM     22  C   UNL A   1      31.844  27.882  24.309  1.00  0.00     0.029 C 
BRANCH  22  23
ATOM     23  C   UNL A   1      30.769  28.809  23.958  1.00  0.00    -0.024 A 
ATOM     24  C   UNL A   1      29.836  28.439  22.982  1.00  0.00     0.009 A 
ATOM     25  C   UNL A   1      30.696  30.081  24.539  1.00  0.00     0.009 A 
ATOM     26  C   UNL A   1      28.825  29.324  22.604  1.00  0.00     0.012 A 
ATOM     27  C   UNL A   1      29.687  30.969  24.163  1.00  0.00     0.012 A 
ATOM     28  C   UNL A   1      28.753  30.587  23.197  1.00  0.00     0.014 A 
BRANCH  28  29
ATOM     29  C   UNL A   1      27.692  31.533  22.804  1.00  0.00     0.260 C 
ATOM     30  O   UNL A   1      27.915  32.721  22.603  1.00  0.00    -0.298 OA
ENDBRANCH  28  29
ENDBRANCH  22  23
ENDBRANCH   7  15
ENDBRANCH   4   7
ENDBRANCH   2   3
ENDBRANCH   1   2
BRANCH   1  31
ATOM     31  C   UNL A   1      38.233  21.687  25.458  1.00  0.00     0.023 C 
BRANCH  31  32
ATOM     32  C   UNL A   1      39.331  21.374  26.465  1.00  0.00     0.116 C 
BRANCH  32  33
ATOM     33  N   UNL A   1      40.057  20.141  26.181  1.00  0.00    -0.352 N 
ATOM     34  C   UNL A   1      41.419  19.964  26.089  1.00  0.00     0.251 C 
ATOM     35  H   UNL A   1      39.505  19.338  26.039  1.00  0.00     0.163 HD
ATOM     36  O   UNL A   1      41.891  18.880  25.765  1.00  0.00    -0.269 OA
BRANCH  34  37
ATOM     37  C   UNL A   1      42.291  21.126  26.338  1.00  0.00     0.039 A 
ATOM     38  C   UNL A   1      42.632  21.958  25.271  1.00  0.00     0.014 A 
ATOM     39  C   UNL A   1      42.653  21.454  27.647  1.00  0.00     0.014 A 
ATOM     40  C   UNL A   1      43.264  23.174  25.531  1.00  0.00     0.010 A 
ATOM     41  C   UNL A   1      43.198  22.704  27.908  1.00  0.00     0.010 A 
ATOM     42  C   UNL A   1      43.504  23.579  26.854  1.00  0.00    -0.014 A 
BRANCH  42  43
ATOM     43  C   UNL A   1      44.068  24.916  27.167  1.00  0.00     0.031 A 
ATOM     44  C   UNL A   1      43.163  26.009  27.666  1.00  0.00     0.074 A 
ATOM     45  C   UNL A   1      45.369  25.170  26.922  1.00  0.00     0.049 A 
ATOM     46  N   UNL A   1      43.443  27.263  27.909  1.00  0.00    -0.248 NA
ATOM     47  C   UNL A   1      41.750  25.653  27.887  1.00  0.00     0.031 C 
ATOM     48  C   UNL A   1      46.338  24.210  26.384  1.00  0.00     0.029 A 
ATOM     49  N   UNL A   1      46.101  26.319  27.085  1.00  0.00    -0.354 N 
ATOM     50  C   UNL A   1      42.240  27.848  28.287  1.00  0.00     0.074 A 
ATOM     51  C   UNL A   1      41.219  26.829  28.185  1.00  0.00     0.031 C 
ATOM     52  C   UNL A   1      47.540  24.802  26.291  1.00  0.00     0.029 A 
ATOM     53  C   UNL A   1      47.422  26.190  26.721  1.00  0.00     0.049 A 
ATOM     54  H   UNL A   1      45.717  27.158  27.429  1.00  0.00     0.167 HD
ATOM     55  C   UNL A   1      42.008  29.116  28.704  1.00  0.00     0.031 A 
ATOM     56  C   UNL A   1      48.423  27.092  26.730  1.00  0.00     0.031 A 
ATOM     57  C   UNL A   1      43.031  30.118  28.829  1.00  0.00     0.049 A 
ATOM     58  C   UNL A   1      48.146  28.489  27.210  1.00  0.00     0.074 A 
ATOM     59  C   UNL A   1      42.911  31.412  29.305  1.00  0.00     0.029 A 
ATOM     60  N   UNL A   1      44.360  29.939  28.479  1.00  0.00    -0.354 N 
ATOM     61  N   UNL A   1      47.015  29.007  27.629  1.00  0.00    -0.248 NA
ATOM     62  C   UNL A   1      49.282  29.422  27.232  1.00  0.00     0.031 C 
ATOM     63  C   UNL A   1      44.162  32.031  29.200  1.00  0.00     0.029 A 
ATOM     64  C   UNL A   1      45.070  31.105  28.710  1.00  0.00     0.049 A 
ATOM     65  H   UNL A   1      44.743  29.107  28.119  1.00  0.00     0.167 HD
ATOM     66  C   UNL A   1      47.308  30.318  27.986  1.00  0.00     0.074 A 
ATOM     67  C   UNL A   1      48.725  30.509  27.749  1.00  0.00     0.031 C 
ATOM     68  C   UNL A   1      46.480  31.276  28.469  1.00  0.00     0.031 A 
BRANCH  55  69
ATOM     69  C   UNL A   1      40.592  29.479  29.058  1.00  0.00    -0.014 A 
ATOM     70  C   UNL A   1      39.641  29.751  28.058  1.00  0.00     0.010 A 
ATOM     71  C   UNL A   1      40.198  29.530  30.408  1.00  0.00     0.010 A 
ATOM     72  C   UNL A   1      38.337  30.117  28.400  1.00  0.00     0.020 A 
ATOM     73  C   UNL A   1      38.886  29.866  30.754  1.00  0.00     0.020 A 
ATOM     74  C   UNL A   1      37.969  30.176  29.748  1.00  0.00     0.054 A 
BRANCH  74  75
ATOM     75  S   UNL A   1      36.266  30.641  30.163  1.00  0.00     0.124 S 
ATOM     76  O   UNL A   1      35.530  30.152  29.000  1.00  0.00    -0.237 OA
ATOM     77  O   UNL A   1      36.030  29.914  31.408  1.00  0.00    -0.237 OA
ATOM     78  O   UNL A   1      36.328  32.094  30.295  1.00  0.00    -0.744 OA
ENDBRANCH  74  75
ENDBRANCH  55  69
BRANCH  56  79
ATOM     79  C   UNL A   1      49.787  26.692  26.286  1.00  0.00    -0.014 A 
ATOM     80  C   UNL A   1      50.182  26.869  24.949  1.00  0.00     0.010 A 
ATOM     81  C   UNL A   1      50.705  26.145  27.203  1.00  0.00     0.010 A 
ATOM     82  C   UNL A   1      51.462  26.492  24.531  1.00  0.00     0.020 A 
ATOM     83  C   UNL A   1      51.994  25.789  26.794  1.00  0.00     0.020 A 
ATOM     84  C   UNL A   1      52.360  25.955  25.457  1.00  0.00     0.054 A 
BRANCH  84  85
ATOM     85  S   UNL A   1      54.034  25.523  24.905  1.00  0.00     0.124 S 
ATOM     86  O   UNL A   1      54.033  24.070  25.042  1.00  0.00    -0.237 OA
ATOM     87  O   UNL A   1      54.056  26.030  23.535  1.00  0.00    -0.237 OA
ATOM     88  O   UNL A   1      54.897  26.242  25.841  1.00  0.00    -0.744 OA
ENDBRANCH  84  85
ENDBRANCH  56  79
BRANCH  68  89
ATOM     89  C   UNL A   1      47.085  32.612  28.803  1.00  0.00    -0.014 A 
ATOM     90  C   UNL A   1      47.163  33.636  27.843  1.00  0.00     0.010 A 
ATOM     91  C   UNL A   1      47.522  32.865  30.117  1.00  0.00     0.010 A 
ATOM     92  C   UNL A   1      47.690  34.883  28.185  1.00  0.00     0.020 A 
ATOM     93  C   UNL A   1      48.024  34.120  30.469  1.00  0.00     0.020 A 
ATOM     94  C   UNL A   1      48.117  35.118  29.497  1.00  0.00     0.054 A 
BRANCH  94  95
ATOM     95  S   UNL A   1      48.745  36.763  29.930  1.00  0.00     0.124 S 
ATOM     96  O   UNL A   1      49.125  37.296  28.625  1.00  0.00    -0.237 OA
ATOM     97  O   UNL A   1      47.586  37.396  30.554  1.00  0.00    -0.237 OA
ATOM     98  O   UNL A   1      49.856  36.482  30.836  1.00  0.00    -0.744 OA
ENDBRANCH  94  95
ENDBRANCH  68  89
ENDBRANCH  42  43
ENDBRANCH  34  37
ENDBRANCH  32  33
ENDBRANCH  31  32
ENDBRANCH   1  31
TORSDOF 20
ENDMDL
