MODEL 1
REMARK VINA RESULT:     -12.2      0.000      0.000
REMARK SMILES O=C(NCCCCNC(=O)c1ccc(-c2c3nc(c(-c4ccc(S(=O)(=O)[O-])cc4)c4ccc([nH]4)c(-c4ccc(S(=O)(=O)[O-])cc4)c4nc(c(-c5ccc(S(=O)(=O)[O-])cc5)c5ccc2[nH]5)C=C4)C=C3)cc1)C1=Cc2cc(S(F)(F)(F)(F)F)ccc2O[C@H]1C(F)(F)F
REMARK SMILES IDX 6 1 5 2 4 3 3 4 1 5 2 6 71 8 72 9 86 10 73 11 85 12 74 13
REMARK SMILES IDX 84 14 75 15 83 16 82 17 87 18 88 19 89 20 90 21 76 22 77 23
REMARK SMILES IDX 78 24 79 25 80 26 81 27 7 28 8 29 9 30 10 32 11 33 12 34
REMARK SMILES IDX 70 35 13 36 69 37 14 38 15 39 16 40 63 41 17 42 68 43 62 44
REMARK SMILES IDX 64 45 18 46 67 47 61 48 60 49 19 51 49 52 30 53 48 54 31 55
REMARK SMILES IDX 34 56 47 57 65 58 32 59 33 60 46 62 66 63 35 64 20 65 21 66
REMARK SMILES IDX 29 67 22 68 28 69 23 70 24 71 25 72 26 73 27 74 50 75 51 76
REMARK SMILES IDX 59 77 52 78 58 79 53 80 54 81 55 82 56 83 57 84 36 85 37 86
REMARK SMILES IDX 45 87 38 88 44 89 39 90 40 91 41 92 42 93 43 94
REMARK H PARENT 3 7 8 31 64 50 34 61
REMARK Flexibility Score: inf
ROOT
ATOM      1  C   UNL A   1      33.040  27.595  26.002  1.00  0.00     0.023 C 
ENDROOT
BRANCH   1   2
ATOM      2  C   UNL A   1      32.042  26.628  26.617  1.00  0.00     0.023 C 
BRANCH   2   3
ATOM      3  C   UNL A   1      32.231  25.249  26.006  1.00  0.00     0.116 C 
BRANCH   3   4
ATOM      4  N   UNL A   1      33.434  25.249  25.161  1.00  0.00    -0.352 N 
ATOM      5  O   UNL A   1      34.410  24.720  23.060  1.00  0.00    -0.270 OA
ATOM      6  C   UNL A   1      33.370  24.721  23.790  1.00  0.00     0.251 C 
ATOM      7  H   UNL A   1      34.283  25.602  25.512  1.00  0.00     0.163 HD
BRANCH   6   8
ATOM      8  C   UNL A   1      32.059  24.175  23.247  1.00  0.00     0.067 C 
ATOM      9  C   UNL A   1      31.092  25.031  22.820  1.00  0.00     0.025 C 
ATOM     10  C   UNL A   1      31.830  22.674  23.179  1.00  0.00     0.314 C 
ATOM     11  C   UNL A   1      31.321  26.532  22.888  1.00  0.00     0.019 A 
ATOM     12  O   UNL A   1      33.549  26.178  22.139  1.00  0.00    -0.475 OA
ATOM     13  C   UNL A   1      30.308  27.340  23.376  1.00  0.00     0.036 A 
ATOM     14  C   UNL A   1      32.477  27.045  22.482  1.00  0.00     0.128 A 
ATOM     15  C   UNL A   1      30.505  28.719  23.128  1.00  0.00     0.107 A 
ATOM     16  C   UNL A   1      32.645  28.405  22.393  1.00  0.00     0.048 A 
ATOM     17  C   UNL A   1      31.664  29.264  22.803  1.00  0.00     0.028 A 
BRANCH  10  18
ATOM     18  C   UNL A   1      33.056  21.950  23.712  1.00  0.00     0.429 C 
ATOM     19  F   UNL A   1      34.088  22.236  22.923  1.00  0.00    -0.167 F 
ATOM     20  F   UNL A   1      33.361  22.258  24.969  1.00  0.00    -0.167 F 
ATOM     21  F   UNL A   1      32.779  20.652  23.629  1.00  0.00    -0.167 F 
ENDBRANCH  10  18
BRANCH  15  22
ATOM     22  S   UNL A   1      29.070  29.814  23.264  1.00  0.00     0.310 S 
ATOM     23  F   UNL A   1      29.614  30.774  22.125  1.00  0.00    -0.094 F 
ATOM     24  F   UNL A   1      29.874  30.693  24.296  1.00  0.00    -0.094 F 
ATOM     25  F   UNL A   1      27.837  30.753  23.382  1.00  0.00    -0.094 F 
ATOM     26  F   UNL A   1      28.334  29.002  22.127  1.00  0.00    -0.094 F 
ATOM     27  F   UNL A   1      30.355  28.917  23.051  1.00  0.00    -0.094 F 
ENDBRANCH  15  22
ENDBRANCH   6   8
ENDBRANCH   3   4
ENDBRANCH   2   3
ENDBRANCH   1   2
BRANCH   1  28
ATOM     28  C   UNL A   1      33.881  28.225  27.101  1.00  0.00     0.116 C 
BRANCH  28  29
ATOM     29  N   UNL A   1      33.433  29.606  27.329  1.00  0.00    -0.352 N 
ATOM     30  C   UNL A   1      34.363  30.597  27.890  1.00  0.00     0.251 C 
ATOM     31  H   UNL A   1      32.510  29.868  27.108  1.00  0.00     0.163 HD
ATOM     32  O   UNL A   1      33.976  31.791  28.088  1.00  0.00    -0.269 OA
BRANCH  30  33
ATOM     33  C   UNL A   1      35.788  30.193  28.233  1.00  0.00     0.039 A 
ATOM     34  C   UNL A   1      36.791  30.331  27.287  1.00  0.00     0.014 A 
ATOM     35  C   UNL A   1      36.044  29.715  29.445  1.00  0.00     0.014 A 
ATOM     36  C   UNL A   1      37.990  29.660  27.623  1.00  0.00     0.010 A 
ATOM     37  C   UNL A   1      37.281  29.200  29.746  1.00  0.00     0.010 A 
ATOM     38  C   UNL A   1      38.303  29.247  28.838  1.00  0.00    -0.014 A 
BRANCH  38  39
ATOM     39  C   UNL A   1      39.722  28.848  29.207  1.00  0.00     0.031 A 
ATOM     40  C   UNL A   1      40.157  27.569  28.852  1.00  0.00     0.074 A 
ATOM     41  C   UNL A   1      40.505  29.773  29.876  1.00  0.00     0.049 A 
ATOM     42  N   UNL A   1      41.362  27.036  29.050  1.00  0.00    -0.248 NA
ATOM     43  C   UNL A   1      39.316  26.572  28.173  1.00  0.00     0.031 C 
ATOM     44  C   UNL A   1      40.077  31.067  30.230  1.00  0.00     0.029 A 
ATOM     45  N   UNL A   1      41.803  29.624  30.312  1.00  0.00    -0.354 N 
ATOM     46  C   UNL A   1      41.406  25.796  28.555  1.00  0.00     0.074 A 
ATOM     47  C   UNL A   1      40.087  25.478  27.990  1.00  0.00     0.031 C 
ATOM     48  C   UNL A   1      41.097  31.685  30.880  1.00  0.00     0.029 A 
ATOM     49  C   UNL A   1      42.181  30.789  30.943  1.00  0.00     0.049 A 
ATOM     50  H   UNL A   1      42.364  28.824  30.194  1.00  0.00     0.167 HD
ATOM     51  C   UNL A   1      42.492  24.921  28.553  1.00  0.00     0.031 A 
ATOM     52  C   UNL A   1      43.396  31.071  31.547  1.00  0.00     0.031 A 
ATOM     53  C   UNL A   1      43.721  25.219  29.118  1.00  0.00     0.049 A 
ATOM     54  C   UNL A   1      44.465  30.172  31.595  1.00  0.00     0.074 A 
ATOM     55  C   UNL A   1      44.829  24.351  29.118  1.00  0.00     0.029 A 
ATOM     56  N   UNL A   1      44.092  26.374  29.771  1.00  0.00    -0.354 N 
ATOM     57  N   UNL A   1      44.520  28.949  31.067  1.00  0.00    -0.248 NA
ATOM     58  C   UNL A   1      45.745  30.448  32.260  1.00  0.00     0.031 C 
ATOM     59  C   UNL A   1      45.850  24.969  29.768  1.00  0.00     0.029 A 
ATOM     60  C   UNL A   1      45.397  26.234  30.188  1.00  0.00     0.049 A 
ATOM     61  H   UNL A   1      43.521  27.164  29.915  1.00  0.00     0.167 HD
ATOM     62  C   UNL A   1      45.713  28.400  31.302  1.00  0.00     0.074 A 
ATOM     63  C   UNL A   1      46.516  29.354  32.079  1.00  0.00     0.031 C 
ATOM     64  C   UNL A   1      46.167  27.144  30.895  1.00  0.00     0.031 A 
BRANCH  51  65
ATOM     65  C   UNL A   1      42.318  23.562  27.892  1.00  0.00    -0.014 A 
ATOM     66  C   UNL A   1      41.805  22.507  28.629  1.00  0.00     0.010 A 
ATOM     67  C   UNL A   1      42.710  23.398  26.634  1.00  0.00     0.010 A 
ATOM     68  C   UNL A   1      42.016  21.239  28.037  1.00  0.00     0.020 A 
ATOM     69  C   UNL A   1      42.762  22.144  26.077  1.00  0.00     0.020 A 
ATOM     70  C   UNL A   1      42.327  21.048  26.767  1.00  0.00     0.054 A 
BRANCH  70  71
ATOM     71  S   UNL A   1      42.185  19.421  25.986  1.00  0.00     0.124 S 
ATOM     72  O   UNL A   1      40.717  19.139  25.659  1.00  0.00    -0.237 OA
ATOM     73  O   UNL A   1      43.008  19.401  24.696  1.00  0.00    -0.237 OA
ATOM     74  O   UNL A   1      42.770  18.222  27.056  1.00  0.00    -0.744 OA
ENDBRANCH  70  71
ENDBRANCH  51  65
BRANCH  52  75
ATOM     75  C   UNL A   1      43.577  32.435  32.193  1.00  0.00    -0.014 A 
ATOM     76  C   UNL A   1      43.268  32.607  33.532  1.00  0.00     0.010 A 
ATOM     77  C   UNL A   1      44.079  33.428  31.468  1.00  0.00     0.010 A 
ATOM     78  C   UNL A   1      43.256  33.959  33.947  1.00  0.00     0.020 A 
ATOM     79  C   UNL A   1      44.162  34.698  31.984  1.00  0.00     0.020 A 
ATOM     80  C   UNL A   1      43.818  34.953  33.284  1.00  0.00     0.054 A 
BRANCH  80  81
ATOM     81  S   UNL A   1      44.117  36.565  34.050  1.00  0.00     0.124 S 
ATOM     82  O   UNL A   1      45.384  37.184  33.457  1.00  0.00    -0.237 OA
ATOM     83  O   UNL A   1      42.925  37.486  33.781  1.00  0.00    -0.237 OA
ATOM     84  O   UNL A   1      44.315  36.367  35.737  1.00  0.00    -0.744 OA
ENDBRANCH  80  81
ENDBRANCH  52  75
BRANCH  64  85
ATOM     85  C   UNL A   1      47.591  26.750  31.250  1.00  0.00    -0.014 A 
ATOM     86  C   UNL A   1      48.618  26.982  30.350  1.00  0.00     0.010 A 
ATOM     87  C   UNL A   1      47.824  26.187  32.430  1.00  0.00     0.010 A 
ATOM     88  C   UNL A   1      49.823  26.316  30.672  1.00  0.00     0.020 A 
ATOM     89  C   UNL A   1      49.065  25.678  32.730  1.00  0.00     0.020 A 
ATOM     90  C   UNL A   1      50.111  25.818  31.862  1.00  0.00     0.054 A 
BRANCH  90  91
ATOM     91  S   UNL A   1      51.799  25.350  32.317  1.00  0.00     0.124 S 
ATOM     92  O   UNL A   1      52.773  25.858  31.252  1.00  0.00    -0.237 OA
ATOM     93  O   UNL A   1      52.153  25.970  33.670  1.00  0.00    -0.237 OA
ATOM     94  O   UNL A   1      51.908  23.647  32.424  1.00  0.00    -0.744 OA
ENDBRANCH  90  91
ENDBRANCH  64  85
ENDBRANCH  38  39
ENDBRANCH  30  33
ENDBRANCH  28  29
ENDBRANCH   1  28
TORSDOF 16
ENDMDL
MODEL 2
REMARK VINA RESULT:     -12.1      2.693      9.478
REMARK SMILES O=C(NCCCCNC(=O)c1ccc(-c2c3nc(c(-c4ccc(S(=O)(=O)[O-])cc4)c4ccc([nH]4)c(-c4ccc(S(=O)(=O)[O-])cc4)c4nc(c(-c5ccc(S(=O)(=O)[O-])cc5)c5ccc2[nH]5)C=C4)C=C3)cc1)C1=Cc2cc(S(F)(F)(F)(F)F)ccc2O[C@H]1C(F)(F)F
REMARK SMILES IDX 6 1 5 2 4 3 3 4 1 5 2 6 71 8 72 9 86 10 73 11 85 12 74 13
REMARK SMILES IDX 84 14 75 15 83 16 82 17 87 18 88 19 89 20 90 21 76 22 77 23
REMARK SMILES IDX 78 24 79 25 80 26 81 27 7 28 8 29 9 30 10 32 11 33 12 34
REMARK SMILES IDX 70 35 13 36 69 37 14 38 15 39 16 40 63 41 17 42 68 43 62 44
REMARK SMILES IDX 64 45 18 46 67 47 61 48 60 49 19 51 49 52 30 53 48 54 31 55
REMARK SMILES IDX 34 56 47 57 65 58 32 59 33 60 46 62 66 63 35 64 20 65 21 66
REMARK SMILES IDX 29 67 22 68 28 69 23 70 24 71 25 72 26 73 27 74 50 75 51 76
REMARK SMILES IDX 59 77 52 78 58 79 53 80 54 81 55 82 56 83 57 84 36 85 37 86
REMARK SMILES IDX 45 87 38 88 44 89 39 90 40 91 41 92 42 93 43 94
REMARK H PARENT 3 7 8 31 64 50 34 61
REMARK Flexibility Score: inf
ROOT
ATOM      1  C   UNL A   1      35.457  23.659  25.099  1.00  0.00     0.023 C 
ENDROOT
BRANCH   1   2
ATOM      2  C   UNL A   1      35.138  23.960  23.644  1.00  0.00     0.023 C 
BRANCH   2   3
ATOM      3  C   UNL A   1      33.868  24.791  23.565  1.00  0.00     0.116 C 
BRANCH   3   4
ATOM      4  N   UNL A   1      33.594  25.392  24.879  1.00  0.00    -0.352 N 
ATOM      5  O   UNL A   1      31.998  25.870  26.573  1.00  0.00    -0.270 OA
ATOM      6  C   UNL A   1      32.235  25.350  25.437  1.00  0.00     0.251 C 
ATOM      7  H   UNL A   1      34.321  25.823  25.385  1.00  0.00     0.163 HD
BRANCH   6   8
ATOM      8  C   UNL A   1      31.113  24.685  24.657  1.00  0.00     0.067 C 
ATOM      9  C   UNL A   1      31.006  23.330  24.641  1.00  0.00     0.025 C 
ATOM     10  C   UNL A   1      30.109  25.535  23.895  1.00  0.00     0.314 C 
ATOM     11  C   UNL A   1      32.010  22.479  25.403  1.00  0.00     0.019 A 
ATOM     12  O   UNL A   1      31.908  24.044  27.189  1.00  0.00    -0.475 OA
ATOM     13  C   UNL A   1      32.549  21.365  24.782  1.00  0.00     0.036 A 
ATOM     14  C   UNL A   1      32.355  22.812  26.642  1.00  0.00     0.128 A 
ATOM     15  C   UNL A   1      33.234  20.494  25.661  1.00  0.00     0.107 A 
ATOM     16  C   UNL A   1      33.139  21.975  27.398  1.00  0.00     0.048 A 
ATOM     17  C   UNL A   1      33.658  20.827  26.867  1.00  0.00     0.028 A 
BRANCH  10  18
ATOM     18  C   UNL A   1      30.450  27.006  24.076  1.00  0.00     0.429 C 
ATOM     19  F   UNL A   1      30.306  27.315  25.361  1.00  0.00    -0.167 F 
ATOM     20  F   UNL A   1      31.677  27.328  23.677  1.00  0.00    -0.167 F 
ATOM     21  F   UNL A   1      29.559  27.680  23.354  1.00  0.00    -0.167 F 
ENDBRANCH  10  18
BRANCH  15  22
ATOM     22  S   UNL A   1      33.550  18.803  25.096  1.00  0.00     0.310 S 
ATOM     23  F   UNL A   1      32.882  19.083  23.685  1.00  0.00    -0.094 F 
ATOM     24  F   UNL A   1      32.119  18.393  25.615  1.00  0.00    -0.094 F 
ATOM     25  F   UNL A   1      33.821  17.352  24.611  1.00  0.00    -0.094 F 
ATOM     26  F   UNL A   1      34.919  19.265  24.458  1.00  0.00    -0.094 F 
ATOM     27  F   UNL A   1      33.241  20.305  25.482  1.00  0.00    -0.094 F 
ENDBRANCH  15  22
ENDBRANCH   6   8
ENDBRANCH   3   4
ENDBRANCH   2   3
ENDBRANCH   1   2
BRANCH   1  28
ATOM     28  C   UNL A   1      36.888  24.069  25.401  1.00  0.00     0.116 C 
BRANCH  28  29
ATOM     29  N   UNL A   1      37.750  22.878  25.399  1.00  0.00    -0.352 N 
ATOM     30  C   UNL A   1      39.039  22.902  26.106  1.00  0.00     0.251 C 
ATOM     31  H   UNL A   1      37.465  22.064  24.924  1.00  0.00     0.163 HD
ATOM     32  O   UNL A   1      39.784  21.872  26.104  1.00  0.00    -0.269 OA
BRANCH  30  33
ATOM     33  C   UNL A   1      39.480  24.158  26.840  1.00  0.00     0.039 A 
ATOM     34  C   UNL A   1      39.160  24.324  28.177  1.00  0.00     0.014 A 
ATOM     35  C   UNL A   1      40.172  25.077  26.177  1.00  0.00     0.014 A 
ATOM     36  C   UNL A   1      39.369  25.639  28.657  1.00  0.00     0.010 A 
ATOM     37  C   UNL A   1      40.459  26.289  26.757  1.00  0.00     0.010 A 
ATOM     38  C   UNL A   1      40.119  26.545  28.056  1.00  0.00    -0.014 A 
BRANCH  38  39
ATOM     39  C   UNL A   1      40.581  27.804  28.772  1.00  0.00     0.031 A 
ATOM     40  C   UNL A   1      39.682  28.868  28.872  1.00  0.00     0.074 A 
ATOM     41  C   UNL A   1      41.867  27.826  29.285  1.00  0.00     0.049 A 
ATOM     42  N   UNL A   1      39.873  30.038  29.481  1.00  0.00    -0.248 NA
ATOM     43  C   UNL A   1      38.329  28.860  28.297  1.00  0.00     0.031 C 
ATOM     44  C   UNL A   1      42.775  26.754  29.196  1.00  0.00     0.029 A 
ATOM     45  N   UNL A   1      42.492  28.854  29.955  1.00  0.00    -0.354 N 
ATOM     46  C   UNL A   1      38.777  30.795  29.381  1.00  0.00     0.074 A 
ATOM     47  C   UNL A   1      37.770  30.050  28.612  1.00  0.00     0.031 C 
ATOM     48  C   UNL A   1      43.935  27.133  29.794  1.00  0.00     0.029 A 
ATOM     49  C   UNL A   1      43.771  28.448  30.267  1.00  0.00     0.049 A 
ATOM     50  H   UNL A   1      42.093  29.727  30.174  1.00  0.00     0.167 HD
ATOM     51  C   UNL A   1      38.578  32.074  29.901  1.00  0.00     0.031 A 
ATOM     52  C   UNL A   1      44.753  29.172  30.924  1.00  0.00     0.031 A 
ATOM     53  C   UNL A   1      39.546  32.781  30.596  1.00  0.00     0.049 A 
ATOM     54  C   UNL A   1      44.573  30.476  31.394  1.00  0.00     0.074 A 
ATOM     55  C   UNL A   1      39.359  34.068  31.134  1.00  0.00     0.029 A 
ATOM     56  N   UNL A   1      40.833  32.385  30.887  1.00  0.00    -0.354 N 
ATOM     57  N   UNL A   1      43.465  31.215  31.328  1.00  0.00    -0.248 NA
ATOM     58  C   UNL A   1      45.617  31.263  32.063  1.00  0.00     0.031 C 
ATOM     59  C   UNL A   1      40.519  34.448  31.732  1.00  0.00     0.029 A 
ATOM     60  C   UNL A   1      41.451  33.405  31.577  1.00  0.00     0.049 A 
ATOM     61  H   UNL A   1      41.241  31.523  30.643  1.00  0.00     0.167 HD
ATOM     62  C   UNL A   1      43.670  32.402  31.902  1.00  0.00     0.074 A 
ATOM     63  C   UNL A   1      45.060  32.453  32.377  1.00  0.00     0.031 C 
ATOM     64  C   UNL A   1      42.753  33.443  32.053  1.00  0.00     0.031 A 
BRANCH  51  65
ATOM     65  C   UNL A   1      37.222  32.730  29.694  1.00  0.00    -0.014 A 
ATOM     66  C   UNL A   1      36.986  33.457  28.538  1.00  0.00     0.010 A 
ATOM     67  C   UNL A   1      36.305  32.639  30.649  1.00  0.00     0.010 A 
ATOM     68  C   UNL A   1      35.850  34.297  28.612  1.00  0.00     0.020 A 
ATOM     69  C   UNL A   1      35.155  33.388  30.588  1.00  0.00     0.020 A 
ATOM     70  C   UNL A   1      34.884  34.174  29.504  1.00  0.00     0.054 A 
BRANCH  70  71
ATOM     71  S   UNL A   1      33.287  35.002  29.300  1.00  0.00     0.124 S 
ATOM     72  O   UNL A   1      33.512  36.422  28.774  1.00  0.00    -0.237 OA
ATOM     73  O   UNL A   1      32.429  34.218  28.304  1.00  0.00    -0.237 OA
ATOM     74  O   UNL A   1      32.486  35.075  30.810  1.00  0.00    -0.744 OA
ENDBRANCH  70  71
ENDBRANCH  51  65
BRANCH  52  75
ATOM     75  C   UNL A   1      46.104  28.511  31.147  1.00  0.00    -0.014 A 
ATOM     76  C   UNL A   1      47.108  28.665  30.206  1.00  0.00     0.010 A 
ATOM     77  C   UNL A   1      46.311  27.835  32.271  1.00  0.00     0.010 A 
ATOM     78  C   UNL A   1      48.222  27.818  30.413  1.00  0.00     0.020 A 
ATOM     79  C   UNL A   1      47.480  27.140  32.464  1.00  0.00     0.020 A 
ATOM     80  C   UNL A   1      48.493  27.200  31.547  1.00  0.00     0.054 A 
BRANCH  80  81
ATOM     81  S   UNL A   1      50.117  26.470  31.872  1.00  0.00     0.124 S 
ATOM     82  O   UNL A   1      50.507  26.722  33.330  1.00  0.00    -0.237 OA
ATOM     83  O   UNL A   1      50.059  24.962  31.613  1.00  0.00    -0.237 OA
ATOM     84  O   UNL A   1      51.280  27.181  30.839  1.00  0.00    -0.744 OA
ENDBRANCH  80  81
ENDBRANCH  52  75
BRANCH  64  85
ATOM     85  C   UNL A   1      43.209  34.697  32.782  1.00  0.00    -0.014 A 
ATOM     86  C   UNL A   1      43.012  34.812  34.148  1.00  0.00     0.010 A 
ATOM     87  C   UNL A   1      43.793  35.665  32.086  1.00  0.00     0.010 A 
ATOM     88  C   UNL A   1      43.210  36.120  34.647  1.00  0.00     0.020 A 
ATOM     89  C   UNL A   1      44.082  36.873  32.675  1.00  0.00     0.020 A 
ATOM     90  C   UNL A   1      43.859  37.077  34.008  1.00  0.00     0.054 A 
BRANCH  90  91
ATOM     91  S   UNL A   1      44.424  38.575  34.851  1.00  0.00     0.124 S 
ATOM     92  O   UNL A   1      43.616  39.776  34.353  1.00  0.00    -0.237 OA
ATOM     93  O   UNL A   1      44.226  38.417  36.360  1.00  0.00    -0.237 OA
ATOM     94  O   UNL A   1      46.082  38.826  34.517  1.00  0.00    -0.744 OA
ENDBRANCH  90  91
ENDBRANCH  64  85
ENDBRANCH  38  39
ENDBRANCH  30  33
ENDBRANCH  28  29
ENDBRANCH   1  28
TORSDOF 16
ENDMDL
MODEL 3
REMARK VINA RESULT:     -11.9      2.694      8.620
REMARK SMILES O=C(NCCCCNC(=O)c1ccc(-c2c3nc(c(-c4ccc(S(=O)(=O)[O-])cc4)c4ccc([nH]4)c(-c4ccc(S(=O)(=O)[O-])cc4)c4nc(c(-c5ccc(S(=O)(=O)[O-])cc5)c5ccc2[nH]5)C=C4)C=C3)cc1)C1=Cc2cc(S(F)(F)(F)(F)F)ccc2O[C@H]1C(F)(F)F
REMARK SMILES IDX 6 1 5 2 4 3 3 4 1 5 2 6 71 8 72 9 86 10 73 11 85 12 74 13
REMARK SMILES IDX 84 14 75 15 83 16 82 17 87 18 88 19 89 20 90 21 76 22 77 23
REMARK SMILES IDX 78 24 79 25 80 26 81 27 7 28 8 29 9 30 10 32 11 33 12 34
REMARK SMILES IDX 70 35 13 36 69 37 14 38 15 39 16 40 63 41 17 42 68 43 62 44
REMARK SMILES IDX 64 45 18 46 67 47 61 48 60 49 19 51 49 52 30 53 48 54 31 55
REMARK SMILES IDX 34 56 47 57 65 58 32 59 33 60 46 62 66 63 35 64 20 65 21 66
REMARK SMILES IDX 29 67 22 68 28 69 23 70 24 71 25 72 26 73 27 74 50 75 51 76
REMARK SMILES IDX 59 77 52 78 58 79 53 80 54 81 55 82 56 83 57 84 36 85 37 86
REMARK SMILES IDX 45 87 38 88 44 89 39 90 40 91 41 92 42 93 43 94
REMARK H PARENT 3 7 8 31 64 50 34 61
REMARK Flexibility Score: inf
ROOT
ATOM      1  C   UNL A   1      35.346  23.867  25.321  1.00  0.00     0.023 C 
ENDROOT
BRANCH   1   2
ATOM      2  C   UNL A   1      35.037  24.130  23.857  1.00  0.00     0.023 C 
BRANCH   2   3
ATOM      3  C   UNL A   1      33.768  24.960  23.748  1.00  0.00     0.116 C 
BRANCH   3   4
ATOM      4  N   UNL A   1      33.427  25.507  25.069  1.00  0.00    -0.352 N 
ATOM      5  O   UNL A   1      31.755  25.879  26.716  1.00  0.00    -0.270 OA
ATOM      6  C   UNL A   1      32.050  25.405  25.574  1.00  0.00     0.251 C 
ATOM      7  H   UNL A   1      34.120  25.943  25.616  1.00  0.00     0.163 HD
BRANCH   6   8
ATOM      8  C   UNL A   1      30.979  24.732  24.731  1.00  0.00     0.067 C 
ATOM      9  C   UNL A   1      30.922  23.375  24.661  1.00  0.00     0.025 C 
ATOM     10  C   UNL A   1      29.972  25.575  23.966  1.00  0.00     0.314 C 
ATOM     11  C   UNL A   1      31.930  22.531  25.425  1.00  0.00     0.019 A 
ATOM     12  O   UNL A   1      31.711  24.022  27.264  1.00  0.00    -0.475 OA
ATOM     13  C   UNL A   1      32.529  21.461  24.782  1.00  0.00     0.036 A 
ATOM     14  C   UNL A   1      32.220  22.828  26.687  1.00  0.00     0.128 A 
ATOM     15  C   UNL A   1      33.215  20.581  25.652  1.00  0.00     0.107 A 
ATOM     16  C   UNL A   1      33.008  21.990  27.438  1.00  0.00     0.048 A 
ATOM     17  C   UNL A   1      33.586  20.882  26.884  1.00  0.00     0.028 A 
BRANCH  10  18
ATOM     18  C   UNL A   1      30.254  27.049  24.213  1.00  0.00     0.429 C 
ATOM     19  F   UNL A   1      30.119  27.289  25.514  1.00  0.00    -0.167 F 
ATOM     20  F   UNL A   1      31.459  27.442  23.812  1.00  0.00    -0.167 F 
ATOM     21  F   UNL A   1      29.322  27.718  23.539  1.00  0.00    -0.167 F 
ENDBRANCH  10  18
BRANCH  15  22
ATOM     22  S   UNL A   1      33.610  18.925  25.036  1.00  0.00     0.310 S 
ATOM     23  F   UNL A   1      33.037  19.256  23.595  1.00  0.00    -0.094 F 
ATOM     24  F   UNL A   1      32.157  18.462  25.433  1.00  0.00    -0.094 F 
ATOM     25  F   UNL A   1      33.949  17.504  24.507  1.00  0.00    -0.094 F 
ATOM     26  F   UNL A   1      35.009  19.444  24.519  1.00  0.00    -0.094 F 
ATOM     27  F   UNL A   1      33.239  20.401  25.466  1.00  0.00    -0.094 F 
ENDBRANCH  15  22
ENDBRANCH   6   8
ENDBRANCH   3   4
ENDBRANCH   2   3
ENDBRANCH   1   2
BRANCH   1  28
ATOM     28  C   UNL A   1      36.783  24.263  25.616  1.00  0.00     0.116 C 
BRANCH  28  29
ATOM     29  N   UNL A   1      37.651  23.082  25.498  1.00  0.00    -0.352 N 
ATOM     30  C   UNL A   1      38.978  23.079  26.131  1.00  0.00     0.251 C 
ATOM     31  H   UNL A   1      37.344  22.294  24.994  1.00  0.00     0.163 HD
ATOM     32  O   UNL A   1      39.728  22.058  26.028  1.00  0.00    -0.269 OA
BRANCH  30  33
ATOM     33  C   UNL A   1      39.452  24.295  26.908  1.00  0.00     0.039 A 
ATOM     34  C   UNL A   1      39.140  24.421  28.252  1.00  0.00     0.014 A 
ATOM     35  C   UNL A   1      40.166  25.220  26.277  1.00  0.00     0.014 A 
ATOM     36  C   UNL A   1      39.384  25.711  28.778  1.00  0.00     0.010 A 
ATOM     37  C   UNL A   1      40.485  26.402  26.900  1.00  0.00     0.010 A 
ATOM     38  C   UNL A   1      40.155  26.619  28.209  1.00  0.00    -0.014 A 
BRANCH  38  39
ATOM     39  C   UNL A   1      40.650  27.839  28.969  1.00  0.00     0.031 A 
ATOM     40  C   UNL A   1      41.939  27.800  29.503  1.00  0.00     0.074 A 
ATOM     41  C   UNL A   1      39.795  28.921  29.090  1.00  0.00     0.049 A 
ATOM     42  N   UNL A   1      42.573  28.765  30.169  1.00  0.00    -0.248 NA
ATOM     43  C   UNL A   1      42.836  26.639  29.406  1.00  0.00     0.031 C 
ATOM     44  C   UNL A   1      38.496  28.971  28.547  1.00  0.00     0.029 A 
ATOM     45  N   UNL A   1      40.027  30.114  29.737  1.00  0.00    -0.354 N 
ATOM     46  C   UNL A   1      43.802  28.364  30.506  1.00  0.00     0.074 A 
ATOM     47  C   UNL A   1      43.986  26.988  30.025  1.00  0.00     0.031 C 
ATOM     48  C   UNL A   1      37.950  30.172  28.871  1.00  0.00     0.029 A 
ATOM     49  C   UNL A   1      38.897  30.893  29.622  1.00  0.00     0.049 A 
ATOM     50  H   UNL A   1      40.858  30.367  30.202  1.00  0.00     0.167 HD
ATOM     51  C   UNL A   1      44.774  29.092  31.193  1.00  0.00     0.031 A 
ATOM     52  C   UNL A   1      38.686  32.162  30.138  1.00  0.00     0.031 A 
ATOM     53  C   UNL A   1      44.578  30.377  31.671  1.00  0.00     0.049 A 
ATOM     54  C   UNL A   1      39.640  32.868  30.876  1.00  0.00     0.074 A 
ATOM     55  C   UNL A   1      45.550  31.128  32.358  1.00  0.00     0.029 A 
ATOM     56  N   UNL A   1      43.439  31.147  31.577  1.00  0.00    -0.354 N 
ATOM     57  N   UNL A   1      40.880  32.482  31.177  1.00  0.00    -0.248 NA
ATOM     58  C   UNL A   1      39.415  34.200  31.455  1.00  0.00     0.031 C 
ATOM     59  C   UNL A   1      45.004  32.329  32.683  1.00  0.00     0.029 A 
ATOM     60  C   UNL A   1      43.680  32.349  32.205  1.00  0.00     0.049 A 
ATOM     61  H   UNL A   1      42.598  30.883  31.137  1.00  0.00     0.167 HD
ATOM     62  C   UNL A   1      41.499  33.432  31.880  1.00  0.00     0.074 A 
ATOM     63  C   UNL A   1      40.563  34.548  32.075  1.00  0.00     0.031 C 
ATOM     64  C   UNL A   1      42.808  33.416  32.363  1.00  0.00     0.031 A 
BRANCH  51  65
ATOM     65  C   UNL A   1      46.126  28.437  31.430  1.00  0.00    -0.014 A 
ATOM     66  C   UNL A   1      46.344  27.730  32.601  1.00  0.00     0.010 A 
ATOM     67  C   UNL A   1      47.091  28.600  30.533  1.00  0.00     0.010 A 
ATOM     68  C   UNL A   1      47.710  27.476  32.870  1.00  0.00     0.020 A 
ATOM     69  C   UNL A   1      48.377  28.204  30.811  1.00  0.00     0.020 A 
ATOM     70  C   UNL A   1      48.677  27.553  31.974  1.00  0.00     0.054 A 
BRANCH  70  71
ATOM     71  S   UNL A   1      50.312  26.833  32.271  1.00  0.00     0.124 S 
ATOM     72  O   UNL A   1      51.350  27.952  32.376  1.00  0.00    -0.237 OA
ATOM     73  O   UNL A   1      50.288  26.035  33.576  1.00  0.00    -0.237 OA
ATOM     74  O   UNL A   1      50.721  25.796  30.975  1.00  0.00    -0.744 OA
ENDBRANCH  70  71
ENDBRANCH  51  65
BRANCH  52  75
ATOM     75  C   UNL A   1      37.341  32.824  29.887  1.00  0.00    -0.014 A 
ATOM     76  C   UNL A   1      36.355  32.766  30.857  1.00  0.00     0.010 A 
ATOM     77  C   UNL A   1      37.154  33.492  28.754  1.00  0.00     0.010 A 
ATOM     78  C   UNL A   1      35.087  33.210  30.413  1.00  0.00     0.020 A 
ATOM     79  C   UNL A   1      35.923  34.015  28.445  1.00  0.00     0.020 A 
ATOM     80  C   UNL A   1      34.885  33.944  29.334  1.00  0.00     0.054 A 
BRANCH  80  81
ATOM     81  S   UNL A   1      33.321  34.807  29.044  1.00  0.00     0.124 S 
ATOM     82  O   UNL A   1      32.511  34.054  27.987  1.00  0.00    -0.237 OA
ATOM     83  O   UNL A   1      32.524  34.868  30.350  1.00  0.00    -0.237 OA
ATOM     84  O   UNL A   1      33.639  36.395  28.496  1.00  0.00    -0.744 OA
ENDBRANCH  80  81
ENDBRANCH  52  75
BRANCH  64  85
ATOM     85  C   UNL A   1      43.309  34.641  33.110  1.00  0.00    -0.014 A 
ATOM     86  C   UNL A   1      43.183  34.711  34.487  1.00  0.00     0.010 A 
ATOM     87  C   UNL A   1      43.865  35.629  32.418  1.00  0.00     0.010 A 
ATOM     88  C   UNL A   1      43.415  36.001  35.020  1.00  0.00     0.020 A 
ATOM     89  C   UNL A   1      44.191  36.815  33.031  1.00  0.00     0.020 A 
ATOM     90  C   UNL A   1      44.037  36.976  34.380  1.00  0.00     0.054 A 
BRANCH  90  91
ATOM     91  S   UNL A   1      44.655  38.441  35.243  1.00  0.00     0.124 S 
ATOM     92  O   UNL A   1      46.181  38.491  35.136  1.00  0.00    -0.237 OA
ATOM     93  O   UNL A   1      44.057  39.698  34.608  1.00  0.00    -0.237 OA
ATOM     94  O   UNL A   1      44.201  38.365  36.890  1.00  0.00    -0.744 OA
ENDBRANCH  90  91
ENDBRANCH  64  85
ENDBRANCH  38  39
ENDBRANCH  30  33
ENDBRANCH  28  29
ENDBRANCH   1  28
TORSDOF 16
ENDMDL
