MODEL 1
REMARK VINA RESULT:     -11.9      0.000      0.000
REMARK SMILES Cc1cc(F)c(-c2ccc(F)c(C(=O)NCCCCNC(=O)c3ccc(-c4c5nc(c(-c6ccc(S(=O)(=O)[O-])cc6)c6ccc([nH]6)c(-c6ccc(S(=O)(=O)[O-])cc6)c6nc(c(-c7ccc(S(=O)(=O)[O-])cc7)c7ccc4[nH]7)C=C6)C=C5)cc3)c2)cc1F
REMARK SMILES IDX 18 1 17 2 16 3 15 4 13 5 14 6 12 8 7 9 8 10 83 11 9 12 10 13
REMARK SMILES IDX 11 14 6 15 1 16 2 17 3 18 85 19 4 20 84 21 86 22 5 23 19 24
REMARK SMILES IDX 20 25 21 26 22 28 23 29 24 30 82 31 25 32 81 33 26 34 27 35
REMARK SMILES IDX 28 36 75 37 29 38 80 39 74 40 76 41 30 42 79 43 73 44 72 45
REMARK SMILES IDX 31 47 61 48 42 49 60 50 43 51 46 52 59 53 77 54 44 55 45 56
REMARK SMILES IDX 58 58 78 59 47 60 32 61 33 62 41 63 34 64 40 65 35 66 36 67
REMARK SMILES IDX 37 68 38 69 39 70 62 71 63 72 71 73 64 74 70 75 65 76 66 77
REMARK SMILES IDX 67 78 68 79 69 80 48 81 49 82 57 83 50 84 56 85 51 86 52 87
REMARK SMILES IDX 53 88 54 89 55 90
REMARK H PARENT 15 7 20 27 76 46 46 57
REMARK Flexibility Score: inf
ROOT
ATOM      1  C   UNL A   1      33.156  28.176  27.245  1.00  0.00     0.023 C 
ENDROOT
BRANCH   1   2
ATOM      2  C   UNL A   1      31.745  28.080  26.683  1.00  0.00     0.023 C 
BRANCH   2   3
ATOM      3  C   UNL A   1      31.421  26.860  25.832  1.00  0.00     0.116 C 
BRANCH   3   4
ATOM      4  N   UNL A   1      30.649  25.818  26.492  1.00  0.00    -0.352 N 
ATOM      5  C   UNL A   1      30.680  24.445  26.349  1.00  0.00     0.254 C 
ATOM      6  O   UNL A   1      30.005  23.759  27.113  1.00  0.00    -0.269 OA
ATOM      7  H   UNL A   1      29.997  26.147  27.151  1.00  0.00     0.163 HD
BRANCH   5   8
ATOM      8  C   UNL A   1      31.471  23.792  25.278  1.00  0.00     0.076 A 
ATOM      9  C   UNL A   1      33.572  22.811  24.500  1.00  0.00    -0.014 A 
ATOM     10  C   UNL A   1      33.083  22.876  23.184  1.00  0.00     0.012 A 
ATOM     11  C   UNL A   1      32.699  23.173  25.540  1.00  0.00     0.025 A 
ATOM     12  C   UNL A   1      31.800  23.363  22.921  1.00  0.00     0.041 A 
ATOM     13  C   UNL A   1      31.015  23.849  23.963  1.00  0.00     0.135 A 
ATOM     14  F   UNL A   1      29.840  24.413  23.649  1.00  0.00    -0.206 F 
BRANCH   9  15
ATOM     15  C   UNL A   1      34.997  22.551  24.788  1.00  0.00     0.020 A 
ATOM     16  C   UNL A   1      39.093  21.872  26.064  1.00  0.00     0.047 C 
ATOM     17  C   UNL A   1      37.678  22.100  25.631  1.00  0.00    -0.012 A 
ATOM     18  C   UNL A   1      36.860  21.030  25.256  1.00  0.00     0.046 A 
ATOM     19  C   UNL A   1      37.156  23.390  25.553  1.00  0.00     0.126 A 
ATOM     20  C   UNL A   1      35.543  21.260  24.845  1.00  0.00     0.131 A 
ATOM     21  C   UNL A   1      35.842  23.617  25.147  1.00  0.00     0.051 A 
ATOM     22  F   UNL A   1      37.914  24.442  25.894  1.00  0.00    -0.207 F 
ATOM     23  F   UNL A   1      34.793  20.194  24.527  1.00  0.00    -0.206 F 
ENDBRANCH   9  15
ENDBRANCH   5   8
ENDBRANCH   3   4
ENDBRANCH   2   3
ENDBRANCH   1   2
BRANCH   1  24
ATOM     24  C   UNL A   1      33.982  29.376  26.796  1.00  0.00     0.116 C 
BRANCH  24  25
ATOM     25  N   UNL A   1      34.006  30.477  27.749  1.00  0.00    -0.352 N 
ATOM     26  C   UNL A   1      34.997  30.879  28.621  1.00  0.00     0.251 C 
ATOM     27  H   UNL A   1      33.185  31.021  27.776  1.00  0.00     0.163 HD
ATOM     28  O   UNL A   1      34.796  31.810  29.388  1.00  0.00    -0.269 OA
BRANCH  26  29
ATOM     29  C   UNL A   1      36.280  30.139  28.671  1.00  0.00     0.039 A 
ATOM     30  C   UNL A   1      36.664  29.445  29.816  1.00  0.00     0.014 A 
ATOM     31  C   UNL A   1      37.141  30.206  27.572  1.00  0.00     0.014 A 
ATOM     32  C   UNL A   1      37.984  29.026  29.953  1.00  0.00     0.010 A 
ATOM     33  C   UNL A   1      38.439  29.693  27.676  1.00  0.00     0.010 A 
ATOM     34  C   UNL A   1      38.895  29.168  28.894  1.00  0.00    -0.014 A 
BRANCH  34  35
ATOM     35  C   UNL A   1      40.327  28.816  29.103  1.00  0.00     0.031 A 
ATOM     36  C   UNL A   1      40.849  27.462  28.685  1.00  0.00     0.074 A 
ATOM     37  C   UNL A   1      41.180  29.746  29.580  1.00  0.00     0.049 A 
ATOM     38  N   UNL A   1      42.065  26.987  28.780  1.00  0.00    -0.248 NA
ATOM     39  C   UNL A   1      39.892  26.521  28.079  1.00  0.00     0.031 C 
ATOM     40  C   UNL A   1      40.808  31.109  29.965  1.00  0.00     0.029 A 
ATOM     41  N   UNL A   1      42.537  29.703  29.779  1.00  0.00    -0.354 N 
ATOM     42  C   UNL A   1      42.016  25.697  28.263  1.00  0.00     0.074 A 
ATOM     43  C   UNL A   1      40.645  25.448  27.881  1.00  0.00     0.031 C 
ATOM     44  C   UNL A   1      41.918  31.795  30.274  1.00  0.00     0.029 A 
ATOM     45  C   UNL A   1      43.071  30.904  30.189  1.00  0.00     0.049 A 
ATOM     46  H   UNL A   1      43.077  28.892  29.643  1.00  0.00     0.167 HD
ATOM     47  C   UNL A   1      43.024  24.807  28.107  1.00  0.00     0.031 A 
ATOM     48  C   UNL A   1      44.341  31.254  30.472  1.00  0.00     0.031 A 
ATOM     49  C   UNL A   1      44.394  25.065  28.466  1.00  0.00     0.049 A 
ATOM     50  C   UNL A   1      45.429  30.224  30.360  1.00  0.00     0.074 A 
ATOM     51  C   UNL A   1      45.479  24.212  28.365  1.00  0.00     0.029 A 
ATOM     52  N   UNL A   1      44.871  26.264  28.971  1.00  0.00    -0.354 N 
ATOM     53  N   UNL A   1      45.347  28.989  29.926  1.00  0.00    -0.248 NA
ATOM     54  C   UNL A   1      46.776  30.626  30.787  1.00  0.00     0.031 C 
ATOM     55  C   UNL A   1      46.605  24.879  28.851  1.00  0.00     0.029 A 
ATOM     56  C   UNL A   1      46.233  26.166  29.199  1.00  0.00     0.049 A 
ATOM     57  H   UNL A   1      44.324  27.064  29.141  1.00  0.00     0.167 HD
ATOM     58  C   UNL A   1      46.632  28.470  30.018  1.00  0.00     0.074 A 
ATOM     59  C   UNL A   1      47.477  29.527  30.533  1.00  0.00     0.031 C 
ATOM     60  C   UNL A   1      47.067  27.226  29.708  1.00  0.00     0.031 A 
BRANCH  47  61
ATOM     61  C   UNL A   1      42.708  23.456  27.517  1.00  0.00    -0.014 A 
ATOM     62  C   UNL A   1      42.244  22.421  28.350  1.00  0.00     0.010 A 
ATOM     63  C   UNL A   1      43.006  23.172  26.173  1.00  0.00     0.010 A 
ATOM     64  C   UNL A   1      42.117  21.119  27.860  1.00  0.00     0.020 A 
ATOM     65  C   UNL A   1      42.857  21.874  25.673  1.00  0.00     0.020 A 
ATOM     66  C   UNL A   1      42.437  20.852  26.527  1.00  0.00     0.054 A 
BRANCH  66  67
ATOM     67  S   UNL A   1      42.303  19.148  25.918  1.00  0.00     0.124 S 
ATOM     68  O   UNL A   1      40.866  19.007  25.704  1.00  0.00    -0.237 OA
ATOM     69  O   UNL A   1      43.122  19.175  24.708  1.00  0.00    -0.237 OA
ATOM     70  O   UNL A   1      42.855  18.350  27.011  1.00  0.00    -0.744 OA
ENDBRANCH  66  67
ENDBRANCH  47  61
BRANCH  48  71
ATOM     71  C   UNL A   1      44.640  32.653  30.878  1.00  0.00    -0.014 A 
ATOM     72  C   UNL A   1      45.005  33.615  29.916  1.00  0.00     0.010 A 
ATOM     73  C   UNL A   1      44.630  33.016  32.236  1.00  0.00     0.010 A 
ATOM     74  C   UNL A   1      45.405  34.894  30.307  1.00  0.00     0.020 A 
ATOM     75  C   UNL A   1      45.002  34.306  32.630  1.00  0.00     0.020 A 
ATOM     76  C   UNL A   1      45.414  35.227  31.663  1.00  0.00     0.054 A 
BRANCH  76  77
ATOM     77  S   UNL A   1      45.971  36.882  32.154  1.00  0.00     0.124 S 
ATOM     78  O   UNL A   1      44.945  37.268  33.119  1.00  0.00    -0.237 OA
ATOM     79  O   UNL A   1      47.296  36.624  32.712  1.00  0.00    -0.237 OA
ATOM     80  O   UNL A   1      45.964  37.629  30.898  1.00  0.00    -0.744 OA
ENDBRANCH  76  77
ENDBRANCH  48  71
BRANCH  60  81
ATOM     81  C   UNL A   1      48.525  26.911  29.901  1.00  0.00    -0.014 A 
ATOM     82  C   UNL A   1      48.980  26.469  31.156  1.00  0.00     0.010 A 
ATOM     83  C   UNL A   1      49.459  27.193  28.889  1.00  0.00     0.010 A 
ATOM     84  C   UNL A   1      50.348  26.349  31.410  1.00  0.00     0.020 A 
ATOM     85  C   UNL A   1      50.828  27.052  29.132  1.00  0.00     0.020 A 
ATOM     86  C   UNL A   1      51.264  26.656  30.400  1.00  0.00     0.054 A 
BRANCH  86  87
ATOM     87  S   UNL A   1      53.038  26.541  30.760  1.00  0.00     0.124 S 
ATOM     88  O   UNL A   1      53.091  25.416  31.689  1.00  0.00    -0.237 OA
ATOM     89  O   UNL A   1      53.620  26.297  29.442  1.00  0.00    -0.237 OA
ATOM     90  O   UNL A   1      53.355  27.845  31.339  1.00  0.00    -0.744 OA
ENDBRANCH  86  87
ENDBRANCH  60  81
ENDBRANCH  34  35
ENDBRANCH  26  29
ENDBRANCH  24  25
ENDBRANCH   1  24
TORSDOF 15
ENDMDL
MODEL 2
REMARK VINA RESULT:     -11.8      1.581      2.082
REMARK SMILES Cc1cc(F)c(-c2ccc(F)c(C(=O)NCCCCNC(=O)c3ccc(-c4c5nc(c(-c6ccc(S(=O)(=O)[O-])cc6)c6ccc([nH]6)c(-c6ccc(S(=O)(=O)[O-])cc6)c6nc(c(-c7ccc(S(=O)(=O)[O-])cc7)c7ccc4[nH]7)C=C6)C=C5)cc3)c2)cc1F
REMARK SMILES IDX 18 1 17 2 16 3 15 4 13 5 14 6 12 8 7 9 8 10 83 11 9 12 10 13
REMARK SMILES IDX 11 14 6 15 1 16 2 17 3 18 85 19 4 20 84 21 86 22 5 23 19 24
REMARK SMILES IDX 20 25 21 26 22 28 23 29 24 30 82 31 25 32 81 33 26 34 27 35
REMARK SMILES IDX 28 36 75 37 29 38 80 39 74 40 76 41 30 42 79 43 73 44 72 45
REMARK SMILES IDX 31 47 61 48 42 49 60 50 43 51 46 52 59 53 77 54 44 55 45 56
REMARK SMILES IDX 58 58 78 59 47 60 32 61 33 62 41 63 34 64 40 65 35 66 36 67
REMARK SMILES IDX 37 68 38 69 39 70 62 71 63 72 71 73 64 74 70 75 65 76 66 77
REMARK SMILES IDX 67 78 68 79 69 80 48 81 49 82 57 83 50 84 56 85 51 86 52 87
REMARK SMILES IDX 53 88 54 89 55 90
REMARK H PARENT 15 7 20 27 76 46 46 57
REMARK Flexibility Score: inf
ROOT
ATOM      1  C   UNL A   1      31.971  28.739  26.109  1.00  0.00     0.023 C 
ENDROOT
BRANCH   1   2
ATOM      2  C   UNL A   1      32.194  29.164  24.665  1.00  0.00     0.023 C 
BRANCH   2   3
ATOM      3  C   UNL A   1      30.995  29.089  23.730  1.00  0.00     0.116 C 
BRANCH   3   4
ATOM      4  N   UNL A   1      31.180  28.283  22.532  1.00  0.00    -0.352 N 
ATOM      5  C   UNL A   1      31.388  26.926  22.381  1.00  0.00     0.254 C 
ATOM      6  O   UNL A   1      31.398  26.456  21.246  1.00  0.00    -0.269 OA
ATOM      7  H   UNL A   1      31.152  28.790  21.689  1.00  0.00     0.163 HD
BRANCH   5   8
ATOM      8  C   UNL A   1      31.636  26.043  23.546  1.00  0.00     0.076 A 
ATOM      9  C   UNL A   1      33.114  24.537  24.783  1.00  0.00    -0.014 A 
ATOM     10  C   UNL A   1      32.008  24.118  25.541  1.00  0.00     0.012 A 
ATOM     11  C   UNL A   1      32.919  25.585  23.866  1.00  0.00     0.025 A 
ATOM     12  C   UNL A   1      30.743  24.670  25.326  1.00  0.00     0.041 A 
ATOM     13  C   UNL A   1      30.557  25.603  24.310  1.00  0.00     0.135 A 
ATOM     14  F   UNL A   1      29.306  26.019  24.065  1.00  0.00    -0.206 F 
BRANCH   9  15
ATOM     15  C   UNL A   1      34.395  23.801  24.801  1.00  0.00     0.020 A 
ATOM     16  C   UNL A   1      38.077  21.548  25.282  1.00  0.00     0.047 C 
ATOM     17  C   UNL A   1      36.803  22.317  25.120  1.00  0.00    -0.012 A 
ATOM     18  C   UNL A   1      35.731  21.788  24.396  1.00  0.00     0.046 A 
ATOM     19  C   UNL A   1      36.671  23.598  25.654  1.00  0.00     0.126 A 
ATOM     20  C   UNL A   1      34.550  22.522  24.245  1.00  0.00     0.131 A 
ATOM     21  C   UNL A   1      35.492  24.327  25.507  1.00  0.00     0.051 A 
ATOM     22  F   UNL A   1      37.681  24.144  26.345  1.00  0.00    -0.207 F 
ATOM     23  F   UNL A   1      33.542  21.953  23.568  1.00  0.00    -0.206 F 
ENDBRANCH   9  15
ENDBRANCH   5   8
ENDBRANCH   3   4
ENDBRANCH   2   3
ENDBRANCH   1   2
BRANCH   1  24
ATOM     24  C   UNL A   1      33.131  28.974  27.069  1.00  0.00     0.116 C 
BRANCH  24  25
ATOM     25  N   UNL A   1      33.298  30.362  27.478  1.00  0.00    -0.352 N 
ATOM     26  C   UNL A   1      34.389  31.004  28.029  1.00  0.00     0.251 C 
ATOM     27  H   UNL A   1      32.508  30.934  27.338  1.00  0.00     0.163 HD
ATOM     28  O   UNL A   1      34.305  32.180  28.355  1.00  0.00    -0.269 OA
BRANCH  26  29
ATOM     29  C   UNL A   1      35.637  30.248  28.284  1.00  0.00     0.039 A 
ATOM     30  C   UNL A   1      35.878  29.657  29.523  1.00  0.00     0.014 A 
ATOM     31  C   UNL A   1      36.611  30.194  27.283  1.00  0.00     0.014 A 
ATOM     32  C   UNL A   1      37.163  29.229  29.840  1.00  0.00     0.010 A 
ATOM     33  C   UNL A   1      37.875  29.669  27.573  1.00  0.00     0.010 A 
ATOM     34  C   UNL A   1      38.185  29.253  28.876  1.00  0.00    -0.014 A 
BRANCH  34  35
ATOM     35  C   UNL A   1      39.576  28.895  29.270  1.00  0.00     0.031 A 
ATOM     36  C   UNL A   1      40.162  27.561  28.873  1.00  0.00     0.074 A 
ATOM     37  C   UNL A   1      40.346  29.805  29.900  1.00  0.00     0.049 A 
ATOM     38  N   UNL A   1      41.357  27.085  29.119  1.00  0.00    -0.248 NA
ATOM     39  C   UNL A   1      39.307  26.645  28.100  1.00  0.00     0.031 C 
ATOM     40  C   UNL A   1      39.913  31.150  30.285  1.00  0.00     0.029 A 
ATOM     41  N   UNL A   1      41.662  29.757  30.286  1.00  0.00    -0.354 N 
ATOM     42  C   UNL A   1      41.390  25.817  28.547  1.00  0.00     0.074 A 
ATOM     43  C   UNL A   1      40.089  25.582  27.965  1.00  0.00     0.031 C 
ATOM     44  C   UNL A   1      40.964  31.825  30.776  1.00  0.00     0.029 A 
ATOM     45  C   UNL A   1      42.124  30.940  30.816  1.00  0.00     0.049 A 
ATOM     46  H   UNL A   1      42.222  28.953  30.194  1.00  0.00     0.167 HD
ATOM     47  C   UNL A   1      42.417  24.937  28.496  1.00  0.00     0.031 A 
ATOM     48  C   UNL A   1      43.339  31.280  31.290  1.00  0.00     0.031 A 
ATOM     49  C   UNL A   1      43.721  25.182  29.055  1.00  0.00     0.049 A 
ATOM     50  C   UNL A   1      44.440  30.258  31.289  1.00  0.00     0.074 A 
ATOM     51  C   UNL A   1      44.816  24.337  29.072  1.00  0.00     0.029 A 
ATOM     52  N   UNL A   1      44.114  26.359  29.671  1.00  0.00    -0.354 N 
ATOM     53  N   UNL A   1      44.429  29.043  30.797  1.00  0.00    -0.248 NA
ATOM     54  C   UNL A   1      45.710  30.644  31.917  1.00  0.00     0.031 C 
ATOM     55  C   UNL A   1      45.858  24.984  29.739  1.00  0.00     0.029 A 
ATOM     56  C   UNL A   1      45.431  26.255  30.084  1.00  0.00     0.049 A 
ATOM     57  H   UNL A   1      43.542  27.151  29.796  1.00  0.00     0.167 HD
ATOM     58  C   UNL A   1      45.693  28.523  31.047  1.00  0.00     0.074 A 
ATOM     59  C   UNL A   1      46.449  29.559  31.719  1.00  0.00     0.031 C 
ATOM     60  C   UNL A   1      46.176  27.294  30.749  1.00  0.00     0.031 A 
BRANCH  47  61
ATOM     61  C   UNL A   1      42.198  23.612  27.812  1.00  0.00    -0.014 A 
ATOM     62  C   UNL A   1      41.621  22.544  28.526  1.00  0.00     0.010 A 
ATOM     63  C   UNL A   1      42.692  23.382  26.516  1.00  0.00     0.010 A 
ATOM     64  C   UNL A   1      41.574  21.263  27.969  1.00  0.00     0.020 A 
ATOM     65  C   UNL A   1      42.624  22.106  25.947  1.00  0.00     0.020 A 
ATOM     66  C   UNL A   1      42.088  21.050  26.689  1.00  0.00     0.054 A 
BRANCH  66  67
ATOM     67  S   UNL A   1      42.053  19.372  25.998  1.00  0.00     0.124 S 
ATOM     68  O   UNL A   1      42.606  18.576  27.089  1.00  0.00    -0.237 OA
ATOM     69  O   UNL A   1      40.632  19.168  25.724  1.00  0.00    -0.237 OA
ATOM     70  O   UNL A   1      42.896  19.476  24.808  1.00  0.00    -0.744 OA
ENDBRANCH  66  67
ENDBRANCH  47  61
BRANCH  48  71
ATOM     71  C   UNL A   1      43.567  32.662  31.792  1.00  0.00    -0.014 A 
ATOM     72  C   UNL A   1      43.433  32.956  33.162  1.00  0.00     0.010 A 
ATOM     73  C   UNL A   1      43.851  33.706  30.894  1.00  0.00     0.010 A 
ATOM     74  C   UNL A   1      43.525  34.273  33.618  1.00  0.00     0.020 A 
ATOM     75  C   UNL A   1      43.974  35.022  31.350  1.00  0.00     0.020 A 
ATOM     76  C   UNL A   1      43.781  35.300  32.706  1.00  0.00     0.054 A 
BRANCH  76  77
ATOM     77  S   UNL A   1      43.862  37.008  33.312  1.00  0.00     0.124 S 
ATOM     78  O   UNL A   1      45.084  36.983  34.110  1.00  0.00    -0.237 OA
ATOM     79  O   UNL A   1      43.931  37.784  32.077  1.00  0.00    -0.237 OA
ATOM     80  O   UNL A   1      42.621  37.159  34.069  1.00  0.00    -0.744 OA
ENDBRANCH  76  77
ENDBRANCH  48  71
BRANCH  60  81
ATOM     81  C   UNL A   1      47.596  26.974  31.132  1.00  0.00    -0.014 A 
ATOM     82  C   UNL A   1      48.607  27.023  30.154  1.00  0.00     0.010 A 
ATOM     83  C   UNL A   1      47.899  26.487  32.414  1.00  0.00     0.010 A 
ATOM     84  C   UNL A   1      49.890  26.553  30.442  1.00  0.00     0.020 A 
ATOM     85  C   UNL A   1      49.189  26.039  32.712  1.00  0.00     0.020 A 
ATOM     86  C   UNL A   1      50.169  26.050  31.715  1.00  0.00     0.054 A 
BRANCH  86  87
ATOM     87  S   UNL A   1      51.827  25.400  32.059  1.00  0.00     0.124 S 
ATOM     88  O   UNL A   1      52.099  25.941  33.387  1.00  0.00    -0.237 OA
ATOM     89  O   UNL A   1      51.627  23.954  31.997  1.00  0.00    -0.237 OA
ATOM     90  O   UNL A   1      52.642  25.954  30.980  1.00  0.00    -0.744 OA
ENDBRANCH  86  87
ENDBRANCH  60  81
ENDBRANCH  34  35
ENDBRANCH  26  29
ENDBRANCH  24  25
ENDBRANCH   1  24
TORSDOF 15
ENDMDL
MODEL 3
REMARK VINA RESULT:     -11.6      2.905      8.580
REMARK SMILES Cc1cc(F)c(-c2ccc(F)c(C(=O)NCCCCNC(=O)c3ccc(-c4c5nc(c(-c6ccc(S(=O)(=O)[O-])cc6)c6ccc([nH]6)c(-c6ccc(S(=O)(=O)[O-])cc6)c6nc(c(-c7ccc(S(=O)(=O)[O-])cc7)c7ccc4[nH]7)C=C6)C=C5)cc3)c2)cc1F
REMARK SMILES IDX 18 1 17 2 16 3 15 4 13 5 14 6 12 8 7 9 8 10 83 11 9 12 10 13
REMARK SMILES IDX 11 14 6 15 1 16 2 17 3 18 85 19 4 20 84 21 86 22 5 23 19 24
REMARK SMILES IDX 20 25 21 26 22 28 23 29 24 30 82 31 25 32 81 33 26 34 27 35
REMARK SMILES IDX 28 36 75 37 29 38 80 39 74 40 76 41 30 42 79 43 73 44 72 45
REMARK SMILES IDX 31 47 61 48 42 49 60 50 43 51 46 52 59 53 77 54 44 55 45 56
REMARK SMILES IDX 58 58 78 59 47 60 32 61 33 62 41 63 34 64 40 65 35 66 36 67
REMARK SMILES IDX 37 68 38 69 39 70 62 71 63 72 71 73 64 74 70 75 65 76 66 77
REMARK SMILES IDX 67 78 68 79 69 80 48 81 49 82 57 83 50 84 56 85 51 86 52 87
REMARK SMILES IDX 53 88 54 89 55 90
REMARK H PARENT 15 7 20 27 76 46 46 57
REMARK Flexibility Score: inf
ROOT
ATOM      1  C   UNL A   1      36.107  23.122  25.947  1.00  0.00     0.023 C 
ENDROOT
BRANCH   1   2
ATOM      2  C   UNL A   1      35.359  21.826  26.222  1.00  0.00     0.023 C 
BRANCH   2   3
ATOM      3  C   UNL A   1      34.265  21.871  27.280  1.00  0.00     0.116 C 
BRANCH   3   4
ATOM      4  N   UNL A   1      32.916  21.606  26.803  1.00  0.00    -0.352 N 
ATOM      5  C   UNL A   1      32.216  22.136  25.736  1.00  0.00     0.254 C 
ATOM      6  O   UNL A   1      31.117  21.662  25.462  1.00  0.00    -0.269 OA
ATOM      7  H   UNL A   1      32.419  20.939  27.328  1.00  0.00     0.163 HD
BRANCH   5   8
ATOM      8  C   UNL A   1      32.744  23.277  24.951  1.00  0.00     0.076 A 
ATOM      9  C   UNL A   1      32.993  25.690  24.631  1.00  0.00    -0.014 A 
ATOM     10  C   UNL A   1      33.429  25.443  23.319  1.00  0.00     0.012 A 
ATOM     11  C   UNL A   1      32.764  24.580  25.463  1.00  0.00     0.025 A 
ATOM     12  C   UNL A   1      33.549  24.136  22.838  1.00  0.00     0.041 A 
ATOM     13  C   UNL A   1      33.174  23.064  23.643  1.00  0.00     0.135 A 
ATOM     14  F   UNL A   1      33.195  21.838  23.101  1.00  0.00    -0.206 F 
BRANCH   9  15
ATOM     15  C   UNL A   1      32.611  27.043  25.083  1.00  0.00     0.020 A 
ATOM     16  C   UNL A   1      31.798  30.982  26.725  1.00  0.00     0.047 C 
ATOM     17  C   UNL A   1      32.087  29.627  26.158  1.00  0.00    -0.012 A 
ATOM     18  C   UNL A   1      32.740  29.485  24.930  1.00  0.00     0.046 A 
ATOM     19  C   UNL A   1      31.676  28.473  26.824  1.00  0.00     0.126 A 
ATOM     20  C   UNL A   1      32.995  28.212  24.410  1.00  0.00     0.131 A 
ATOM     21  C   UNL A   1      31.934  27.205  26.306  1.00  0.00     0.051 A 
ATOM     22  F   UNL A   1      31.037  28.568  27.999  1.00  0.00    -0.207 F 
ATOM     23  F   UNL A   1      33.653  28.134  23.243  1.00  0.00    -0.206 F 
ENDBRANCH   9  15
ENDBRANCH   5   8
ENDBRANCH   3   4
ENDBRANCH   2   3
ENDBRANCH   1   2
BRANCH   1  24
ATOM     24  C   UNL A   1      37.282  23.032  24.980  1.00  0.00     0.116 C 
BRANCH  24  25
ATOM     25  N   UNL A   1      38.412  22.262  25.481  1.00  0.00    -0.352 N 
ATOM     26  C   UNL A   1      39.455  22.641  26.301  1.00  0.00     0.251 C 
ATOM     27  H   UNL A   1      38.436  21.322  25.188  1.00  0.00     0.163 HD
ATOM     28  O   UNL A   1      40.346  21.845  26.565  1.00  0.00    -0.269 OA
BRANCH  26  29
ATOM     29  C   UNL A   1      39.527  24.031  26.808  1.00  0.00     0.039 A 
ATOM     30  C   UNL A   1      40.116  25.042  26.051  1.00  0.00     0.014 A 
ATOM     31  C   UNL A   1      39.057  24.306  28.095  1.00  0.00     0.014 A 
ATOM     32  C   UNL A   1      40.449  26.248  26.658  1.00  0.00     0.010 A 
ATOM     33  C   UNL A   1      39.304  25.558  28.671  1.00  0.00     0.010 A 
ATOM     34  C   UNL A   1      40.069  26.512  27.985  1.00  0.00    -0.014 A 
BRANCH  34  35
ATOM     35  C   UNL A   1      40.532  27.762  28.648  1.00  0.00     0.031 A 
ATOM     36  C   UNL A   1      41.991  27.950  28.989  1.00  0.00     0.074 A 
ATOM     37  C   UNL A   1      39.660  28.768  28.858  1.00  0.00     0.049 A 
ATOM     38  N   UNL A   1      42.575  28.975  29.557  1.00  0.00    -0.248 NA
ATOM     39  C   UNL A   1      42.916  26.856  28.648  1.00  0.00     0.031 C 
ATOM     40  C   UNL A   1      38.236  28.731  28.519  1.00  0.00     0.029 A 
ATOM     41  N   UNL A   1      39.847  30.031  29.362  1.00  0.00    -0.354 N 
ATOM     42  C   UNL A   1      43.923  28.645  29.653  1.00  0.00     0.074 A 
ATOM     43  C   UNL A   1      44.071  27.313  29.112  1.00  0.00     0.031 C 
ATOM     44  C   UNL A   1      37.698  29.939  28.747  1.00  0.00     0.029 A 
ATOM     45  C   UNL A   1      38.715  30.813  29.323  1.00  0.00     0.049 A 
ATOM     46  H   UNL A   1      40.708  30.347  29.718  1.00  0.00     0.167 HD
ATOM     47  C   UNL A   1      44.946  29.390  30.133  1.00  0.00     0.031 A 
ATOM     48  C   UNL A   1      38.509  32.088  29.710  1.00  0.00     0.031 A 
ATOM     49  C   UNL A   1      44.802  30.726  30.649  1.00  0.00     0.049 A 
ATOM     50  C   UNL A   1      39.646  32.866  30.308  1.00  0.00     0.074 A 
ATOM     51  C   UNL A   1      45.780  31.548  31.179  1.00  0.00     0.029 A 
ATOM     52  N   UNL A   1      43.616  31.442  30.681  1.00  0.00    -0.354 N 
ATOM     53  N   UNL A   1      40.901  32.510  30.444  1.00  0.00    -0.248 NA
ATOM     54  C   UNL A   1      39.341  34.210  30.816  1.00  0.00     0.031 C 
ATOM     55  C   UNL A   1      45.179  32.745  31.573  1.00  0.00     0.029 A 
ATOM     56  C   UNL A   1      43.838  32.691  31.234  1.00  0.00     0.049 A 
ATOM     57  H   UNL A   1      42.747  31.112  30.357  1.00  0.00     0.167 HD
ATOM     58  C   UNL A   1      41.537  33.589  31.045  1.00  0.00     0.074 A 
ATOM     59  C   UNL A   1      40.535  34.618  31.230  1.00  0.00     0.031 C 
ATOM     60  C   UNL A   1      42.834  33.711  31.411  1.00  0.00     0.031 A 
BRANCH  47  61
ATOM     61  C   UNL A   1      46.332  28.798  30.130  1.00  0.00    -0.014 A 
ATOM     62  C   UNL A   1      47.130  28.892  28.974  1.00  0.00     0.010 A 
ATOM     63  C   UNL A   1      46.787  28.030  31.216  1.00  0.00     0.010 A 
ATOM     64  C   UNL A   1      48.340  28.199  28.889  1.00  0.00     0.020 A 
ATOM     65  C   UNL A   1      48.010  27.355  31.143  1.00  0.00     0.020 A 
ATOM     66  C   UNL A   1      48.766  27.424  29.970  1.00  0.00     0.054 A 
BRANCH  66  67
ATOM     67  S   UNL A   1      50.322  26.500  29.828  1.00  0.00     0.124 S 
ATOM     68  O   UNL A   1      49.967  25.206  30.401  1.00  0.00    -0.237 OA
ATOM     69  O   UNL A   1      50.569  26.508  28.388  1.00  0.00    -0.237 OA
ATOM     70  O   UNL A   1      51.264  27.296  30.614  1.00  0.00    -0.744 OA
ENDBRANCH  66  67
ENDBRANCH  47  61
BRANCH  48  71
ATOM     71  C   UNL A   1      37.165  32.698  29.528  1.00  0.00    -0.014 A 
ATOM     72  C   UNL A   1      36.784  33.228  28.280  1.00  0.00     0.010 A 
ATOM     73  C   UNL A   1      36.285  32.817  30.618  1.00  0.00     0.010 A 
ATOM     74  C   UNL A   1      35.574  33.911  28.139  1.00  0.00     0.020 A 
ATOM     75  C   UNL A   1      35.059  33.474  30.473  1.00  0.00     0.020 A 
ATOM     76  C   UNL A   1      34.725  34.042  29.240  1.00  0.00     0.054 A 
BRANCH  76  77
ATOM     77  S   UNL A   1      33.174  34.963  29.046  1.00  0.00     0.124 S 
ATOM     78  O   UNL A   1      32.605  34.874  30.387  1.00  0.00    -0.237 OA
ATOM     79  O   UNL A   1      33.636  36.289  28.644  1.00  0.00    -0.237 OA
ATOM     80  O   UNL A   1      32.463  34.215  28.012  1.00  0.00    -0.744 OA
ENDBRANCH  76  77
ENDBRANCH  48  71
BRANCH  60  81
ATOM     81  C   UNL A   1      43.277  34.998  32.051  1.00  0.00    -0.014 A 
ATOM     82  C   UNL A   1      43.187  35.148  33.447  1.00  0.00     0.010 A 
ATOM     83  C   UNL A   1      43.642  36.102  31.262  1.00  0.00     0.010 A 
ATOM     84  C   UNL A   1      43.416  36.391  34.040  1.00  0.00     0.020 A 
ATOM     85  C   UNL A   1      43.895  37.342  31.855  1.00  0.00     0.020 A 
ATOM     86  C   UNL A   1      43.754  37.484  33.239  1.00  0.00     0.054 A 
BRANCH  86  87
ATOM     87  S   UNL A   1      44.002  39.102  34.019  1.00  0.00     0.124 S 
ATOM     88  O   UNL A   1      45.320  39.484  33.520  1.00  0.00    -0.237 OA
ATOM     89  O   UNL A   1      42.883  39.885  33.503  1.00  0.00    -0.237 OA
ATOM     90  O   UNL A   1      43.937  38.806  35.448  1.00  0.00    -0.744 OA
ENDBRANCH  86  87
ENDBRANCH  60  81
ENDBRANCH  34  35
ENDBRANCH  26  29
ENDBRANCH  24  25
ENDBRANCH   1  24
TORSDOF 15
ENDMDL
