MODEL 1
REMARK VINA RESULT:     -10.8      0.000      0.000
REMARK SMILES CCC(CC)(NC(=O)CS[C@H]1CCS(=O)(=O)C1)C(=O)NCCCCNC(=O)c1ccc(-c2c3nc(c(-c4ccc(S(=O)(=O)[O-])cc4)c4ccc([nH]4)c(-c4ccc(S(=O)(=O)[O-])cc4)c4nc(c(-c5ccc(S(=O)(=O)[O-])cc5)c5ccc2[nH]5)C=C4)C=C3)cc1
REMARK SMILES IDX 22 1 21 2 20 3 18 4 19 5 3 7 2 8 1 9 4 10 5 11 6 12 7 13
REMARK SMILES IDX 8 15 9 16 10 17 11 18 12 19 17 20 13 21 14 22 15 23 16 24
REMARK SMILES IDX 23 25 24 26 25 27 26 28 27 30 28 31 29 32 87 33 30 34 86 35
REMARK SMILES IDX 31 36 32 37 33 38 80 39 34 40 85 41 79 42 81 43 35 44 84 45
REMARK SMILES IDX 78 46 77 47 36 49 66 50 47 51 65 52 48 53 51 54 64 55 82 56
REMARK SMILES IDX 49 57 50 58 63 60 83 61 52 62 37 63 38 64 46 65 39 66 45 67
REMARK SMILES IDX 40 68 41 69 42 70 43 71 44 72 67 73 68 74 76 75 69 76 75 77
REMARK SMILES IDX 70 78 71 79 72 80 73 81 74 82 53 83 54 84 62 85 55 86 61 87
REMARK SMILES IDX 56 88 57 89 58 90 59 91 60 92
REMARK H PARENT 20 6 6 14 25 29 81 48 51 59
REMARK Flexibility Score: inf
ROOT
ATOM      1  C   UNL A   1      37.584  22.330  25.630  1.00  0.00     0.023 C 
ENDROOT
BRANCH   1   2
ATOM      2  C   UNL A   1      36.590  21.971  24.531  1.00  0.00     0.116 C 
BRANCH   2   3
ATOM      3  N   UNL A   1      35.632  20.930  24.883  1.00  0.00    -0.354 N 
ATOM      4  C   UNL A   1      34.282  20.995  25.126  1.00  0.00     0.245 C 
ATOM      5  O   UNL A   1      33.712  19.943  25.423  1.00  0.00    -0.272 OA
ATOM      6  H   UNL A   1      36.018  20.028  24.961  1.00  0.00     0.163 HD
BRANCH   4   7
ATOM      7  C   UNL A   1      33.532  22.356  25.057  1.00  0.00     0.118 C 
BRANCH   7   8
ATOM      8  C   UNL A   1      33.813  23.226  23.799  1.00  0.00     0.035 C 
ATOM      9  C   UNL A   1      33.164  22.799  22.488  1.00  0.00     0.007 C 
ENDBRANCH   7   8
BRANCH   7  10
ATOM     10  C   UNL A   1      34.026  23.177  26.302  1.00  0.00     0.035 C 
ATOM     11  C   UNL A   1      34.021  22.463  27.648  1.00  0.00     0.007 C 
ENDBRANCH   7  10
BRANCH   7  12
ATOM     12  N   UNL A   1      32.059  22.064  25.086  1.00  0.00    -0.341 N 
ATOM     13  C   UNL A   1      30.996  22.783  25.598  1.00  0.00     0.230 C 
ATOM     14  H   UNL A   1      31.807  21.210  24.667  1.00  0.00     0.164 HD
ATOM     15  O   UNL A   1      30.085  22.111  26.093  1.00  0.00    -0.274 OA
BRANCH  13  16
ATOM     16  C   UNL A   1      30.840  24.305  25.436  1.00  0.00     0.169 C 
BRANCH  16  17
ATOM     17  S   UNL A   1      30.437  24.889  23.754  1.00  0.00    -0.148 SA
BRANCH  17  18
ATOM     18  C   UNL A   1      31.268  26.491  23.785  1.00  0.00     0.063 C 
ATOM     19  C   UNL A   1      30.412  27.721  24.078  1.00  0.00     0.031 C 
ATOM     20  C   UNL A   1      32.388  26.471  24.817  1.00  0.00     0.151 C 
ATOM     21  C   UNL A   1      31.423  28.868  24.163  1.00  0.00     0.138 C 
ATOM     22  S   UNL A   1      32.834  28.184  25.024  1.00  0.00     0.151 S 
ATOM     23  O   UNL A   1      34.034  28.446  24.248  1.00  0.00    -0.229 OA
ATOM     24  O   UNL A   1      32.743  28.527  26.423  1.00  0.00    -0.229 OA
ENDBRANCH  17  18
ENDBRANCH  16  17
ENDBRANCH  13  16
ENDBRANCH   7  12
ENDBRANCH   4   7
ENDBRANCH   2   3
ENDBRANCH   1   2
BRANCH   1  25
ATOM     25  C   UNL A   1      37.570  23.777  26.097  1.00  0.00     0.023 C 
BRANCH  25  26
ATOM     26  C   UNL A   1      38.823  24.222  26.835  1.00  0.00     0.116 C 
BRANCH  26  27
ATOM     27  N   UNL A   1      39.919  24.569  25.944  1.00  0.00    -0.352 N 
ATOM     28  C   UNL A   1      40.863  25.557  26.080  1.00  0.00     0.251 C 
ATOM     29  H   UNL A   1      39.995  24.020  25.130  1.00  0.00     0.163 HD
ATOM     30  O   UNL A   1      41.660  25.776  25.174  1.00  0.00    -0.269 OA
BRANCH  28  31
ATOM     31  C   UNL A   1      40.873  26.371  27.308  1.00  0.00     0.039 A 
ATOM     32  C   UNL A   1      41.717  27.481  27.371  1.00  0.00     0.014 A 
ATOM     33  C   UNL A   1      40.007  26.072  28.364  1.00  0.00     0.014 A 
ATOM     34  C   UNL A   1      41.644  28.332  28.471  1.00  0.00     0.010 A 
ATOM     35  C   UNL A   1      39.871  26.972  29.413  1.00  0.00     0.010 A 
ATOM     36  C   UNL A   1      40.695  28.105  29.481  1.00  0.00    -0.014 A 
BRANCH  36  37
ATOM     37  C   UNL A   1      40.557  29.037  30.627  1.00  0.00     0.031 A 
ATOM     38  C   UNL A   1      41.432  28.867  31.838  1.00  0.00     0.074 A 
ATOM     39  C   UNL A   1      39.610  29.995  30.597  1.00  0.00     0.049 A 
ATOM     40  N   UNL A   1      41.431  29.544  32.956  1.00  0.00    -0.248 NA
ATOM     41  C   UNL A   1      42.418  27.773  31.800  1.00  0.00     0.031 C 
ATOM     42  C   UNL A   1      38.671  30.227  29.497  1.00  0.00     0.029 A 
ATOM     43  N   UNL A   1      39.278  30.952  31.522  1.00  0.00    -0.354 N 
ATOM     44  C   UNL A   1      42.402  28.953  33.756  1.00  0.00     0.074 A 
ATOM     45  C   UNL A   1      42.926  27.824  33.021  1.00  0.00     0.031 C 
ATOM     46  C   UNL A   1      37.892  31.278  29.797  1.00  0.00     0.029 A 
ATOM     47  C   UNL A   1      38.242  31.766  31.126  1.00  0.00     0.049 A 
ATOM     48  H   UNL A   1      39.737  31.046  32.387  1.00  0.00     0.167 HD
ATOM     49  C   UNL A   1      42.837  29.332  34.980  1.00  0.00     0.031 A 
ATOM     50  C   UNL A   1      37.640  32.788  31.765  1.00  0.00     0.031 A 
ATOM     51  C   UNL A   1      42.314  30.461  35.701  1.00  0.00     0.049 A 
ATOM     52  C   UNL A   1      38.132  33.183  33.131  1.00  0.00     0.074 A 
ATOM     53  C   UNL A   1      42.717  30.960  36.927  1.00  0.00     0.029 A 
ATOM     54  N   UNL A   1      41.274  31.267  35.262  1.00  0.00    -0.354 N 
ATOM     55  N   UNL A   1      39.097  32.653  33.844  1.00  0.00    -0.248 NA
ATOM     56  C   UNL A   1      37.463  34.323  33.772  1.00  0.00     0.031 C 
ATOM     57  C   UNL A   1      41.883  32.033  37.255  1.00  0.00     0.029 A 
ATOM     58  C   UNL A   1      41.005  32.246  36.204  1.00  0.00     0.049 A 
ATOM     59  H   UNL A   1      40.798  31.159  34.407  1.00  0.00     0.167 HD
ATOM     60  C   UNL A   1      39.170  33.412  35.007  1.00  0.00     0.074 A 
ATOM     61  C   UNL A   1      38.163  34.448  34.892  1.00  0.00     0.031 C 
ATOM     62  C   UNL A   1      39.995  33.266  36.072  1.00  0.00     0.031 A 
BRANCH  49  63
ATOM     63  C   UNL A   1      43.931  28.511  35.613  1.00  0.00    -0.014 A 
ATOM     64  C   UNL A   1      43.631  27.488  36.533  1.00  0.00     0.010 A 
ATOM     65  C   UNL A   1      45.272  28.743  35.264  1.00  0.00     0.010 A 
ATOM     66  C   UNL A   1      44.656  26.749  37.129  1.00  0.00     0.020 A 
ATOM     67  C   UNL A   1      46.298  27.984  35.833  1.00  0.00     0.020 A 
ATOM     68  C   UNL A   1      45.984  27.002  36.776  1.00  0.00     0.054 A 
BRANCH  68  69
ATOM     69  S   UNL A   1      47.292  26.014  37.551  1.00  0.00     0.124 S 
ATOM     70  O   UNL A   1      46.517  25.054  38.335  1.00  0.00    -0.237 OA
ATOM     71  O   UNL A   1      47.999  25.460  36.400  1.00  0.00    -0.237 OA
ATOM     72  O   UNL A   1      48.047  26.989  38.334  1.00  0.00    -0.744 OA
ENDBRANCH  68  69
ENDBRANCH  49  63
BRANCH  50  73
ATOM     73  C   UNL A   1      36.514  33.511  31.111  1.00  0.00    -0.014 A 
ATOM     74  C   UNL A   1      36.640  33.997  29.797  1.00  0.00     0.010 A 
ATOM     75  C   UNL A   1      35.300  33.703  31.796  1.00  0.00     0.010 A 
ATOM     76  C   UNL A   1      35.581  34.674  29.187  1.00  0.00     0.020 A 
ATOM     77  C   UNL A   1      34.227  34.351  31.178  1.00  0.00     0.020 A 
ATOM     78  C   UNL A   1      34.378  34.843  29.881  1.00  0.00     0.054 A 
BRANCH  78  79
ATOM     79  S   UNL A   1      32.999  35.677  29.048  1.00  0.00     0.124 S 
ATOM     80  O   UNL A   1      32.392  34.583  28.296  1.00  0.00    -0.237 OA
ATOM     81  O   UNL A   1      32.215  36.187  30.170  1.00  0.00    -0.237 OA
ATOM     82  O   UNL A   1      33.657  36.702  28.240  1.00  0.00    -0.744 OA
ENDBRANCH  78  79
ENDBRANCH  50  73
BRANCH  62  83
ATOM     83  C   UNL A   1      39.870  34.269  37.188  1.00  0.00    -0.014 A 
ATOM     84  C   UNL A   1      40.551  35.498  37.148  1.00  0.00     0.010 A 
ATOM     85  C   UNL A   1      39.007  33.998  38.268  1.00  0.00     0.010 A 
ATOM     86  C   UNL A   1      40.397  36.424  38.183  1.00  0.00     0.020 A 
ATOM     87  C   UNL A   1      38.826  34.935  39.287  1.00  0.00     0.020 A 
ATOM     88  C   UNL A   1      39.534  36.138  39.244  1.00  0.00     0.054 A 
BRANCH  88  89
ATOM     89  S   UNL A   1      39.316  37.377  40.550  1.00  0.00     0.124 S 
ATOM     90  O   UNL A   1      38.869  36.559  41.674  1.00  0.00    -0.237 OA
ATOM     91  O   UNL A   1      40.656  37.943  40.680  1.00  0.00    -0.237 OA
ATOM     92  O   UNL A   1      38.311  38.286  40.002  1.00  0.00    -0.744 OA
ENDBRANCH  88  89
ENDBRANCH  62  83
ENDBRANCH  36  37
ENDBRANCH  28  31
ENDBRANCH  26  27
ENDBRANCH  25  26
ENDBRANCH   1  25
TORSDOF 20
ENDMDL
MODEL 2
REMARK VINA RESULT:     -10.4      6.159      8.206
REMARK SMILES CCC(CC)(NC(=O)CS[C@H]1CCS(=O)(=O)C1)C(=O)NCCCCNC(=O)c1ccc(-c2c3nc(c(-c4ccc(S(=O)(=O)[O-])cc4)c4ccc([nH]4)c(-c4ccc(S(=O)(=O)[O-])cc4)c4nc(c(-c5ccc(S(=O)(=O)[O-])cc5)c5ccc2[nH]5)C=C4)C=C3)cc1
REMARK SMILES IDX 22 1 21 2 20 3 18 4 19 5 3 7 2 8 1 9 4 10 5 11 6 12 7 13
REMARK SMILES IDX 8 15 9 16 10 17 11 18 12 19 17 20 13 21 14 22 15 23 16 24
REMARK SMILES IDX 23 25 24 26 25 27 26 28 27 30 28 31 29 32 87 33 30 34 86 35
REMARK SMILES IDX 31 36 32 37 33 38 80 39 34 40 85 41 79 42 81 43 35 44 84 45
REMARK SMILES IDX 78 46 77 47 36 49 66 50 47 51 65 52 48 53 51 54 64 55 82 56
REMARK SMILES IDX 49 57 50 58 63 60 83 61 52 62 37 63 38 64 46 65 39 66 45 67
REMARK SMILES IDX 40 68 41 69 42 70 43 71 44 72 67 73 68 74 76 75 69 76 75 77
REMARK SMILES IDX 70 78 71 79 72 80 73 81 74 82 53 83 54 84 62 85 55 86 61 87
REMARK SMILES IDX 56 88 57 89 58 90 59 91 60 92
REMARK H PARENT 20 6 6 14 25 29 81 48 51 59
REMARK Flexibility Score: inf
ROOT
ATOM      1  C   UNL A   1      37.406  20.416  24.940  1.00  0.00     0.023 C 
ENDROOT
BRANCH   1   2
ATOM      2  C   UNL A   1      35.996  20.978  24.793  1.00  0.00     0.116 C 
BRANCH   2   3
ATOM      3  N   UNL A   1      34.941  20.148  25.360  1.00  0.00    -0.354 N 
ATOM      4  C   UNL A   1      33.662  20.461  25.749  1.00  0.00     0.245 C 
ATOM      5  O   UNL A   1      32.977  19.549  26.218  1.00  0.00    -0.272 OA
ATOM      6  H   UNL A   1      35.187  19.203  25.487  1.00  0.00     0.163 HD
BRANCH   4   7
ATOM      7  C   UNL A   1      33.133  21.918  25.626  1.00  0.00     0.118 C 
BRANCH   7   8
ATOM      8  C   UNL A   1      33.100  22.512  24.188  1.00  0.00     0.035 C 
ATOM      9  C   UNL A   1      32.096  21.921  23.206  1.00  0.00     0.007 C 
ENDBRANCH   7   8
BRANCH   7  10
ATOM     10  C   UNL A   1      34.125  22.803  26.465  1.00  0.00     0.035 C 
ATOM     11  C   UNL A   1      34.872  23.900  25.716  1.00  0.00     0.007 C 
ENDBRANCH   7  10
BRANCH   7  12
ATOM     12  N   UNL A   1      31.728  21.938  26.157  1.00  0.00    -0.341 N 
ATOM     13  C   UNL A   1      30.868  22.985  26.424  1.00  0.00     0.230 C 
ATOM     14  H   UNL A   1      31.355  21.048  26.348  1.00  0.00     0.164 HD
ATOM     15  O   UNL A   1      30.131  22.835  27.404  1.00  0.00    -0.274 OA
BRANCH  13  16
ATOM     16  C   UNL A   1      30.690  24.199  25.496  1.00  0.00     0.169 C 
BRANCH  16  17
ATOM     17  S   UNL A   1      31.552  25.725  26.007  1.00  0.00    -0.148 SA
BRANCH  17  18
ATOM     18  C   UNL A   1      31.770  26.501  24.392  1.00  0.00     0.063 C 
ATOM     19  C   UNL A   1      30.875  27.693  24.058  1.00  0.00     0.031 C 
ATOM     20  C   UNL A   1      33.211  26.968  24.233  1.00  0.00     0.151 C 
ATOM     21  C   UNL A   1      31.397  28.185  22.706  1.00  0.00     0.138 C 
ATOM     22  S   UNL A   1      33.178  28.044  22.813  1.00  0.00     0.151 S 
ATOM     23  O   UNL A   1      33.663  27.305  21.661  1.00  0.00    -0.229 OA
ATOM     24  O   UNL A   1      33.730  29.326  23.183  1.00  0.00    -0.229 OA
ENDBRANCH  17  18
ENDBRANCH  16  17
ENDBRANCH  13  16
ENDBRANCH   7  12
ENDBRANCH   4   7
ENDBRANCH   2   3
ENDBRANCH   1   2
BRANCH   1  25
ATOM     25  C   UNL A   1      38.496  21.423  25.272  1.00  0.00     0.023 C 
BRANCH  25  26
ATOM     26  C   UNL A   1      39.344  21.070  26.484  1.00  0.00     0.116 C 
BRANCH  26  27
ATOM     27  N   UNL A   1      40.294  19.999  26.224  1.00  0.00    -0.352 N 
ATOM     28  C   UNL A   1      41.662  20.064  26.127  1.00  0.00     0.251 C 
ATOM     29  H   UNL A   1      39.903  19.104  26.101  1.00  0.00     0.163 HD
ATOM     30  O   UNL A   1      42.303  19.071  25.799  1.00  0.00    -0.269 OA
BRANCH  28  31
ATOM     31  C   UNL A   1      42.337  21.349  26.379  1.00  0.00     0.039 A 
ATOM     32  C   UNL A   1      42.597  22.194  25.300  1.00  0.00     0.014 A 
ATOM     33  C   UNL A   1      42.653  21.740  27.684  1.00  0.00     0.014 A 
ATOM     34  C   UNL A   1      43.117  23.465  25.537  1.00  0.00     0.010 A 
ATOM     35  C   UNL A   1      43.081  23.038  27.924  1.00  0.00     0.010 A 
ATOM     36  C   UNL A   1      43.327  23.909  26.853  1.00  0.00    -0.014 A 
BRANCH  36  37
ATOM     37  C   UNL A   1      43.816  25.282  27.129  1.00  0.00     0.031 A 
ATOM     38  C   UNL A   1      45.253  25.632  26.854  1.00  0.00     0.074 A 
ATOM     39  C   UNL A   1      42.984  26.189  27.676  1.00  0.00     0.049 A 
ATOM     40  N   UNL A   1      45.882  26.757  27.073  1.00  0.00    -0.248 NA
ATOM     41  C   UNL A   1      46.102  24.570  26.287  1.00  0.00     0.031 C 
ATOM     42  C   UNL A   1      41.583  25.952  28.030  1.00  0.00     0.029 A 
ATOM     43  N   UNL A   1      43.198  27.497  28.034  1.00  0.00    -0.354 N 
ATOM     44  C   UNL A   1      47.198  26.535  26.684  1.00  0.00     0.074 A 
ATOM     45  C   UNL A   1      47.291  25.151  26.276  1.00  0.00     0.031 C 
ATOM     46  C   UNL A   1      41.055  27.083  28.525  1.00  0.00     0.029 A 
ATOM     47  C   UNL A   1      42.089  28.112  28.566  1.00  0.00     0.049 A 
ATOM     48  H   UNL A   1      44.064  27.950  27.923  1.00  0.00     0.167 HD
ATOM     49  C   UNL A   1      48.229  27.410  26.644  1.00  0.00     0.031 A 
ATOM     50  C   UNL A   1      41.924  29.363  29.038  1.00  0.00     0.031 A 
ATOM     51  C   UNL A   1      48.126  28.787  27.045  1.00  0.00     0.049 A 
ATOM     52  C   UNL A   1      43.089  30.315  28.995  1.00  0.00     0.074 A 
ATOM     53  C   UNL A   1      49.096  29.772  26.998  1.00  0.00     0.029 A 
ATOM     54  N   UNL A   1      46.983  29.376  27.567  1.00  0.00    -0.354 N 
ATOM     55  N   UNL A   1      44.308  30.105  28.560  1.00  0.00    -0.248 NA
ATOM     56  C   UNL A   1      42.849  31.676  29.492  1.00  0.00     0.031 C 
ATOM     57  C   UNL A   1      48.557  30.940  27.546  1.00  0.00     0.029 A 
ATOM     58  C   UNL A   1      47.231  30.704  27.869  1.00  0.00     0.049 A 
ATOM     59  H   UNL A   1      46.122  28.917  27.701  1.00  0.00     0.167 HD
ATOM     60  C   UNL A   1      44.976  31.317  28.708  1.00  0.00     0.074 A 
ATOM     61  C   UNL A   1      44.018  32.257  29.254  1.00  0.00     0.031 C 
ATOM     62  C   UNL A   1      46.264  31.623  28.416  1.00  0.00     0.031 A 
BRANCH  49  63
ATOM     63  C   UNL A   1      49.557  26.897  26.151  1.00  0.00    -0.014 A 
ATOM     64  C   UNL A   1      49.978  27.123  24.827  1.00  0.00     0.010 A 
ATOM     65  C   UNL A   1      50.410  26.204  27.029  1.00  0.00     0.010 A 
ATOM     66  C   UNL A   1      51.202  26.623  24.377  1.00  0.00     0.020 A 
ATOM     67  C   UNL A   1      51.650  25.731  26.592  1.00  0.00     0.020 A 
ATOM     68  C   UNL A   1      52.031  25.929  25.262  1.00  0.00     0.054 A 
BRANCH  68  69
ATOM     69  S   UNL A   1      53.623  25.308  24.655  1.00  0.00     0.124 S 
ATOM     70  O   UNL A   1      53.521  25.574  23.222  1.00  0.00    -0.237 OA
ATOM     71  O   UNL A   1      54.585  26.133  25.380  1.00  0.00    -0.237 OA
ATOM     72  O   UNL A   1      53.609  23.895  25.027  1.00  0.00    -0.744 OA
ENDBRANCH  68  69
ENDBRANCH  49  63
BRANCH  50  73
ATOM     73  C   UNL A   1      40.603  29.784  29.580  1.00  0.00    -0.014 A 
ATOM     74  C   UNL A   1      40.367  29.795  30.966  1.00  0.00     0.010 A 
ATOM     75  C   UNL A   1      39.577  30.196  28.710  1.00  0.00     0.010 A 
ATOM     76  C   UNL A   1      39.125  30.193  31.471  1.00  0.00     0.020 A 
ATOM     77  C   UNL A   1      38.344  30.624  29.212  1.00  0.00     0.020 A 
ATOM     78  C   UNL A   1      38.123  30.609  30.589  1.00  0.00     0.054 A 
BRANCH  78  79
ATOM     79  S   UNL A   1      36.539  31.173  31.271  1.00  0.00     0.124 S 
ATOM     80  O   UNL A   1      35.693  31.212  30.082  1.00  0.00    -0.237 OA
ATOM     81  O   UNL A   1      36.222  30.127  32.240  1.00  0.00    -0.237 OA
ATOM     82  O   UNL A   1      36.862  32.474  31.854  1.00  0.00    -0.744 OA
ENDBRANCH  78  79
ENDBRANCH  50  73
BRANCH  62  83
ATOM     83  C   UNL A   1      46.708  33.043  28.649  1.00  0.00    -0.014 A 
ATOM     84  C   UNL A   1      46.444  34.055  27.711  1.00  0.00     0.010 A 
ATOM     85  C   UNL A   1      47.350  33.376  29.857  1.00  0.00     0.010 A 
ATOM     86  C   UNL A   1      46.842  35.371  27.963  1.00  0.00     0.020 A 
ATOM     87  C   UNL A   1      47.720  34.696  30.126  1.00  0.00     0.020 A 
ATOM     88  C   UNL A   1      47.475  35.683  29.170  1.00  0.00     0.054 A 
BRANCH  88  89
ATOM     89  S   UNL A   1      47.939  37.407  29.491  1.00  0.00     0.124 S 
ATOM     90  O   UNL A   1      47.941  37.977  28.147  1.00  0.00    -0.237 OA
ATOM     91  O   UNL A   1      46.866  37.868  30.368  1.00  0.00    -0.237 OA
ATOM     92  O   UNL A   1      49.252  37.300  30.124  1.00  0.00    -0.744 OA
ENDBRANCH  88  89
ENDBRANCH  62  83
ENDBRANCH  36  37
ENDBRANCH  28  31
ENDBRANCH  26  27
ENDBRANCH  25  26
ENDBRANCH   1  25
TORSDOF 20
ENDMDL
MODEL 3
REMARK VINA RESULT:     -10.3      6.142      8.173
REMARK SMILES CCC(CC)(NC(=O)CS[C@H]1CCS(=O)(=O)C1)C(=O)NCCCCNC(=O)c1ccc(-c2c3nc(c(-c4ccc(S(=O)(=O)[O-])cc4)c4ccc([nH]4)c(-c4ccc(S(=O)(=O)[O-])cc4)c4nc(c(-c5ccc(S(=O)(=O)[O-])cc5)c5ccc2[nH]5)C=C4)C=C3)cc1
REMARK SMILES IDX 22 1 21 2 20 3 18 4 19 5 3 7 2 8 1 9 4 10 5 11 6 12 7 13
REMARK SMILES IDX 8 15 9 16 10 17 11 18 12 19 17 20 13 21 14 22 15 23 16 24
REMARK SMILES IDX 23 25 24 26 25 27 26 28 27 30 28 31 29 32 87 33 30 34 86 35
REMARK SMILES IDX 31 36 32 37 33 38 80 39 34 40 85 41 79 42 81 43 35 44 84 45
REMARK SMILES IDX 78 46 77 47 36 49 66 50 47 51 65 52 48 53 51 54 64 55 82 56
REMARK SMILES IDX 49 57 50 58 63 60 83 61 52 62 37 63 38 64 46 65 39 66 45 67
REMARK SMILES IDX 40 68 41 69 42 70 43 71 44 72 67 73 68 74 76 75 69 76 75 77
REMARK SMILES IDX 70 78 71 79 72 80 73 81 74 82 53 83 54 84 62 85 55 86 61 87
REMARK SMILES IDX 56 88 57 89 58 90 59 91 60 92
REMARK H PARENT 20 6 6 14 25 29 81 48 51 59
REMARK Flexibility Score: inf
ROOT
ATOM      1  C   UNL A   1      37.442  21.970  24.245  1.00  0.00     0.023 C 
ENDROOT
BRANCH   1   2
ATOM      2  C   UNL A   1      35.946  22.188  24.049  1.00  0.00     0.116 C 
BRANCH   2   3
ATOM      3  N   UNL A   1      35.236  22.676  25.225  1.00  0.00    -0.354 N 
ATOM      4  C   UNL A   1      33.961  23.165  25.367  1.00  0.00     0.245 C 
ATOM      5  O   UNL A   1      33.619  23.528  26.495  1.00  0.00    -0.272 OA
ATOM      6  H   UNL A   1      35.760  22.653  26.058  1.00  0.00     0.163 HD
BRANCH   4   7
ATOM      7  C   UNL A   1      33.017  23.281  24.137  1.00  0.00     0.118 C 
BRANCH   7   8
ATOM      8  C   UNL A   1      31.639  23.954  24.396  1.00  0.00     0.035 C 
ATOM      9  C   UNL A   1      30.562  23.786  23.332  1.00  0.00     0.007 C 
ENDBRANCH   7   8
BRANCH   7  10
ATOM     10  C   UNL A   1      32.727  21.804  23.682  1.00  0.00     0.035 C 
ATOM     11  C   UNL A   1      32.278  20.826  24.761  1.00  0.00     0.007 C 
ENDBRANCH   7  10
BRANCH   7  12
ATOM     12  N   UNL A   1      33.729  24.093  23.094  1.00  0.00    -0.341 N 
ATOM     13  C   UNL A   1      33.563  25.403  22.687  1.00  0.00     0.230 C 
ATOM     14  H   UNL A   1      34.438  23.608  22.615  1.00  0.00     0.164 HD
ATOM     15  O   UNL A   1      33.736  25.615  21.482  1.00  0.00    -0.274 OA
BRANCH  13  16
ATOM     16  C   UNL A   1      33.341  26.576  23.658  1.00  0.00     0.169 C 
BRANCH  16  17
ATOM     17  S   UNL A   1      33.729  28.236  23.005  1.00  0.00    -0.148 SA
BRANCH  17  18
ATOM     18  C   UNL A   1      33.162  29.243  24.390  1.00  0.00     0.063 C 
ATOM     19  C   UNL A   1      31.663  29.520  24.491  1.00  0.00     0.031 C 
ATOM     20  C   UNL A   1      33.587  28.601  25.704  1.00  0.00     0.151 C 
ATOM     21  C   UNL A   1      31.510  30.268  25.818  1.00  0.00     0.138 C 
ATOM     22  S   UNL A   1      32.636  29.455  26.946  1.00  0.00     0.151 S 
ATOM     23  O   UNL A   1      33.484  30.455  27.570  1.00  0.00    -0.229 OA
ATOM     24  O   UNL A   1      31.903  28.485  27.725  1.00  0.00    -0.229 OA
ENDBRANCH  17  18
ENDBRANCH  16  17
ENDBRANCH  13  16
ENDBRANCH   7  12
ENDBRANCH   4   7
ENDBRANCH   2   3
ENDBRANCH   1   2
BRANCH   1  25
ATOM     25  C   UNL A   1      37.837  20.989  25.339  1.00  0.00     0.023 C 
BRANCH  25  26
ATOM     26  C   UNL A   1      39.174  21.278  26.003  1.00  0.00     0.116 C 
BRANCH  26  27
ATOM     27  N   UNL A   1      40.077  20.137  25.990  1.00  0.00    -0.352 N 
ATOM     28  C   UNL A   1      41.442  20.115  26.139  1.00  0.00     0.251 C 
ATOM     29  H   UNL A   1      39.651  19.260  25.855  1.00  0.00     0.163 HD
ATOM     30  O   UNL A   1      42.059  19.064  25.997  1.00  0.00    -0.269 OA
BRANCH  28  31
ATOM     31  C   UNL A   1      42.150  21.374  26.428  1.00  0.00     0.039 A 
ATOM     32  C   UNL A   1      42.435  22.241  25.372  1.00  0.00     0.014 A 
ATOM     33  C   UNL A   1      42.474  21.720  27.743  1.00  0.00     0.014 A 
ATOM     34  C   UNL A   1      42.988  23.491  25.645  1.00  0.00     0.010 A 
ATOM     35  C   UNL A   1      42.936  23.000  28.020  1.00  0.00     0.010 A 
ATOM     36  C   UNL A   1      43.207  23.893  26.973  1.00  0.00    -0.014 A 
BRANCH  36  37
ATOM     37  C   UNL A   1      43.732  25.244  27.287  1.00  0.00     0.031 A 
ATOM     38  C   UNL A   1      45.190  25.547  27.074  1.00  0.00     0.074 A 
ATOM     39  C   UNL A   1      42.911  26.173  27.814  1.00  0.00     0.049 A 
ATOM     40  N   UNL A   1      45.848  26.646  27.334  1.00  0.00    -0.248 NA
ATOM     41  C   UNL A   1      46.024  24.463  26.526  1.00  0.00     0.031 C 
ATOM     42  C   UNL A   1      41.489  25.980  28.110  1.00  0.00     0.029 A 
ATOM     43  N   UNL A   1      43.155  27.467  28.199  1.00  0.00    -0.354 N 
ATOM     44  C   UNL A   1      47.170  26.383  26.993  1.00  0.00     0.074 A 
ATOM     45  C   UNL A   1      47.232  25.002  26.570  1.00  0.00     0.031 C 
ATOM     46  C   UNL A   1      40.982  27.123  28.599  1.00  0.00     0.029 A 
ATOM     47  C   UNL A   1      42.048  28.114  28.696  1.00  0.00     0.049 A 
ATOM     48  H   UNL A   1      44.041  27.891  28.128  1.00  0.00     0.167 HD
ATOM     49  C   UNL A   1      48.232  27.222  27.005  1.00  0.00     0.031 A 
ATOM     50  C   UNL A   1      41.909  29.364  29.178  1.00  0.00     0.031 A 
ATOM     51  C   UNL A   1      48.160  28.597  27.422  1.00  0.00     0.049 A 
ATOM     52  C   UNL A   1      43.106  30.276  29.195  1.00  0.00     0.074 A 
ATOM     53  C   UNL A   1      49.165  29.547  27.427  1.00  0.00     0.029 A 
ATOM     54  N   UNL A   1      47.019  29.218  27.907  1.00  0.00    -0.354 N 
ATOM     55  N   UNL A   1      44.334  30.028  28.805  1.00  0.00    -0.248 NA
ATOM     56  C   UNL A   1      42.894  31.638  29.701  1.00  0.00     0.031 C 
ATOM     57  C   UNL A   1      48.646  30.726  27.970  1.00  0.00     0.029 A 
ATOM     58  C   UNL A   1      47.300  30.532  28.237  1.00  0.00     0.049 A 
ATOM     59  H   UNL A   1      46.138  28.788  28.001  1.00  0.00     0.167 HD
ATOM     60  C   UNL A   1      45.037  31.213  28.996  1.00  0.00     0.074 A 
ATOM     61  C   UNL A   1      44.091  32.179  29.517  1.00  0.00     0.031 C 
ATOM     62  C   UNL A   1      46.345  31.478  28.759  1.00  0.00     0.031 A 
BRANCH  49  63
ATOM     63  C   UNL A   1      49.560  26.669  26.558  1.00  0.00    -0.014 A 
ATOM     64  C   UNL A   1      50.398  25.979  27.453  1.00  0.00     0.010 A 
ATOM     65  C   UNL A   1      49.964  26.814  25.219  1.00  0.00     0.010 A 
ATOM     66  C   UNL A   1      51.637  25.489  27.030  1.00  0.00     0.020 A 
ATOM     67  C   UNL A   1      51.187  26.297  24.784  1.00  0.00     0.020 A 
ATOM     68  C   UNL A   1      52.024  25.653  25.698  1.00  0.00     0.054 A 
BRANCH  68  69
ATOM     69  S   UNL A   1      53.629  24.990  25.174  1.00  0.00     0.124 S 
ATOM     70  O   UNL A   1      54.522  25.518  26.204  1.00  0.00    -0.237 OA
ATOM     71  O   UNL A   1      53.407  23.548  25.214  1.00  0.00    -0.237 OA
ATOM     72  O   UNL A   1      53.818  25.553  23.839  1.00  0.00    -0.744 OA
ENDBRANCH  68  69
ENDBRANCH  49  63
BRANCH  50  73
ATOM     73  C   UNL A   1      40.582  29.824  29.674  1.00  0.00    -0.014 A 
ATOM     74  C   UNL A   1      39.541  30.113  28.774  1.00  0.00     0.010 A 
ATOM     75  C   UNL A   1      40.347  29.959  31.055  1.00  0.00     0.010 A 
ATOM     76  C   UNL A   1      38.296  30.542  29.243  1.00  0.00     0.020 A 
ATOM     77  C   UNL A   1      39.095  30.359  31.529  1.00  0.00     0.020 A 
ATOM     78  C   UNL A   1      38.080  30.659  30.620  1.00  0.00     0.054 A 
BRANCH  78  79
ATOM     79  S   UNL A   1      36.440  31.166  31.207  1.00  0.00     0.124 S 
ATOM     80  O   UNL A   1      35.730  31.407  29.955  1.00  0.00    -0.237 OA
ATOM     81  O   UNL A   1      36.004  30.000  31.971  1.00  0.00    -0.237 OA
ATOM     82  O   UNL A   1      36.718  32.357  32.009  1.00  0.00    -0.744 OA
ENDBRANCH  78  79
ENDBRANCH  50  73
BRANCH  62  83
ATOM     83  C   UNL A   1      46.829  32.878  29.029  1.00  0.00    -0.014 A 
ATOM     84  C   UNL A   1      47.366  33.239  30.276  1.00  0.00     0.010 A 
ATOM     85  C   UNL A   1      46.796  33.832  27.993  1.00  0.00     0.010 A 
ATOM     86  C   UNL A   1      47.833  34.538  30.494  1.00  0.00     0.020 A 
ATOM     87  C   UNL A   1      47.292  35.121  28.198  1.00  0.00     0.020 A 
ATOM     88  C   UNL A   1      47.796  35.470  29.452  1.00  0.00     0.054 A 
BRANCH  88  89
ATOM     89  S   UNL A   1      48.451  37.135  29.747  1.00  0.00     0.124 S 
ATOM     90  O   UNL A   1      48.973  37.020  31.106  1.00  0.00    -0.237 OA
ATOM     91  O   UNL A   1      49.457  37.273  28.698  1.00  0.00    -0.237 OA
ATOM     92  O   UNL A   1      47.282  37.999  29.600  1.00  0.00    -0.744 OA
ENDBRANCH  88  89
ENDBRANCH  62  83
ENDBRANCH  36  37
ENDBRANCH  28  31
ENDBRANCH  26  27
ENDBRANCH  25  26
ENDBRANCH   1  25
TORSDOF 20
ENDMDL
