MODEL 1
REMARK VINA RESULT:     -10.9      0.000      0.000
REMARK SMILES O=C(NCCCCNC(=O)c1cc(Br)ccc1NC(=O)c1ccc(Br)s1)c1ccc(-c2c3nc(c(-c4ccc(S(=O)(=O)[O-])cc4)c4ccc([nH]4)c(-c4ccc(S(=O)(=O)[O-])cc4)c4nc(c(-c5ccc(S(=O)(=O)[O-])cc5)c5ccc2[nH]5)C=C4)C=C3)cc1
REMARK SMILES IDX 5 1 4 2 3 3 1 4 2 5 27 7 28 8 86 9 29 10 85 11 30 12 31 13
REMARK SMILES IDX 32 14 79 15 33 16 84 17 78 18 80 19 34 20 83 21 77 22 76 23
REMARK SMILES IDX 35 25 65 26 46 27 64 28 47 29 50 30 63 31 81 32 48 33 49 34
REMARK SMILES IDX 62 36 82 37 51 38 36 39 37 40 45 41 38 42 44 43 39 44 40 45
REMARK SMILES IDX 41 46 42 47 43 48 66 49 67 50 75 51 68 52 74 53 69 54 70 55
REMARK SMILES IDX 71 56 72 57 73 58 52 59 53 60 61 61 54 62 60 63 55 64 56 65
REMARK SMILES IDX 57 66 58 67 59 68 6 69 7 70 8 71 9 72 10 74 11 75 12 76
REMARK SMILES IDX 17 77 13 78 16 79 14 80 15 81 18 82 19 83 20 85 21 86 22 87
REMARK SMILES IDX 26 88 23 89 24 90 25 91
REMARK H PARENT 3 6 80 24 50 35 8 73 18 84
REMARK Flexibility Score: inf
ROOT
ATOM      1  C   UNL A   1      32.396  27.917  26.185  1.00  0.00     0.023 C 
ENDROOT
BRANCH   1   2
ATOM      2  C   UNL A   1      33.518  28.411  27.092  1.00  0.00     0.116 C 
BRANCH   2   3
ATOM      3  N   UNL A   1      33.413  29.827  27.407  1.00  0.00    -0.352 N 
ATOM      4  O   UNL A   1      33.988  31.806  28.309  1.00  0.00    -0.269 OA
ATOM      5  C   UNL A   1      34.323  30.665  28.005  1.00  0.00     0.251 C 
ATOM      6  H   UNL A   1      32.560  30.250  27.153  1.00  0.00     0.163 HD
BRANCH   5   7
ATOM      7  C   UNL A   1      35.689  30.186  28.308  1.00  0.00     0.039 A 
ATOM      8  C   UNL A   1      36.011  29.665  29.564  1.00  0.00     0.014 A 
ATOM      9  C   UNL A   1      36.662  30.250  27.306  1.00  0.00     0.014 A 
ATOM     10  C   UNL A   1      37.332  29.336  29.861  1.00  0.00     0.010 A 
ATOM     11  C   UNL A   1      37.973  29.859  27.585  1.00  0.00     0.010 A 
ATOM     12  C   UNL A   1      38.325  29.432  28.875  1.00  0.00    -0.014 A 
BRANCH  12  13
ATOM     13  C   UNL A   1      39.727  29.059  29.190  1.00  0.00     0.031 A 
ATOM     14  C   UNL A   1      40.656  30.046  29.844  1.00  0.00     0.074 A 
ATOM     15  C   UNL A   1      40.169  27.828  28.871  1.00  0.00     0.049 A 
ATOM     16  N   UNL A   1      41.923  29.911  30.142  1.00  0.00    -0.248 NA
ATOM     17  C   UNL A   1      40.088  31.355  30.203  1.00  0.00     0.031 C 
ATOM     18  C   UNL A   1      39.365  26.782  28.236  1.00  0.00     0.029 A 
ATOM     19  N   UNL A   1      41.403  27.251  29.034  1.00  0.00    -0.354 N 
ATOM     20  C   UNL A   1      42.313  31.123  30.699  1.00  0.00     0.074 A 
ATOM     21  C   UNL A   1      41.152  31.987  30.683  1.00  0.00     0.031 C 
ATOM     22  C   UNL A   1      40.121  25.684  28.079  1.00  0.00     0.029 A 
ATOM     23  C   UNL A   1      41.473  25.966  28.552  1.00  0.00     0.049 A 
ATOM     24  H   UNL A   1      42.163  27.712  29.455  1.00  0.00     0.167 HD
ATOM     25  C   UNL A   1      43.529  31.483  31.178  1.00  0.00     0.031 A 
ATOM     26  C   UNL A   1      42.511  25.113  28.476  1.00  0.00     0.031 A 
ATOM     27  C   UNL A   1      44.682  30.624  31.191  1.00  0.00     0.049 A 
ATOM     28  C   UNL A   1      43.854  25.539  28.993  1.00  0.00     0.074 A 
ATOM     29  C   UNL A   1      45.950  30.891  31.678  1.00  0.00     0.029 A 
ATOM     30  N   UNL A   1      44.711  29.331  30.691  1.00  0.00    -0.354 N 
ATOM     31  N   UNL A   1      44.198  26.682  29.535  1.00  0.00    -0.248 NA
ATOM     32  C   UNL A   1      44.946  24.562  28.892  1.00  0.00     0.031 C 
ATOM     33  C   UNL A   1      46.756  29.772  31.438  1.00  0.00     0.029 A 
ATOM     34  C   UNL A   1      45.978  28.793  30.842  1.00  0.00     0.049 A 
ATOM     35  H   UNL A   1      43.943  28.863  30.288  1.00  0.00     0.167 HD
ATOM     36  C   UNL A   1      45.544  26.557  29.856  1.00  0.00     0.074 A 
ATOM     37  C   UNL A   1      45.949  25.225  29.454  1.00  0.00     0.031 C 
ATOM     38  C   UNL A   1      46.367  27.464  30.436  1.00  0.00     0.031 A 
BRANCH  25  39
ATOM     39  C   UNL A   1      43.675  32.891  31.692  1.00  0.00    -0.014 A 
ATOM     40  C   UNL A   1      43.430  33.205  33.040  1.00  0.00     0.010 A 
ATOM     41  C   UNL A   1      44.072  33.914  30.811  1.00  0.00     0.010 A 
ATOM     42  C   UNL A   1      43.527  34.527  33.487  1.00  0.00     0.020 A 
ATOM     43  C   UNL A   1      44.192  35.233  31.259  1.00  0.00     0.020 A 
ATOM     44  C   UNL A   1      43.894  35.534  32.589  1.00  0.00     0.054 A 
BRANCH  44  45
ATOM     45  S   UNL A   1      43.993  37.244  33.185  1.00  0.00     0.124 S 
ATOM     46  O   UNL A   1      42.813  37.331  34.042  1.00  0.00    -0.237 OA
ATOM     47  O   UNL A   1      45.277  37.273  33.881  1.00  0.00    -0.237 OA
ATOM     48  O   UNL A   1      43.934  38.040  31.961  1.00  0.00    -0.744 OA
ENDBRANCH  44  45
ENDBRANCH  25  39
BRANCH  26  49
ATOM     49  C   UNL A   1      42.299  23.772  27.872  1.00  0.00    -0.014 A 
ATOM     50  C   UNL A   1      42.434  23.586  26.486  1.00  0.00     0.010 A 
ATOM     51  C   UNL A   1      42.042  22.659  28.694  1.00  0.00     0.010 A 
ATOM     52  C   UNL A   1      42.328  22.307  25.934  1.00  0.00     0.020 A 
ATOM     53  C   UNL A   1      41.958  21.376  28.148  1.00  0.00     0.020 A 
ATOM     54  C   UNL A   1      42.099  21.209  26.769  1.00  0.00     0.054 A 
BRANCH  54  55
ATOM     55  S   UNL A   1      42.072  19.545  26.046  1.00  0.00     0.124 S 
ATOM     56  O   UNL A   1      42.551  18.724  27.153  1.00  0.00    -0.237 OA
ATOM     57  O   UNL A   1      40.663  19.374  25.694  1.00  0.00    -0.237 OA
ATOM     58  O   UNL A   1      42.979  19.655  24.906  1.00  0.00    -0.744 OA
ENDBRANCH  54  55
ENDBRANCH  26  49
BRANCH  38  59
ATOM     59  C   UNL A   1      47.784  27.043  30.703  1.00  0.00    -0.014 A 
ATOM     60  C   UNL A   1      48.792  27.243  29.745  1.00  0.00     0.010 A 
ATOM     61  C   UNL A   1      48.122  26.506  31.958  1.00  0.00     0.010 A 
ATOM     62  C   UNL A   1      50.116  26.898  30.033  1.00  0.00     0.020 A 
ATOM     63  C   UNL A   1      49.446  26.178  32.257  1.00  0.00     0.020 A 
ATOM     64  C   UNL A   1      50.435  26.368  31.288  1.00  0.00     0.054 A 
BRANCH  64  65
ATOM     65  S   UNL A   1      52.168  25.989  31.666  1.00  0.00     0.124 S 
ATOM     66  O   UNL A   1      52.116  24.552  31.919  1.00  0.00    -0.237 OA
ATOM     67  O   UNL A   1      52.860  26.387  30.442  1.00  0.00    -0.237 OA
ATOM     68  O   UNL A   1      52.456  26.818  32.834  1.00  0.00    -0.744 OA
ENDBRANCH  64  65
ENDBRANCH  38  59
ENDBRANCH  12  13
ENDBRANCH   5   7
ENDBRANCH   2   3
ENDBRANCH   1   2
BRANCH   1  69
ATOM     69  C   UNL A   1      31.480  26.855  26.789  1.00  0.00     0.023 C 
BRANCH  69  70
ATOM     70  C   UNL A   1      30.380  26.336  25.868  1.00  0.00     0.116 C 
BRANCH  70  71
ATOM     71  N   UNL A   1      30.208  24.891  25.938  1.00  0.00    -0.352 N 
ATOM     72  C   UNL A   1      30.907  23.915  25.268  1.00  0.00     0.253 C 
ATOM     73  H   UNL A   1      29.498  24.573  26.541  1.00  0.00     0.163 HD
ATOM     74  O   UNL A   1      30.562  22.740  25.315  1.00  0.00    -0.269 OA
BRANCH  72  75
ATOM     75  C   UNL A   1      32.051  24.310  24.419  1.00  0.00     0.064 A 
ATOM     76  C   UNL A   1      31.778  24.813  23.138  1.00  0.00     0.031 A 
ATOM     77  C   UNL A   1      33.373  24.115  24.866  1.00  0.00     0.054 A 
ATOM     78  C   UNL A   1      32.821  24.994  22.241  1.00  0.00     0.018 A 
ATOM     79  C   UNL A   1      34.387  24.220  23.911  1.00  0.00     0.028 A 
ATOM     80  Br  UNL A   1      32.465  25.616  20.495  1.00  0.00    -0.051 Br
ATOM     81  C   UNL A   1      34.118  24.662  22.609  1.00  0.00     0.018 A 
BRANCH  77  82
ATOM     82  N   UNL A   1      33.609  23.791  26.223  1.00  0.00    -0.321 N 
ATOM     83  C   UNL A   1      33.904  22.606  26.873  1.00  0.00     0.265 C 
ATOM     84  H   UNL A   1      33.554  24.565  26.828  1.00  0.00     0.170 HD
ATOM     85  O   UNL A   1      33.860  22.602  28.104  1.00  0.00    -0.268 OA
BRANCH  83  86
ATOM     86  C   UNL A   1      34.317  21.444  26.112  1.00  0.00     0.093 A 
ATOM     87  C   UNL A   1      35.574  21.101  25.643  1.00  0.00     0.027 A 
ATOM     88  S   UNL A   1      33.150  20.252  25.710  1.00  0.00    -0.123 S 
ATOM     89  C   UNL A   1      35.547  19.915  24.849  1.00  0.00     0.028 A 
ATOM     90  C   UNL A   1      34.284  19.381  24.801  1.00  0.00     0.071 A 
ATOM     91  Br  UNL A   1      33.847  17.844  23.825  1.00  0.00    -0.039 Br
ENDBRANCH  83  86
ENDBRANCH  77  82
ENDBRANCH  72  75
ENDBRANCH  70  71
ENDBRANCH  69  70
ENDBRANCH   1  69
TORSDOF 16
ENDMDL
MODEL 2
REMARK VINA RESULT:     -10.8      1.623      2.215
REMARK SMILES O=C(NCCCCNC(=O)c1cc(Br)ccc1NC(=O)c1ccc(Br)s1)c1ccc(-c2c3nc(c(-c4ccc(S(=O)(=O)[O-])cc4)c4ccc([nH]4)c(-c4ccc(S(=O)(=O)[O-])cc4)c4nc(c(-c5ccc(S(=O)(=O)[O-])cc5)c5ccc2[nH]5)C=C4)C=C3)cc1
REMARK SMILES IDX 5 1 4 2 3 3 1 4 2 5 27 7 28 8 86 9 29 10 85 11 30 12 31 13
REMARK SMILES IDX 32 14 79 15 33 16 84 17 78 18 80 19 34 20 83 21 77 22 76 23
REMARK SMILES IDX 35 25 65 26 46 27 64 28 47 29 50 30 63 31 81 32 48 33 49 34
REMARK SMILES IDX 62 36 82 37 51 38 36 39 37 40 45 41 38 42 44 43 39 44 40 45
REMARK SMILES IDX 41 46 42 47 43 48 66 49 67 50 75 51 68 52 74 53 69 54 70 55
REMARK SMILES IDX 71 56 72 57 73 58 52 59 53 60 61 61 54 62 60 63 55 64 56 65
REMARK SMILES IDX 57 66 58 67 59 68 6 69 7 70 8 71 9 72 10 74 11 75 12 76
REMARK SMILES IDX 17 77 13 78 16 79 14 80 15 81 18 82 19 83 20 85 21 86 22 87
REMARK SMILES IDX 26 88 23 89 24 90 25 91
REMARK H PARENT 3 6 80 24 50 35 8 73 18 84
REMARK Flexibility Score: inf
ROOT
ATOM      1  C   UNL A   1      32.968  28.707  25.018  1.00  0.00     0.023 C 
ENDROOT
BRANCH   1   2
ATOM      2  C   UNL A   1      34.032  29.001  26.071  1.00  0.00     0.116 C 
BRANCH   2   3
ATOM      3  N   UNL A   1      33.803  30.250  26.778  1.00  0.00    -0.352 N 
ATOM      4  O   UNL A   1      34.108  31.846  28.335  1.00  0.00    -0.269 OA
ATOM      5  C   UNL A   1      34.547  30.852  27.764  1.00  0.00     0.251 C 
ATOM      6  H   UNL A   1      32.991  30.739  26.511  1.00  0.00     0.163 HD
BRANCH   5   7
ATOM      7  C   UNL A   1      35.858  30.289  28.156  1.00  0.00     0.039 A 
ATOM      8  C   UNL A   1      36.035  29.664  29.394  1.00  0.00     0.014 A 
ATOM      9  C   UNL A   1      36.925  30.379  27.257  1.00  0.00     0.014 A 
ATOM     10  C   UNL A   1      37.307  29.254  29.787  1.00  0.00     0.010 A 
ATOM     11  C   UNL A   1      38.186  29.907  27.628  1.00  0.00     0.010 A 
ATOM     12  C   UNL A   1      38.395  29.373  28.909  1.00  0.00    -0.014 A 
BRANCH  12  13
ATOM     13  C   UNL A   1      39.743  28.913  29.325  1.00  0.00     0.031 A 
ATOM     14  C   UNL A   1      40.659  29.821  30.099  1.00  0.00     0.074 A 
ATOM     15  C   UNL A   1      40.150  27.675  28.990  1.00  0.00     0.049 A 
ATOM     16  N   UNL A   1      41.887  29.607  30.498  1.00  0.00    -0.248 NA
ATOM     17  C   UNL A   1      40.129  31.144  30.468  1.00  0.00     0.031 C 
ATOM     18  C   UNL A   1      39.353  26.699  28.242  1.00  0.00     0.029 A 
ATOM     19  N   UNL A   1      41.333  27.026  29.230  1.00  0.00    -0.354 N 
ATOM     20  C   UNL A   1      42.288  30.772  31.140  1.00  0.00     0.074 A 
ATOM     21  C   UNL A   1      41.176  31.697  31.065  1.00  0.00     0.031 C 
ATOM     22  C   UNL A   1      40.064  25.570  28.100  1.00  0.00     0.029 A 
ATOM     23  C   UNL A   1      41.381  25.759  28.699  1.00  0.00     0.049 A 
ATOM     24  H   UNL A   1      42.077  27.428  29.735  1.00  0.00     0.167 HD
ATOM     25  C   UNL A   1      43.473  31.048  31.737  1.00  0.00     0.031 A 
ATOM     26  C   UNL A   1      42.378  24.855  28.673  1.00  0.00     0.031 A 
ATOM     27  C   UNL A   1      44.576  30.128  31.809  1.00  0.00     0.049 A 
ATOM     28  C   UNL A   1      43.690  25.188  29.321  1.00  0.00     0.074 A 
ATOM     29  C   UNL A   1      45.809  30.307  32.413  1.00  0.00     0.029 A 
ATOM     30  N   UNL A   1      44.584  28.856  31.255  1.00  0.00    -0.354 N 
ATOM     31  N   UNL A   1      44.043  26.288  29.941  1.00  0.00    -0.248 NA
ATOM     32  C   UNL A   1      44.737  24.159  29.269  1.00  0.00     0.031 C 
ATOM     33  C   UNL A   1      46.576  29.157  32.192  1.00  0.00     0.029 A 
ATOM     34  C   UNL A   1      45.805  28.245  31.488  1.00  0.00     0.049 A 
ATOM     35  H   UNL A   1      43.832  28.448  30.768  1.00  0.00     0.167 HD
ATOM     36  C   UNL A   1      45.348  26.078  30.370  1.00  0.00     0.074 A 
ATOM     37  C   UNL A   1      45.719  24.743  29.944  1.00  0.00     0.031 C 
ATOM     38  C   UNL A   1      46.161  26.916  31.058  1.00  0.00     0.031 A 
BRANCH  25  39
ATOM     39  C   UNL A   1      43.644  32.424  32.324  1.00  0.00    -0.014 A 
ATOM     40  C   UNL A   1      43.403  32.670  33.687  1.00  0.00     0.010 A 
ATOM     41  C   UNL A   1      44.060  33.484  31.498  1.00  0.00     0.010 A 
ATOM     42  C   UNL A   1      43.524  33.964  34.202  1.00  0.00     0.020 A 
ATOM     43  C   UNL A   1      44.203  34.775  32.015  1.00  0.00     0.020 A 
ATOM     44  C   UNL A   1      43.909  35.011  33.359  1.00  0.00     0.054 A 
BRANCH  44  45
ATOM     45  S   UNL A   1      44.038  36.685  34.044  1.00  0.00     0.124 S 
ATOM     46  O   UNL A   1      45.476  36.801  34.280  1.00  0.00    -0.237 OA
ATOM     47  O   UNL A   1      43.511  37.520  32.968  1.00  0.00    -0.237 OA
ATOM     48  O   UNL A   1      43.212  36.631  35.248  1.00  0.00    -0.744 OA
ENDBRANCH  44  45
ENDBRANCH  25  39
BRANCH  26  49
ATOM     49  C   UNL A   1      42.153  23.554  27.993  1.00  0.00    -0.014 A 
ATOM     50  C   UNL A   1      42.419  23.411  26.621  1.00  0.00     0.010 A 
ATOM     51  C   UNL A   1      41.750  22.429  28.737  1.00  0.00     0.010 A 
ATOM     52  C   UNL A   1      42.298  22.163  26.006  1.00  0.00     0.020 A 
ATOM     53  C   UNL A   1      41.649  21.175  28.129  1.00  0.00     0.020 A 
ATOM     54  C   UNL A   1      41.922  21.051  26.766  1.00  0.00     0.054 A 
BRANCH  54  55
ATOM     55  S   UNL A   1      41.874  19.419  25.972  1.00  0.00     0.124 S 
ATOM     56  O   UNL A   1      40.460  19.286  25.638  1.00  0.00    -0.237 OA
ATOM     57  O   UNL A   1      42.780  19.591  24.838  1.00  0.00    -0.237 OA
ATOM     58  O   UNL A   1      42.362  18.520  27.015  1.00  0.00    -0.744 OA
ENDBRANCH  54  55
ENDBRANCH  26  49
BRANCH  38  59
ATOM     59  C   UNL A   1      47.526  26.408  31.425  1.00  0.00    -0.014 A 
ATOM     60  C   UNL A   1      47.777  25.851  32.691  1.00  0.00     0.010 A 
ATOM     61  C   UNL A   1      48.552  26.424  30.463  1.00  0.00     0.010 A 
ATOM     62  C   UNL A   1      49.038  25.330  32.994  1.00  0.00     0.020 A 
ATOM     63  C   UNL A   1      49.808  25.888  30.756  1.00  0.00     0.020 A 
ATOM     64  C   UNL A   1      50.047  25.351  32.023  1.00  0.00     0.054 A 
BRANCH  64  65
ATOM     65  S   UNL A   1      51.656  24.611  32.414  1.00  0.00     0.124 S 
ATOM     66  O   UNL A   1      51.433  23.208  32.083  1.00  0.00    -0.237 OA
ATOM     67  O   UNL A   1      52.567  25.331  31.527  1.00  0.00    -0.237 OA
ATOM     68  O   UNL A   1      51.829  24.896  33.838  1.00  0.00    -0.744 OA
ENDBRANCH  64  65
ENDBRANCH  38  59
ENDBRANCH  12  13
ENDBRANCH   5   7
ENDBRANCH   2   3
ENDBRANCH   1   2
BRANCH   1  69
ATOM     69  C   UNL A   1      33.448  27.930  23.794  1.00  0.00     0.023 C 
BRANCH  69  70
ATOM     70  C   UNL A   1      33.945  26.515  24.068  1.00  0.00     0.116 C 
BRANCH  70  71
ATOM     71  N   UNL A   1      33.016  25.726  24.866  1.00  0.00    -0.352 N 
ATOM     72  C   UNL A   1      33.108  24.400  25.221  1.00  0.00     0.253 C 
ATOM     73  H   UNL A   1      32.220  26.203  25.194  1.00  0.00     0.163 HD
ATOM     74  O   UNL A   1      32.181  23.825  25.780  1.00  0.00    -0.269 OA
BRANCH  72  75
ATOM     75  C   UNL A   1      34.322  23.643  24.850  1.00  0.00     0.064 A 
ATOM     76  C   UNL A   1      35.456  23.774  25.666  1.00  0.00     0.031 A 
ATOM     77  C   UNL A   1      34.350  22.873  23.670  1.00  0.00     0.054 A 
ATOM     78  C   UNL A   1      36.668  23.252  25.237  1.00  0.00     0.018 A 
ATOM     79  C   UNL A   1      35.603  22.441  23.226  1.00  0.00     0.028 A 
ATOM     80  Br  UNL A   1      38.215  23.469  26.296  1.00  0.00    -0.051 Br
ATOM     81  C   UNL A   1      36.754  22.622  24.003  1.00  0.00     0.018 A 
BRANCH  77  82
ATOM     82  N   UNL A   1      33.143  22.609  22.981  1.00  0.00    -0.321 N 
ATOM     83  C   UNL A   1      32.335  21.491  22.888  1.00  0.00     0.265 C 
ATOM     84  H   UNL A   1      32.811  23.376  22.462  1.00  0.00     0.170 HD
ATOM     85  O   UNL A   1      31.440  21.500  22.041  1.00  0.00    -0.268 OA
BRANCH  83  86
ATOM     86  C   UNL A   1      32.509  20.390  23.815  1.00  0.00     0.093 A 
ATOM     87  C   UNL A   1      32.667  20.415  25.191  1.00  0.00     0.027 A 
ATOM     88  S   UNL A   1      32.503  18.784  23.213  1.00  0.00    -0.123 S 
ATOM     89  C   UNL A   1      32.906  19.115  25.729  1.00  0.00     0.028 A 
ATOM     90  C   UNL A   1      32.858  18.158  24.747  1.00  0.00     0.071 A 
ATOM     91  Br  UNL A   1      33.159  16.336  25.063  1.00  0.00    -0.039 Br
ENDBRANCH  83  86
ENDBRANCH  77  82
ENDBRANCH  72  75
ENDBRANCH  70  71
ENDBRANCH  69  70
ENDBRANCH   1  69
TORSDOF 16
ENDMDL
MODEL 3
REMARK VINA RESULT:     -10.7      2.787      3.457
REMARK SMILES O=C(NCCCCNC(=O)c1cc(Br)ccc1NC(=O)c1ccc(Br)s1)c1ccc(-c2c3nc(c(-c4ccc(S(=O)(=O)[O-])cc4)c4ccc([nH]4)c(-c4ccc(S(=O)(=O)[O-])cc4)c4nc(c(-c5ccc(S(=O)(=O)[O-])cc5)c5ccc2[nH]5)C=C4)C=C3)cc1
REMARK SMILES IDX 5 1 4 2 3 3 1 4 2 5 27 7 28 8 86 9 29 10 85 11 30 12 31 13
REMARK SMILES IDX 32 14 79 15 33 16 84 17 78 18 80 19 34 20 83 21 77 22 76 23
REMARK SMILES IDX 35 25 65 26 46 27 64 28 47 29 50 30 63 31 81 32 48 33 49 34
REMARK SMILES IDX 62 36 82 37 51 38 36 39 37 40 45 41 38 42 44 43 39 44 40 45
REMARK SMILES IDX 41 46 42 47 43 48 66 49 67 50 75 51 68 52 74 53 69 54 70 55
REMARK SMILES IDX 71 56 72 57 73 58 52 59 53 60 61 61 54 62 60 63 55 64 56 65
REMARK SMILES IDX 57 66 58 67 59 68 6 69 7 70 8 71 9 72 10 74 11 75 12 76
REMARK SMILES IDX 17 77 13 78 16 79 14 80 15 81 18 82 19 83 20 85 21 86 22 87
REMARK SMILES IDX 26 88 23 89 24 90 25 91
REMARK H PARENT 3 6 80 24 50 35 8 73 18 84
REMARK Flexibility Score: inf
ROOT
ATOM      1  C   UNL A   1      33.211  28.520  24.850  1.00  0.00     0.023 C 
ENDROOT
BRANCH   1   2
ATOM      2  C   UNL A   1      34.008  28.893  26.096  1.00  0.00     0.116 C 
BRANCH   2   3
ATOM      3  N   UNL A   1      33.740  30.245  26.559  1.00  0.00    -0.352 N 
ATOM      4  O   UNL A   1      33.914  32.072  27.861  1.00  0.00    -0.269 OA
ATOM      5  C   UNL A   1      34.385  30.991  27.515  1.00  0.00     0.251 C 
ATOM      6  H   UNL A   1      32.980  30.694  26.122  1.00  0.00     0.163 HD
BRANCH   5   7
ATOM      7  C   UNL A   1      35.623  30.484  28.147  1.00  0.00     0.039 A 
ATOM      8  C   UNL A   1      35.573  29.612  29.238  1.00  0.00     0.014 A 
ATOM      9  C   UNL A   1      36.856  30.882  27.624  1.00  0.00     0.014 A 
ATOM     10  C   UNL A   1      36.750  29.248  29.889  1.00  0.00     0.010 A 
ATOM     11  C   UNL A   1      38.038  30.463  28.239  1.00  0.00     0.010 A 
ATOM     12  C   UNL A   1      37.993  29.671  29.397  1.00  0.00    -0.014 A 
BRANCH  12  13
ATOM     13  C   UNL A   1      39.245  29.263  30.081  1.00  0.00     0.031 A 
ATOM     14  C   UNL A   1      39.701  29.964  31.331  1.00  0.00     0.074 A 
ATOM     15  C   UNL A   1      39.982  28.262  29.564  1.00  0.00     0.049 A 
ATOM     16  N   UNL A   1      40.792  29.776  32.029  1.00  0.00    -0.248 NA
ATOM     17  C   UNL A   1      38.821  31.017  31.862  1.00  0.00     0.031 C 
ATOM     18  C   UNL A   1      39.645  27.502  28.358  1.00  0.00     0.029 A 
ATOM     19  N   UNL A   1      41.167  27.714  29.984  1.00  0.00    -0.354 N 
ATOM     20  C   UNL A   1      40.745  30.701  33.065  1.00  0.00     0.074 A 
ATOM     21  C   UNL A   1      39.524  31.461  32.895  1.00  0.00     0.031 C 
ATOM     22  C   UNL A   1      40.592  26.576  28.145  1.00  0.00     0.029 A 
ATOM     23  C   UNL A   1      41.626  26.710  29.165  1.00  0.00     0.049 A 
ATOM     24  H   UNL A   1      41.642  28.011  30.793  1.00  0.00     0.167 HD
ATOM     25  C   UNL A   1      41.638  30.901  34.065  1.00  0.00     0.031 A 
ATOM     26  C   UNL A   1      42.763  25.991  29.212  1.00  0.00     0.031 A 
ATOM     27  C   UNL A   1      42.851  30.147  34.230  1.00  0.00     0.049 A 
ATOM     28  C   UNL A   1      43.748  26.242  30.316  1.00  0.00     0.074 A 
ATOM     29  C   UNL A   1      43.807  30.259  35.226  1.00  0.00     0.029 A 
ATOM     30  N   UNL A   1      43.280  29.140  33.378  1.00  0.00    -0.354 N 
ATOM     31  N   UNL A   1      43.676  27.108  31.297  1.00  0.00    -0.248 NA
ATOM     32  C   UNL A   1      44.965  25.419  30.320  1.00  0.00     0.031 C 
ATOM     33  C   UNL A   1      44.832  29.346  34.954  1.00  0.00     0.029 A 
ATOM     34  C   UNL A   1      44.493  28.635  33.813  1.00  0.00     0.049 A 
ATOM     35  H   UNL A   1      42.793  28.830  32.579  1.00  0.00     0.167 HD
ATOM     36  C   UNL A   1      44.830  26.923  32.049  1.00  0.00     0.074 A 
ATOM     37  C   UNL A   1      45.579  25.858  31.412  1.00  0.00     0.031 C 
ATOM     38  C   UNL A   1      45.228  27.575  33.168  1.00  0.00     0.031 A 
BRANCH  25  39
ATOM     39  C   UNL A   1      41.345  32.015  35.035  1.00  0.00    -0.014 A 
ATOM     40  C   UNL A   1      40.743  31.758  36.279  1.00  0.00     0.010 A 
ATOM     41  C   UNL A   1      41.688  33.337  34.698  1.00  0.00     0.010 A 
ATOM     42  C   UNL A   1      40.438  32.813  37.146  1.00  0.00     0.020 A 
ATOM     43  C   UNL A   1      41.405  34.391  35.572  1.00  0.00     0.020 A 
ATOM     44  C   UNL A   1      40.758  34.123  36.780  1.00  0.00     0.054 A 
BRANCH  44  45
ATOM     45  S   UNL A   1      40.335  35.477  37.911  1.00  0.00     0.124 S 
ATOM     46  O   UNL A   1      39.008  35.074  38.375  1.00  0.00    -0.237 OA
ATOM     47  O   UNL A   1      41.396  35.409  38.912  1.00  0.00    -0.237 OA
ATOM     48  O   UNL A   1      40.363  36.662  37.057  1.00  0.00    -0.744 OA
ENDBRANCH  44  45
ENDBRANCH  25  39
BRANCH  26  49
ATOM     49  C   UNL A   1      43.013  24.971  28.161  1.00  0.00    -0.014 A 
ATOM     50  C   UNL A   1      43.715  25.310  26.993  1.00  0.00     0.010 A 
ATOM     51  C   UNL A   1      42.622  23.635  28.366  1.00  0.00     0.010 A 
ATOM     52  C   UNL A   1      44.032  24.327  26.051  1.00  0.00     0.020 A 
ATOM     53  C   UNL A   1      42.956  22.646  27.437  1.00  0.00     0.020 A 
ATOM     54  C   UNL A   1      43.658  23.000  26.284  1.00  0.00     0.054 A 
BRANCH  54  55
ATOM     55  S   UNL A   1      44.173  21.722  25.102  1.00  0.00     0.124 S 
ATOM     56  O   UNL A   1      43.181  20.678  25.333  1.00  0.00    -0.237 OA
ATOM     57  O   UNL A   1      44.073  22.417  23.820  1.00  0.00    -0.237 OA
ATOM     58  O   UNL A   1      45.535  21.401  25.521  1.00  0.00    -0.744 OA
ENDBRANCH  54  55
ENDBRANCH  26  49
BRANCH  38  59
ATOM     59  C   UNL A   1      46.519  27.139  33.800  1.00  0.00    -0.014 A 
ATOM     60  C   UNL A   1      46.550  26.095  34.741  1.00  0.00     0.010 A 
ATOM     61  C   UNL A   1      47.726  27.736  33.392  1.00  0.00     0.010 A 
ATOM     62  C   UNL A   1      47.768  25.664  35.275  1.00  0.00     0.020 A 
ATOM     63  C   UNL A   1      48.946  27.295  33.909  1.00  0.00     0.020 A 
ATOM     64  C   UNL A   1      48.960  26.267  34.855  1.00  0.00     0.054 A 
BRANCH  64  65
ATOM     65  S   UNL A   1      50.534  25.648  35.510  1.00  0.00     0.124 S 
ATOM     66  O   UNL A   1      50.905  26.701  36.451  1.00  0.00    -0.237 OA
ATOM     67  O   UNL A   1      50.155  24.372  36.110  1.00  0.00    -0.237 OA
ATOM     68  O   UNL A   1      51.383  25.544  34.325  1.00  0.00    -0.744 OA
ENDBRANCH  64  65
ENDBRANCH  38  59
ENDBRANCH  12  13
ENDBRANCH   5   7
ENDBRANCH   2   3
ENDBRANCH   1   2
BRANCH   1  69
ATOM     69  C   UNL A   1      34.014  27.868  23.726  1.00  0.00     0.023 C 
BRANCH  69  70
ATOM     70  C   UNL A   1      33.553  26.473  23.315  1.00  0.00     0.116 C 
BRANCH  70  71
ATOM     71  N   UNL A   1      32.745  25.813  24.331  1.00  0.00    -0.352 N 
ATOM     72  C   UNL A   1      32.982  24.617  24.968  1.00  0.00     0.253 C 
ATOM     73  H   UNL A   1      31.922  26.284  24.596  1.00  0.00     0.163 HD
ATOM     74  O   UNL A   1      32.144  24.111  25.704  1.00  0.00    -0.269 OA
BRANCH  72  75
ATOM     75  C   UNL A   1      34.246  23.901  24.695  1.00  0.00     0.064 A 
ATOM     76  C   UNL A   1      35.337  24.139  25.546  1.00  0.00     0.031 A 
ATOM     77  C   UNL A   1      34.362  23.061  23.569  1.00  0.00     0.054 A 
ATOM     78  C   UNL A   1      36.589  23.654  25.199  1.00  0.00     0.018 A 
ATOM     79  C   UNL A   1      35.651  22.666  23.204  1.00  0.00     0.028 A 
ATOM     80  Br  UNL A   1      38.078  24.014  26.302  1.00  0.00    -0.051 Br
ATOM     81  C   UNL A   1      36.758  22.953  24.013  1.00  0.00     0.018 A 
BRANCH  77  82
ATOM     82  N   UNL A   1      33.199  22.694  22.851  1.00  0.00    -0.321 N 
ATOM     83  C   UNL A   1      32.426  21.548  22.830  1.00  0.00     0.265 C 
ATOM     84  H   UNL A   1      32.874  23.396  22.243  1.00  0.00     0.170 HD
ATOM     85  O   UNL A   1      31.576  21.447  21.944  1.00  0.00    -0.268 OA
BRANCH  83  86
ATOM     86  C   UNL A   1      32.580  20.549  23.868  1.00  0.00     0.093 A 
ATOM     87  C   UNL A   1      32.755  20.717  25.232  1.00  0.00     0.027 A 
ATOM     88  S   UNL A   1      32.522  18.888  23.444  1.00  0.00    -0.123 S 
ATOM     89  C   UNL A   1      32.963  19.476  25.906  1.00  0.00     0.028 A 
ATOM     90  C   UNL A   1      32.878  18.420  25.033  1.00  0.00     0.071 A 
ATOM     91  Br  UNL A   1      33.132  16.636  25.541  1.00  0.00    -0.039 Br
ENDBRANCH  83  86
ENDBRANCH  77  82
ENDBRANCH  72  75
ENDBRANCH  70  71
ENDBRANCH  69  70
ENDBRANCH   1  69
TORSDOF 16
ENDMDL
