MODEL 1
REMARK VINA RESULT:     -11.5      0.000      0.000
REMARK SMILES CC1(C)[C@]2(C(=O)NCCCCNC(=O)c3ccc(-c4c5nc(c(-c6ccc(S(=O)(=O)[O-])cc6)c6ccc([nH]6)c(-c6ccc(S(=O)(=O)[O-])cc6)c6nc(c(-c7ccc(S(=O)(=O)[O-])cc7)c7ccc4[nH]7)C=C6)C=C5)cc3)CC[C@@]1(C)C(=O)C2
REMARK SMILES IDX 11 1 10 2 9 3 8 4 7 5 5 6 6 7 4 9 1 10 2 11 77 12 3 13 75 14
REMARK SMILES IDX 81 15 76 16 79 17 78 18 80 19 12 20 13 21 14 23 15 24 16 25
REMARK SMILES IDX 74 26 17 27 73 28 18 29 19 30 20 31 67 32 21 33 72 34 66 35
REMARK SMILES IDX 68 36 22 37 71 38 65 39 64 40 23 42 53 43 34 44 52 45 35 46
REMARK SMILES IDX 38 47 51 48 69 49 36 50 37 51 50 53 70 54 39 55 24 56 25 57
REMARK SMILES IDX 33 58 26 59 32 60 27 61 28 62 29 63 30 64 31 65 54 66 55 67
REMARK SMILES IDX 63 68 56 69 62 70 57 71 58 72 59 73 60 74 61 75 40 76 41 77
REMARK SMILES IDX 49 78 42 79 48 80 43 81 44 82 45 83 46 84 47 85
REMARK H PARENT 7 8 12 22 68 41 38 52
REMARK Flexibility Score: inf
ROOT
ATOM      1  C   UNL A   1      33.553  28.535  27.219  1.00  0.00     0.116 C 
ENDROOT
BRANCH   1   2
ATOM      2  C   UNL A   1      32.193  27.856  27.082  1.00  0.00     0.023 C 
BRANCH   2   3
ATOM      3  C   UNL A   1      31.562  27.916  25.692  1.00  0.00     0.023 C 
BRANCH   3   4
ATOM      4  C   UNL A   1      30.769  26.678  25.292  1.00  0.00     0.116 C 
BRANCH   4   5
ATOM      5  N   UNL A   1      30.858  25.615  26.271  1.00  0.00    -0.356 N 
ATOM      6  C   UNL A   1      31.545  24.447  26.329  1.00  0.00     0.227 C 
ATOM      7  O   UNL A   1      31.456  23.840  27.400  1.00  0.00    -0.274 OA
ATOM      8  H   UNL A   1      30.298  25.773  27.066  1.00  0.00     0.163 HD
BRANCH   6   9
ATOM      9  C   UNL A   1      32.292  23.832  25.143  1.00  0.00     0.062 C 
ATOM     10  C   UNL A   1      34.311  25.504  25.114  1.00  0.00     0.013 C 
ATOM     11  C   UNL A   1      33.865  24.028  25.205  1.00  0.00    -0.008 C 
ATOM     12  C   UNL A   1      34.096  23.194  23.913  1.00  0.00     0.032 C 
ATOM     13  C   UNL A   1      34.614  23.422  26.416  1.00  0.00     0.013 C 
ATOM     14  C   UNL A   1      32.172  22.285  25.101  1.00  0.00     0.019 C 
ATOM     15  C   UNL A   1      31.934  24.352  23.723  1.00  0.00     0.093 C 
ATOM     16  C   UNL A   1      33.363  21.859  24.205  1.00  0.00     0.016 C 
ATOM     17  C   UNL A   1      33.161  23.923  22.966  1.00  0.00     0.140 C 
ATOM     18  C   UNL A   1      35.502  23.053  23.379  1.00  0.00     0.020 C 
ATOM     19  O   UNL A   1      33.332  24.093  21.770  1.00  0.00    -0.299 OA
ENDBRANCH   6   9
ENDBRANCH   4   5
ENDBRANCH   3   4
ENDBRANCH   2   3
ENDBRANCH   1   2
BRANCH   1  20
ATOM     20  N   UNL A   1      33.472  29.923  27.652  1.00  0.00    -0.352 N 
ATOM     21  C   UNL A   1      34.451  30.693  28.239  1.00  0.00     0.251 C 
ATOM     22  H   UNL A   1      32.606  30.368  27.504  1.00  0.00     0.163 HD
ATOM     23  O   UNL A   1      34.203  31.826  28.628  1.00  0.00    -0.269 OA
BRANCH  21  24
ATOM     24  C   UNL A   1      35.794  30.110  28.429  1.00  0.00     0.039 A 
ATOM     25  C   UNL A   1      36.687  30.096  27.354  1.00  0.00     0.014 A 
ATOM     26  C   UNL A   1      36.186  29.643  29.686  1.00  0.00     0.014 A 
ATOM     27  C   UNL A   1      38.005  29.684  27.560  1.00  0.00     0.010 A 
ATOM     28  C   UNL A   1      37.516  29.297  29.903  1.00  0.00     0.010 A 
ATOM     29  C   UNL A   1      38.438  29.320  28.845  1.00  0.00    -0.014 A 
BRANCH  29  30
ATOM     30  C   UNL A   1      39.849  28.946  29.119  1.00  0.00     0.031 A 
ATOM     31  C   UNL A   1      40.796  29.982  29.657  1.00  0.00     0.074 A 
ATOM     32  C   UNL A   1      40.298  27.719  28.791  1.00  0.00     0.049 A 
ATOM     33  N   UNL A   1      42.092  29.913  29.814  1.00  0.00    -0.248 NA
ATOM     34  C   UNL A   1      40.211  31.279  30.038  1.00  0.00     0.031 C 
ATOM     35  C   UNL A   1      39.486  26.635  28.232  1.00  0.00     0.029 A 
ATOM     36  N   UNL A   1      41.560  27.182  28.864  1.00  0.00    -0.354 N 
ATOM     37  C   UNL A   1      42.482  31.165  30.275  1.00  0.00     0.074 A 
ATOM     38  C   UNL A   1      41.291  31.984  30.339  1.00  0.00     0.031 C 
ATOM     39  C   UNL A   1      40.266  25.562  28.025  1.00  0.00     0.029 A 
ATOM     40  C   UNL A   1      41.639  25.891  28.396  1.00  0.00     0.049 A 
ATOM     41  H   UNL A   1      42.335  27.674  29.219  1.00  0.00     0.167 HD
ATOM     42  C   UNL A   1      43.719  31.591  30.627  1.00  0.00     0.031 A 
ATOM     43  C   UNL A   1      42.701  25.070  28.265  1.00  0.00     0.031 A 
ATOM     44  C   UNL A   1      44.893  30.765  30.590  1.00  0.00     0.049 A 
ATOM     45  C   UNL A   1      44.062  25.559  28.682  1.00  0.00     0.074 A 
ATOM     46  C   UNL A   1      46.184  31.087  30.973  1.00  0.00     0.029 A 
ATOM     47  N   UNL A   1      44.919  29.448  30.158  1.00  0.00    -0.354 N 
ATOM     48  N   UNL A   1      44.404  26.734  29.152  1.00  0.00    -0.248 NA
ATOM     49  C   UNL A   1      45.176  24.608  28.563  1.00  0.00     0.031 C 
ATOM     50  C   UNL A   1      46.996  29.972  30.743  1.00  0.00     0.029 A 
ATOM     51  C   UNL A   1      46.203  28.943  30.261  1.00  0.00     0.049 A 
ATOM     52  H   UNL A   1      44.140  28.946  29.826  1.00  0.00     0.167 HD
ATOM     53  C   UNL A   1      45.766  26.652  29.419  1.00  0.00     0.074 A 
ATOM     54  C   UNL A   1      46.185  25.313  29.058  1.00  0.00     0.031 C 
ATOM     55  C   UNL A   1      46.595  27.600  29.921  1.00  0.00     0.031 A 
BRANCH  42  56
ATOM     56  C   UNL A   1      43.857  33.020  31.077  1.00  0.00    -0.014 A 
ATOM     57  C   UNL A   1      43.713  33.369  32.432  1.00  0.00     0.010 A 
ATOM     58  C   UNL A   1      44.161  34.022  30.138  1.00  0.00     0.010 A 
ATOM     59  C   UNL A   1      43.824  34.703  32.833  1.00  0.00     0.020 A 
ATOM     60  C   UNL A   1      44.301  35.353  30.540  1.00  0.00     0.020 A 
ATOM     61  C   UNL A   1      44.112  35.687  31.883  1.00  0.00     0.054 A 
BRANCH  61  62
ATOM     62  S   UNL A   1      44.265  37.409  32.432  1.00  0.00     0.124 S 
ATOM     63  O   UNL A   1      43.330  37.450  33.554  1.00  0.00    -0.237 OA
ATOM     64  O   UNL A   1      45.677  37.510  32.788  1.00  0.00    -0.237 OA
ATOM     65  O   UNL A   1      43.864  38.183  31.259  1.00  0.00    -0.744 OA
ENDBRANCH  61  62
ENDBRANCH  42  56
BRANCH  43  66
ATOM     66  C   UNL A   1      42.516  23.694  27.730  1.00  0.00    -0.014 A 
ATOM     67  C   UNL A   1      42.606  23.452  26.348  1.00  0.00     0.010 A 
ATOM     68  C   UNL A   1      42.260  22.617  28.598  1.00  0.00     0.010 A 
ATOM     69  C   UNL A   1      42.423  22.163  25.840  1.00  0.00     0.020 A 
ATOM     70  C   UNL A   1      42.101  21.322  28.096  1.00  0.00     0.020 A 
ATOM     71  C   UNL A   1      42.171  21.105  26.718  1.00  0.00     0.054 A 
BRANCH  71  72
ATOM     72  S   UNL A   1      41.987  19.431  26.043  1.00  0.00     0.124 S 
ATOM     73  O   UNL A   1      42.482  18.606  27.142  1.00  0.00    -0.237 OA
ATOM     74  O   UNL A   1      40.552  19.348  25.785  1.00  0.00    -0.237 OA
ATOM     75  O   UNL A   1      42.826  19.452  24.848  1.00  0.00    -0.744 OA
ENDBRANCH  71  72
ENDBRANCH  43  66
BRANCH  55  76
ATOM     76  C   UNL A   1      48.025  27.216  30.173  1.00  0.00    -0.014 A 
ATOM     77  C   UNL A   1      49.029  27.470  29.223  1.00  0.00     0.010 A 
ATOM     78  C   UNL A   1      48.381  26.678  31.425  1.00  0.00     0.010 A 
ATOM     79  C   UNL A   1      50.364  27.183  29.516  1.00  0.00     0.020 A 
ATOM     80  C   UNL A   1      49.717  26.410  31.729  1.00  0.00     0.020 A 
ATOM     81  C   UNL A   1      50.701  26.659  30.769  1.00  0.00     0.054 A 
BRANCH  81  82
ATOM     82  S   UNL A   1      52.449  26.368  31.156  1.00  0.00     0.124 S 
ATOM     83  O   UNL A   1      52.390  25.119  31.910  1.00  0.00    -0.237 OA
ATOM     84  O   UNL A   1      53.060  26.275  29.833  1.00  0.00    -0.237 OA
ATOM     85  O   UNL A   1      52.831  27.547  31.931  1.00  0.00    -0.744 OA
ENDBRANCH  81  82
ENDBRANCH  55  76
ENDBRANCH  29  30
ENDBRANCH  21  24
ENDBRANCH   1  20
TORSDOF 14
ENDMDL
MODEL 2
REMARK VINA RESULT:     -11.1      2.822      9.304
REMARK SMILES CC1(C)[C@]2(C(=O)NCCCCNC(=O)c3ccc(-c4c5nc(c(-c6ccc(S(=O)(=O)[O-])cc6)c6ccc([nH]6)c(-c6ccc(S(=O)(=O)[O-])cc6)c6nc(c(-c7ccc(S(=O)(=O)[O-])cc7)c7ccc4[nH]7)C=C6)C=C5)cc3)CC[C@@]1(C)C(=O)C2
REMARK SMILES IDX 11 1 10 2 9 3 8 4 7 5 5 6 6 7 4 9 1 10 2 11 77 12 3 13 75 14
REMARK SMILES IDX 81 15 76 16 79 17 78 18 80 19 12 20 13 21 14 23 15 24 16 25
REMARK SMILES IDX 74 26 17 27 73 28 18 29 19 30 20 31 67 32 21 33 72 34 66 35
REMARK SMILES IDX 68 36 22 37 71 38 65 39 64 40 23 42 53 43 34 44 52 45 35 46
REMARK SMILES IDX 38 47 51 48 69 49 36 50 37 51 50 53 70 54 39 55 24 56 25 57
REMARK SMILES IDX 33 58 26 59 32 60 27 61 28 62 29 63 30 64 31 65 54 66 55 67
REMARK SMILES IDX 63 68 56 69 62 70 57 71 58 72 59 73 60 74 61 75 40 76 41 77
REMARK SMILES IDX 49 78 42 79 48 80 43 81 44 82 45 83 46 84 47 85
REMARK H PARENT 7 8 12 22 68 41 38 52
REMARK Flexibility Score: inf
ROOT
ATOM      1  C   UNL A   1      36.969  23.686  25.096  1.00  0.00     0.116 C 
ENDROOT
BRANCH   1   2
ATOM      2  C   UNL A   1      36.150  23.358  23.851  1.00  0.00     0.023 C 
BRANCH   2   3
ATOM      3  C   UNL A   1      34.925  22.473  24.081  1.00  0.00     0.023 C 
BRANCH   3   4
ATOM      4  C   UNL A   1      33.588  23.130  23.760  1.00  0.00     0.116 C 
BRANCH   4   5
ATOM      5  N   UNL A   1      33.691  24.129  22.717  1.00  0.00    -0.356 N 
ATOM      6  C   UNL A   1      33.264  25.412  22.600  1.00  0.00     0.227 C 
ATOM      7  O   UNL A   1      33.647  26.000  21.585  1.00  0.00    -0.274 OA
ATOM      8  H   UNL A   1      34.172  23.808  21.920  1.00  0.00     0.163 HD
BRANCH   6   9
ATOM      9  C   UNL A   1      32.289  26.083  23.570  1.00  0.00     0.062 C 
ATOM     10  C   UNL A   1      33.856  26.091  25.672  1.00  0.00     0.013 C 
ATOM     11  C   UNL A   1      32.997  26.936  24.704  1.00  0.00    -0.008 C 
ATOM     12  C   UNL A   1      31.642  27.425  25.289  1.00  0.00     0.032 C 
ATOM     13  C   UNL A   1      33.885  28.122  24.257  1.00  0.00     0.013 C 
ATOM     14  C   UNL A   1      31.406  27.156  22.879  1.00  0.00     0.019 C 
ATOM     15  C   UNL A   1      31.332  25.161  24.376  1.00  0.00     0.093 C 
ATOM     16  C   UNL A   1      30.911  28.027  24.061  1.00  0.00     0.016 C 
ATOM     17  C   UNL A   1      30.957  26.087  25.501  1.00  0.00     0.140 C 
ATOM     18  C   UNL A   1      31.653  28.296  26.523  1.00  0.00     0.020 C 
ATOM     19  O   UNL A   1      30.179  25.807  26.398  1.00  0.00    -0.299 OA
ENDBRANCH   6   9
ENDBRANCH   4   5
ENDBRANCH   3   4
ENDBRANCH   2   3
ENDBRANCH   1   2
BRANCH   1  20
ATOM     20  N   UNL A   1      38.034  22.730  25.363  1.00  0.00    -0.352 N 
ATOM     21  C   UNL A   1      39.190  22.919  26.088  1.00  0.00     0.251 C 
ATOM     22  H   UNL A   1      37.912  21.832  24.977  1.00  0.00     0.163 HD
ATOM     23  O   UNL A   1      40.036  22.039  26.152  1.00  0.00    -0.269 OA
BRANCH  21  24
ATOM     24  C   UNL A   1      39.406  24.220  26.752  1.00  0.00     0.039 A 
ATOM     25  C   UNL A   1      38.905  24.416  28.041  1.00  0.00     0.014 A 
ATOM     26  C   UNL A   1      40.162  25.213  26.124  1.00  0.00     0.014 A 
ATOM     27  C   UNL A   1      39.229  25.584  28.735  1.00  0.00     0.010 A 
ATOM     28  C   UNL A   1      40.538  26.344  26.841  1.00  0.00     0.010 A 
ATOM     29  C   UNL A   1      40.080  26.537  28.154  1.00  0.00    -0.014 A 
BRANCH  29  30
ATOM     30  C   UNL A   1      40.507  27.756  28.886  1.00  0.00     0.031 A 
ATOM     31  C   UNL A   1      41.828  27.763  29.603  1.00  0.00     0.074 A 
ATOM     32  C   UNL A   1      39.671  28.808  28.991  1.00  0.00     0.049 A 
ATOM     33  N   UNL A   1      42.316  28.654  30.426  1.00  0.00    -0.248 NA
ATOM     34  C   UNL A   1      42.701  26.595  29.391  1.00  0.00     0.031 C 
ATOM     35  C   UNL A   1      38.349  28.912  28.369  1.00  0.00     0.029 A 
ATOM     36  N   UNL A   1      39.804  29.988  29.681  1.00  0.00    -0.354 N 
ATOM     37  C   UNL A   1      43.533  28.139  30.858  1.00  0.00     0.074 A 
ATOM     38  C   UNL A   1      43.693  26.844  30.234  1.00  0.00     0.031 C 
ATOM     39  C   UNL A   1      37.800  30.093  28.694  1.00  0.00     0.029 A 
ATOM     40  C   UNL A   1      38.709  30.814  29.580  1.00  0.00     0.049 A 
ATOM     41  H   UNL A   1      40.609  30.222  30.198  1.00  0.00     0.167 HD
ATOM     42  C   UNL A   1      44.443  28.701  31.689  1.00  0.00     0.031 A 
ATOM     43  C   UNL A   1      38.458  32.010  30.150  1.00  0.00     0.031 A 
ATOM     44  C   UNL A   1      44.294  30.001  32.283  1.00  0.00     0.049 A 
ATOM     45  C   UNL A   1      39.494  32.624  31.054  1.00  0.00     0.074 A 
ATOM     46  C   UNL A   1      45.181  30.680  33.099  1.00  0.00     0.029 A 
ATOM     47  N   UNL A   1      43.192  30.824  32.113  1.00  0.00    -0.354 N 
ATOM     48  N   UNL A   1      40.656  32.138  31.419  1.00  0.00    -0.248 NA
ATOM     49  C   UNL A   1      39.190  33.949  31.610  1.00  0.00     0.031 C 
ATOM     50  C   UNL A   1      44.602  31.904  33.447  1.00  0.00     0.029 A 
ATOM     51  C   UNL A   1      43.375  32.005  32.812  1.00  0.00     0.049 A 
ATOM     52  H   UNL A   1      42.398  30.603  31.576  1.00  0.00     0.167 HD
ATOM     53  C   UNL A   1      41.237  33.115  32.220  1.00  0.00     0.074 A 
ATOM     54  C   UNL A   1      40.301  34.218  32.285  1.00  0.00     0.031 C 
ATOM     55  C   UNL A   1      42.441  33.101  32.843  1.00  0.00     0.031 A 
BRANCH  42  56
ATOM     56  C   UNL A   1      45.678  27.902  32.005  1.00  0.00    -0.014 A 
ATOM     57  C   UNL A   1      45.699  26.992  33.077  1.00  0.00     0.010 A 
ATOM     58  C   UNL A   1      46.825  28.044  31.203  1.00  0.00     0.010 A 
ATOM     59  C   UNL A   1      46.859  26.272  33.370  1.00  0.00     0.020 A 
ATOM     60  C   UNL A   1      47.980  27.305  31.476  1.00  0.00     0.020 A 
ATOM     61  C   UNL A   1      47.994  26.438  32.571  1.00  0.00     0.054 A 
BRANCH  61  62
ATOM     62  S   UNL A   1      49.484  25.481  32.965  1.00  0.00     0.124 S 
ATOM     63  O   UNL A   1      50.377  26.516  33.482  1.00  0.00    -0.237 OA
ATOM     64  O   UNL A   1      48.999  24.520  33.952  1.00  0.00    -0.237 OA
ATOM     65  O   UNL A   1      49.875  24.905  31.680  1.00  0.00    -0.744 OA
ENDBRANCH  61  62
ENDBRANCH  42  56
BRANCH  43  66
ATOM     66  C   UNL A   1      37.179  32.714  29.869  1.00  0.00    -0.014 A 
ATOM     67  C   UNL A   1      36.072  32.541  30.719  1.00  0.00     0.010 A 
ATOM     68  C   UNL A   1      37.061  33.569  28.758  1.00  0.00     0.010 A 
ATOM     69  C   UNL A   1      34.864  33.193  30.453  1.00  0.00     0.020 A 
ATOM     70  C   UNL A   1      35.862  34.243  28.503  1.00  0.00     0.020 A 
ATOM     71  C   UNL A   1      34.767  34.040  29.345  1.00  0.00     0.054 A 
BRANCH  71  72
ATOM     72  S   UNL A   1      33.206  34.916  29.046  1.00  0.00     0.124 S 
ATOM     73  O   UNL A   1      32.602  34.917  30.375  1.00  0.00    -0.237 OA
ATOM     74  O   UNL A   1      33.660  36.215  28.556  1.00  0.00    -0.237 OA
ATOM     75  O   UNL A   1      32.535  34.084  28.052  1.00  0.00    -0.744 OA
ENDBRANCH  71  72
ENDBRANCH  43  66
BRANCH  55  76
ATOM     76  C   UNL A   1      42.852  34.333  33.599  1.00  0.00    -0.014 A 
ATOM     77  C   UNL A   1      42.670  34.431  34.989  1.00  0.00     0.010 A 
ATOM     78  C   UNL A   1      43.519  35.367  32.916  1.00  0.00     0.010 A 
ATOM     79  C   UNL A   1      43.139  35.550  35.682  1.00  0.00     0.020 A 
ATOM     80  C   UNL A   1      44.008  36.476  33.609  1.00  0.00     0.020 A 
ATOM     81  C   UNL A   1      43.809  36.564  34.988  1.00  0.00     0.054 A 
BRANCH  81  82
ATOM     82  S   UNL A   1      44.478  37.968  35.920  1.00  0.00     0.124 S 
ATOM     83  O   UNL A   1      45.884  37.599  36.059  1.00  0.00    -0.237 OA
ATOM     84  O   UNL A   1      44.210  39.099  35.035  1.00  0.00    -0.237 OA
ATOM     85  O   UNL A   1      43.705  37.960  37.161  1.00  0.00    -0.744 OA
ENDBRANCH  81  82
ENDBRANCH  55  76
ENDBRANCH  29  30
ENDBRANCH  21  24
ENDBRANCH   1  20
TORSDOF 14
ENDMDL
MODEL 3
REMARK VINA RESULT:     -10.8      3.020      3.597
REMARK SMILES CC1(C)[C@]2(C(=O)NCCCCNC(=O)c3ccc(-c4c5nc(c(-c6ccc(S(=O)(=O)[O-])cc6)c6ccc([nH]6)c(-c6ccc(S(=O)(=O)[O-])cc6)c6nc(c(-c7ccc(S(=O)(=O)[O-])cc7)c7ccc4[nH]7)C=C6)C=C5)cc3)CC[C@@]1(C)C(=O)C2
REMARK SMILES IDX 11 1 10 2 9 3 8 4 7 5 5 6 6 7 4 9 1 10 2 11 77 12 3 13 75 14
REMARK SMILES IDX 81 15 76 16 79 17 78 18 80 19 12 20 13 21 14 23 15 24 16 25
REMARK SMILES IDX 74 26 17 27 73 28 18 29 19 30 20 31 67 32 21 33 72 34 66 35
REMARK SMILES IDX 68 36 22 37 71 38 65 39 64 40 23 42 53 43 34 44 52 45 35 46
REMARK SMILES IDX 38 47 51 48 69 49 36 50 37 51 50 53 70 54 39 55 24 56 25 57
REMARK SMILES IDX 33 58 26 59 32 60 27 61 28 62 29 63 30 64 31 65 54 66 55 67
REMARK SMILES IDX 63 68 56 69 62 70 57 71 58 72 59 73 60 74 61 75 40 76 41 77
REMARK SMILES IDX 49 78 42 79 48 80 43 81 44 82 45 83 46 84 47 85
REMARK H PARENT 7 8 12 22 68 41 38 52
REMARK Flexibility Score: inf
ROOT
ATOM      1  C   UNL A   1      33.879  29.159  26.228  1.00  0.00     0.116 C 
ENDROOT
BRANCH   1   2
ATOM      2  C   UNL A   1      33.083  28.103  26.989  1.00  0.00     0.023 C 
BRANCH   2   3
ATOM      3  C   UNL A   1      31.601  28.006  26.628  1.00  0.00     0.023 C 
BRANCH   3   4
ATOM      4  C   UNL A   1      31.218  26.783  25.804  1.00  0.00     0.116 C 
BRANCH   4   5
ATOM      5  N   UNL A   1      31.096  25.584  26.607  1.00  0.00    -0.356 N 
ATOM      6  C   UNL A   1      31.602  24.329  26.504  1.00  0.00     0.227 C 
ATOM      7  O   UNL A   1      31.367  23.589  27.463  1.00  0.00    -0.274 OA
ATOM      8  H   UNL A   1      30.522  25.704  27.398  1.00  0.00     0.163 HD
BRANCH   6   9
ATOM      9  C   UNL A   1      32.318  23.793  25.261  1.00  0.00     0.062 C 
ATOM     10  C   UNL A   1      34.499  25.232  25.482  1.00  0.00     0.013 C 
ATOM     11  C   UNL A   1      33.900  23.812  25.375  1.00  0.00    -0.008 C 
ATOM     12  C   UNL A   1      34.083  23.128  23.991  1.00  0.00     0.032 C 
ATOM     13  C   UNL A   1      34.546  22.982  26.511  1.00  0.00     0.013 C 
ATOM     14  C   UNL A   1      32.041  22.286  25.019  1.00  0.00     0.019 C 
ATOM     15  C   UNL A   1      32.059  24.523  23.915  1.00  0.00     0.093 C 
ATOM     16  C   UNL A   1      33.208  21.852  24.096  1.00  0.00     0.016 C 
ATOM     17  C   UNL A   1      33.258  24.066  23.130  1.00  0.00     0.140 C 
ATOM     18  C   UNL A   1      35.483  22.907  23.467  1.00  0.00     0.020 C 
ATOM     19  O   UNL A   1      33.482  24.366  21.968  1.00  0.00    -0.299 OA
ENDBRANCH   6   9
ENDBRANCH   4   5
ENDBRANCH   3   4
ENDBRANCH   2   3
ENDBRANCH   1   2
BRANCH   1  20
ATOM     20  N   UNL A   1      33.659  30.516  26.709  1.00  0.00    -0.352 N 
ATOM     21  C   UNL A   1      34.403  31.230  27.622  1.00  0.00     0.251 C 
ATOM     22  H   UNL A   1      32.879  30.983  26.331  1.00  0.00     0.163 HD
ATOM     23  O   UNL A   1      34.040  32.338  27.991  1.00  0.00    -0.269 OA
BRANCH  21  24
ATOM     24  C   UNL A   1      35.626  30.616  28.177  1.00  0.00     0.039 A 
ATOM     25  C   UNL A   1      36.870  31.002  27.672  1.00  0.00     0.014 A 
ATOM     26  C   UNL A   1      35.538  29.713  29.239  1.00  0.00     0.014 A 
ATOM     27  C   UNL A   1      38.035  30.541  28.287  1.00  0.00     0.010 A 
ATOM     28  C   UNL A   1      36.698  29.308  29.892  1.00  0.00     0.010 A 
ATOM     29  C   UNL A   1      37.956  29.723  29.426  1.00  0.00    -0.014 A 
BRANCH  29  30
ATOM     30  C   UNL A   1      39.170  29.271  30.151  1.00  0.00     0.031 A 
ATOM     31  C   UNL A   1      39.595  29.991  31.401  1.00  0.00     0.074 A 
ATOM     32  C   UNL A   1      39.939  28.291  29.637  1.00  0.00     0.049 A 
ATOM     33  N   UNL A   1      40.697  29.865  32.092  1.00  0.00    -0.248 NA
ATOM     34  C   UNL A   1      38.669  31.012  31.922  1.00  0.00     0.031 C 
ATOM     35  C   UNL A   1      39.653  27.536  28.414  1.00  0.00     0.029 A 
ATOM     36  N   UNL A   1      41.135  27.775  30.071  1.00  0.00    -0.354 N 
ATOM     37  C   UNL A   1      40.615  30.814  33.105  1.00  0.00     0.074 A 
ATOM     38  C   UNL A   1      39.373  31.530  32.918  1.00  0.00     0.031 C 
ATOM     39  C   UNL A   1      40.637  26.647  28.206  1.00  0.00     0.029 A 
ATOM     40  C   UNL A   1      41.644  26.795  29.252  1.00  0.00     0.049 A 
ATOM     41  H   UNL A   1      41.585  28.076  30.894  1.00  0.00     0.167 HD
ATOM     42  C   UNL A   1      41.491  31.057  34.110  1.00  0.00     0.031 A 
ATOM     43  C   UNL A   1      42.800  26.104  29.325  1.00  0.00     0.031 A 
ATOM     44  C   UNL A   1      42.709  30.322  34.310  1.00  0.00     0.049 A 
ATOM     45  C   UNL A   1      43.747  26.377  30.463  1.00  0.00     0.074 A 
ATOM     46  C   UNL A   1      43.639  30.458  35.325  1.00  0.00     0.029 A 
ATOM     47  N   UNL A   1      43.161  29.304  33.484  1.00  0.00    -0.354 N 
ATOM     48  N   UNL A   1      43.633  27.252  31.434  1.00  0.00    -0.248 NA
ATOM     49  C   UNL A   1      44.969  25.564  30.522  1.00  0.00     0.031 C 
ATOM     50  C   UNL A   1      44.669  29.541  35.097  1.00  0.00     0.029 A 
ATOM     51  C   UNL A   1      44.358  28.804  33.966  1.00  0.00     0.049 A 
ATOM     52  H   UNL A   1      42.699  28.984  32.676  1.00  0.00     0.167 HD
ATOM     53  C   UNL A   1      44.752  27.069  32.239  1.00  0.00     0.074 A 
ATOM     54  C   UNL A   1      45.529  26.001  31.643  1.00  0.00     0.031 C 
ATOM     55  C   UNL A   1      45.103  27.723  33.372  1.00  0.00     0.031 A 
BRANCH  42  56
ATOM     56  C   UNL A   1      41.156  32.170  35.066  1.00  0.00    -0.014 A 
ATOM     57  C   UNL A   1      40.412  31.923  36.233  1.00  0.00     0.010 A 
ATOM     58  C   UNL A   1      41.614  33.474  34.806  1.00  0.00     0.010 A 
ATOM     59  C   UNL A   1      40.092  32.969  37.101  1.00  0.00     0.020 A 
ATOM     60  C   UNL A   1      41.319  34.519  35.687  1.00  0.00     0.020 A 
ATOM     61  C   UNL A   1      40.543  34.262  36.819  1.00  0.00     0.054 A 
BRANCH  61  62
ATOM     62  S   UNL A   1      40.125  35.601  37.970  1.00  0.00     0.124 S 
ATOM     63  O   UNL A   1      41.327  35.671  38.796  1.00  0.00    -0.237 OA
ATOM     64  O   UNL A   1      39.908  36.736  37.077  1.00  0.00    -0.237 OA
ATOM     65  O   UNL A   1      38.928  35.111  38.650  1.00  0.00    -0.744 OA
ENDBRANCH  61  62
ENDBRANCH  42  56
BRANCH  43  66
ATOM     66  C   UNL A   1      43.118  25.074  28.300  1.00  0.00    -0.014 A 
ATOM     67  C   UNL A   1      42.734  23.736  28.496  1.00  0.00     0.010 A 
ATOM     68  C   UNL A   1      43.797  25.425  27.119  1.00  0.00     0.010 A 
ATOM     69  C   UNL A   1      43.040  22.763  27.541  1.00  0.00     0.020 A 
ATOM     70  C   UNL A   1      44.082  24.459  26.149  1.00  0.00     0.020 A 
ATOM     71  C   UNL A   1      43.713  23.131  26.372  1.00  0.00     0.054 A 
BRANCH  71  72
ATOM     72  S   UNL A   1      44.056  21.862  25.121  1.00  0.00     0.124 S 
ATOM     73  O   UNL A   1      45.404  21.437  25.484  1.00  0.00    -0.237 OA
ATOM     74  O   UNL A   1      42.998  20.885  25.361  1.00  0.00    -0.237 OA
ATOM     75  O   UNL A   1      43.945  22.590  23.860  1.00  0.00    -0.744 OA
ENDBRANCH  71  72
ENDBRANCH  43  66
BRANCH  55  76
ATOM     76  C   UNL A   1      46.345  27.271  34.086  1.00  0.00    -0.014 A 
ATOM     77  C   UNL A   1      47.592  27.868  33.831  1.00  0.00     0.010 A 
ATOM     78  C   UNL A   1      46.241  26.298  35.097  1.00  0.00     0.010 A 
ATOM     79  C   UNL A   1      48.717  27.490  34.569  1.00  0.00     0.020 A 
ATOM     80  C   UNL A   1      47.358  25.934  35.851  1.00  0.00     0.020 A 
ATOM     81  C   UNL A   1      48.592  26.528  35.578  1.00  0.00     0.054 A 
BRANCH  81  82
ATOM     82  S   UNL A   1      50.048  26.111  36.575  1.00  0.00     0.124 S 
ATOM     83  O   UNL A   1      51.128  26.726  35.808  1.00  0.00    -0.237 OA
ATOM     84  O   UNL A   1      49.750  26.743  37.859  1.00  0.00    -0.237 OA
ATOM     85  O   UNL A   1      50.048  24.649  36.593  1.00  0.00    -0.744 OA
ENDBRANCH  81  82
ENDBRANCH  55  76
ENDBRANCH  29  30
ENDBRANCH  21  24
ENDBRANCH   1  20
TORSDOF 14
ENDMDL
