MODEL 1
REMARK VINA RESULT:     -11.6      0.000      0.000
REMARK SMILES O=C(NCCCCNC(=O)c1ccc(-c2c3nc(c(-c4ccc(S(=O)(=O)[O-])cc4)c4ccc([nH]4)c(-c4ccc(S(=O)(=O)[O-])cc4)c4nc(c(-c5ccc(S(=O)(=O)[O-])cc5)c5ccc2[nH]5)C=C4)C=C3)cc1)C1=Cc2cc(S(F)(F)(F)(F)F)cc(Br)c2O[C@H]1C(F)(F)F
REMARK SMILES IDX 6 1 5 2 4 3 3 4 1 5 2 6 71 8 72 9 87 10 73 11 86 12 74 13
REMARK SMILES IDX 85 14 75 15 83 16 82 17 84 18 88 19 89 20 90 21 91 22 76 23
REMARK SMILES IDX 77 24 78 25 79 26 80 27 81 28 7 29 8 30 9 31 10 33 11 34
REMARK SMILES IDX 12 35 70 36 13 37 69 38 14 39 15 40 16 41 63 42 17 43 68 44
REMARK SMILES IDX 62 45 64 46 18 47 67 48 61 49 60 50 19 52 49 53 30 54 48 55
REMARK SMILES IDX 31 56 34 57 47 58 65 59 32 60 33 61 46 63 66 64 35 65 20 66
REMARK SMILES IDX 21 67 29 68 22 69 28 70 23 71 24 72 25 73 26 74 27 75 50 76
REMARK SMILES IDX 51 77 59 78 52 79 58 80 53 81 54 82 55 83 56 84 57 85 36 86
REMARK SMILES IDX 37 87 45 88 38 89 44 90 39 91 40 92 41 93 42 94 43 95
REMARK H PARENT 3 7 8 32 64 51 34 62
REMARK Flexibility Score: inf
ROOT
ATOM      1  C   UNL A   1      33.368  27.823  25.849  1.00  0.00     0.023 C 
ENDROOT
BRANCH   1   2
ATOM      2  C   UNL A   1      32.263  26.955  26.428  1.00  0.00     0.023 C 
BRANCH   2   3
ATOM      3  C   UNL A   1      32.633  25.490  26.269  1.00  0.00     0.116 C 
BRANCH   3   4
ATOM      4  N   UNL A   1      31.511  24.765  25.653  1.00  0.00    -0.352 N 
ATOM      5  O   UNL A   1      30.372  24.155  23.660  1.00  0.00    -0.270 OA
ATOM      6  C   UNL A   1      31.340  24.780  24.192  1.00  0.00     0.251 C 
ATOM      7  H   UNL A   1      30.875  24.271  26.218  1.00  0.00     0.163 HD
BRANCH   6   8
ATOM      8  C   UNL A   1      32.324  25.544  23.320  1.00  0.00     0.067 C 
ATOM      9  C   UNL A   1      33.591  25.078  23.154  1.00  0.00     0.025 C 
ATOM     10  C   UNL A   1      31.890  26.831  22.635  1.00  0.00     0.314 C 
ATOM     11  C   UNL A   1      34.023  23.793  23.839  1.00  0.00     0.020 A 
ATOM     12  O   UNL A   1      31.904  22.867  23.290  1.00  0.00    -0.474 OA
ATOM     13  C   UNL A   1      35.252  23.744  24.477  1.00  0.00     0.036 A 
ATOM     14  C   UNL A   1      33.219  22.736  23.810  1.00  0.00     0.142 A 
ATOM     15  C   UNL A   1      35.673  22.434  24.811  1.00  0.00     0.109 A 
ATOM     16  C   UNL A   1      33.648  21.517  24.278  1.00  0.00     0.062 A 
ATOM     17  C   UNL A   1      34.875  21.383  24.866  1.00  0.00     0.044 A 
ATOM     18  Br  UNL A   1      32.486  19.950  24.098  1.00  0.00    -0.047 Br
BRANCH  10  19
ATOM     19  C   UNL A   1      30.441  27.127  22.983  1.00  0.00     0.429 C 
ATOM     20  F   UNL A   1      30.349  27.444  24.272  1.00  0.00    -0.167 F 
ATOM     21  F   UNL A   1      30.007  28.144  22.244  1.00  0.00    -0.167 F 
ATOM     22  F   UNL A   1      29.698  26.051  22.737  1.00  0.00    -0.167 F 
ENDBRANCH  10  19
BRANCH  15  23
ATOM     23  S   UNL A   1      37.425  22.182  25.186  1.00  0.00     0.310 S 
ATOM     24  F   UNL A   1      37.811  23.625  24.652  1.00  0.00    -0.094 F 
ATOM     25  F   UNL A   1      37.635  21.656  23.716  1.00  0.00    -0.094 F 
ATOM     26  F   UNL A   1      38.931  21.966  25.508  1.00  0.00    -0.094 F 
ATOM     27  F   UNL A   1      37.225  22.841  26.608  1.00  0.00    -0.094 F 
ATOM     28  F   UNL A   1      35.919  22.512  24.837  1.00  0.00    -0.094 F 
ENDBRANCH  15  23
ENDBRANCH   6   8
ENDBRANCH   3   4
ENDBRANCH   2   3
ENDBRANCH   1   2
BRANCH   1  29
ATOM     29  C   UNL A   1      34.236  28.358  26.976  1.00  0.00     0.116 C 
BRANCH  29  30
ATOM     30  N   UNL A   1      33.694  29.642  27.444  1.00  0.00    -0.352 N 
ATOM     31  C   UNL A   1      34.557  30.583  28.172  1.00  0.00     0.251 C 
ATOM     32  H   UNL A   1      32.753  29.872  27.269  1.00  0.00     0.163 HD
ATOM     33  O   UNL A   1      34.088  31.693  28.576  1.00  0.00    -0.269 OA
BRANCH  31  34
ATOM     34  C   UNL A   1      36.010  30.228  28.443  1.00  0.00     0.039 A 
ATOM     35  C   UNL A   1      36.949  30.393  27.438  1.00  0.00     0.014 A 
ATOM     36  C   UNL A   1      36.353  29.757  29.636  1.00  0.00     0.014 A 
ATOM     37  C   UNL A   1      38.186  29.758  27.699  1.00  0.00     0.010 A 
ATOM     38  C   UNL A   1      37.621  29.278  29.860  1.00  0.00     0.010 A 
ATOM     39  C   UNL A   1      38.584  29.355  28.893  1.00  0.00    -0.014 A 
BRANCH  39  40
ATOM     40  C   UNL A   1      40.034  28.996  29.175  1.00  0.00     0.031 A 
ATOM     41  C   UNL A   1      40.471  27.717  28.828  1.00  0.00     0.074 A 
ATOM     42  C   UNL A   1      40.841  29.960  29.753  1.00  0.00     0.049 A 
ATOM     43  N   UNL A   1      41.701  27.216  28.950  1.00  0.00    -0.248 NA
ATOM     44  C   UNL A   1      39.607  26.680  28.244  1.00  0.00     0.031 C 
ATOM     45  C   UNL A   1      40.409  31.256  30.099  1.00  0.00     0.029 A 
ATOM     46  N   UNL A   1      42.171  29.854  30.096  1.00  0.00    -0.354 N 
ATOM     47  C   UNL A   1      41.737  25.963  28.493  1.00  0.00     0.074 A 
ATOM     48  C   UNL A   1      40.389  25.599  28.038  1.00  0.00     0.031 C 
ATOM     49  C   UNL A   1      41.461  31.917  30.651  1.00  0.00     0.029 A 
ATOM     50  C   UNL A   1      42.567  31.047  30.660  1.00  0.00     0.049 A 
ATOM     51  H   UNL A   1      42.741  29.063  29.960  1.00  0.00     0.167 HD
ATOM     52  C   UNL A   1      42.843  25.113  28.435  1.00  0.00     0.031 A 
ATOM     53  C   UNL A   1      43.816  31.376  31.161  1.00  0.00     0.031 A 
ATOM     54  C   UNL A   1      44.103  25.456  28.897  1.00  0.00     0.049 A 
ATOM     55  C   UNL A   1      44.907  30.503  31.158  1.00  0.00     0.074 A 
ATOM     56  C   UNL A   1      45.229  24.612  28.840  1.00  0.00     0.029 A 
ATOM     57  N   UNL A   1      44.492  26.640  29.485  1.00  0.00    -0.354 N 
ATOM     58  N   UNL A   1      44.953  29.264  30.664  1.00  0.00    -0.248 NA
ATOM     59  C   UNL A   1      46.226  30.828  31.715  1.00  0.00     0.031 C 
ATOM     60  C   UNL A   1      46.280  25.274  29.393  1.00  0.00     0.029 A 
ATOM     61  C   UNL A   1      45.828  26.542  29.805  1.00  0.00     0.049 A 
ATOM     62  H   UNL A   1      43.915  27.421  29.646  1.00  0.00     0.167 HD
ATOM     63  C   UNL A   1      46.173  28.750  30.825  1.00  0.00     0.074 A 
ATOM     64  C   UNL A   1      47.008  29.746  31.511  1.00  0.00     0.031 C 
ATOM     65  C   UNL A   1      46.626  27.492  30.425  1.00  0.00     0.031 A 
BRANCH  52  66
ATOM     66  C   UNL A   1      42.652  23.731  27.831  1.00  0.00    -0.014 A 
ATOM     67  C   UNL A   1      42.834  23.526  26.474  1.00  0.00     0.010 A 
ATOM     68  C   UNL A   1      42.330  22.729  28.642  1.00  0.00     0.010 A 
ATOM     69  C   UNL A   1      42.370  22.271  26.016  1.00  0.00     0.020 A 
ATOM     70  C   UNL A   1      42.019  21.490  28.133  1.00  0.00     0.020 A 
ATOM     71  C   UNL A   1      42.121  21.234  26.795  1.00  0.00     0.054 A 
BRANCH  71  72
ATOM     72  S   UNL A   1      41.924  19.564  26.126  1.00  0.00     0.124 S 
ATOM     73  O   UNL A   1      42.335  18.538  27.185  1.00  0.00    -0.237 OA
ATOM     74  O   UNL A   1      40.460  19.339  25.740  1.00  0.00    -0.237 OA
ATOM     75  O   UNL A   1      42.912  19.383  24.742  1.00  0.00    -0.744 OA
ENDBRANCH  71  72
ENDBRANCH  52  66
BRANCH  53  76
ATOM     76  C   UNL A   1      44.010  32.763  31.749  1.00  0.00    -0.014 A 
ATOM     77  C   UNL A   1      44.436  33.818  30.958  1.00  0.00     0.010 A 
ATOM     78  C   UNL A   1      43.745  32.934  33.040  1.00  0.00     0.010 A 
ATOM     79  C   UNL A   1      44.832  34.962  31.690  1.00  0.00     0.020 A 
ATOM     80  C   UNL A   1      44.033  34.125  33.661  1.00  0.00     0.020 A 
ATOM     81  C   UNL A   1      44.512  35.191  32.951  1.00  0.00     0.054 A 
BRANCH  81  82
ATOM     82  S   UNL A   1      44.697  36.829  33.699  1.00  0.00     0.124 S 
ATOM     83  O   UNL A   1      44.837  37.881  32.596  1.00  0.00    -0.237 OA
ATOM     84  O   UNL A   1      43.465  37.143  34.550  1.00  0.00    -0.237 OA
ATOM     85  O   UNL A   1      46.093  36.850  34.686  1.00  0.00    -0.744 OA
ENDBRANCH  81  82
ENDBRANCH  53  76
BRANCH  65  86
ATOM     86  C   UNL A   1      48.082  27.141  30.683  1.00  0.00    -0.014 A 
ATOM     87  C   UNL A   1      48.414  26.398  31.804  1.00  0.00     0.010 A 
ATOM     88  C   UNL A   1      49.013  27.558  29.833  1.00  0.00     0.010 A 
ATOM     89  C   UNL A   1      49.797  26.392  32.099  1.00  0.00     0.020 A 
ATOM     90  C   UNL A   1      50.346  27.398  30.122  1.00  0.00     0.020 A 
ATOM     91  C   UNL A   1      50.747  26.726  31.244  1.00  0.00     0.054 A 
BRANCH  91  92
ATOM     92  S   UNL A   1      52.485  26.315  31.539  1.00  0.00     0.124 S 
ATOM     93  O   UNL A   1      53.140  27.429  32.359  1.00  0.00    -0.237 OA
ATOM     94  O   UNL A   1      52.574  24.996  32.309  1.00  0.00    -0.237 OA
ATOM     95  O   UNL A   1      53.296  26.157  30.042  1.00  0.00    -0.744 OA
ENDBRANCH  91  92
ENDBRANCH  65  86
ENDBRANCH  39  40
ENDBRANCH  31  34
ENDBRANCH  29  30
ENDBRANCH   1  29
TORSDOF 16
ENDMDL
MODEL 2
REMARK VINA RESULT:     -11.6      1.897      3.999
REMARK SMILES O=C(NCCCCNC(=O)c1ccc(-c2c3nc(c(-c4ccc(S(=O)(=O)[O-])cc4)c4ccc([nH]4)c(-c4ccc(S(=O)(=O)[O-])cc4)c4nc(c(-c5ccc(S(=O)(=O)[O-])cc5)c5ccc2[nH]5)C=C4)C=C3)cc1)C1=Cc2cc(S(F)(F)(F)(F)F)cc(Br)c2O[C@H]1C(F)(F)F
REMARK SMILES IDX 6 1 5 2 4 3 3 4 1 5 2 6 71 8 72 9 87 10 73 11 86 12 74 13
REMARK SMILES IDX 85 14 75 15 83 16 82 17 84 18 88 19 89 20 90 21 91 22 76 23
REMARK SMILES IDX 77 24 78 25 79 26 80 27 81 28 7 29 8 30 9 31 10 33 11 34
REMARK SMILES IDX 12 35 70 36 13 37 69 38 14 39 15 40 16 41 63 42 17 43 68 44
REMARK SMILES IDX 62 45 64 46 18 47 67 48 61 49 60 50 19 52 49 53 30 54 48 55
REMARK SMILES IDX 31 56 34 57 47 58 65 59 32 60 33 61 46 63 66 64 35 65 20 66
REMARK SMILES IDX 21 67 29 68 22 69 28 70 23 71 24 72 25 73 26 74 27 75 50 76
REMARK SMILES IDX 51 77 59 78 52 79 58 80 53 81 54 82 55 83 56 84 57 85 36 86
REMARK SMILES IDX 37 87 45 88 38 89 44 90 39 91 40 92 41 93 42 94 43 95
REMARK H PARENT 3 7 8 32 64 51 34 62
REMARK Flexibility Score: inf
ROOT
ATOM      1  C   UNL A   1      33.110  27.719  26.208  1.00  0.00     0.023 C 
ENDROOT
BRANCH   1   2
ATOM      2  C   UNL A   1      31.933  27.083  26.928  1.00  0.00     0.023 C 
BRANCH   2   3
ATOM      3  C   UNL A   1      31.869  25.603  26.586  1.00  0.00     0.116 C 
BRANCH   3   4
ATOM      4  N   UNL A   1      33.041  25.237  25.776  1.00  0.00    -0.352 N 
ATOM      5  O   UNL A   1      33.886  24.084  23.879  1.00  0.00    -0.270 OA
ATOM      6  C   UNL A   1      32.874  24.400  24.578  1.00  0.00     0.251 C 
ATOM      7  H   UNL A   1      33.937  25.552  26.035  1.00  0.00     0.163 HD
BRANCH   6   8
ATOM      8  C   UNL A   1      31.490  23.914  24.178  1.00  0.00     0.067 C 
ATOM      9  C   UNL A   1      30.590  24.784  23.648  1.00  0.00     0.025 C 
ATOM     10  C   UNL A   1      31.113  22.454  24.373  1.00  0.00     0.314 C 
ATOM     11  C   UNL A   1      30.967  26.244  23.454  1.00  0.00     0.020 A 
ATOM     12  O   UNL A   1      33.107  25.521  22.712  1.00  0.00    -0.474 OA
ATOM     13  C   UNL A   1      30.069  27.232  23.823  1.00  0.00     0.036 A 
ATOM     14  C   UNL A   1      32.149  26.547  22.929  1.00  0.00     0.142 A 
ATOM     15  C   UNL A   1      30.396  28.517  23.326  1.00  0.00     0.109 A 
ATOM     16  C   UNL A   1      32.453  27.844  22.593  1.00  0.00     0.062 A 
ATOM     17  C   UNL A   1      31.586  28.865  22.873  1.00  0.00     0.044 A 
ATOM     18  Br  UNL A   1      34.151  28.238  21.698  1.00  0.00    -0.047 Br
BRANCH  10  19
ATOM     19  C   UNL A   1      32.288  21.703  24.978  1.00  0.00     0.429 C 
ATOM     20  F   UNL A   1      33.270  21.622  24.085  1.00  0.00    -0.167 F 
ATOM     21  F   UNL A   1      32.721  22.353  26.055  1.00  0.00    -0.167 F 
ATOM     22  F   UNL A   1      31.900  20.480  25.325  1.00  0.00    -0.167 F 
ENDBRANCH  10  19
BRANCH  15  23
ATOM     23  S   UNL A   1      29.090  29.770  23.310  1.00  0.00     0.310 S 
ATOM     24  F   UNL A   1      29.816  30.602  22.172  1.00  0.00    -0.094 F 
ATOM     25  F   UNL A   1      29.919  30.606  24.357  1.00  0.00    -0.094 F 
ATOM     26  F   UNL A   1      27.968  30.847  23.297  1.00  0.00    -0.094 F 
ATOM     27  F   UNL A   1      28.341  28.988  22.160  1.00  0.00    -0.094 F 
ATOM     28  F   UNL A   1      30.274  28.725  23.230  1.00  0.00    -0.094 F 
ENDBRANCH  15  23
ENDBRANCH   6   8
ENDBRANCH   3   4
ENDBRANCH   2   3
ENDBRANCH   1   2
BRANCH   1  29
ATOM     29  C   UNL A   1      34.039  28.361  27.225  1.00  0.00     0.116 C 
BRANCH  29  30
ATOM     30  N   UNL A   1      33.536  29.698  27.572  1.00  0.00    -0.352 N 
ATOM     31  C   UNL A   1      34.436  30.686  28.186  1.00  0.00     0.251 C 
ATOM     32  H   UNL A   1      32.597  29.933  27.393  1.00  0.00     0.163 HD
ATOM     33  O   UNL A   1      34.002  31.842  28.486  1.00  0.00    -0.269 OA
BRANCH  31  34
ATOM     34  C   UNL A   1      35.886  30.324  28.463  1.00  0.00     0.039 A 
ATOM     35  C   UNL A   1      36.836  30.511  27.472  1.00  0.00     0.014 A 
ATOM     36  C   UNL A   1      36.217  29.826  29.649  1.00  0.00     0.014 A 
ATOM     37  C   UNL A   1      38.069  29.869  27.731  1.00  0.00     0.010 A 
ATOM     38  C   UNL A   1      37.482  29.341  29.874  1.00  0.00     0.010 A 
ATOM     39  C   UNL A   1      38.455  29.440  28.919  1.00  0.00    -0.014 A 
BRANCH  39  40
ATOM     40  C   UNL A   1      39.902  29.073  29.207  1.00  0.00     0.031 A 
ATOM     41  C   UNL A   1      40.335  27.793  28.859  1.00  0.00     0.074 A 
ATOM     42  C   UNL A   1      40.711  30.031  29.792  1.00  0.00     0.049 A 
ATOM     43  N   UNL A   1      41.562  27.287  28.986  1.00  0.00    -0.248 NA
ATOM     44  C   UNL A   1      39.469  26.762  28.268  1.00  0.00     0.031 C 
ATOM     45  C   UNL A   1      40.283  31.329  30.139  1.00  0.00     0.029 A 
ATOM     46  N   UNL A   1      42.038  29.919  30.141  1.00  0.00    -0.354 N 
ATOM     47  C   UNL A   1      41.595  26.035  28.525  1.00  0.00     0.074 A 
ATOM     48  C   UNL A   1      40.247  25.677  28.062  1.00  0.00     0.031 C 
ATOM     49  C   UNL A   1      41.334  31.983  30.698  1.00  0.00     0.029 A 
ATOM     50  C   UNL A   1      42.436  31.108  30.711  1.00  0.00     0.049 A 
ATOM     51  H   UNL A   1      42.606  29.125  30.006  1.00  0.00     0.167 HD
ATOM     52  C   UNL A   1      42.697  25.179  28.471  1.00  0.00     0.031 A 
ATOM     53  C   UNL A   1      43.685  31.430  31.220  1.00  0.00     0.031 A 
ATOM     54  C   UNL A   1      43.956  25.515  28.939  1.00  0.00     0.049 A 
ATOM     55  C   UNL A   1      44.772  30.552  31.219  1.00  0.00     0.074 A 
ATOM     56  C   UNL A   1      45.078  24.666  28.886  1.00  0.00     0.029 A 
ATOM     57  N   UNL A   1      44.348  26.696  29.533  1.00  0.00    -0.354 N 
ATOM     58  N   UNL A   1      44.815  29.315  30.722  1.00  0.00    -0.248 NA
ATOM     59  C   UNL A   1      46.089  30.870  31.784  1.00  0.00     0.031 C 
ATOM     60  C   UNL A   1      46.130  25.323  29.446  1.00  0.00     0.029 A 
ATOM     61  C   UNL A   1      45.681  26.592  29.860  1.00  0.00     0.049 A 
ATOM     62  H   UNL A   1      43.773  27.479  29.694  1.00  0.00     0.167 HD
ATOM     63  C   UNL A   1      46.032  28.795  30.888  1.00  0.00     0.074 A 
ATOM     64  C   UNL A   1      46.868  29.785  31.580  1.00  0.00     0.031 C 
ATOM     65  C   UNL A   1      46.481  27.535  30.486  1.00  0.00     0.031 A 
BRANCH  52  66
ATOM     66  C   UNL A   1      42.503  23.800  27.862  1.00  0.00    -0.014 A 
ATOM     67  C   UNL A   1      42.592  23.618  26.492  1.00  0.00     0.010 A 
ATOM     68  C   UNL A   1      42.271  22.778  28.679  1.00  0.00     0.010 A 
ATOM     69  C   UNL A   1      42.132  22.355  26.050  1.00  0.00     0.020 A 
ATOM     70  C   UNL A   1      41.959  21.538  28.176  1.00  0.00     0.020 A 
ATOM     71  C   UNL A   1      41.971  21.302  26.829  1.00  0.00     0.054 A 
BRANCH  71  72
ATOM     72  S   UNL A   1      41.774  19.634  26.152  1.00  0.00     0.124 S 
ATOM     73  O   UNL A   1      42.650  19.482  24.906  1.00  0.00    -0.237 OA
ATOM     74  O   UNL A   1      42.199  18.605  27.202  1.00  0.00    -0.237 OA
ATOM     75  O   UNL A   1      40.137  19.379  25.734  1.00  0.00    -0.744 OA
ENDBRANCH  71  72
ENDBRANCH  52  66
BRANCH  53  76
ATOM     76  C   UNL A   1      43.882  32.815  31.812  1.00  0.00    -0.014 A 
ATOM     77  C   UNL A   1      43.659  33.050  33.160  1.00  0.00     0.010 A 
ATOM     78  C   UNL A   1      44.288  33.786  31.002  1.00  0.00     0.010 A 
ATOM     79  C   UNL A   1      43.614  34.422  33.503  1.00  0.00     0.020 A 
ATOM     80  C   UNL A   1      44.350  35.085  31.444  1.00  0.00     0.020 A 
ATOM     81  C   UNL A   1      44.086  35.398  32.748  1.00  0.00     0.054 A 
BRANCH  81  82
ATOM     82  S   UNL A   1      44.365  37.061  33.406  1.00  0.00     0.124 S 
ATOM     83  O   UNL A   1      45.866  37.287  33.601  1.00  0.00    -0.237 OA
ATOM     84  O   UNL A   1      43.817  38.097  32.422  1.00  0.00    -0.237 OA
ATOM     85  O   UNL A   1      43.565  37.223  34.908  1.00  0.00    -0.744 OA
ENDBRANCH  81  82
ENDBRANCH  53  76
BRANCH  65  86
ATOM     86  C   UNL A   1      47.934  27.178  30.751  1.00  0.00    -0.014 A 
ATOM     87  C   UNL A   1      48.269  26.516  31.920  1.00  0.00     0.010 A 
ATOM     88  C   UNL A   1      48.859  27.510  29.859  1.00  0.00     0.010 A 
ATOM     89  C   UNL A   1      49.656  26.506  32.196  1.00  0.00     0.020 A 
ATOM     90  C   UNL A   1      50.194  27.347  30.141  1.00  0.00     0.020 A 
ATOM     91  C   UNL A   1      50.599  26.755  31.306  1.00  0.00     0.054 A 
BRANCH  91  92
ATOM     92  S   UNL A   1      52.334  26.334  31.608  1.00  0.00     0.124 S 
ATOM     93  O   UNL A   1      52.415  24.967  32.290  1.00  0.00    -0.237 OA
ATOM     94  O   UNL A   1      53.086  26.286  30.276  1.00  0.00    -0.237 OA
ATOM     95  O   UNL A   1      53.040  27.519  32.618  1.00  0.00    -0.744 OA
ENDBRANCH  91  92
ENDBRANCH  65  86
ENDBRANCH  39  40
ENDBRANCH  31  34
ENDBRANCH  29  30
ENDBRANCH   1  29
TORSDOF 16
ENDMDL
MODEL 3
REMARK VINA RESULT:     -11.5      2.882      3.627
REMARK SMILES O=C(NCCCCNC(=O)c1ccc(-c2c3nc(c(-c4ccc(S(=O)(=O)[O-])cc4)c4ccc([nH]4)c(-c4ccc(S(=O)(=O)[O-])cc4)c4nc(c(-c5ccc(S(=O)(=O)[O-])cc5)c5ccc2[nH]5)C=C4)C=C3)cc1)C1=Cc2cc(S(F)(F)(F)(F)F)cc(Br)c2O[C@H]1C(F)(F)F
REMARK SMILES IDX 6 1 5 2 4 3 3 4 1 5 2 6 71 8 72 9 87 10 73 11 86 12 74 13
REMARK SMILES IDX 85 14 75 15 83 16 82 17 84 18 88 19 89 20 90 21 91 22 76 23
REMARK SMILES IDX 77 24 78 25 79 26 80 27 81 28 7 29 8 30 9 31 10 33 11 34
REMARK SMILES IDX 12 35 70 36 13 37 69 38 14 39 15 40 16 41 63 42 17 43 68 44
REMARK SMILES IDX 62 45 64 46 18 47 67 48 61 49 60 50 19 52 49 53 30 54 48 55
REMARK SMILES IDX 31 56 34 57 47 58 65 59 32 60 33 61 46 63 66 64 35 65 20 66
REMARK SMILES IDX 21 67 29 68 22 69 28 70 23 71 24 72 25 73 26 74 27 75 50 76
REMARK SMILES IDX 51 77 59 78 52 79 58 80 53 81 54 82 55 83 56 84 57 85 36 86
REMARK SMILES IDX 37 87 45 88 38 89 44 90 39 91 40 92 41 93 42 94 43 95
REMARK H PARENT 3 7 8 32 64 51 34 62
REMARK Flexibility Score: inf
ROOT
ATOM      1  C   UNL A   1      34.261  29.588  27.089  1.00  0.00     0.023 C 
ENDROOT
BRANCH   1   2
ATOM      2  C   UNL A   1      34.030  28.210  26.491  1.00  0.00     0.023 C 
BRANCH   2   3
ATOM      3  C   UNL A   1      33.138  28.331  25.267  1.00  0.00     0.116 C 
BRANCH   3   4
ATOM      4  N   UNL A   1      31.792  27.833  25.589  1.00  0.00    -0.352 N 
ATOM      5  O   UNL A   1      29.827  26.733  24.834  1.00  0.00    -0.270 OA
ATOM      6  C   UNL A   1      30.989  27.164  24.556  1.00  0.00     0.251 C 
ATOM      7  H   UNL A   1      31.430  27.948  26.497  1.00  0.00     0.163 HD
BRANCH   6   8
ATOM      8  C   UNL A   1      31.551  26.986  23.154  1.00  0.00     0.067 C 
ATOM      9  C   UNL A   1      32.473  26.017  22.907  1.00  0.00     0.025 C 
ATOM     10  C   UNL A   1      31.081  27.894  22.028  1.00  0.00     0.314 C 
ATOM     11  C   UNL A   1      32.942  25.111  24.034  1.00  0.00     0.020 A 
ATOM     12  O   UNL A   1      30.693  25.007  24.795  1.00  0.00    -0.474 OA
ATOM     13  C   UNL A   1      34.294  24.842  24.170  1.00  0.00     0.036 A 
ATOM     14  C   UNL A   1      32.048  24.587  24.863  1.00  0.00     0.142 A 
ATOM     15  C   UNL A   1      34.579  23.768  25.047  1.00  0.00     0.109 A 
ATOM     16  C   UNL A   1      32.421  23.640  25.787  1.00  0.00     0.062 A 
ATOM     17  C   UNL A   1      33.732  23.282  25.936  1.00  0.00     0.044 A 
ATOM     18  Br  UNL A   1      31.054  22.790  26.905  1.00  0.00    -0.047 Br
BRANCH  10  19
ATOM     19  C   UNL A   1      30.059  28.882  22.565  1.00  0.00     0.429 C 
ATOM     20  F   UNL A   1      29.778  29.784  21.629  1.00  0.00    -0.167 F 
ATOM     21  F   UNL A   1      28.949  28.231  22.902  1.00  0.00    -0.167 F 
ATOM     22  F   UNL A   1      30.556  29.493  23.637  1.00  0.00    -0.167 F 
ENDBRANCH  10  19
BRANCH  15  23
ATOM     23  S   UNL A   1      36.217  23.006  24.940  1.00  0.00     0.310 S 
ATOM     24  F   UNL A   1      36.573  23.809  23.620  1.00  0.00    -0.094 F 
ATOM     25  F   UNL A   1      35.605  21.888  24.014  1.00  0.00    -0.094 F 
ATOM     26  F   UNL A   1      37.624  22.351  24.848  1.00  0.00    -0.094 F 
ATOM     27  F   UNL A   1      36.839  24.210  25.753  1.00  0.00    -0.094 F 
ATOM     28  F   UNL A   1      34.818  23.743  24.949  1.00  0.00    -0.094 F 
ENDBRANCH  15  23
ENDBRANCH   6   8
ENDBRANCH   3   4
ENDBRANCH   2   3
ENDBRANCH   1   2
BRANCH   1  29
ATOM     29  C   UNL A   1      35.559  29.587  27.880  1.00  0.00     0.116 C 
BRANCH  29  30
ATOM     30  N   UNL A   1      35.312  30.121  29.227  1.00  0.00    -0.352 N 
ATOM     31  C   UNL A   1      36.427  30.276  30.172  1.00  0.00     0.251 C 
ATOM     32  H   UNL A   1      34.400  30.376  29.495  1.00  0.00     0.163 HD
ATOM     33  O   UNL A   1      36.213  30.738  31.336  1.00  0.00    -0.269 OA
BRANCH  31  34
ATOM     34  C   UNL A   1      37.836  29.883  29.757  1.00  0.00     0.039 A 
ATOM     35  C   UNL A   1      38.713  29.391  30.708  1.00  0.00     0.014 A 
ATOM     36  C   UNL A   1      38.203  30.026  28.488  1.00  0.00     0.014 A 
ATOM     37  C   UNL A   1      40.060  29.346  30.278  1.00  0.00     0.010 A 
ATOM     38  C   UNL A   1      39.511  29.834  28.114  1.00  0.00     0.010 A 
ATOM     39  C   UNL A   1      40.445  29.404  29.016  1.00  0.00    -0.014 A 
BRANCH  39  40
ATOM     40  C   UNL A   1      41.851  29.015  28.589  1.00  0.00     0.031 A 
ATOM     41  C   UNL A   1      42.086  27.684  28.242  1.00  0.00     0.074 A 
ATOM     42  C   UNL A   1      42.819  30.005  28.561  1.00  0.00     0.049 A 
ATOM     43  N   UNL A   1      43.226  27.146  27.806  1.00  0.00    -0.248 NA
ATOM     44  C   UNL A   1      41.068  26.624  28.304  1.00  0.00     0.031 C 
ATOM     45  C   UNL A   1      42.587  31.353  28.902  1.00  0.00     0.029 A 
ATOM     46  N   UNL A   1      44.145  29.880  28.213  1.00  0.00    -0.354 N 
ATOM     47  C   UNL A   1      43.057  25.845  27.559  1.00  0.00     0.074 A 
ATOM     48  C   UNL A   1      41.668  25.490  27.881  1.00  0.00     0.031 C 
ATOM     49  C   UNL A   1      43.760  32.027  28.771  1.00  0.00     0.029 A 
ATOM     50  C   UNL A   1      44.743  31.114  28.347  1.00  0.00     0.049 A 
ATOM     51  H   UNL A   1      44.590  29.052  27.918  1.00  0.00     0.167 HD
ATOM     52  C   UNL A   1      44.006  24.943  27.075  1.00  0.00     0.031 A 
ATOM     53  C   UNL A   1      46.070  31.444  28.118  1.00  0.00     0.031 A 
ATOM     54  C   UNL A   1      45.322  25.282  26.805  1.00  0.00     0.049 A 
ATOM     55  C   UNL A   1      47.034  30.527  27.690  1.00  0.00     0.074 A 
ATOM     56  C   UNL A   1      46.289  24.386  26.311  1.00  0.00     0.029 A 
ATOM     57  N   UNL A   1      45.926  26.510  26.963  1.00  0.00    -0.354 N 
ATOM     58  N   UNL A   1      46.855  29.236  27.405  1.00  0.00    -0.248 NA
ATOM     59  C   UNL A   1      48.448  30.857  27.476  1.00  0.00     0.031 C 
ATOM     60  C   UNL A   1      47.462  25.062  26.180  1.00  0.00     0.029 A 
ATOM     61  C   UNL A   1      47.247  26.391  26.592  1.00  0.00     0.049 A 
ATOM     62  H   UNL A   1      45.488  27.331  27.285  1.00  0.00     0.167 HD
ATOM     63  C   UNL A   1      48.005  28.689  27.009  1.00  0.00     0.074 A 
ATOM     64  C   UNL A   1      49.049  29.723  27.056  1.00  0.00     0.031 C 
ATOM     65  C   UNL A   1      48.227  27.371  26.606  1.00  0.00     0.031 A 
BRANCH  52  66
ATOM     66  C   UNL A   1      43.570  23.507  26.831  1.00  0.00    -0.014 A 
ATOM     67  C   UNL A   1      43.368  23.044  25.542  1.00  0.00     0.010 A 
ATOM     68  C   UNL A   1      43.414  22.710  27.882  1.00  0.00     0.010 A 
ATOM     69  C   UNL A   1      42.716  21.790  25.479  1.00  0.00     0.020 A 
ATOM     70  C   UNL A   1      42.897  21.445  27.730  1.00  0.00     0.020 A 
ATOM     71  C   UNL A   1      42.619  20.945  26.488  1.00  0.00     0.054 A 
BRANCH  71  72
ATOM     72  S   UNL A   1      42.141  19.216  26.243  1.00  0.00     0.124 S 
ATOM     73  O   UNL A   1      40.662  19.145  25.856  1.00  0.00    -0.237 OA
ATOM     74  O   UNL A   1      42.990  18.606  25.125  1.00  0.00    -0.237 OA
ATOM     75  O   UNL A   1      42.394  18.343  27.691  1.00  0.00    -0.744 OA
ENDBRANCH  71  72
ENDBRANCH  52  66
BRANCH  53  76
ATOM     76  C   UNL A   1      46.500  32.883  28.346  1.00  0.00    -0.014 A 
ATOM     77  C   UNL A   1      46.963  33.299  29.584  1.00  0.00     0.010 A 
ATOM     78  C   UNL A   1      46.432  33.722  27.319  1.00  0.00     0.010 A 
ATOM     79  C   UNL A   1      47.061  34.704  29.717  1.00  0.00     0.020 A 
ATOM     80  C   UNL A   1      46.672  35.064  27.494  1.00  0.00     0.020 A 
ATOM     81  C   UNL A   1      47.076  35.553  28.705  1.00  0.00     0.054 A 
BRANCH  81  82
ATOM     82  S   UNL A   1      47.604  37.272  28.911  1.00  0.00     0.124 S 
ATOM     83  O   UNL A   1      47.042  37.825  30.223  1.00  0.00    -0.237 OA
ATOM     84  O   UNL A   1      49.132  37.336  28.945  1.00  0.00    -0.237 OA
ATOM     85  O   UNL A   1      47.022  38.207  27.603  1.00  0.00    -0.744 OA
ENDBRANCH  81  82
ENDBRANCH  53  76
BRANCH  65  86
ATOM     86  C   UNL A   1      49.627  26.988  26.155  1.00  0.00    -0.014 A 
ATOM     87  C   UNL A   1      50.031  27.288  24.865  1.00  0.00     0.010 A 
ATOM     88  C   UNL A   1      50.437  26.367  27.004  1.00  0.00     0.010 A 
ATOM     89  C   UNL A   1      51.217  26.628  24.468  1.00  0.00     0.020 A 
ATOM     90  C   UNL A   1      51.643  25.865  26.579  1.00  0.00     0.020 A 
ATOM     91  C   UNL A   1      52.080  26.072  25.299  1.00  0.00     0.054 A 
BRANCH  91  92
ATOM     92  S   UNL A   1      53.750  25.610  24.775  1.00  0.00     0.124 S 
ATOM     93  O   UNL A   1      54.774  26.260  25.709  1.00  0.00    -0.237 OA
ATOM     94  O   UNL A   1      53.900  24.089  24.833  1.00  0.00    -0.237 OA
ATOM     95  O   UNL A   1      54.015  26.149  23.175  1.00  0.00    -0.744 OA
ENDBRANCH  91  92
ENDBRANCH  65  86
ENDBRANCH  39  40
ENDBRANCH  31  34
ENDBRANCH  29  30
ENDBRANCH   1  29
TORSDOF 16
ENDMDL
