MODEL 1
REMARK VINA RESULT:     -13.6      0.000      0.000
REMARK SMILES Cc1cc(C(=O)NCCCCNC(=O)c2ccc(-c3c4nc(c(-c5ccc(S(=O)(=O)[O-])cc5)c5ccc([nH]5)c(-c5ccc(S(=O)(=O)[O-])cc5)c5nc(c(-c6ccc(S(=O)(=O)[O-])cc6)c6ccc3[nH]6)C=C5)C=C4)cc2)ccc1NS(=O)(=O)c1c(F)cccc1F
REMARK SMILES IDX 9 1 8 2 7 3 5 4 6 5 4 7 1 8 2 9 3 10 77 11 76 12 75 13 78 14
REMARK SMILES IDX 79 16 80 17 81 18 82 19 83 20 88 21 84 22 85 23 87 24 89 25
REMARK SMILES IDX 86 26 10 27 11 28 12 29 13 30 14 32 15 33 16 34 74 35 17 36
REMARK SMILES IDX 73 37 18 38 19 39 20 40 67 41 21 42 72 43 66 44 68 45 22 46
REMARK SMILES IDX 71 47 65 48 64 49 23 51 53 52 34 53 52 54 35 55 38 56 51 57
REMARK SMILES IDX 69 58 36 59 37 60 50 62 70 63 39 64 24 65 25 66 33 67 26 68
REMARK SMILES IDX 32 69 27 70 28 71 29 72 30 73 31 74 54 75 55 76 63 77 56 78
REMARK SMILES IDX 62 79 57 80 58 81 59 82 60 83 61 84 40 85 41 86 49 87 42 88
REMARK SMILES IDX 48 89 43 90 44 91 45 92 46 93 47 94
REMARK H PARENT 7 6 78 15 12 31 68 50 38 61
REMARK Flexibility Score: inf
ROOT
ATOM      1  C   UNL A   1      33.279  29.336  24.978  1.00  0.00     0.023 C 
ENDROOT
BRANCH   1   2
ATOM      2  C   UNL A   1      31.855  29.580  25.497  1.00  0.00     0.116 C 
BRANCH   2   3
ATOM      3  N   UNL A   1      30.896  29.981  24.472  1.00  0.00    -0.352 N 
ATOM      4  C   UNL A   1      30.234  29.305  23.475  1.00  0.00     0.251 C 
ATOM      5  O   UNL A   1      29.486  29.945  22.734  1.00  0.00    -0.269 OA
ATOM      6  H   UNL A   1      30.678  30.941  24.500  1.00  0.00     0.163 HD
BRANCH   4   7
ATOM      7  C   UNL A   1      30.453  27.862  23.184  1.00  0.00     0.040 A 
ATOM      8  C   UNL A   1      32.523  25.920  20.659  1.00  0.00     0.046 C 
ATOM      9  C   UNL A   1      31.733  26.223  21.903  1.00  0.00    -0.026 A 
ATOM     10  C   UNL A   1      31.307  27.543  22.119  1.00  0.00     0.019 A 
ATOM     11  C   UNL A   1      31.367  25.243  22.837  1.00  0.00     0.052 A 
ATOM     12  C   UNL A   1      30.293  25.501  23.689  1.00  0.00     0.028 A 
ATOM     13  C   UNL A   1      29.835  26.815  23.861  1.00  0.00     0.016 A 
BRANCH  11  14
ATOM     14  N   UNL A   1      32.206  24.093  22.947  1.00  0.00    -0.279 N 
ATOM     15  H   UNL A   1      31.859  23.258  22.559  1.00  0.00     0.180 HD
BRANCH  14  16
ATOM     16  S   UNL A   1      33.717  24.012  23.664  1.00  0.00     0.267 S 
ATOM     17  O   UNL A   1      34.571  23.327  22.716  1.00  0.00    -0.201 OA
ATOM     18  O   UNL A   1      34.009  25.370  24.081  1.00  0.00    -0.201 OA
BRANCH  16  19
ATOM     19  C   UNL A   1      33.634  23.047  25.123  1.00  0.00     0.158 A 
ATOM     20  C   UNL A   1      32.917  23.561  26.200  1.00  0.00     0.146 A 
ATOM     21  C   UNL A   1      34.337  21.862  25.284  1.00  0.00     0.146 A 
ATOM     22  F   UNL A   1      32.144  24.646  26.062  1.00  0.00    -0.205 F 
ATOM     23  C   UNL A   1      32.971  22.950  27.451  1.00  0.00     0.041 A 
ATOM     24  C   UNL A   1      34.419  21.255  26.539  1.00  0.00     0.041 A 
ATOM     25  F   UNL A   1      34.972  21.279  24.259  1.00  0.00    -0.205 F 
ATOM     26  C   UNL A   1      33.751  21.810  27.632  1.00  0.00     0.006 A 
ENDBRANCH  16  19
ENDBRANCH  14  16
ENDBRANCH  11  14
ENDBRANCH   4   7
ENDBRANCH   2   3
ENDBRANCH   1   2
BRANCH   1  27
ATOM     27  C   UNL A   1      34.334  28.992  26.032  1.00  0.00     0.023 C 
BRANCH  27  28
ATOM     28  C   UNL A   1      34.191  29.773  27.337  1.00  0.00     0.116 C 
BRANCH  28  29
ATOM     29  N   UNL A   1      35.009  30.972  27.440  1.00  0.00    -0.352 N 
ATOM     30  C   UNL A   1      36.299  31.078  27.958  1.00  0.00     0.251 C 
ATOM     31  H   UNL A   1      34.604  31.804  27.106  1.00  0.00     0.163 HD
ATOM     32  O   UNL A   1      36.780  32.134  28.294  1.00  0.00    -0.269 OA
BRANCH  30  33
ATOM     33  C   UNL A   1      37.124  29.843  27.945  1.00  0.00     0.039 A 
ATOM     34  C   UNL A   1      37.073  29.032  29.085  1.00  0.00     0.014 A 
ATOM     35  C   UNL A   1      38.122  29.674  26.992  1.00  0.00     0.014 A 
ATOM     36  C   UNL A   1      38.146  28.193  29.379  1.00  0.00     0.010 A 
ATOM     37  C   UNL A   1      39.232  28.935  27.339  1.00  0.00     0.010 A 
ATOM     38  C   UNL A   1      39.268  28.237  28.556  1.00  0.00    -0.014 A 
BRANCH  38  39
ATOM     39  C   UNL A   1      40.563  27.663  28.900  1.00  0.00     0.031 A 
ATOM     40  C   UNL A   1      40.842  26.244  28.584  1.00  0.00     0.074 A 
ATOM     41  C   UNL A   1      41.557  28.475  29.329  1.00  0.00     0.049 A 
ATOM     42  N   UNL A   1      41.820  25.557  29.071  1.00  0.00    -0.248 NA
ATOM     43  C   UNL A   1      39.973  25.457  27.712  1.00  0.00     0.031 C 
ATOM     44  C   UNL A   1      42.987  28.182  29.329  1.00  0.00     0.029 A 
ATOM     45  N   UNL A   1      41.460  29.665  30.055  1.00  0.00    -0.354 N 
ATOM     46  C   UNL A   1      41.912  24.396  28.332  1.00  0.00     0.074 A 
ATOM     47  C   UNL A   1      40.675  24.328  27.595  1.00  0.00     0.031 C 
ATOM     48  C   UNL A   1      43.584  28.959  30.248  1.00  0.00     0.029 A 
ATOM     49  C   UNL A   1      42.528  29.650  30.968  1.00  0.00     0.049 A 
ATOM     50  H   UNL A   1      40.782  30.371  29.949  1.00  0.00     0.167 HD
ATOM     51  C   UNL A   1      43.095  23.715  28.300  1.00  0.00     0.031 A 
ATOM     52  C   UNL A   1      42.373  29.641  32.326  1.00  0.00     0.031 A 
ATOM     53  C   UNL A   1      44.046  24.254  29.272  1.00  0.00     0.049 A 
ATOM     54  C   UNL A   1      43.010  28.433  32.983  1.00  0.00     0.074 A 
ATOM     55  C   UNL A   1      45.160  25.070  29.156  1.00  0.00     0.029 A 
ATOM     56  N   UNL A   1      43.733  24.205  30.626  1.00  0.00    -0.354 N 
ATOM     57  N   UNL A   1      43.379  27.366  32.330  1.00  0.00    -0.248 NA
ATOM     58  C   UNL A   1      43.248  28.312  34.419  1.00  0.00     0.031 C 
ATOM     59  C   UNL A   1      45.447  25.601  30.441  1.00  0.00     0.029 A 
ATOM     60  C   UNL A   1      44.533  25.077  31.340  1.00  0.00     0.049 A 
ATOM     61  H   UNL A   1      43.040  23.629  31.021  1.00  0.00     0.167 HD
ATOM     62  C   UNL A   1      43.892  26.443  33.200  1.00  0.00     0.074 A 
ATOM     63  C   UNL A   1      43.792  27.084  34.499  1.00  0.00     0.031 C 
ATOM     64  C   UNL A   1      44.352  25.229  32.778  1.00  0.00     0.031 A 
BRANCH  51  65
ATOM     65  C   UNL A   1      43.492  22.768  27.177  1.00  0.00    -0.014 A 
ATOM     66  C   UNL A   1      42.713  21.617  26.932  1.00  0.00     0.010 A 
ATOM     67  C   UNL A   1      44.656  22.892  26.396  1.00  0.00     0.010 A 
ATOM     68  C   UNL A   1      43.123  20.609  26.040  1.00  0.00     0.020 A 
ATOM     69  C   UNL A   1      45.091  21.887  25.517  1.00  0.00     0.020 A 
ATOM     70  C   UNL A   1      44.329  20.739  25.357  1.00  0.00     0.054 A 
BRANCH  70  71
ATOM     71  S   UNL A   1      44.894  19.402  24.275  1.00  0.00     0.124 S 
ATOM     72  O   UNL A   1      44.252  18.229  24.862  1.00  0.00    -0.237 OA
ATOM     73  O   UNL A   1      44.384  19.815  22.971  1.00  0.00    -0.237 OA
ATOM     74  O   UNL A   1      46.351  19.438  24.410  1.00  0.00    -0.744 OA
ENDBRANCH  70  71
ENDBRANCH  51  65
BRANCH  52  75
ATOM     75  C   UNL A   1      41.151  30.339  32.809  1.00  0.00    -0.014 A 
ATOM     76  C   UNL A   1      40.048  29.527  33.153  1.00  0.00     0.010 A 
ATOM     77  C   UNL A   1      41.241  31.634  33.351  1.00  0.00     0.010 A 
ATOM     78  C   UNL A   1      39.173  29.917  34.167  1.00  0.00     0.020 A 
ATOM     79  C   UNL A   1      40.358  32.028  34.367  1.00  0.00     0.020 A 
ATOM     80  C   UNL A   1      39.383  31.133  34.817  1.00  0.00     0.054 A 
BRANCH  80  81
ATOM     81  S   UNL A   1      38.517  31.405  36.394  1.00  0.00     0.124 S 
ATOM     82  O   UNL A   1      38.167  30.047  36.795  1.00  0.00    -0.237 OA
ATOM     83  O   UNL A   1      39.562  32.045  37.193  1.00  0.00    -0.237 OA
ATOM     84  O   UNL A   1      37.399  32.263  36.017  1.00  0.00    -0.744 OA
ENDBRANCH  80  81
ENDBRANCH  52  75
BRANCH  64  85
ATOM     85  C   UNL A   1      44.750  24.080  33.671  1.00  0.00    -0.014 A 
ATOM     86  C   UNL A   1      43.873  23.067  34.086  1.00  0.00     0.010 A 
ATOM     87  C   UNL A   1      46.117  23.927  34.007  1.00  0.00     0.010 A 
ATOM     88  C   UNL A   1      44.327  21.983  34.852  1.00  0.00     0.020 A 
ATOM     89  C   UNL A   1      46.587  22.828  34.730  1.00  0.00     0.020 A 
ATOM     90  C   UNL A   1      45.681  21.872  35.171  1.00  0.00     0.054 A 
BRANCH  90  91
ATOM     91  S   UNL A   1      46.272  20.434  36.101  1.00  0.00     0.124 S 
ATOM     92  O   UNL A   1      45.819  20.747  37.454  1.00  0.00    -0.237 OA
ATOM     93  O   UNL A   1      45.585  19.320  35.452  1.00  0.00    -0.237 OA
ATOM     94  O   UNL A   1      47.717  20.468  35.897  1.00  0.00    -0.744 OA
ENDBRANCH  90  91
ENDBRANCH  64  85
ENDBRANCH  38  39
ENDBRANCH  30  33
ENDBRANCH  28  29
ENDBRANCH  27  28
ENDBRANCH   1  27
TORSDOF 17
ENDMDL
MODEL 2
REMARK VINA RESULT:     -13.5      1.357      1.963
REMARK SMILES Cc1cc(C(=O)NCCCCNC(=O)c2ccc(-c3c4nc(c(-c5ccc(S(=O)(=O)[O-])cc5)c5ccc([nH]5)c(-c5ccc(S(=O)(=O)[O-])cc5)c5nc(c(-c6ccc(S(=O)(=O)[O-])cc6)c6ccc3[nH]6)C=C5)C=C4)cc2)ccc1NS(=O)(=O)c1c(F)cccc1F
REMARK SMILES IDX 9 1 8 2 7 3 5 4 6 5 4 7 1 8 2 9 3 10 77 11 76 12 75 13 78 14
REMARK SMILES IDX 79 16 80 17 81 18 82 19 83 20 88 21 84 22 85 23 87 24 89 25
REMARK SMILES IDX 86 26 10 27 11 28 12 29 13 30 14 32 15 33 16 34 74 35 17 36
REMARK SMILES IDX 73 37 18 38 19 39 20 40 67 41 21 42 72 43 66 44 68 45 22 46
REMARK SMILES IDX 71 47 65 48 64 49 23 51 53 52 34 53 52 54 35 55 38 56 51 57
REMARK SMILES IDX 69 58 36 59 37 60 50 62 70 63 39 64 24 65 25 66 33 67 26 68
REMARK SMILES IDX 32 69 27 70 28 71 29 72 30 73 31 74 54 75 55 76 63 77 56 78
REMARK SMILES IDX 62 79 57 80 58 81 59 82 60 83 61 84 40 85 41 86 49 87 42 88
REMARK SMILES IDX 48 89 43 90 44 91 45 92 46 93 47 94
REMARK H PARENT 7 6 78 15 12 31 68 50 38 61
REMARK Flexibility Score: inf
ROOT
ATOM      1  C   UNL A   1      32.284  30.837  26.402  1.00  0.00     0.023 C 
ENDROOT
BRANCH   1   2
ATOM      2  C   UNL A   1      31.378  30.187  25.346  1.00  0.00     0.116 C 
BRANCH   2   3
ATOM      3  N   UNL A   1      32.079  29.717  24.155  1.00  0.00    -0.352 N 
ATOM      4  C   UNL A   1      32.576  28.495  23.767  1.00  0.00     0.251 C 
ATOM      5  O   UNL A   1      33.154  28.420  22.681  1.00  0.00    -0.269 OA
ATOM      6  H   UNL A   1      32.227  30.425  23.488  1.00  0.00     0.163 HD
BRANCH   4   7
ATOM      7  C   UNL A   1      32.542  27.287  24.635  1.00  0.00     0.040 A 
ATOM      8  C   UNL A   1      29.793  25.097  26.076  1.00  0.00     0.046 C 
ATOM      9  C   UNL A   1      31.157  25.526  25.607  1.00  0.00    -0.026 A 
ATOM     10  C   UNL A   1      31.282  26.771  24.970  1.00  0.00     0.019 A 
ATOM     11  C   UNL A   1      32.314  24.760  25.808  1.00  0.00     0.052 A 
ATOM     12  C   UNL A   1      33.554  25.398  25.759  1.00  0.00     0.028 A 
ATOM     13  C   UNL A   1      33.666  26.666  25.171  1.00  0.00     0.016 A 
BRANCH  11  14
ATOM     14  N   UNL A   1      32.156  23.345  25.919  1.00  0.00    -0.279 N 
ATOM     15  H   UNL A   1      31.900  23.000  26.804  1.00  0.00     0.180 HD
BRANCH  14  16
ATOM     16  S   UNL A   1      32.358  22.210  24.704  1.00  0.00     0.267 S 
ATOM     17  O   UNL A   1      31.835  20.967  25.231  1.00  0.00    -0.201 OA
ATOM     18  O   UNL A   1      31.780  22.818  23.522  1.00  0.00    -0.201 OA
BRANCH  16  19
ATOM     19  C   UNL A   1      34.063  21.989  24.372  1.00  0.00     0.158 A 
ATOM     20  C   UNL A   1      34.721  20.950  25.024  1.00  0.00     0.146 A 
ATOM     21  C   UNL A   1      34.797  22.863  23.584  1.00  0.00     0.146 A 
ATOM     22  F   UNL A   1      34.040  20.024  25.713  1.00  0.00    -0.205 F 
ATOM     23  C   UNL A   1      36.108  20.835  24.966  1.00  0.00     0.041 A 
ATOM     24  C   UNL A   1      36.190  22.773  23.540  1.00  0.00     0.041 A 
ATOM     25  F   UNL A   1      34.204  23.827  22.867  1.00  0.00    -0.205 F 
ATOM     26  C   UNL A   1      36.851  21.768  24.248  1.00  0.00     0.006 A 
ENDBRANCH  16  19
ENDBRANCH  14  16
ENDBRANCH  11  14
ENDBRANCH   4   7
ENDBRANCH   2   3
ENDBRANCH   1   2
BRANCH   1  27
ATOM     27  C   UNL A   1      33.014  29.880  27.349  1.00  0.00     0.023 C 
BRANCH  27  28
ATOM     28  C   UNL A   1      34.515  29.768  27.090  1.00  0.00     0.116 C 
BRANCH  28  29
ATOM     29  N   UNL A   1      35.294  30.956  27.406  1.00  0.00    -0.352 N 
ATOM     30  C   UNL A   1      36.525  31.015  28.058  1.00  0.00     0.251 C 
ATOM     31  H   UNL A   1      34.906  31.816  27.127  1.00  0.00     0.163 HD
ATOM     32  O   UNL A   1      36.948  32.032  28.554  1.00  0.00    -0.269 OA
BRANCH  30  33
ATOM     33  C   UNL A   1      37.372  29.797  27.990  1.00  0.00     0.039 A 
ATOM     34  C   UNL A   1      37.318  28.923  29.083  1.00  0.00     0.014 A 
ATOM     35  C   UNL A   1      38.387  29.699  27.046  1.00  0.00     0.014 A 
ATOM     36  C   UNL A   1      38.401  28.088  29.348  1.00  0.00     0.010 A 
ATOM     37  C   UNL A   1      39.506  28.961  27.371  1.00  0.00     0.010 A 
ATOM     38  C   UNL A   1      39.535  28.198  28.548  1.00  0.00    -0.014 A 
BRANCH  38  39
ATOM     39  C   UNL A   1      40.835  27.627  28.881  1.00  0.00     0.031 A 
ATOM     40  C   UNL A   1      41.117  26.210  28.561  1.00  0.00     0.074 A 
ATOM     41  C   UNL A   1      41.828  28.442  29.304  1.00  0.00     0.049 A 
ATOM     42  N   UNL A   1      42.101  25.526  29.040  1.00  0.00    -0.248 NA
ATOM     43  C   UNL A   1      40.244  25.421  27.694  1.00  0.00     0.031 C 
ATOM     44  C   UNL A   1      43.260  28.155  29.293  1.00  0.00     0.029 A 
ATOM     45  N   UNL A   1      41.733  29.632  30.032  1.00  0.00    -0.354 N 
ATOM     46  C   UNL A   1      42.191  24.366  28.299  1.00  0.00     0.074 A 
ATOM     47  C   UNL A   1      40.949  24.294  27.570  1.00  0.00     0.031 C 
ATOM     48  C   UNL A   1      43.860  28.932  30.208  1.00  0.00     0.029 A 
ATOM     49  C   UNL A   1      42.808  29.619  30.938  1.00  0.00     0.049 A 
ATOM     50  H   UNL A   1      41.051  30.335  29.933  1.00  0.00     0.167 HD
ATOM     51  C   UNL A   1      43.376  23.689  28.256  1.00  0.00     0.031 A 
ATOM     52  C   UNL A   1      42.662  29.607  32.296  1.00  0.00     0.031 A 
ATOM     53  C   UNL A   1      44.333  24.231  29.222  1.00  0.00     0.049 A 
ATOM     54  C   UNL A   1      43.309  28.401  32.946  1.00  0.00     0.074 A 
ATOM     55  C   UNL A   1      45.442  25.051  29.099  1.00  0.00     0.029 A 
ATOM     56  N   UNL A   1      44.030  24.178  30.579  1.00  0.00    -0.354 N 
ATOM     57  N   UNL A   1      43.677  27.336  32.289  1.00  0.00    -0.248 NA
ATOM     58  C   UNL A   1      43.558  28.279  34.380  1.00  0.00     0.031 C 
ATOM     59  C   UNL A   1      45.737  25.581  30.383  1.00  0.00     0.029 A 
ATOM     60  C   UNL A   1      44.832  25.053  31.288  1.00  0.00     0.049 A 
ATOM     61  H   UNL A   1      43.342  23.600  30.978  1.00  0.00     0.167 HD
ATOM     62  C   UNL A   1      44.200  26.414  33.154  1.00  0.00     0.074 A 
ATOM     63  C   UNL A   1      44.108  27.053  34.455  1.00  0.00     0.031 C 
ATOM     64  C   UNL A   1      44.661  25.202  32.727  1.00  0.00     0.031 A 
BRANCH  51  65
ATOM     65  C   UNL A   1      43.768  22.746  27.130  1.00  0.00    -0.014 A 
ATOM     66  C   UNL A   1      42.876  21.727  26.735  1.00  0.00     0.010 A 
ATOM     67  C   UNL A   1      45.020  22.739  26.486  1.00  0.00     0.010 A 
ATOM     68  C   UNL A   1      43.246  20.711  25.835  1.00  0.00     0.020 A 
ATOM     69  C   UNL A   1      45.415  21.722  25.602  1.00  0.00     0.020 A 
ATOM     70  C   UNL A   1      44.529  20.700  25.294  1.00  0.00     0.054 A 
BRANCH  70  71
ATOM     71  S   UNL A   1      45.029  19.345  24.203  1.00  0.00     0.124 S 
ATOM     72  O   UNL A   1      46.483  19.353  24.337  1.00  0.00    -0.237 OA
ATOM     73  O   UNL A   1      44.346  18.198  24.794  1.00  0.00    -0.237 OA
ATOM     74  O   UNL A   1      44.530  19.753  22.890  1.00  0.00    -0.744 OA
ENDBRANCH  70  71
ENDBRANCH  51  65
BRANCH  52  75
ATOM     75  C   UNL A   1      41.442  30.300  32.790  1.00  0.00    -0.014 A 
ATOM     76  C   UNL A   1      40.387  29.481  33.249  1.00  0.00     0.010 A 
ATOM     77  C   UNL A   1      41.512  31.634  33.230  1.00  0.00     0.010 A 
ATOM     78  C   UNL A   1      39.549  29.918  34.275  1.00  0.00     0.020 A 
ATOM     79  C   UNL A   1      40.666  32.075  34.258  1.00  0.00     0.020 A 
ATOM     80  C   UNL A   1      39.747  31.185  34.823  1.00  0.00     0.054 A 
BRANCH  80  81
ATOM     81  S   UNL A   1      38.951  31.547  36.418  1.00  0.00     0.124 S 
ATOM     82  O   UNL A   1      38.074  32.663  36.082  1.00  0.00    -0.237 OA
ATOM     83  O   UNL A   1      38.273  30.281  36.698  1.00  0.00    -0.237 OA
ATOM     84  O   UNL A   1      40.077  31.864  37.288  1.00  0.00    -0.744 OA
ENDBRANCH  80  81
ENDBRANCH  52  75
BRANCH  64  85
ATOM     85  C   UNL A   1      45.070  24.054  33.615  1.00  0.00    -0.014 A 
ATOM     86  C   UNL A   1      44.227  22.986  33.959  1.00  0.00     0.010 A 
ATOM     87  C   UNL A   1      46.423  23.963  34.024  1.00  0.00     0.010 A 
ATOM     88  C   UNL A   1      44.695  21.908  34.724  1.00  0.00     0.020 A 
ATOM     89  C   UNL A   1      46.911  22.872  34.747  1.00  0.00     0.020 A 
ATOM     90  C   UNL A   1      46.033  21.860  35.116  1.00  0.00     0.054 A 
BRANCH  90  91
ATOM     91  S   UNL A   1      46.648  20.432  36.046  1.00  0.00     0.124 S 
ATOM     92  O   UNL A   1      45.765  20.430  37.210  1.00  0.00    -0.237 OA
ATOM     93  O   UNL A   1      46.454  19.325  35.112  1.00  0.00    -0.237 OA
ATOM     94  O   UNL A   1      48.041  20.774  36.313  1.00  0.00    -0.744 OA
ENDBRANCH  90  91
ENDBRANCH  64  85
ENDBRANCH  38  39
ENDBRANCH  30  33
ENDBRANCH  28  29
ENDBRANCH  27  28
ENDBRANCH   1  27
TORSDOF 17
ENDMDL
MODEL 3
REMARK VINA RESULT:     -13.2      2.443      3.191
REMARK SMILES Cc1cc(C(=O)NCCCCNC(=O)c2ccc(-c3c4nc(c(-c5ccc(S(=O)(=O)[O-])cc5)c5ccc([nH]5)c(-c5ccc(S(=O)(=O)[O-])cc5)c5nc(c(-c6ccc(S(=O)(=O)[O-])cc6)c6ccc3[nH]6)C=C5)C=C4)cc2)ccc1NS(=O)(=O)c1c(F)cccc1F
REMARK SMILES IDX 9 1 8 2 7 3 5 4 6 5 4 7 1 8 2 9 3 10 77 11 76 12 75 13 78 14
REMARK SMILES IDX 79 16 80 17 81 18 82 19 83 20 88 21 84 22 85 23 87 24 89 25
REMARK SMILES IDX 86 26 10 27 11 28 12 29 13 30 14 32 15 33 16 34 74 35 17 36
REMARK SMILES IDX 73 37 18 38 19 39 20 40 67 41 21 42 72 43 66 44 68 45 22 46
REMARK SMILES IDX 71 47 65 48 64 49 23 51 53 52 34 53 52 54 35 55 38 56 51 57
REMARK SMILES IDX 69 58 36 59 37 60 50 62 70 63 39 64 24 65 25 66 33 67 26 68
REMARK SMILES IDX 32 69 27 70 28 71 29 72 30 73 31 74 54 75 55 76 63 77 56 78
REMARK SMILES IDX 62 79 57 80 58 81 59 82 60 83 61 84 40 85 41 86 49 87 42 88
REMARK SMILES IDX 48 89 43 90 44 91 45 92 46 93 47 94
REMARK H PARENT 7 6 78 15 12 31 68 50 38 61
REMARK Flexibility Score: inf
ROOT
ATOM      1  C   UNL A   1      33.373  29.599  24.619  1.00  0.00     0.023 C 
ENDROOT
BRANCH   1   2
ATOM      2  C   UNL A   1      33.267  28.972  23.221  1.00  0.00     0.116 C 
BRANCH   2   3
ATOM      3  N   UNL A   1      32.084  29.373  22.466  1.00  0.00    -0.352 N 
ATOM      4  C   UNL A   1      30.840  28.817  22.286  1.00  0.00     0.251 C 
ATOM      5  O   UNL A   1      30.043  29.399  21.549  1.00  0.00    -0.269 OA
ATOM      6  H   UNL A   1      32.203  30.222  21.982  1.00  0.00     0.163 HD
BRANCH   4   7
ATOM      7  C   UNL A   1      30.446  27.498  22.852  1.00  0.00     0.040 A 
ATOM      8  C   UNL A   1      31.874  23.981  22.705  1.00  0.00     0.046 C 
ATOM      9  C   UNL A   1      31.081  25.164  23.190  1.00  0.00    -0.026 A 
ATOM     10  C   UNL A   1      31.254  26.396  22.539  1.00  0.00     0.019 A 
ATOM     11  C   UNL A   1      30.148  25.087  24.234  1.00  0.00     0.052 A 
ATOM     12  C   UNL A   1      29.161  26.069  24.322  1.00  0.00     0.028 A 
ATOM     13  C   UNL A   1      29.312  27.277  23.627  1.00  0.00     0.016 A 
BRANCH  11  14
ATOM     14  N   UNL A   1      30.351  24.078  25.224  1.00  0.00    -0.279 N 
ATOM     15  H   UNL A   1      29.814  23.259  25.132  1.00  0.00     0.180 HD
BRANCH  14  16
ATOM     16  S   UNL A   1      31.405  24.138  26.525  1.00  0.00     0.267 S 
ATOM     17  O   UNL A   1      31.540  25.541  26.862  1.00  0.00    -0.201 OA
ATOM     18  O   UNL A   1      30.874  23.190  27.484  1.00  0.00    -0.201 OA
BRANCH  16  19
ATOM     19  C   UNL A   1      32.978  23.538  26.045  1.00  0.00     0.158 A 
ATOM     20  C   UNL A   1      33.129  22.162  25.895  1.00  0.00     0.146 A 
ATOM     21  C   UNL A   1      34.092  24.355  25.919  1.00  0.00     0.146 A 
ATOM     22  F   UNL A   1      32.067  21.344  25.908  1.00  0.00    -0.205 F 
ATOM     23  C   UNL A   1      34.388  21.596  25.713  1.00  0.00     0.041 A 
ATOM     24  C   UNL A   1      35.363  23.797  25.763  1.00  0.00     0.041 A 
ATOM     25  F   UNL A   1      33.990  25.690  25.968  1.00  0.00    -0.205 F 
ATOM     26  C   UNL A   1      35.516  22.413  25.678  1.00  0.00     0.006 A 
ENDBRANCH  16  19
ENDBRANCH  14  16
ENDBRANCH  11  14
ENDBRANCH   4   7
ENDBRANCH   2   3
ENDBRANCH   1   2
BRANCH   1  27
ATOM     27  C   UNL A   1      32.944  28.713  25.792  1.00  0.00     0.023 C 
BRANCH  27  28
ATOM     28  C   UNL A   1      32.944  29.424  27.143  1.00  0.00     0.116 C 
BRANCH  28  29
ATOM     29  N   UNL A   1      33.468  30.782  27.135  1.00  0.00    -0.352 N 
ATOM     30  C   UNL A   1      34.613  31.254  27.776  1.00  0.00     0.251 C 
ATOM     31  H   UNL A   1      32.954  31.443  26.619  1.00  0.00     0.163 HD
ATOM     32  O   UNL A   1      34.805  32.429  27.980  1.00  0.00    -0.269 OA
BRANCH  30  33
ATOM     33  C   UNL A   1      35.670  30.253  28.071  1.00  0.00     0.039 A 
ATOM     34  C   UNL A   1      35.709  29.734  29.371  1.00  0.00     0.014 A 
ATOM     35  C   UNL A   1      36.741  30.085  27.202  1.00  0.00     0.014 A 
ATOM     36  C   UNL A   1      36.908  29.233  29.873  1.00  0.00     0.010 A 
ATOM     37  C   UNL A   1      37.953  29.698  27.733  1.00  0.00     0.010 A 
ATOM     38  C   UNL A   1      38.049  29.324  29.082  1.00  0.00    -0.014 A 
BRANCH  38  39
ATOM     39  C   UNL A   1      39.409  29.132  29.573  1.00  0.00     0.031 A 
ATOM     40  C   UNL A   1      40.111  27.856  29.307  1.00  0.00     0.074 A 
ATOM     41  C   UNL A   1      40.078  30.183  30.101  1.00  0.00     0.049 A 
ATOM     42  N   UNL A   1      41.184  27.465  29.907  1.00  0.00    -0.248 NA
ATOM     43  C   UNL A   1      39.601  26.874  28.353  1.00  0.00     0.031 C 
ATOM     44  C   UNL A   1      41.524  30.306  30.263  1.00  0.00     0.029 A 
ATOM     45  N   UNL A   1      39.569  31.282  30.798  1.00  0.00    -0.354 N 
ATOM     46  C   UNL A   1      41.681  26.392  29.196  1.00  0.00     0.074 A 
ATOM     47  C   UNL A   1      40.603  25.992  28.327  1.00  0.00     0.031 C 
ATOM     48  C   UNL A   1      41.772  31.201  31.233  1.00  0.00     0.029 A 
ATOM     49  C   UNL A   1      40.491  31.551  31.824  1.00  0.00     0.049 A 
ATOM     50  H   UNL A   1      38.734  31.769  30.610  1.00  0.00     0.167 HD
ATOM     51  C   UNL A   1      43.004  26.074  29.303  1.00  0.00     0.031 A 
ATOM     52  C   UNL A   1      40.197  31.470  33.156  1.00  0.00     0.031 A 
ATOM     53  C   UNL A   1      43.652  26.840  30.368  1.00  0.00     0.049 A 
ATOM     54  C   UNL A   1      41.074  30.479  33.893  1.00  0.00     0.074 A 
ATOM     55  C   UNL A   1      44.494  27.939  30.367  1.00  0.00     0.029 A 
ATOM     56  N   UNL A   1      43.219  26.676  31.680  1.00  0.00    -0.354 N 
ATOM     57  N   UNL A   1      41.799  29.573  33.297  1.00  0.00    -0.248 NA
ATOM     58  C   UNL A   1      41.179  30.401  35.348  1.00  0.00     0.031 C 
ATOM     59  C   UNL A   1      44.477  28.503  31.670  1.00  0.00     0.029 A 
ATOM     60  C   UNL A   1      43.656  27.724  32.468  1.00  0.00     0.049 A 
ATOM     61  H   UNL A   1      42.678  25.920  32.002  1.00  0.00     0.167 HD
ATOM     62  C   UNL A   1      42.454  28.815  34.229  1.00  0.00     0.074 A 
ATOM     63  C   UNL A   1      42.036  29.375  35.502  1.00  0.00     0.031 C 
ATOM     64  C   UNL A   1      43.283  27.789  33.875  1.00  0.00     0.031 A 
BRANCH  51  65
ATOM     65  C   UNL A   1      43.774  25.301  28.242  1.00  0.00    -0.014 A 
ATOM     66  C   UNL A   1      44.114  25.937  27.029  1.00  0.00     0.010 A 
ATOM     67  C   UNL A   1      44.108  23.936  28.326  1.00  0.00     0.010 A 
ATOM     68  C   UNL A   1      44.657  25.234  25.938  1.00  0.00     0.020 A 
ATOM     69  C   UNL A   1      44.630  23.214  27.242  1.00  0.00     0.020 A 
ATOM     70  C   UNL A   1      44.886  23.865  26.044  1.00  0.00     0.054 A 
BRANCH  70  71
ATOM     71  S   UNL A   1      45.504  22.948  24.610  1.00  0.00     0.124 S 
ATOM     72  O   UNL A   1      46.249  23.970  23.880  1.00  0.00    -0.237 OA
ATOM     73  O   UNL A   1      46.310  21.901  25.231  1.00  0.00    -0.237 OA
ATOM     74  O   UNL A   1      44.288  22.481  23.946  1.00  0.00    -0.744 OA
ENDBRANCH  70  71
ENDBRANCH  51  65
BRANCH  52  75
ATOM     75  C   UNL A   1      38.782  31.784  33.493  1.00  0.00    -0.014 A 
ATOM     76  C   UNL A   1      38.454  33.148  33.654  1.00  0.00     0.010 A 
ATOM     77  C   UNL A   1      37.760  30.866  33.189  1.00  0.00     0.010 A 
ATOM     78  C   UNL A   1      37.182  33.612  33.318  1.00  0.00     0.020 A 
ATOM     79  C   UNL A   1      36.480  31.333  32.856  1.00  0.00     0.020 A 
ATOM     80  C   UNL A   1      36.229  32.709  32.849  1.00  0.00     0.054 A 
BRANCH  80  81
ATOM     81  S   UNL A   1      34.762  33.390  32.018  1.00  0.00     0.124 S 
ATOM     82  O   UNL A   1      34.383  32.307  31.118  1.00  0.00    -0.237 OA
ATOM     83  O   UNL A   1      33.860  33.608  33.150  1.00  0.00    -0.237 OA
ATOM     84  O   UNL A   1      35.271  34.597  31.378  1.00  0.00    -0.744 OA
ENDBRANCH  80  81
ENDBRANCH  52  75
BRANCH  64  85
ATOM     85  C   UNL A   1      43.890  26.782  34.819  1.00  0.00    -0.014 A 
ATOM     86  C   UNL A   1      43.204  25.670  35.330  1.00  0.00     0.010 A 
ATOM     87  C   UNL A   1      45.273  26.875  35.110  1.00  0.00     0.010 A 
ATOM     88  C   UNL A   1      43.852  24.727  36.141  1.00  0.00     0.020 A 
ATOM     89  C   UNL A   1      45.938  25.917  35.879  1.00  0.00     0.020 A 
ATOM     90  C   UNL A   1      45.214  24.858  36.413  1.00  0.00     0.054 A 
BRANCH  90  91
ATOM     91  S   UNL A   1      46.060  23.600  37.404  1.00  0.00     0.124 S 
ATOM     92  O   UNL A   1      45.663  23.971  38.761  1.00  0.00    -0.237 OA
ATOM     93  O   UNL A   1      45.489  22.351  36.905  1.00  0.00    -0.237 OA
ATOM     94  O   UNL A   1      47.469  23.804  37.083  1.00  0.00    -0.744 OA
ENDBRANCH  90  91
ENDBRANCH  64  85
ENDBRANCH  38  39
ENDBRANCH  30  33
ENDBRANCH  28  29
ENDBRANCH  27  28
ENDBRANCH   1  27
TORSDOF 17
ENDMDL
