MODEL 1
REMARK VINA RESULT:     -11.9      0.000      0.000
REMARK SMILES C[C@@H](Oc1ccc(-c2ccccc2)cc1)C(=O)N1CCC[C@H](C(=O)NCCCCNC(=O)c2ccc(-c3c4nc(c(-c5ccc(S(=O)(=O)[O-])cc5)c5ccc([nH]5)c(-c5ccc(S(=O)(=O)[O-])cc5)c5nc(c(-c6ccc(S(=O)(=O)[O-])cc6)c6ccc3[nH]6)C=C5)C=C4)cc2)C1
REMARK SMILES IDX 26 1 25 2 23 3 24 4 22 6 18 7 19 8 93 9 20 10 21 11 16 12
REMARK SMILES IDX 17 13 2 14 1 15 3 16 4 17 5 18 15 19 6 20 14 21 7 22 8 23
REMARK SMILES IDX 9 24 13 25 10 26 12 27 11 28 27 29 28 30 29 31 30 32 31 33
REMARK SMILES IDX 32 35 33 36 34 37 92 38 35 39 91 40 36 41 37 42 38 43 85 44
REMARK SMILES IDX 39 45 90 46 84 47 86 48 40 49 89 50 83 51 82 52 41 54 71 55
REMARK SMILES IDX 52 56 70 57 53 58 56 59 69 60 87 61 54 62 55 63 68 65 88 66
REMARK SMILES IDX 57 67 42 68 43 69 51 70 44 71 50 72 45 73 46 74 47 75 48 76
REMARK SMILES IDX 49 77 72 78 73 79 81 80 74 81 80 82 75 83 76 84 77 85 78 86
REMARK SMILES IDX 79 87 58 88 59 89 67 90 60 91 66 92 61 93 62 94 63 95 64 96
REMARK SMILES IDX 65 97
REMARK H PARENT 25 5 30 34 86 53 56 64
REMARK Flexibility Score: inf
ROOT
ATOM      1  C   UNL A   1      37.584  23.003  25.663  1.00  0.00     0.116 C 
ENDROOT
BRANCH   1   2
ATOM      2  N   UNL A   1      36.470  22.629  26.505  1.00  0.00    -0.356 N 
ATOM      3  C   UNL A   1      35.345  21.918  26.247  1.00  0.00     0.224 C 
ATOM      4  O   UNL A   1      34.671  21.590  27.232  1.00  0.00    -0.275 OA
ATOM      5  H   UNL A   1      36.542  22.948  27.433  1.00  0.00     0.163 HD
BRANCH   3   6
ATOM      6  C   UNL A   1      34.850  21.521  24.848  1.00  0.00     0.098 C 
ATOM      7  N   UNL A   1      32.497  22.217  24.391  1.00  0.00    -0.339 N 
ATOM      8  C   UNL A   1      32.092  20.848  24.077  1.00  0.00     0.119 C 
ATOM      9  C   UNL A   1      33.905  22.518  24.171  1.00  0.00     0.133 C 
ATOM     10  C   UNL A   1      32.939  19.789  24.772  1.00  0.00     0.022 C 
ATOM     11  C   UNL A   1      34.437  20.055  24.701  1.00  0.00     0.017 C 
BRANCH   7  12
ATOM     12  C   UNL A   1      31.530  23.122  24.822  1.00  0.00     0.263 C 
ATOM     13  O   UNL A   1      30.565  22.728  25.491  1.00  0.00    -0.271 OA
BRANCH  12  14
ATOM     14  C   UNL A   1      31.606  24.610  24.423  1.00  0.00     0.259 C 
ATOM     15  C   UNL A   1      31.033  24.964  23.055  1.00  0.00     0.064 C 
BRANCH  14  16
ATOM     16  O   UNL A   1      30.934  25.330  25.466  1.00  0.00    -0.481 OA
BRANCH  16  17
ATOM     17  C   UNL A   1      31.738  26.251  26.074  1.00  0.00     0.120 A 
ATOM     18  C   UNL A   1      31.210  27.222  26.924  1.00  0.00     0.047 A 
ATOM     19  C   UNL A   1      33.073  26.292  25.697  1.00  0.00     0.047 A 
ATOM     20  C   UNL A   1      32.032  28.262  27.379  1.00  0.00     0.012 A 
ATOM     21  C   UNL A   1      33.888  27.323  26.159  1.00  0.00     0.012 A 
ATOM     22  C   UNL A   1      33.376  28.347  26.976  1.00  0.00    -0.018 A 
BRANCH  22  23
ATOM     23  C   UNL A   1      34.222  29.504  27.313  1.00  0.00    -0.018 A 
ATOM     24  C   UNL A   1      35.613  29.401  27.447  1.00  0.00     0.009 A 
ATOM     25  C   UNL A   1      33.633  30.770  27.497  1.00  0.00     0.009 A 
ATOM     26  C   UNL A   1      36.388  30.531  27.737  1.00  0.00     0.001 A 
ATOM     27  C   UNL A   1      34.404  31.897  27.784  1.00  0.00     0.001 A 
ATOM     28  C   UNL A   1      35.784  31.776  27.901  1.00  0.00     0.000 A 
ENDBRANCH  22  23
ENDBRANCH  16  17
ENDBRANCH  14  16
ENDBRANCH  12  14
ENDBRANCH   7  12
ENDBRANCH   3   6
ENDBRANCH   1   2
BRANCH   1  29
ATOM     29  C   UNL A   1      38.927  22.456  26.140  1.00  0.00     0.023 C 
BRANCH  29  30
ATOM     30  C   UNL A   1      39.630  23.311  27.189  1.00  0.00     0.023 C 
BRANCH  30  31
ATOM     31  C   UNL A   1      39.424  24.819  27.056  1.00  0.00     0.116 C 
BRANCH  31  32
ATOM     32  N   UNL A   1      40.320  25.477  26.115  1.00  0.00    -0.352 N 
ATOM     33  C   UNL A   1      40.870  26.740  26.218  1.00  0.00     0.251 C 
ATOM     34  H   UNL A   1      40.562  24.961  25.313  1.00  0.00     0.163 HD
ATOM     35  O   UNL A   1      41.541  27.213  25.315  1.00  0.00    -0.269 OA
BRANCH  33  36
ATOM     36  C   UNL A   1      40.588  27.533  27.436  1.00  0.00     0.039 A 
ATOM     37  C   UNL A   1      40.013  26.902  28.540  1.00  0.00     0.014 A 
ATOM     38  C   UNL A   1      40.979  28.872  27.507  1.00  0.00     0.014 A 
ATOM     39  C   UNL A   1      39.917  27.594  29.750  1.00  0.00     0.010 A 
ATOM     40  C   UNL A   1      40.960  29.529  28.734  1.00  0.00     0.010 A 
ATOM     41  C   UNL A   1      40.433  28.895  29.870  1.00  0.00    -0.014 A 
BRANCH  41  42
ATOM     42  C   UNL A   1      40.443  29.608  31.173  1.00  0.00     0.031 A 
ATOM     43  C   UNL A   1      41.522  29.319  32.182  1.00  0.00     0.074 A 
ATOM     44  C   UNL A   1      39.440  30.455  31.481  1.00  0.00     0.049 A 
ATOM     45  N   UNL A   1      41.666  29.792  33.394  1.00  0.00    -0.248 NA
ATOM     46  C   UNL A   1      42.556  28.347  31.791  1.00  0.00     0.031 C 
ATOM     47  C   UNL A   1      38.299  30.774  30.618  1.00  0.00     0.029 A 
ATOM     48  N   UNL A   1      39.216  31.203  32.612  1.00  0.00    -0.354 N 
ATOM     49  C   UNL A   1      42.787  29.158  33.915  1.00  0.00     0.074 A 
ATOM     50  C   UNL A   1      43.254  28.229  32.910  1.00  0.00     0.031 C 
ATOM     51  C   UNL A   1      37.517  31.675  31.235  1.00  0.00     0.029 A 
ATOM     52  C   UNL A   1      38.079  31.974  32.548  1.00  0.00     0.049 A 
ATOM     53  H   UNL A   1      39.813  31.187  33.394  1.00  0.00     0.167 HD
ATOM     54  C   UNL A   1      43.392  29.348  35.112  1.00  0.00     0.031 A 
ATOM     55  C   UNL A   1      37.550  32.831  33.444  1.00  0.00     0.031 A 
ATOM     56  C   UNL A   1      42.945  30.293  36.099  1.00  0.00     0.049 A 
ATOM     57  C   UNL A   1      38.261  33.057  34.751  1.00  0.00     0.074 A 
ATOM     58  C   UNL A   1      43.523  30.605  37.317  1.00  0.00     0.029 A 
ATOM     59  N   UNL A   1      41.814  31.087  35.978  1.00  0.00    -0.354 N 
ATOM     60  N   UNL A   1      39.358  32.493  35.199  1.00  0.00    -0.248 NA
ATOM     61  C   UNL A   1      37.672  34.045  35.664  1.00  0.00     0.031 C 
ATOM     62  C   UNL A   1      42.722  31.564  37.947  1.00  0.00     0.029 A 
ATOM     63  C   UNL A   1      41.672  31.883  37.101  1.00  0.00     0.049 A 
ATOM     64  H   UNL A   1      41.202  31.083  35.206  1.00  0.00     0.167 HD
ATOM     65  C   UNL A   1      39.607  33.084  36.433  1.00  0.00     0.074 A 
ATOM     66  C   UNL A   1      38.553  34.052  36.655  1.00  0.00     0.031 C 
ATOM     67  C   UNL A   1      40.620  32.846  37.302  1.00  0.00     0.031 A 
BRANCH  54  68
ATOM     68  C   UNL A   1      44.610  28.516  35.410  1.00  0.00    -0.014 A 
ATOM     69  C   UNL A   1      45.898  28.969  35.069  1.00  0.00     0.010 A 
ATOM     70  C   UNL A   1      44.470  27.275  36.056  1.00  0.00     0.010 A 
ATOM     71  C   UNL A   1      47.018  28.175  35.322  1.00  0.00     0.020 A 
ATOM     72  C   UNL A   1      45.593  26.489  36.338  1.00  0.00     0.020 A 
ATOM     73  C   UNL A   1      46.857  26.937  35.949  1.00  0.00     0.054 A 
BRANCH  73  74
ATOM     74  S   UNL A   1      48.330  25.929  36.277  1.00  0.00     0.124 S 
ATOM     75  O   UNL A   1      47.828  24.578  36.040  1.00  0.00    -0.237 OA
ATOM     76  O   UNL A   1      49.287  26.426  35.291  1.00  0.00    -0.237 OA
ATOM     77  O   UNL A   1      48.657  26.237  37.667  1.00  0.00    -0.744 OA
ENDBRANCH  73  74
ENDBRANCH  54  68
BRANCH  55  78
ATOM     78  C   UNL A   1      36.302  33.573  33.118  1.00  0.00    -0.014 A 
ATOM     79  C   UNL A   1      35.046  32.977  33.328  1.00  0.00     0.010 A 
ATOM     80  C   UNL A   1      36.361  34.883  32.608  1.00  0.00     0.010 A 
ATOM     81  C   UNL A   1      33.872  33.669  33.018  1.00  0.00     0.020 A 
ATOM     82  C   UNL A   1      35.188  35.586  32.319  1.00  0.00     0.020 A 
ATOM     83  C   UNL A   1      33.950  34.970  32.515  1.00  0.00     0.054 A 
BRANCH  83  84
ATOM     84  S   UNL A   1      32.413  35.870  32.168  1.00  0.00     0.124 S 
ATOM     85  O   UNL A   1      32.469  36.020  30.718  1.00  0.00    -0.237 OA
ATOM     86  O   UNL A   1      31.390  34.956  32.671  1.00  0.00    -0.237 OA
ATOM     87  O   UNL A   1      32.563  37.106  32.933  1.00  0.00    -0.744 OA
ENDBRANCH  83  84
ENDBRANCH  55  78
BRANCH  67  88
ATOM     88  C   UNL A   1      40.665  33.677  38.555  1.00  0.00    -0.014 A 
ATOM     89  C   UNL A   1      39.978  33.284  39.717  1.00  0.00     0.010 A 
ATOM     90  C   UNL A   1      41.449  34.845  38.581  1.00  0.00     0.010 A 
ATOM     91  C   UNL A   1      40.048  34.064  40.874  1.00  0.00     0.020 A 
ATOM     92  C   UNL A   1      41.541  35.614  39.744  1.00  0.00     0.020 A 
ATOM     93  C   UNL A   1      40.827  35.226  40.880  1.00  0.00     0.054 A 
BRANCH  93  94
ATOM     94  S   UNL A   1      40.935  36.201  42.405  1.00  0.00     0.124 S 
ATOM     95  O   UNL A   1      42.035  37.113  42.104  1.00  0.00    -0.237 OA
ATOM     96  O   UNL A   1      39.612  36.817  42.489  1.00  0.00    -0.237 OA
ATOM     97  O   UNL A   1      41.216  35.202  43.433  1.00  0.00    -0.744 OA
ENDBRANCH  93  94
ENDBRANCH  67  88
ENDBRANCH  41  42
ENDBRANCH  33  36
ENDBRANCH  31  32
ENDBRANCH  30  31
ENDBRANCH  29  30
ENDBRANCH   1  29
TORSDOF 19
ENDMDL
MODEL 2
REMARK VINA RESULT:     -11.3      1.362      7.944
REMARK SMILES C[C@@H](Oc1ccc(-c2ccccc2)cc1)C(=O)N1CCC[C@H](C(=O)NCCCCNC(=O)c2ccc(-c3c4nc(c(-c5ccc(S(=O)(=O)[O-])cc5)c5ccc([nH]5)c(-c5ccc(S(=O)(=O)[O-])cc5)c5nc(c(-c6ccc(S(=O)(=O)[O-])cc6)c6ccc3[nH]6)C=C5)C=C4)cc2)C1
REMARK SMILES IDX 26 1 25 2 23 3 24 4 22 6 18 7 19 8 93 9 20 10 21 11 16 12
REMARK SMILES IDX 17 13 2 14 1 15 3 16 4 17 5 18 15 19 6 20 14 21 7 22 8 23
REMARK SMILES IDX 9 24 13 25 10 26 12 27 11 28 27 29 28 30 29 31 30 32 31 33
REMARK SMILES IDX 32 35 33 36 34 37 92 38 35 39 91 40 36 41 37 42 38 43 85 44
REMARK SMILES IDX 39 45 90 46 84 47 86 48 40 49 89 50 83 51 82 52 41 54 71 55
REMARK SMILES IDX 52 56 70 57 53 58 56 59 69 60 87 61 54 62 55 63 68 65 88 66
REMARK SMILES IDX 57 67 42 68 43 69 51 70 44 71 50 72 45 73 46 74 47 75 48 76
REMARK SMILES IDX 49 77 72 78 73 79 81 80 74 81 80 82 75 83 76 84 77 85 78 86
REMARK SMILES IDX 79 87 58 88 59 89 67 90 60 91 66 92 61 93 62 94 63 95 64 96
REMARK SMILES IDX 65 97
REMARK H PARENT 25 5 30 34 86 53 56 64
REMARK Flexibility Score: inf
ROOT
ATOM      1  C   UNL A   1      36.707  23.591  25.752  1.00  0.00     0.116 C 
ENDROOT
BRANCH   1   2
ATOM      2  N   UNL A   1      35.664  22.939  26.513  1.00  0.00    -0.356 N 
ATOM      3  C   UNL A   1      34.864  21.883  26.224  1.00  0.00     0.224 C 
ATOM      4  O   UNL A   1      34.202  21.429  27.166  1.00  0.00    -0.275 OA
ATOM      5  H   UNL A   1      35.507  23.333  27.400  1.00  0.00     0.163 HD
BRANCH   3   6
ATOM      6  C   UNL A   1      34.711  21.243  24.836  1.00  0.00     0.098 C 
ATOM      7  N   UNL A   1      32.752  22.106  23.553  1.00  0.00    -0.339 N 
ATOM      8  C   UNL A   1      32.199  20.763  23.381  1.00  0.00     0.119 C 
ATOM      9  C   UNL A   1      34.196  22.169  23.731  1.00  0.00     0.133 C 
ATOM     10  C   UNL A   1      32.605  19.793  24.484  1.00  0.00     0.022 C 
ATOM     11  C   UNL A   1      34.086  19.845  24.835  1.00  0.00     0.017 C 
BRANCH   7  12
ATOM     12  C   UNL A   1      31.891  23.199  23.492  1.00  0.00     0.263 C 
ATOM     13  O   UNL A   1      30.690  23.061  23.761  1.00  0.00    -0.271 OA
BRANCH  12  14
ATOM     14  C   UNL A   1      32.399  24.580  23.029  1.00  0.00     0.259 C 
ATOM     15  C   UNL A   1      32.692  24.717  21.538  1.00  0.00     0.064 C 
BRANCH  14  16
ATOM     16  O   UNL A   1      31.405  25.524  23.448  1.00  0.00    -0.481 OA
BRANCH  16  17
ATOM     17  C   UNL A   1      31.867  26.393  24.394  1.00  0.00     0.120 A 
ATOM     18  C   UNL A   1      31.213  27.598  24.651  1.00  0.00     0.047 A 
ATOM     19  C   UNL A   1      33.094  26.116  24.980  1.00  0.00     0.047 A 
ATOM     20  C   UNL A   1      31.817  28.546  25.488  1.00  0.00     0.012 A 
ATOM     21  C   UNL A   1      33.686  27.058  25.818  1.00  0.00     0.012 A 
ATOM     22  C   UNL A   1      33.078  28.305  26.058  1.00  0.00    -0.018 A 
BRANCH  22  23
ATOM     23  C   UNL A   1      33.805  29.336  26.817  1.00  0.00    -0.018 A 
ATOM     24  C   UNL A   1      33.244  30.587  27.110  1.00  0.00     0.009 A 
ATOM     25  C   UNL A   1      35.107  29.070  27.286  1.00  0.00     0.009 A 
ATOM     26  C   UNL A   1      33.954  31.530  27.862  1.00  0.00     0.001 A 
ATOM     27  C   UNL A   1      35.815  30.009  28.036  1.00  0.00     0.001 A 
ATOM     28  C   UNL A   1      35.236  31.239  28.327  1.00  0.00     0.000 A 
ENDBRANCH  22  23
ENDBRANCH  16  17
ENDBRANCH  14  16
ENDBRANCH  12  14
ENDBRANCH   7  12
ENDBRANCH   3   6
ENDBRANCH   1   2
BRANCH   1  29
ATOM     29  C   UNL A   1      38.031  22.831  25.747  1.00  0.00     0.023 C 
BRANCH  29  30
ATOM     30  C   UNL A   1      39.073  23.355  26.728  1.00  0.00     0.023 C 
BRANCH  30  31
ATOM     31  C   UNL A   1      39.346  24.856  26.661  1.00  0.00     0.116 C 
BRANCH  31  32
ATOM     32  N   UNL A   1      40.356  25.251  25.689  1.00  0.00    -0.352 N 
ATOM     33  C   UNL A   1      41.332  26.218  25.833  1.00  0.00     0.251 C 
ATOM     34  H   UNL A   1      40.341  24.773  24.829  1.00  0.00     0.163 HD
ATOM     35  O   UNL A   1      42.068  26.516  24.906  1.00  0.00    -0.269 OA
BRANCH  33  36
ATOM     36  C   UNL A   1      41.437  26.924  27.131  1.00  0.00     0.039 A 
ATOM     37  C   UNL A   1      41.893  28.242  27.152  1.00  0.00     0.014 A 
ATOM     38  C   UNL A   1      40.996  26.305  28.303  1.00  0.00     0.014 A 
ATOM     39  C   UNL A   1      41.818  28.973  28.341  1.00  0.00     0.010 A 
ATOM     40  C   UNL A   1      40.845  27.059  29.462  1.00  0.00     0.010 A 
ATOM     41  C   UNL A   1      41.248  28.403  29.492  1.00  0.00    -0.014 A 
BRANCH  41  42
ATOM     42  C   UNL A   1      41.056  29.194  30.734  1.00  0.00     0.031 A 
ATOM     43  C   UNL A   1      39.950  30.212  30.816  1.00  0.00     0.074 A 
ATOM     44  C   UNL A   1      41.922  29.055  31.759  1.00  0.00     0.049 A 
ATOM     45  N   UNL A   1      39.662  31.041  31.787  1.00  0.00    -0.248 NA
ATOM     46  C   UNL A   1      39.075  30.340  29.638  1.00  0.00     0.031 C 
ATOM     47  C   UNL A   1      43.075  28.150  31.783  1.00  0.00     0.029 A 
ATOM     48  N   UNL A   1      41.969  29.680  32.981  1.00  0.00    -0.354 N 
ATOM     49  C   UNL A   1      38.592  31.801  31.329  1.00  0.00     0.074 A 
ATOM     50  C   UNL A   1      38.317  31.373  29.975  1.00  0.00     0.031 C 
ATOM     51  C   UNL A   1      43.692  28.254  32.971  1.00  0.00     0.029 A 
ATOM     52  C   UNL A   1      43.004  29.253  33.781  1.00  0.00     0.049 A 
ATOM     53  H   UNL A   1      41.323  30.369  33.259  1.00  0.00     0.167 HD
ATOM     54  C   UNL A   1      37.883  32.752  31.983  1.00  0.00     0.031 A 
ATOM     55  C   UNL A   1      43.357  29.621  35.028  1.00  0.00     0.031 A 
ATOM     56  C   UNL A   1      38.138  33.156  33.339  1.00  0.00     0.049 A 
ATOM     57  C   UNL A   1      42.531  30.650  35.750  1.00  0.00     0.074 A 
ATOM     58  C   UNL A   1      37.439  34.066  34.112  1.00  0.00     0.029 A 
ATOM     59  N   UNL A   1      39.168  32.668  34.129  1.00  0.00    -0.354 N 
ATOM     60  N   UNL A   1      41.481  31.312  35.322  1.00  0.00    -0.248 NA
ATOM     61  C   UNL A   1      42.925  30.970  37.129  1.00  0.00     0.031 C 
ATOM     62  C   UNL A   1      38.067  34.153  35.359  1.00  0.00     0.029 A 
ATOM     63  C   UNL A   1      39.128  33.262  35.378  1.00  0.00     0.049 A 
ATOM     64  H   UNL A   1      39.830  31.997  33.842  1.00  0.00     0.167 HD
ATOM     65  C   UNL A   1      41.072  32.102  36.391  1.00  0.00     0.074 A 
ATOM     66  C   UNL A   1      41.980  31.829  37.486  1.00  0.00     0.031 C 
ATOM     67  C   UNL A   1      40.036  32.973  36.458  1.00  0.00     0.031 A 
BRANCH  54  68
ATOM     68  C   UNL A   1      36.759  33.413  31.232  1.00  0.00    -0.014 A 
ATOM     69  C   UNL A   1      35.438  33.366  31.717  1.00  0.00     0.010 A 
ATOM     70  C   UNL A   1      37.025  34.105  30.037  1.00  0.00     0.010 A 
ATOM     71  C   UNL A   1      34.398  33.956  30.996  1.00  0.00     0.020 A 
ATOM     72  C   UNL A   1      35.990  34.723  29.328  1.00  0.00     0.020 A 
ATOM     73  C   UNL A   1      34.680  34.626  29.802  1.00  0.00     0.054 A 
BRANCH  73  74
ATOM     74  S   UNL A   1      33.312  35.394  28.891  1.00  0.00     0.124 S 
ATOM     75  O   UNL A   1      34.018  36.346  28.037  1.00  0.00    -0.237 OA
ATOM     76  O   UNL A   1      32.708  34.258  28.199  1.00  0.00    -0.237 OA
ATOM     77  O   UNL A   1      32.489  35.990  29.940  1.00  0.00    -0.744 OA
ENDBRANCH  73  74
ENDBRANCH  54  68
BRANCH  55  78
ATOM     78  C   UNL A   1      44.524  28.979  35.692  1.00  0.00    -0.014 A 
ATOM     79  C   UNL A   1      45.818  29.502  35.514  1.00  0.00     0.010 A 
ATOM     80  C   UNL A   1      44.349  27.852  36.515  1.00  0.00     0.010 A 
ATOM     81  C   UNL A   1      46.917  28.898  36.130  1.00  0.00     0.020 A 
ATOM     82  C   UNL A   1      45.444  27.261  37.153  1.00  0.00     0.020 A 
ATOM     83  C   UNL A   1      46.723  27.781  36.947  1.00  0.00     0.054 A 
BRANCH  83  84
ATOM     84  S   UNL A   1      48.157  27.045  37.781  1.00  0.00     0.124 S 
ATOM     85  O   UNL A   1      47.542  25.967  38.548  1.00  0.00    -0.237 OA
ATOM     86  O   UNL A   1      48.996  26.626  36.661  1.00  0.00    -0.237 OA
ATOM     87  O   UNL A   1      48.694  28.151  38.571  1.00  0.00    -0.744 OA
ENDBRANCH  83  84
ENDBRANCH  55  78
BRANCH  67  88
ATOM     88  C   UNL A   1      39.798  33.663  37.773  1.00  0.00    -0.014 A 
ATOM     89  C   UNL A   1      40.584  34.756  38.177  1.00  0.00     0.010 A 
ATOM     90  C   UNL A   1      38.737  33.239  38.594  1.00  0.00     0.010 A 
ATOM     91  C   UNL A   1      40.334  35.392  39.396  1.00  0.00     0.020 A 
ATOM     92  C   UNL A   1      38.469  33.888  39.802  1.00  0.00     0.020 A 
ATOM     93  C   UNL A   1      39.279  34.952  40.202  1.00  0.00     0.054 A 
BRANCH  93  94
ATOM     94  S   UNL A   1      38.948  35.817  41.761  1.00  0.00     0.124 S 
ATOM     95  O   UNL A   1      40.061  35.375  42.595  1.00  0.00    -0.237 OA
ATOM     96  O   UNL A   1      38.979  37.222  41.364  1.00  0.00    -0.237 OA
ATOM     97  O   UNL A   1      37.633  35.319  42.159  1.00  0.00    -0.744 OA
ENDBRANCH  93  94
ENDBRANCH  67  88
ENDBRANCH  41  42
ENDBRANCH  33  36
ENDBRANCH  31  32
ENDBRANCH  30  31
ENDBRANCH  29  30
ENDBRANCH   1  29
TORSDOF 19
ENDMDL
MODEL 3
REMARK VINA RESULT:     -10.0     10.030     15.459
REMARK SMILES C[C@@H](Oc1ccc(-c2ccccc2)cc1)C(=O)N1CCC[C@H](C(=O)NCCCCNC(=O)c2ccc(-c3c4nc(c(-c5ccc(S(=O)(=O)[O-])cc5)c5ccc([nH]5)c(-c5ccc(S(=O)(=O)[O-])cc5)c5nc(c(-c6ccc(S(=O)(=O)[O-])cc6)c6ccc3[nH]6)C=C5)C=C4)cc2)C1
REMARK SMILES IDX 26 1 25 2 23 3 24 4 22 6 18 7 19 8 93 9 20 10 21 11 16 12
REMARK SMILES IDX 17 13 2 14 1 15 3 16 4 17 5 18 15 19 6 20 14 21 7 22 8 23
REMARK SMILES IDX 9 24 13 25 10 26 12 27 11 28 27 29 28 30 29 31 30 32 31 33
REMARK SMILES IDX 32 35 33 36 34 37 92 38 35 39 91 40 36 41 37 42 38 43 85 44
REMARK SMILES IDX 39 45 90 46 84 47 86 48 40 49 89 50 83 51 82 52 41 54 71 55
REMARK SMILES IDX 52 56 70 57 53 58 56 59 69 60 87 61 54 62 55 63 68 65 88 66
REMARK SMILES IDX 57 67 42 68 43 69 51 70 44 71 50 72 45 73 46 74 47 75 48 76
REMARK SMILES IDX 49 77 72 78 73 79 81 80 74 81 80 82 75 83 76 84 77 85 78 86
REMARK SMILES IDX 79 87 58 88 59 89 67 90 60 91 66 92 61 93 62 94 63 95 64 96
REMARK SMILES IDX 65 97
REMARK H PARENT 25 5 30 34 86 53 56 64
REMARK Flexibility Score: inf
ROOT
ATOM      1  C   UNL A   1      43.618  38.147  29.963  1.00  0.00     0.116 C 
ENDROOT
BRANCH   1   2
ATOM      2  N   UNL A   1      43.786  39.565  29.732  1.00  0.00    -0.356 N 
ATOM      3  C   UNL A   1      43.523  40.338  28.650  1.00  0.00     0.224 C 
ATOM      4  O   UNL A   1      43.584  41.562  28.829  1.00  0.00    -0.275 OA
ATOM      5  H   UNL A   1      44.158  40.056  30.499  1.00  0.00     0.163 HD
BRANCH   3   6
ATOM      6  C   UNL A   1      43.184  39.812  27.248  1.00  0.00     0.098 C 
ATOM      7  N   UNL A   1      43.506  41.508  25.445  1.00  0.00    -0.339 N 
ATOM      8  C   UNL A   1      42.125  41.369  24.987  1.00  0.00     0.119 C 
ATOM      9  C   UNL A   1      44.065  40.340  26.111  1.00  0.00     0.133 C 
ATOM     10  C   UNL A   1      41.164  40.917  26.081  1.00  0.00     0.022 C 
ATOM     11  C   UNL A   1      41.690  39.759  26.921  1.00  0.00     0.017 C 
BRANCH   7  12
ATOM     12  C   UNL A   1      44.184  42.696  25.181  1.00  0.00     0.263 C 
ATOM     13  O   UNL A   1      44.316  43.548  26.069  1.00  0.00    -0.271 OA
BRANCH  12  14
ATOM     14  C   UNL A   1      44.723  43.000  23.768  1.00  0.00     0.259 C 
ATOM     15  C   UNL A   1      46.229  42.846  23.582  1.00  0.00     0.064 C 
BRANCH  14  16
ATOM     16  O   UNL A   1      44.002  42.135  22.879  1.00  0.00    -0.481 OA
BRANCH  16  17
ATOM     17  C   UNL A   1      43.730  42.721  21.677  1.00  0.00     0.120 A 
ATOM     18  C   UNL A   1      44.749  43.235  20.876  1.00  0.00     0.047 A 
ATOM     19  C   UNL A   1      42.399  42.932  21.348  1.00  0.00     0.047 A 
ATOM     20  C   UNL A   1      44.421  43.993  19.743  1.00  0.00     0.012 A 
ATOM     21  C   UNL A   1      42.078  43.680  20.217  1.00  0.00     0.012 A 
ATOM     22  C   UNL A   1      43.080  44.256  19.416  1.00  0.00    -0.018 A 
BRANCH  22  23
ATOM     23  C   UNL A   1      42.706  45.171  18.324  1.00  0.00    -0.018 A 
ATOM     24  C   UNL A   1      43.021  46.536  18.348  1.00  0.00     0.009 A 
ATOM     25  C   UNL A   1      42.017  44.671  17.201  1.00  0.00     0.009 A 
ATOM     26  C   UNL A   1      42.675  47.368  17.277  1.00  0.00     0.001 A 
ATOM     27  C   UNL A   1      41.673  45.499  16.132  1.00  0.00     0.001 A 
ATOM     28  C   UNL A   1      42.006  46.848  16.169  1.00  0.00     0.000 A 
ENDBRANCH  22  23
ENDBRANCH  16  17
ENDBRANCH  14  16
ENDBRANCH  12  14
ENDBRANCH   7  12
ENDBRANCH   3   6
ENDBRANCH   1   2
BRANCH   1  29
ATOM     29  C   UNL A   1      44.852  37.317  29.620  1.00  0.00     0.023 C 
BRANCH  29  30
ATOM     30  C   UNL A   1      46.183  37.984  29.945  1.00  0.00     0.023 C 
BRANCH  30  31
ATOM     31  C   UNL A   1      47.199  38.020  28.805  1.00  0.00     0.116 C 
BRANCH  31  32
ATOM     32  N   UNL A   1      48.565  37.695  29.192  1.00  0.00    -0.352 N 
ATOM     33  C   UNL A   1      49.109  36.441  29.392  1.00  0.00     0.251 C 
ATOM     34  H   UNL A   1      49.171  38.459  29.327  1.00  0.00     0.163 HD
ATOM     35  O   UNL A   1      50.250  36.305  29.801  1.00  0.00    -0.269 OA
BRANCH  33  36
ATOM     36  C   UNL A   1      48.256  35.256  29.141  1.00  0.00     0.039 A 
ATOM     37  C   UNL A   1      47.916  34.929  27.828  1.00  0.00     0.014 A 
ATOM     38  C   UNL A   1      47.877  34.428  30.201  1.00  0.00     0.014 A 
ATOM     39  C   UNL A   1      47.272  33.716  27.570  1.00  0.00     0.010 A 
ATOM     40  C   UNL A   1      47.314  33.185  29.932  1.00  0.00     0.010 A 
ATOM     41  C   UNL A   1      47.010  32.813  28.613  1.00  0.00    -0.014 A 
BRANCH  41  42
ATOM     42  C   UNL A   1      46.430  31.472  28.349  1.00  0.00     0.031 A 
ATOM     43  C   UNL A   1      47.297  30.369  27.804  1.00  0.00     0.074 A 
ATOM     44  C   UNL A   1      45.108  31.267  28.525  1.00  0.00     0.049 A 
ATOM     45  N   UNL A   1      46.962  29.153  27.453  1.00  0.00    -0.248 NA
ATOM     46  C   UNL A   1      48.720  30.683  27.595  1.00  0.00     0.031 C 
ATOM     47  C   UNL A   1      44.145  32.271  28.987  1.00  0.00     0.029 A 
ATOM     48  N   UNL A   1      44.344  30.142  28.330  1.00  0.00    -0.354 N 
ATOM     49  C   UNL A   1      48.123  28.570  26.961  1.00  0.00     0.074 A 
ATOM     50  C   UNL A   1      49.158  29.579  27.008  1.00  0.00     0.031 C 
ATOM     51  C   UNL A   1      42.928  31.708  29.072  1.00  0.00     0.029 A 
ATOM     52  C   UNL A   1      43.015  30.316  28.641  1.00  0.00     0.049 A 
ATOM     53  H   UNL A   1      44.712  29.292  27.999  1.00  0.00     0.167 HD
ATOM     54  C   UNL A   1      48.321  27.301  26.531  1.00  0.00     0.031 A 
ATOM     55  C   UNL A   1      41.982  29.452  28.589  1.00  0.00     0.031 A 
ATOM     56  C   UNL A   1      47.299  26.289  26.511  1.00  0.00     0.049 A 
ATOM     57  C   UNL A   1      42.233  28.036  28.147  1.00  0.00     0.074 A 
ATOM     58  C   UNL A   1      47.412  24.957  26.152  1.00  0.00     0.029 A 
ATOM     59  N   UNL A   1      45.977  26.494  26.875  1.00  0.00    -0.354 N 
ATOM     60  N   UNL A   1      43.355  27.485  27.745  1.00  0.00    -0.248 NA
ATOM     61  C   UNL A   1      41.084  27.121  28.166  1.00  0.00     0.031 C 
ATOM     62  C   UNL A   1      46.150  24.365  26.267  1.00  0.00     0.029 A 
ATOM     63  C   UNL A   1      45.262  25.317  26.743  1.00  0.00     0.049 A 
ATOM     64  H   UNL A   1      45.603  27.352  27.182  1.00  0.00     0.167 HD
ATOM     65  C   UNL A   1      43.051  26.151  27.496  1.00  0.00     0.074 A 
ATOM     66  C   UNL A   1      41.646  25.977  27.800  1.00  0.00     0.031 C 
ATOM     67  C   UNL A   1      43.865  25.160  27.057  1.00  0.00     0.031 A 
BRANCH  54  68
ATOM     68  C   UNL A   1      49.702  26.941  26.053  1.00  0.00    -0.014 A 
ATOM     69  C   UNL A   1      50.071  27.118  24.706  1.00  0.00     0.010 A 
ATOM     70  C   UNL A   1      50.649  26.438  26.962  1.00  0.00     0.010 A 
ATOM     71  C   UNL A   1      51.346  26.753  24.268  1.00  0.00     0.020 A 
ATOM     72  C   UNL A   1      51.936  26.098  26.533  1.00  0.00     0.020 A 
ATOM     73  C   UNL A   1      52.268  26.239  25.183  1.00  0.00     0.054 A 
BRANCH  73  74
ATOM     74  S   UNL A   1      53.921  25.782  24.590  1.00  0.00     0.124 S 
ATOM     75  O   UNL A   1      54.781  26.380  25.608  1.00  0.00    -0.237 OA
ATOM     76  O   UNL A   1      53.871  24.322  24.589  1.00  0.00    -0.237 OA
ATOM     77  O   UNL A   1      53.997  26.400  23.269  1.00  0.00    -0.744 OA
ENDBRANCH  73  74
ENDBRANCH  54  68
BRANCH  55  78
ATOM     78  C   UNL A   1      40.624  29.889  29.009  1.00  0.00    -0.014 A 
ATOM     79  C   UNL A   1      40.395  30.330  30.325  1.00  0.00     0.010 A 
ATOM     80  C   UNL A   1      39.555  29.880  28.095  1.00  0.00     0.010 A 
ATOM     81  C   UNL A   1      39.119  30.737  30.725  1.00  0.00     0.020 A 
ATOM     82  C   UNL A   1      38.282  30.309  28.486  1.00  0.00     0.020 A 
ATOM     83  C   UNL A   1      38.070  30.723  29.802  1.00  0.00     0.054 A 
BRANCH  83  84
ATOM     84  S   UNL A   1      36.433  31.305  30.328  1.00  0.00     0.124 S 
ATOM     85  O   UNL A   1      36.580  32.754  30.229  1.00  0.00    -0.237 OA
ATOM     86  O   UNL A   1      35.546  30.691  29.343  1.00  0.00    -0.237 OA
ATOM     87  O   UNL A   1      36.305  30.778  31.685  1.00  0.00    -0.744 OA
ENDBRANCH  83  84
ENDBRANCH  55  78
BRANCH  67  88
ATOM     88  C   UNL A   1      43.269  23.786  26.921  1.00  0.00    -0.014 A 
ATOM     89  C   UNL A   1      42.674  23.363  25.719  1.00  0.00     0.010 A 
ATOM     90  C   UNL A   1      43.351  22.888  28.000  1.00  0.00     0.010 A 
ATOM     91  C   UNL A   1      42.141  22.076  25.611  1.00  0.00     0.020 A 
ATOM     92  C   UNL A   1      42.842  21.591  27.888  1.00  0.00     0.020 A 
ATOM     93  C   UNL A   1      42.226  21.199  26.697  1.00  0.00     0.054 A 
BRANCH  93  94
ATOM     94  S   UNL A   1      41.564  19.520  26.521  1.00  0.00     0.124 S 
ATOM     95  O   UNL A   1      42.425  18.962  25.483  1.00  0.00    -0.237 OA
ATOM     96  O   UNL A   1      41.745  18.959  27.858  1.00  0.00    -0.237 OA
ATOM     97  O   UNL A   1      40.173  19.738  26.128  1.00  0.00    -0.744 OA
ENDBRANCH  93  94
ENDBRANCH  67  88
ENDBRANCH  41  42
ENDBRANCH  33  36
ENDBRANCH  31  32
ENDBRANCH  30  31
ENDBRANCH  29  30
ENDBRANCH   1  29
TORSDOF 19
ENDMDL
