MODEL 1
REMARK VINA RESULT:     -13.9      0.000      0.000
REMARK SMILES Cc1ccc(NC(=O)c2ccccc2NC(=O)[C@H]2CCCC[C@H]2C(=O)NCCCCNC(=O)c2ccc(-c3c4nc(c(-c5ccc(S(=O)(=O)[O-])cc5)c5ccc([nH]5)c(-c5ccc(S(=O)(=O)[O-])cc5)c5nc(c(-c6ccc(S(=O)(=O)[O-])cc6)c6ccc3[nH]6)C=C5)C=C4)cc2)cc1
REMARK SMILES IDX 28 1 27 2 26 3 24 4 25 5 23 7 18 8 19 9 20 10 22 11 21 12
REMARK SMILES IDX 16 13 15 14 17 16 14 17 9 18 10 19 11 20 13 21 12 22 7 23
REMARK SMILES IDX 6 24 8 26 5 27 1 28 2 29 3 30 95 31 4 32 94 33 29 34 30 35
REMARK SMILES IDX 31 36 32 37 33 39 34 40 35 41 93 42 36 43 92 44 37 45 38 46
REMARK SMILES IDX 39 47 86 48 40 49 91 50 85 51 87 52 41 53 90 54 84 55 83 56
REMARK SMILES IDX 42 58 72 59 53 60 71 61 54 62 57 63 70 64 88 65 55 66 56 67
REMARK SMILES IDX 69 69 89 70 58 71 43 72 44 73 52 74 45 75 51 76 46 77 47 78
REMARK SMILES IDX 48 79 49 80 50 81 73 82 74 83 82 84 75 85 81 86 76 87 77 88
REMARK SMILES IDX 78 89 79 90 80 91 59 92 60 93 68 94 61 95 67 96 62 97 63 98
REMARK SMILES IDX 64 99 65 100 66 101
REMARK H PARENT 26 6 15 15 6 25 31 38 87 57 57 68
REMARK Flexibility Score: inf
ROOT
ATOM      1  C   UNL A   1      37.076  21.796  24.565  1.00  0.00     0.023 C 
ENDROOT
BRANCH   1   2
ATOM      2  C   UNL A   1      35.741  21.208  25.035  1.00  0.00     0.116 C 
BRANCH   2   3
ATOM      3  N   UNL A   1      35.346  21.770  26.321  1.00  0.00    -0.356 N 
ATOM      4  C   UNL A   1      34.303  22.528  26.734  1.00  0.00     0.223 C 
ATOM      5  O   UNL A   1      34.377  22.965  27.892  1.00  0.00    -0.275 OA
ATOM      6  H   UNL A   1      35.974  21.550  27.047  1.00  0.00     0.163 HD
BRANCH   4   7
ATOM      7  C   UNL A   1      33.087  22.925  25.892  1.00  0.00     0.091 C 
ATOM      8  C   UNL A   1      32.832  24.447  25.852  1.00  0.00     0.091 C 
ATOM      9  C   UNL A   1      31.472  24.759  25.195  1.00  0.00     0.014 C 
ATOM     10  C   UNL A   1      31.236  24.007  23.878  1.00  0.00     0.001 C 
ATOM     11  C   UNL A   1      32.851  22.183  24.576  1.00  0.00     0.014 C 
ATOM     12  C   UNL A   1      31.464  22.504  24.015  1.00  0.00     0.001 C 
BRANCH   8  13
ATOM     13  C   UNL A   1      33.894  25.198  25.088  1.00  0.00     0.228 C 
ATOM     14  N   UNL A   1      34.091  26.538  25.151  1.00  0.00    -0.325 N 
ATOM     15  H   UNL A   1      34.934  26.781  24.705  1.00  0.00     0.169 HD
ATOM     16  O   UNL A   1      34.686  24.572  24.375  1.00  0.00    -0.274 OA
BRANCH  14  17
ATOM     17  C   UNL A   1      33.459  27.682  25.660  1.00  0.00     0.054 A 
ATOM     18  C   UNL A   1      33.006  28.705  24.781  1.00  0.00     0.063 A 
ATOM     19  C   UNL A   1      32.443  29.879  25.333  1.00  0.00     0.016 A 
ATOM     20  C   UNL A   1      32.293  30.041  26.707  1.00  0.00     0.001 A 
ATOM     21  C   UNL A   1      33.230  27.840  27.033  1.00  0.00     0.027 A 
ATOM     22  C   UNL A   1      32.675  29.015  27.554  1.00  0.00     0.002 A 
BRANCH  18  23
ATOM     23  C   UNL A   1      33.219  28.813  23.300  1.00  0.00     0.257 C 
ATOM     24  N   UNL A   1      32.269  28.704  22.315  1.00  0.00    -0.322 N 
ATOM     25  H   UNL A   1      32.662  28.659  21.413  1.00  0.00     0.170 HD
ATOM     26  O   UNL A   1      34.386  28.972  22.918  1.00  0.00    -0.269 OA
BRANCH  24  27
ATOM     27  C   UNL A   1      30.871  28.642  22.295  1.00  0.00     0.041 A 
ATOM     28  C   UNL A   1      26.769  28.713  23.517  1.00  0.00     0.044 C 
ATOM     29  C   UNL A   1      28.155  28.619  22.956  1.00  0.00    -0.051 A 
ATOM     30  C   UNL A   1      28.699  29.683  22.224  1.00  0.00     0.005 A 
ATOM     31  C   UNL A   1      28.952  27.505  23.231  1.00  0.00     0.005 A 
ATOM     32  C   UNL A   1      30.053  29.688  21.876  1.00  0.00     0.026 A 
ATOM     33  C   UNL A   1      30.300  27.507  22.880  1.00  0.00     0.026 A 
ENDBRANCH  24  27
ENDBRANCH  18  23
ENDBRANCH  14  17
ENDBRANCH   8  13
ENDBRANCH   4   7
ENDBRANCH   2   3
ENDBRANCH   1   2
BRANCH   1  34
ATOM     34  C   UNL A   1      38.276  21.599  25.472  1.00  0.00     0.023 C 
BRANCH  34  35
ATOM     35  C   UNL A   1      38.733  22.881  26.132  1.00  0.00     0.116 C 
BRANCH  35  36
ATOM     36  N   UNL A   1      40.022  22.807  26.811  1.00  0.00    -0.352 N 
ATOM     37  C   UNL A   1      40.744  23.864  27.355  1.00  0.00     0.251 C 
ATOM     38  H   UNL A   1      40.425  21.912  26.892  1.00  0.00     0.163 HD
ATOM     39  O   UNL A   1      41.885  23.723  27.762  1.00  0.00    -0.269 OA
BRANCH  37  40
ATOM     40  C   UNL A   1      40.034  25.160  27.486  1.00  0.00     0.039 A 
ATOM     41  C   UNL A   1      40.477  26.227  26.702  1.00  0.00     0.014 A 
ATOM     42  C   UNL A   1      39.254  25.379  28.614  1.00  0.00     0.014 A 
ATOM     43  C   UNL A   1      40.333  27.528  27.184  1.00  0.00     0.010 A 
ATOM     44  C   UNL A   1      39.274  26.644  29.170  1.00  0.00     0.010 A 
ATOM     45  C   UNL A   1      39.847  27.723  28.478  1.00  0.00    -0.014 A 
BRANCH  45  46
ATOM     46  C   UNL A   1      39.978  28.977  29.225  1.00  0.00     0.031 A 
ATOM     47  C   UNL A   1      38.952  30.047  29.068  1.00  0.00     0.074 A 
ATOM     48  C   UNL A   1      40.979  29.169  30.119  1.00  0.00     0.049 A 
ATOM     49  N   UNL A   1      39.145  31.296  29.348  1.00  0.00    -0.248 NA
ATOM     50  C   UNL A   1      37.627  29.798  28.509  1.00  0.00     0.031 C 
ATOM     51  C   UNL A   1      41.034  30.213  31.144  1.00  0.00     0.029 A 
ATOM     52  N   UNL A   1      42.253  28.599  30.169  1.00  0.00    -0.354 N 
ATOM     53  C   UNL A   1      37.923  31.932  29.301  1.00  0.00     0.074 A 
ATOM     54  C   UNL A   1      37.031  30.977  28.695  1.00  0.00     0.031 C 
ATOM     55  C   UNL A   1      42.315  30.424  31.478  1.00  0.00     0.029 A 
ATOM     56  C   UNL A   1      43.131  29.610  30.596  1.00  0.00     0.049 A 
ATOM     57  H   UNL A   1      42.491  27.670  29.947  1.00  0.00     0.167 HD
ATOM     58  C   UNL A   1      37.765  33.147  29.898  1.00  0.00     0.031 A 
ATOM     59  C   UNL A   1      44.224  30.046  29.903  1.00  0.00     0.031 A 
ATOM     60  C   UNL A   1      39.036  33.686  30.379  1.00  0.00     0.049 A 
ATOM     61  C   UNL A   1      44.195  31.531  29.611  1.00  0.00     0.074 A 
ATOM     62  C   UNL A   1      39.615  33.776  31.634  1.00  0.00     0.029 A 
ATOM     63  N   UNL A   1      40.028  34.005  29.461  1.00  0.00    -0.354 N 
ATOM     64  N   UNL A   1      43.157  32.291  29.817  1.00  0.00    -0.248 NA
ATOM     65  C   UNL A   1      45.302  32.266  28.998  1.00  0.00     0.031 C 
ATOM     66  C   UNL A   1      40.990  34.084  31.458  1.00  0.00     0.029 A 
ATOM     67  C   UNL A   1      41.235  34.204  30.101  1.00  0.00     0.049 A 
ATOM     68  H   UNL A   1      39.889  34.079  28.489  1.00  0.00     0.167 HD
ATOM     69  C   UNL A   1      43.398  33.547  29.330  1.00  0.00     0.074 A 
ATOM     70  C   UNL A   1      44.768  33.493  28.858  1.00  0.00     0.031 C 
ATOM     71  C   UNL A   1      42.431  34.513  29.329  1.00  0.00     0.031 A 
BRANCH  58  72
ATOM     72  C   UNL A   1      36.419  33.736  30.285  1.00  0.00    -0.014 A 
ATOM     73  C   UNL A   1      35.566  34.240  29.281  1.00  0.00     0.010 A 
ATOM     74  C   UNL A   1      35.962  33.894  31.607  1.00  0.00     0.010 A 
ATOM     75  C   UNL A   1      34.388  34.947  29.581  1.00  0.00     0.020 A 
ATOM     76  C   UNL A   1      34.806  34.621  31.927  1.00  0.00     0.020 A 
ATOM     77  C   UNL A   1      34.032  35.159  30.909  1.00  0.00     0.054 A 
BRANCH  77  78
ATOM     78  S   UNL A   1      32.563  36.146  31.293  1.00  0.00     0.124 S 
ATOM     79  O   UNL A   1      33.141  37.410  31.741  1.00  0.00    -0.237 OA
ATOM     80  O   UNL A   1      31.867  36.188  30.010  1.00  0.00    -0.237 OA
ATOM     81  O   UNL A   1      31.890  35.375  32.338  1.00  0.00    -0.744 OA
ENDBRANCH  77  78
ENDBRANCH  58  72
BRANCH  59  82
ATOM     82  C   UNL A   1      44.852  29.017  29.034  1.00  0.00    -0.014 A 
ATOM     83  C   UNL A   1      44.269  28.809  27.768  1.00  0.00     0.010 A 
ATOM     84  C   UNL A   1      46.186  28.626  29.249  1.00  0.00     0.010 A 
ATOM     85  C   UNL A   1      45.056  28.413  26.686  1.00  0.00     0.020 A 
ATOM     86  C   UNL A   1      46.974  28.223  28.163  1.00  0.00     0.020 A 
ATOM     87  C   UNL A   1      46.420  28.197  26.881  1.00  0.00     0.054 A 
BRANCH  87  88
ATOM     88  S   UNL A   1      47.481  28.109  25.408  1.00  0.00     0.124 S 
ATOM     89  O   UNL A   1      46.686  28.807  24.402  1.00  0.00    -0.237 OA
ATOM     90  O   UNL A   1      48.677  28.816  25.865  1.00  0.00    -0.237 OA
ATOM     91  O   UNL A   1      47.645  26.673  25.200  1.00  0.00    -0.744 OA
ENDBRANCH  87  88
ENDBRANCH  59  82
BRANCH  71  92
ATOM     92  C   UNL A   1      42.523  35.859  28.652  1.00  0.00    -0.014 A 
ATOM     93  C   UNL A   1      41.921  36.167  27.421  1.00  0.00     0.010 A 
ATOM     94  C   UNL A   1      43.145  36.924  29.347  1.00  0.00     0.010 A 
ATOM     95  C   UNL A   1      41.991  37.461  26.881  1.00  0.00     0.020 A 
ATOM     96  C   UNL A   1      43.185  38.225  28.837  1.00  0.00     0.020 A 
ATOM     97  C   UNL A   1      42.627  38.481  27.590  1.00  0.00     0.054 A 
BRANCH  97  98
ATOM     98  S   UNL A   1      42.665  40.163  26.918  1.00  0.00     0.124 S 
ATOM     99  O   UNL A   1      41.270  40.365  26.536  1.00  0.00    -0.237 OA
ATOM    100  O   UNL A   1      43.124  40.962  28.051  1.00  0.00    -0.237 OA
ATOM    101  O   UNL A   1      43.613  40.064  25.811  1.00  0.00    -0.744 OA
ENDBRANCH  97  98
ENDBRANCH  71  92
ENDBRANCH  45  46
ENDBRANCH  37  40
ENDBRANCH  35  36
ENDBRANCH  34  35
ENDBRANCH   1  34
TORSDOF 18
ENDMDL
MODEL 2
REMARK VINA RESULT:     -13.1      1.179      2.467
REMARK SMILES Cc1ccc(NC(=O)c2ccccc2NC(=O)[C@H]2CCCC[C@H]2C(=O)NCCCCNC(=O)c2ccc(-c3c4nc(c(-c5ccc(S(=O)(=O)[O-])cc5)c5ccc([nH]5)c(-c5ccc(S(=O)(=O)[O-])cc5)c5nc(c(-c6ccc(S(=O)(=O)[O-])cc6)c6ccc3[nH]6)C=C5)C=C4)cc2)cc1
REMARK SMILES IDX 28 1 27 2 26 3 24 4 25 5 23 7 18 8 19 9 20 10 22 11 21 12
REMARK SMILES IDX 16 13 15 14 17 16 14 17 9 18 10 19 11 20 13 21 12 22 7 23
REMARK SMILES IDX 6 24 8 26 5 27 1 28 2 29 3 30 95 31 4 32 94 33 29 34 30 35
REMARK SMILES IDX 31 36 32 37 33 39 34 40 35 41 93 42 36 43 92 44 37 45 38 46
REMARK SMILES IDX 39 47 86 48 40 49 91 50 85 51 87 52 41 53 90 54 84 55 83 56
REMARK SMILES IDX 42 58 72 59 53 60 71 61 54 62 57 63 70 64 88 65 55 66 56 67
REMARK SMILES IDX 69 69 89 70 58 71 43 72 44 73 52 74 45 75 51 76 46 77 47 78
REMARK SMILES IDX 48 79 49 80 50 81 73 82 74 83 82 84 75 85 81 86 76 87 77 88
REMARK SMILES IDX 78 89 79 90 80 91 59 92 60 93 68 94 61 95 67 96 62 97 63 98
REMARK SMILES IDX 64 99 65 100 66 101
REMARK H PARENT 26 6 15 15 6 25 31 38 87 57 57 68
REMARK Flexibility Score: inf
ROOT
ATOM      1  C   UNL A   1      36.287  22.083  26.219  1.00  0.00     0.023 C 
ENDROOT
BRANCH   1   2
ATOM      2  C   UNL A   1      35.975  21.477  24.846  1.00  0.00     0.116 C 
BRANCH   2   3
ATOM      3  N   UNL A   1      35.331  22.456  23.977  1.00  0.00    -0.356 N 
ATOM      4  C   UNL A   1      34.212  23.210  24.080  1.00  0.00     0.223 C 
ATOM      5  O   UNL A   1      33.877  23.824  23.056  1.00  0.00    -0.275 OA
ATOM      6  H   UNL A   1      35.815  22.598  23.131  1.00  0.00     0.163 HD
BRANCH   4   7
ATOM      7  C   UNL A   1      33.314  23.328  25.316  1.00  0.00     0.091 C 
ATOM      8  C   UNL A   1      32.098  24.256  25.111  1.00  0.00     0.091 C 
ATOM      9  C   UNL A   1      31.376  24.519  26.448  1.00  0.00     0.014 C 
ATOM     10  C   UNL A   1      31.118  23.248  27.271  1.00  0.00     0.001 C 
ATOM     11  C   UNL A   1      33.049  22.064  26.135  1.00  0.00     0.014 C 
ATOM     12  C   UNL A   1      32.380  22.413  27.466  1.00  0.00     0.001 C 
BRANCH   8  13
ATOM     13  C   UNL A   1      31.086  23.687  24.147  1.00  0.00     0.228 C 
ATOM     14  N   UNL A   1      30.257  24.427  23.370  1.00  0.00    -0.325 N 
ATOM     15  H   UNL A   1      29.807  23.854  22.708  1.00  0.00     0.169 HD
ATOM     16  O   UNL A   1      31.009  22.463  23.999  1.00  0.00    -0.274 OA
BRANCH  14  17
ATOM     17  C   UNL A   1      29.847  25.761  23.223  1.00  0.00     0.054 A 
ATOM     18  C   UNL A   1      30.663  26.692  22.523  1.00  0.00     0.063 A 
ATOM     19  C   UNL A   1      30.255  28.045  22.462  1.00  0.00     0.016 A 
ATOM     20  C   UNL A   1      29.065  28.476  23.038  1.00  0.00     0.001 A 
ATOM     21  C   UNL A   1      28.619  26.207  23.731  1.00  0.00     0.027 A 
ATOM     22  C   UNL A   1      28.242  27.553  23.660  1.00  0.00     0.002 A 
BRANCH  18  23
ATOM     23  C   UNL A   1      32.047  26.485  21.983  1.00  0.00     0.257 C 
ATOM     24  N   UNL A   1      33.222  26.967  22.505  1.00  0.00    -0.322 N 
ATOM     25  H   UNL A   1      33.988  26.831  21.901  1.00  0.00     0.170 HD
ATOM     26  O   UNL A   1      32.139  25.849  20.925  1.00  0.00    -0.269 OA
BRANCH  24  27
ATOM     27  C   UNL A   1      33.585  27.605  23.696  1.00  0.00     0.041 A 
ATOM     28  C   UNL A   1      33.381  29.553  27.503  1.00  0.00     0.044 C 
ATOM     29  C   UNL A   1      33.601  28.922  26.162  1.00  0.00    -0.051 A 
ATOM     30  C   UNL A   1      34.028  27.591  26.065  1.00  0.00     0.005 A 
ATOM     31  C   UNL A   1      33.301  29.627  24.993  1.00  0.00     0.005 A 
ATOM     32  C   UNL A   1      34.038  26.936  24.829  1.00  0.00     0.026 A 
ATOM     33  C   UNL A   1      33.315  28.977  23.762  1.00  0.00     0.026 A 
ENDBRANCH  24  27
ENDBRANCH  18  23
ENDBRANCH  14  17
ENDBRANCH   8  13
ENDBRANCH   4   7
ENDBRANCH   2   3
ENDBRANCH   1   2
BRANCH   1  34
ATOM     34  C   UNL A   1      37.130  23.344  26.243  1.00  0.00     0.023 C 
BRANCH  34  35
ATOM     35  C   UNL A   1      38.481  23.164  25.587  1.00  0.00     0.116 C 
BRANCH  35  36
ATOM     36  N   UNL A   1      39.582  22.871  26.497  1.00  0.00    -0.352 N 
ATOM     37  C   UNL A   1      40.252  23.772  27.319  1.00  0.00     0.251 C 
ATOM     38  H   UNL A   1      39.884  21.935  26.535  1.00  0.00     0.163 HD
ATOM     39  O   UNL A   1      41.262  23.462  27.927  1.00  0.00    -0.269 OA
BRANCH  37  40
ATOM     40  C   UNL A   1      39.637  25.112  27.479  1.00  0.00     0.039 A 
ATOM     41  C   UNL A   1      40.132  26.154  26.692  1.00  0.00     0.014 A 
ATOM     42  C   UNL A   1      38.905  25.374  28.630  1.00  0.00     0.014 A 
ATOM     43  C   UNL A   1      40.092  27.457  27.189  1.00  0.00     0.010 A 
ATOM     44  C   UNL A   1      39.028  26.628  29.195  1.00  0.00     0.010 A 
ATOM     45  C   UNL A   1      39.655  27.673  28.497  1.00  0.00    -0.014 A 
BRANCH  45  46
ATOM     46  C   UNL A   1      39.893  28.907  29.250  1.00  0.00     0.031 A 
ATOM     47  C   UNL A   1      38.884  30.004  29.219  1.00  0.00     0.074 A 
ATOM     48  C   UNL A   1      40.984  29.057  30.041  1.00  0.00     0.049 A 
ATOM     49  N   UNL A   1      39.136  31.241  29.501  1.00  0.00    -0.248 NA
ATOM     50  C   UNL A   1      37.503  29.797  28.792  1.00  0.00     0.031 C 
ATOM     51  C   UNL A   1      41.169  30.077  31.075  1.00  0.00     0.029 A 
ATOM     52  N   UNL A   1      42.241  28.457  29.950  1.00  0.00    -0.354 N 
ATOM     53  C   UNL A   1      37.932  31.906  29.591  1.00  0.00     0.074 A 
ATOM     54  C   UNL A   1      36.959  30.986  29.060  1.00  0.00     0.031 C 
ATOM     55  C   UNL A   1      42.482  30.251  31.280  1.00  0.00     0.029 A 
ATOM     56  C   UNL A   1      43.184  29.437  30.305  1.00  0.00     0.049 A 
ATOM     57  H   UNL A   1      42.432  27.527  29.688  1.00  0.00     0.167 HD
ATOM     58  C   UNL A   1      37.865  33.112  30.223  1.00  0.00     0.031 A 
ATOM     59  C   UNL A   1      44.211  29.862  29.512  1.00  0.00     0.031 A 
ATOM     60  C   UNL A   1      39.192  33.611  30.582  1.00  0.00     0.049 A 
ATOM     61  C   UNL A   1      44.191  31.354  29.253  1.00  0.00     0.074 A 
ATOM     62  C   UNL A   1      39.898  33.661  31.773  1.00  0.00     0.029 A 
ATOM     63  N   UNL A   1      40.094  33.927  29.574  1.00  0.00    -0.354 N 
ATOM     64  N   UNL A   1      43.198  32.133  29.578  1.00  0.00    -0.248 NA
ATOM     65  C   UNL A   1      45.248  32.075  28.544  1.00  0.00     0.031 C 
ATOM     66  C   UNL A   1      41.255  33.940  31.464  1.00  0.00     0.029 A 
ATOM     67  C   UNL A   1      41.364  34.083  30.091  1.00  0.00     0.049 A 
ATOM     68  H   UNL A   1      39.859  34.024  28.623  1.00  0.00     0.167 HD
ATOM     69  C   UNL A   1      43.420  33.393  29.092  1.00  0.00     0.074 A 
ATOM     70  C   UNL A   1      44.733  33.317  28.482  1.00  0.00     0.031 C 
ATOM     71  C   UNL A   1      42.483  34.381  29.207  1.00  0.00     0.031 A 
BRANCH  58  72
ATOM     72  C   UNL A   1      36.581  33.724  30.756  1.00  0.00    -0.014 A 
ATOM     73  C   UNL A   1      35.517  33.989  29.869  1.00  0.00     0.010 A 
ATOM     74  C   UNL A   1      36.377  34.128  32.088  1.00  0.00     0.010 A 
ATOM     75  C   UNL A   1      34.372  34.704  30.262  1.00  0.00     0.020 A 
ATOM     76  C   UNL A   1      35.256  34.868  32.492  1.00  0.00     0.020 A 
ATOM     77  C   UNL A   1      34.264  35.167  31.570  1.00  0.00     0.054 A 
BRANCH  77  78
ATOM     78  S   UNL A   1      32.830  36.164  32.049  1.00  0.00     0.124 S 
ATOM     79  O   UNL A   1      33.358  36.965  33.150  1.00  0.00    -0.237 OA
ATOM     80  O   UNL A   1      32.530  36.895  30.822  1.00  0.00    -0.237 OA
ATOM     81  O   UNL A   1      31.831  35.169  32.438  1.00  0.00    -0.744 OA
ENDBRANCH  77  78
ENDBRANCH  58  72
BRANCH  59  82
ATOM     82  C   UNL A   1      44.722  28.837  28.565  1.00  0.00    -0.014 A 
ATOM     83  C   UNL A   1      44.083  28.752  27.312  1.00  0.00     0.010 A 
ATOM     84  C   UNL A   1      46.024  28.327  28.708  1.00  0.00     0.010 A 
ATOM     85  C   UNL A   1      44.797  28.357  26.181  1.00  0.00     0.020 A 
ATOM     86  C   UNL A   1      46.740  27.924  27.572  1.00  0.00     0.020 A 
ATOM     87  C   UNL A   1      46.144  28.019  26.312  1.00  0.00     0.054 A 
BRANCH  87  88
ATOM     88  S   UNL A   1      47.145  27.931  24.798  1.00  0.00     0.124 S 
ATOM     89  O   UNL A   1      46.645  29.060  24.020  1.00  0.00    -0.237 OA
ATOM     90  O   UNL A   1      48.498  28.084  25.330  1.00  0.00    -0.237 OA
ATOM     91  O   UNL A   1      46.829  26.608  24.266  1.00  0.00    -0.744 OA
ENDBRANCH  87  88
ENDBRANCH  59  82
BRANCH  71  92
ATOM     92  C   UNL A   1      42.540  35.738  28.550  1.00  0.00    -0.014 A 
ATOM     93  C   UNL A   1      42.165  35.989  27.220  1.00  0.00     0.010 A 
ATOM     94  C   UNL A   1      42.870  36.862  29.346  1.00  0.00     0.010 A 
ATOM     95  C   UNL A   1      42.180  37.289  26.693  1.00  0.00     0.020 A 
ATOM     96  C   UNL A   1      42.848  38.166  28.842  1.00  0.00     0.020 A 
ATOM     97  C   UNL A   1      42.526  38.369  27.506  1.00  0.00     0.054 A 
BRANCH  97  98
ATOM     98  S   UNL A   1      42.487  40.053  26.839  1.00  0.00     0.124 S 
ATOM     99  O   UNL A   1      43.600  40.027  25.894  1.00  0.00    -0.237 OA
ATOM    100  O   UNL A   1      41.159  40.141  26.237  1.00  0.00    -0.237 OA
ATOM    101  O   UNL A   1      42.683  40.890  28.020  1.00  0.00    -0.744 OA
ENDBRANCH  97  98
ENDBRANCH  71  92
ENDBRANCH  45  46
ENDBRANCH  37  40
ENDBRANCH  35  36
ENDBRANCH  34  35
ENDBRANCH   1  34
TORSDOF 18
ENDMDL
MODEL 3
REMARK VINA RESULT:     -12.5      1.782      2.447
REMARK SMILES Cc1ccc(NC(=O)c2ccccc2NC(=O)[C@H]2CCCC[C@H]2C(=O)NCCCCNC(=O)c2ccc(-c3c4nc(c(-c5ccc(S(=O)(=O)[O-])cc5)c5ccc([nH]5)c(-c5ccc(S(=O)(=O)[O-])cc5)c5nc(c(-c6ccc(S(=O)(=O)[O-])cc6)c6ccc3[nH]6)C=C5)C=C4)cc2)cc1
REMARK SMILES IDX 28 1 27 2 26 3 24 4 25 5 23 7 18 8 19 9 20 10 22 11 21 12
REMARK SMILES IDX 16 13 15 14 17 16 14 17 9 18 10 19 11 20 13 21 12 22 7 23
REMARK SMILES IDX 6 24 8 26 5 27 1 28 2 29 3 30 95 31 4 32 94 33 29 34 30 35
REMARK SMILES IDX 31 36 32 37 33 39 34 40 35 41 93 42 36 43 92 44 37 45 38 46
REMARK SMILES IDX 39 47 86 48 40 49 91 50 85 51 87 52 41 53 90 54 84 55 83 56
REMARK SMILES IDX 42 58 72 59 53 60 71 61 54 62 57 63 70 64 88 65 55 66 56 67
REMARK SMILES IDX 69 69 89 70 58 71 43 72 44 73 52 74 45 75 51 76 46 77 47 78
REMARK SMILES IDX 48 79 49 80 50 81 73 82 74 83 82 84 75 85 81 86 76 87 77 88
REMARK SMILES IDX 78 89 79 90 80 91 59 92 60 93 68 94 61 95 67 96 62 97 63 98
REMARK SMILES IDX 64 99 65 100 66 101
REMARK H PARENT 26 6 15 15 6 25 31 38 87 57 57 68
REMARK Flexibility Score: inf
ROOT
ATOM      1  C   UNL A   1      39.029  22.462  26.085  1.00  0.00     0.023 C 
ENDROOT
BRANCH   1   2
ATOM      2  C   UNL A   1      37.674  21.852  25.711  1.00  0.00     0.116 C 
BRANCH   2   3
ATOM      3  N   UNL A   1      37.145  22.458  24.494  1.00  0.00    -0.356 N 
ATOM      4  C   UNL A   1      35.907  22.559  23.957  1.00  0.00     0.223 C 
ATOM      5  O   UNL A   1      35.853  23.011  22.804  1.00  0.00    -0.275 OA
ATOM      6  H   UNL A   1      37.840  22.886  23.944  1.00  0.00     0.163 HD
BRANCH   4   7
ATOM      7  C   UNL A   1      34.597  22.123  24.622  1.00  0.00     0.091 C 
ATOM      8  C   UNL A   1      33.780  23.294  25.205  1.00  0.00     0.091 C 
ATOM      9  C   UNL A   1      32.607  22.774  26.060  1.00  0.00     0.014 C 
ATOM     10  C   UNL A   1      31.793  21.664  25.381  1.00  0.00     0.001 C 
ATOM     11  C   UNL A   1      33.780  21.022  23.945  1.00  0.00     0.014 C 
ATOM     12  C   UNL A   1      32.672  20.523  24.875  1.00  0.00     0.001 C 
BRANCH   8  13
ATOM     13  C   UNL A   1      33.207  24.196  24.139  1.00  0.00     0.228 C 
ATOM     14  N   UNL A   1      32.860  25.493  24.326  1.00  0.00    -0.325 N 
ATOM     15  H   UNL A   1      32.668  25.924  23.462  1.00  0.00     0.169 HD
ATOM     16  O   UNL A   1      33.068  23.764  22.989  1.00  0.00    -0.274 OA
BRANCH  14  17
ATOM     17  C   UNL A   1      32.693  26.407  25.377  1.00  0.00     0.054 A 
ATOM     18  C   UNL A   1      31.461  26.470  26.087  1.00  0.00     0.063 A 
ATOM     19  C   UNL A   1      31.301  27.456  27.088  1.00  0.00     0.016 A 
ATOM     20  C   UNL A   1      32.325  28.338  27.416  1.00  0.00     0.001 A 
ATOM     21  C   UNL A   1      33.731  27.259  25.776  1.00  0.00     0.027 A 
ATOM     22  C   UNL A   1      33.544  28.229  26.767  1.00  0.00     0.002 A 
BRANCH  18  23
ATOM     23  C   UNL A   1      30.184  25.743  25.788  1.00  0.00     0.257 C 
ATOM     24  N   UNL A   1      29.225  26.094  24.871  1.00  0.00    -0.322 N 
ATOM     25  H   UNL A   1      28.406  25.553  24.954  1.00  0.00     0.170 HD
ATOM     26  O   UNL A   1      29.943  24.740  26.474  1.00  0.00    -0.269 OA
BRANCH  24  27
ATOM     27  C   UNL A   1      29.139  27.042  23.845  1.00  0.00     0.041 A 
ATOM     28  C   UNL A   1      28.717  30.748  21.745  1.00  0.00     0.044 C 
ATOM     29  C   UNL A   1      28.841  29.379  22.341  1.00  0.00    -0.051 A 
ATOM     30  C   UNL A   1      30.097  28.769  22.464  1.00  0.00     0.005 A 
ATOM     31  C   UNL A   1      27.717  28.733  22.861  1.00  0.00     0.005 A 
ATOM     32  C   UNL A   1      30.245  27.590  23.200  1.00  0.00     0.026 A 
ATOM     33  C   UNL A   1      27.863  27.555  23.591  1.00  0.00     0.026 A 
ENDBRANCH  24  27
ENDBRANCH  18  23
ENDBRANCH  14  17
ENDBRANCH   8  13
ENDBRANCH   4   7
ENDBRANCH   2   3
ENDBRANCH   1   2
BRANCH   1  34
ATOM     34  C   UNL A   1      40.209  21.514  26.192  1.00  0.00     0.023 C 
BRANCH  34  35
ATOM     35  C   UNL A   1      41.369  22.101  26.966  1.00  0.00     0.116 C 
BRANCH  35  36
ATOM     36  N   UNL A   1      42.413  22.715  26.154  1.00  0.00    -0.352 N 
ATOM     37  C   UNL A   1      42.522  24.057  25.806  1.00  0.00     0.251 C 
ATOM     38  H   UNL A   1      43.115  22.115  25.814  1.00  0.00     0.163 HD
ATOM     39  O   UNL A   1      43.342  24.448  24.993  1.00  0.00    -0.269 OA
BRANCH  37  40
ATOM     40  C   UNL A   1      41.640  25.007  26.527  1.00  0.00     0.039 A 
ATOM     41  C   UNL A   1      41.310  26.204  25.887  1.00  0.00     0.014 A 
ATOM     42  C   UNL A   1      41.504  24.873  27.903  1.00  0.00     0.014 A 
ATOM     43  C   UNL A   1      41.067  27.340  26.658  1.00  0.00     0.010 A 
ATOM     44  C   UNL A   1      41.441  26.030  28.655  1.00  0.00     0.010 A 
ATOM     45  C   UNL A   1      41.260  27.279  28.040  1.00  0.00    -0.014 A 
BRANCH  45  46
ATOM     46  C   UNL A   1      41.387  28.455  28.905  1.00  0.00     0.031 A 
ATOM     47  C   UNL A   1      40.265  29.431  29.003  1.00  0.00     0.074 A 
ATOM     48  C   UNL A   1      42.480  28.649  29.683  1.00  0.00     0.049 A 
ATOM     49  N   UNL A   1      40.390  30.656  29.400  1.00  0.00    -0.248 NA
ATOM     50  C   UNL A   1      38.901  29.114  28.589  1.00  0.00     0.031 C 
ATOM     51  C   UNL A   1      42.587  29.580  30.807  1.00  0.00     0.029 A 
ATOM     52  N   UNL A   1      43.792  28.203  29.506  1.00  0.00    -0.354 N 
ATOM     53  C   UNL A   1      39.125  31.172  29.581  1.00  0.00     0.074 A 
ATOM     54  C   UNL A   1      38.241  30.204  28.984  1.00  0.00     0.031 C 
ATOM     55  C   UNL A   1      43.880  29.878  31.000  1.00  0.00     0.029 A 
ATOM     56  C   UNL A   1      44.634  29.244  29.934  1.00  0.00     0.049 A 
ATOM     57  H   UNL A   1      44.074  27.329  29.150  1.00  0.00     0.167 HD
ATOM     58  C   UNL A   1      38.949  32.297  30.330  1.00  0.00     0.031 A 
ATOM     59  C   UNL A   1      45.583  29.853  29.165  1.00  0.00     0.031 A 
ATOM     60  C   UNL A   1      40.224  32.903  30.707  1.00  0.00     0.049 A 
ATOM     61  C   UNL A   1      45.393  31.351  29.054  1.00  0.00     0.074 A 
ATOM     62  C   UNL A   1      40.959  32.918  31.881  1.00  0.00     0.029 A 
ATOM     63  N   UNL A   1      41.054  33.412  29.715  1.00  0.00    -0.354 N 
ATOM     64  N   UNL A   1      44.332  31.981  29.475  1.00  0.00    -0.248 NA
ATOM     65  C   UNL A   1      46.342  32.250  28.397  1.00  0.00     0.031 C 
ATOM     66  C   UNL A   1      42.267  33.374  31.572  1.00  0.00     0.029 A 
ATOM     67  C   UNL A   1      42.316  33.658  30.218  1.00  0.00     0.049 A 
ATOM     68  H   UNL A   1      40.779  33.573  28.784  1.00  0.00     0.167 HD
ATOM     69  C   UNL A   1      44.401  33.299  29.111  1.00  0.00     0.074 A 
ATOM     70  C   UNL A   1      45.694  33.427  28.468  1.00  0.00     0.031 C 
ATOM     71  C   UNL A   1      43.367  34.161  29.343  1.00  0.00     0.031 A 
BRANCH  58  72
ATOM     72  C   UNL A   1      37.624  32.709  30.949  1.00  0.00    -0.014 A 
ATOM     73  C   UNL A   1      36.533  33.023  30.110  1.00  0.00     0.010 A 
ATOM     74  C   UNL A   1      37.400  32.879  32.327  1.00  0.00     0.010 A 
ATOM     75  C   UNL A   1      35.337  33.570  30.607  1.00  0.00     0.020 A 
ATOM     76  C   UNL A   1      36.226  33.451  32.839  1.00  0.00     0.020 A 
ATOM     77  C   UNL A   1      35.204  33.810  31.971  1.00  0.00     0.054 A 
BRANCH  77  78
ATOM     78  S   UNL A   1      33.698  34.597  32.597  1.00  0.00     0.124 S 
ATOM     79  O   UNL A   1      33.070  35.090  31.375  1.00  0.00    -0.237 OA
ATOM     80  O   UNL A   1      33.015  33.488  33.257  1.00  0.00    -0.237 OA
ATOM     81  O   UNL A   1      34.198  35.638  33.494  1.00  0.00    -0.744 OA
ENDBRANCH  77  78
ENDBRANCH  58  72
BRANCH  59  82
ATOM     82  C   UNL A   1      46.170  28.986  28.111  1.00  0.00    -0.014 A 
ATOM     83  C   UNL A   1      47.372  28.321  28.429  1.00  0.00     0.010 A 
ATOM     84  C   UNL A   1      45.365  28.489  27.071  1.00  0.00     0.010 A 
ATOM     85  C   UNL A   1      47.660  27.078  27.866  1.00  0.00     0.020 A 
ATOM     86  C   UNL A   1      45.658  27.243  26.501  1.00  0.00     0.020 A 
ATOM     87  C   UNL A   1      46.759  26.516  26.962  1.00  0.00     0.054 A 
BRANCH  87  88
ATOM     88  S   UNL A   1      46.933  24.747  26.583  1.00  0.00     0.124 S 
ATOM     89  O   UNL A   1      48.210  24.413  27.207  1.00  0.00    -0.237 OA
ATOM     90  O   UNL A   1      45.749  24.189  27.234  1.00  0.00    -0.237 OA
ATOM     91  O   UNL A   1      46.916  24.717  25.123  1.00  0.00    -0.744 OA
ENDBRANCH  87  88
ENDBRANCH  59  82
BRANCH  71  92
ATOM     92  C   UNL A   1      43.255  35.573  28.821  1.00  0.00    -0.014 A 
ATOM     93  C   UNL A   1      43.956  36.668  29.349  1.00  0.00     0.010 A 
ATOM     94  C   UNL A   1      42.497  35.801  27.647  1.00  0.00     0.010 A 
ATOM     95  C   UNL A   1      43.856  37.943  28.771  1.00  0.00     0.020 A 
ATOM     96  C   UNL A   1      42.423  37.059  27.040  1.00  0.00     0.020 A 
ATOM     97  C   UNL A   1      43.086  38.132  27.623  1.00  0.00     0.054 A 
BRANCH  97  98
ATOM     98  S   UNL A   1      43.005  39.766  26.846  1.00  0.00     0.124 S 
ATOM     99  O   UNL A   1      41.712  39.713  26.169  1.00  0.00    -0.237 OA
ATOM    100  O   UNL A   1      43.076  40.679  27.984  1.00  0.00    -0.237 OA
ATOM    101  O   UNL A   1      44.174  39.783  25.971  1.00  0.00    -0.744 OA
ENDBRANCH  97  98
ENDBRANCH  71  92
ENDBRANCH  45  46
ENDBRANCH  37  40
ENDBRANCH  35  36
ENDBRANCH  34  35
ENDBRANCH   1  34
TORSDOF 18
ENDMDL
