MODEL 1
REMARK VINA RESULT:     -10.7      0.000      0.000
REMARK SMILES CC(=O)c1cc2c(cc1NC(=O)/C=C/C(=O)NCCCCNC(=O)c1ccc(-c3c4nc(c(-c5ccc(S(=O)(=O)[O-])cc5)c5ccc([nH]5)c(-c5ccc(S(=O)(=O)[O-])cc5)c5nc(c(-c6ccc(S(=O)(=O)[O-])cc6)c6ccc3[nH]6)C=C5)C=C4)cc1)OCO2
REMARK SMILES IDX 19 1 18 2 17 3 15 4 16 5 14 7 13 8 11 9 10 10 12 12 9 13
REMARK SMILES IDX 4 14 5 15 6 16 8 17 7 18 87 19 85 20 86 21 2 22 1 23 3 24
REMARK SMILES IDX 20 25 21 26 22 27 23 28 24 30 25 31 26 32 84 33 27 34 83 35
REMARK SMILES IDX 28 36 29 37 30 38 77 39 31 40 82 41 76 42 78 43 32 44 81 45
REMARK SMILES IDX 75 46 74 47 33 49 63 50 44 51 62 52 45 53 48 54 61 55 79 56
REMARK SMILES IDX 46 57 47 58 60 60 80 61 49 62 34 63 35 64 43 65 36 66 42 67
REMARK SMILES IDX 37 68 38 69 39 70 40 71 41 72 64 73 65 74 73 75 66 76 72 77
REMARK SMILES IDX 67 78 68 79 69 80 70 81 71 82 50 83 51 84 59 85 52 86 58 87
REMARK SMILES IDX 53 88 54 89 55 90 56 91 57 92
REMARK H PARENT 17 6 10 11 22 29 78 48 48 59
REMARK Flexibility Score: inf
ROOT
ATOM      1  C   UNL A   1      34.965  23.451  23.578  1.00  0.00     0.023 C 
ENDROOT
BRANCH   1   2
ATOM      2  C   UNL A   1      33.699  22.627  23.351  1.00  0.00     0.116 C 
BRANCH   2   3
ATOM      3  N   UNL A   1      33.639  21.479  24.235  1.00  0.00    -0.353 N 
ATOM      4  C   UNL A   1      32.648  21.110  25.087  1.00  0.00     0.244 C 
ATOM      5  O   UNL A   1      32.662  20.007  25.625  1.00  0.00    -0.270 OA
ATOM      6  H   UNL A   1      34.423  20.885  24.213  1.00  0.00     0.163 HD
BRANCH   4   7
ATOM      7  C   UNL A   1      31.533  22.033  25.367  1.00  0.00     0.077 C 
ATOM      8  C   UNL A   1      31.549  22.809  26.460  1.00  0.00     0.077 C 
BRANCH   8   9
ATOM      9  C   UNL A   1      30.338  23.543  26.850  1.00  0.00     0.248 C 
ATOM     10  N   UNL A   1      30.279  24.900  26.695  1.00  0.00    -0.322 N 
ATOM     11  H   UNL A   1      29.456  25.301  27.054  1.00  0.00     0.170 HD
ATOM     12  O   UNL A   1      29.394  22.916  27.325  1.00  0.00    -0.270 OA
BRANCH  10  13
ATOM     13  C   UNL A   1      31.165  25.845  26.119  1.00  0.00     0.056 A 
ATOM     14  C   UNL A   1      30.872  26.366  24.826  1.00  0.00     0.045 A 
ATOM     15  C   UNL A   1      31.584  27.456  24.298  1.00  0.00     0.064 A 
ATOM     16  C   UNL A   1      32.607  27.975  25.057  1.00  0.00     0.166 A 
ATOM     17  C   UNL A   1      32.312  26.313  26.770  1.00  0.00     0.077 A 
ATOM     18  C   UNL A   1      32.982  27.394  26.240  1.00  0.00     0.167 A 
ATOM     19  O   UNL A   1      33.365  29.063  24.757  1.00  0.00    -0.454 OA
ATOM     20  O   UNL A   1      34.043  28.020  26.815  1.00  0.00    -0.454 OA
ATOM     21  C   UNL A   1      34.157  29.175  25.964  1.00  0.00     0.468 C 
BRANCH  14  22
ATOM     22  C   UNL A   1      29.812  25.741  23.991  1.00  0.00     0.162 C 
ATOM     23  C   UNL A   1      28.526  26.507  23.813  1.00  0.00     0.093 C 
ATOM     24  O   UNL A   1      30.035  24.689  23.399  1.00  0.00    -0.294 OA
ENDBRANCH  14  22
ENDBRANCH  10  13
ENDBRANCH   8   9
ENDBRANCH   4   7
ENDBRANCH   2   3
ENDBRANCH   1   2
BRANCH   1  25
ATOM     25  C   UNL A   1      35.701  23.153  24.887  1.00  0.00     0.023 C 
BRANCH  25  26
ATOM     26  C   UNL A   1      37.107  23.732  24.992  1.00  0.00     0.116 C 
BRANCH  26  27
ATOM     27  N   UNL A   1      38.120  22.744  25.332  1.00  0.00    -0.352 N 
ATOM     28  C   UNL A   1      39.221  22.909  26.137  1.00  0.00     0.251 C 
ATOM     29  H   UNL A   1      38.002  21.850  24.938  1.00  0.00     0.163 HD
ATOM     30  O   UNL A   1      40.033  22.002  26.282  1.00  0.00    -0.269 OA
BRANCH  28  31
ATOM     31  C   UNL A   1      39.430  24.217  26.784  1.00  0.00     0.039 A 
ATOM     32  C   UNL A   1      38.926  24.419  28.070  1.00  0.00     0.014 A 
ATOM     33  C   UNL A   1      40.192  25.200  26.149  1.00  0.00     0.014 A 
ATOM     34  C   UNL A   1      39.252  25.590  28.756  1.00  0.00     0.010 A 
ATOM     35  C   UNL A   1      40.562  26.339  26.856  1.00  0.00     0.010 A 
ATOM     36  C   UNL A   1      40.104  26.539  28.168  1.00  0.00    -0.014 A 
BRANCH  36  37
ATOM     37  C   UNL A   1      40.543  27.747  28.907  1.00  0.00     0.031 A 
ATOM     38  C   UNL A   1      41.874  27.751  29.601  1.00  0.00     0.074 A 
ATOM     39  C   UNL A   1      39.707  28.797  29.026  1.00  0.00     0.049 A 
ATOM     40  N   UNL A   1      42.385  28.656  30.396  1.00  0.00    -0.248 NA
ATOM     41  C   UNL A   1      42.730  26.571  29.400  1.00  0.00     0.031 C 
ATOM     42  C   UNL A   1      38.374  28.894  28.424  1.00  0.00     0.029 A 
ATOM     43  N   UNL A   1      39.848  29.977  29.710  1.00  0.00    -0.354 N 
ATOM     44  C   UNL A   1      43.607  28.142  30.812  1.00  0.00     0.074 A 
ATOM     45  C   UNL A   1      43.746  26.835  30.209  1.00  0.00     0.031 C 
ATOM     46  C   UNL A   1      37.829  30.077  28.753  1.00  0.00     0.029 A 
ATOM     47  C   UNL A   1      38.751  30.802  29.620  1.00  0.00     0.049 A 
ATOM     48  H   UNL A   1      40.658  30.213  30.217  1.00  0.00     0.167 HD
ATOM     49  C   UNL A   1      44.535  28.715  31.614  1.00  0.00     0.031 A 
ATOM     50  C   UNL A   1      38.512  32.002  30.183  1.00  0.00     0.031 A 
ATOM     51  C   UNL A   1      44.402  30.025  32.192  1.00  0.00     0.049 A 
ATOM     52  C   UNL A   1      39.560  32.620  31.066  1.00  0.00     0.074 A 
ATOM     53  C   UNL A   1      45.313  30.719  32.968  1.00  0.00     0.029 A 
ATOM     54  N   UNL A   1      43.289  30.839  32.053  1.00  0.00    -0.354 N 
ATOM     55  N   UNL A   1      40.734  32.144  31.405  1.00  0.00    -0.248 NA
ATOM     56  C   UNL A   1      39.256  33.940  31.636  1.00  0.00     0.031 C 
ATOM     57  C   UNL A   1      44.734  31.940  33.329  1.00  0.00     0.029 A 
ATOM     58  C   UNL A   1      43.482  32.024  32.741  1.00  0.00     0.049 A 
ATOM     59  H   UNL A   1      42.481  30.609  31.540  1.00  0.00     0.167 HD
ATOM     60  C   UNL A   1      41.320  33.116  32.206  1.00  0.00     0.074 A 
ATOM     61  C   UNL A   1      40.375  34.211  32.296  1.00  0.00     0.031 C 
ATOM     62  C   UNL A   1      42.533  33.105  32.810  1.00  0.00     0.031 A 
BRANCH  49  63
ATOM     63  C   UNL A   1      45.774  27.918  31.918  1.00  0.00    -0.014 A 
ATOM     64  C   UNL A   1      45.839  27.079  33.044  1.00  0.00     0.010 A 
ATOM     65  C   UNL A   1      46.879  27.989  31.050  1.00  0.00     0.010 A 
ATOM     66  C   UNL A   1      47.004  26.360  33.324  1.00  0.00     0.020 A 
ATOM     67  C   UNL A   1      48.037  27.251  31.313  1.00  0.00     0.020 A 
ATOM     68  C   UNL A   1      48.098  26.456  32.459  1.00  0.00     0.054 A 
BRANCH  68  69
ATOM     69  S   UNL A   1      49.594  25.503  32.838  1.00  0.00     0.124 S 
ATOM     70  O   UNL A   1      49.038  24.317  33.485  1.00  0.00    -0.237 OA
ATOM     71  O   UNL A   1      50.179  25.282  31.518  1.00  0.00    -0.237 OA
ATOM     72  O   UNL A   1      50.357  26.390  33.714  1.00  0.00    -0.744 OA
ENDBRANCH  68  69
ENDBRANCH  49  63
BRANCH  50  73
ATOM     73  C   UNL A   1      37.227  32.703  29.918  1.00  0.00    -0.014 A 
ATOM     74  C   UNL A   1      37.129  33.629  28.864  1.00  0.00     0.010 A 
ATOM     75  C   UNL A   1      36.091  32.439  30.705  1.00  0.00     0.010 A 
ATOM     76  C   UNL A   1      35.924  34.289  28.610  1.00  0.00     0.020 A 
ATOM     77  C   UNL A   1      34.877  33.080  30.439  1.00  0.00     0.020 A 
ATOM     78  C   UNL A   1      34.805  34.010  29.399  1.00  0.00     0.054 A 
BRANCH  78  79
ATOM     79  S   UNL A   1      33.234  34.835  29.017  1.00  0.00     0.124 S 
ATOM     80  O   UNL A   1      33.687  36.102  28.452  1.00  0.00    -0.237 OA
ATOM     81  O   UNL A   1      32.609  33.909  28.076  1.00  0.00    -0.237 OA
ATOM     82  O   UNL A   1      32.575  34.929  30.318  1.00  0.00    -0.744 OA
ENDBRANCH  78  79
ENDBRANCH  50  73
BRANCH  62  83
ATOM     83  C   UNL A   1      42.930  34.325  33.595  1.00  0.00    -0.014 A 
ATOM     84  C   UNL A   1      42.771  34.373  34.990  1.00  0.00     0.010 A 
ATOM     85  C   UNL A   1      43.547  35.402  32.932  1.00  0.00     0.010 A 
ATOM     86  C   UNL A   1      43.212  35.488  35.709  1.00  0.00     0.020 A 
ATOM     87  C   UNL A   1      44.009  36.506  33.650  1.00  0.00     0.020 A 
ATOM     88  C   UNL A   1      43.830  36.545  35.035  1.00  0.00     0.054 A 
BRANCH  88  89
ATOM     89  S   UNL A   1      44.460  37.948  35.998  1.00  0.00     0.124 S 
ATOM     90  O   UNL A   1      44.221  39.069  35.094  1.00  0.00    -0.237 OA
ATOM     91  O   UNL A   1      43.624  37.917  37.196  1.00  0.00    -0.237 OA
ATOM     92  O   UNL A   1      45.865  37.613  36.218  1.00  0.00    -0.744 OA
ENDBRANCH  88  89
ENDBRANCH  62  83
ENDBRANCH  36  37
ENDBRANCH  28  31
ENDBRANCH  26  27
ENDBRANCH  25  26
ENDBRANCH   1  25
TORSDOF 17
ENDMDL
MODEL 2
REMARK VINA RESULT:     -10.3      2.575      3.332
REMARK SMILES CC(=O)c1cc2c(cc1NC(=O)/C=C/C(=O)NCCCCNC(=O)c1ccc(-c3c4nc(c(-c5ccc(S(=O)(=O)[O-])cc5)c5ccc([nH]5)c(-c5ccc(S(=O)(=O)[O-])cc5)c5nc(c(-c6ccc(S(=O)(=O)[O-])cc6)c6ccc3[nH]6)C=C5)C=C4)cc1)OCO2
REMARK SMILES IDX 19 1 18 2 17 3 15 4 16 5 14 7 13 8 11 9 10 10 12 12 9 13
REMARK SMILES IDX 4 14 5 15 6 16 8 17 7 18 87 19 85 20 86 21 2 22 1 23 3 24
REMARK SMILES IDX 20 25 21 26 22 27 23 28 24 30 25 31 26 32 84 33 27 34 83 35
REMARK SMILES IDX 28 36 29 37 30 38 77 39 31 40 82 41 76 42 78 43 32 44 81 45
REMARK SMILES IDX 75 46 74 47 33 49 63 50 44 51 62 52 45 53 48 54 61 55 79 56
REMARK SMILES IDX 46 57 47 58 60 60 80 61 49 62 34 63 35 64 43 65 36 66 42 67
REMARK SMILES IDX 37 68 38 69 39 70 40 71 41 72 64 73 65 74 73 75 66 76 72 77
REMARK SMILES IDX 67 78 68 79 69 80 70 81 71 82 50 83 51 84 59 85 52 86 58 87
REMARK SMILES IDX 53 88 54 89 55 90 56 91 57 92
REMARK H PARENT 17 6 10 11 22 29 78 48 48 59
REMARK Flexibility Score: inf
ROOT
ATOM      1  C   UNL A   1      34.555  25.036  25.757  1.00  0.00     0.023 C 
ENDROOT
BRANCH   1   2
ATOM      2  C   UNL A   1      33.122  24.716  25.338  1.00  0.00     0.116 C 
BRANCH   2   3
ATOM      3  N   UNL A   1      32.992  23.352  24.864  1.00  0.00    -0.353 N 
ATOM      4  C   UNL A   1      32.842  22.902  23.591  1.00  0.00     0.244 C 
ATOM      5  O   UNL A   1      32.940  21.706  23.333  1.00  0.00    -0.270 OA
ATOM      6  H   UNL A   1      33.016  22.657  25.559  1.00  0.00     0.163 HD
BRANCH   4   7
ATOM      7  C   UNL A   1      32.570  23.854  22.499  1.00  0.00     0.077 C 
ATOM      8  C   UNL A   1      33.359  24.921  22.312  1.00  0.00     0.077 C 
BRANCH   8   9
ATOM      9  C   UNL A   1      32.946  25.979  21.381  1.00  0.00     0.248 C 
ATOM     10  N   UNL A   1      32.544  27.195  21.859  1.00  0.00    -0.322 N 
ATOM     11  H   UNL A   1      32.219  27.804  21.158  1.00  0.00     0.170 HD
ATOM     12  O   UNL A   1      32.959  25.743  20.175  1.00  0.00    -0.270 OA
BRANCH  10  13
ATOM     13  C   UNL A   1      32.503  27.755  23.161  1.00  0.00     0.056 A 
ATOM     14  C   UNL A   1      31.246  27.884  23.816  1.00  0.00     0.045 A 
ATOM     15  C   UNL A   1      31.161  28.225  25.177  1.00  0.00     0.064 A 
ATOM     16  C   UNL A   1      32.338  28.475  25.844  1.00  0.00     0.166 A 
ATOM     17  C   UNL A   1      33.648  28.172  23.850  1.00  0.00     0.077 A 
ATOM     18  C   UNL A   1      33.541  28.485  25.187  1.00  0.00     0.167 A 
ATOM     19  O   UNL A   1      32.474  28.751  27.168  1.00  0.00    -0.454 OA
ATOM     20  O   UNL A   1      34.578  28.802  26.006  1.00  0.00    -0.454 OA
ATOM     21  C   UNL A   1      33.917  28.788  27.284  1.00  0.00     0.468 C 
BRANCH  14  22
ATOM     22  C   UNL A   1      29.983  27.684  23.057  1.00  0.00     0.162 C 
ATOM     23  C   UNL A   1      28.991  26.692  23.608  1.00  0.00     0.093 C 
ATOM     24  O   UNL A   1      29.735  28.382  22.078  1.00  0.00    -0.294 OA
ENDBRANCH  14  22
ENDBRANCH  10  13
ENDBRANCH   8   9
ENDBRANCH   4   7
ENDBRANCH   2   3
ENDBRANCH   1   2
BRANCH   1  25
ATOM     25  C   UNL A   1      35.581  23.950  25.423  1.00  0.00     0.023 C 
BRANCH  25  26
ATOM     26  C   UNL A   1      36.216  23.261  26.625  1.00  0.00     0.116 C 
BRANCH  26  27
ATOM     27  N   UNL A   1      37.309  22.367  26.273  1.00  0.00    -0.352 N 
ATOM     28  C   UNL A   1      38.655  22.641  26.269  1.00  0.00     0.251 C 
ATOM     29  H   UNL A   1      37.052  21.455  26.006  1.00  0.00     0.163 HD
ATOM     30  O   UNL A   1      39.465  21.806  25.882  1.00  0.00    -0.269 OA
BRANCH  28  31
ATOM     31  C   UNL A   1      39.101  23.980  26.695  1.00  0.00     0.039 A 
ATOM     32  C   UNL A   1      39.008  24.323  28.045  1.00  0.00     0.014 A 
ATOM     33  C   UNL A   1      39.683  24.853  25.772  1.00  0.00     0.014 A 
ATOM     34  C   UNL A   1      39.571  25.520  28.488  1.00  0.00     0.010 A 
ATOM     35  C   UNL A   1      40.292  26.018  26.226  1.00  0.00     0.010 A 
ATOM     36  C   UNL A   1      40.251  26.356  27.588  1.00  0.00    -0.014 A 
BRANCH  36  37
ATOM     37  C   UNL A   1      40.939  27.588  28.044  1.00  0.00     0.031 A 
ATOM     38  C   UNL A   1      42.439  27.660  28.004  1.00  0.00     0.074 A 
ATOM     39  C   UNL A   1      40.220  28.595  28.575  1.00  0.00     0.049 A 
ATOM     40  N   UNL A   1      43.229  28.591  28.468  1.00  0.00    -0.248 NA
ATOM     41  C   UNL A   1      43.141  26.522  27.389  1.00  0.00     0.031 C 
ATOM     42  C   UNL A   1      38.760  28.625  28.699  1.00  0.00     0.029 A 
ATOM     43  N   UNL A   1      40.623  29.784  29.128  1.00  0.00    -0.354 N 
ATOM     44  C   UNL A   1      44.522  28.140  28.228  1.00  0.00     0.074 A 
ATOM     45  C   UNL A   1      44.408  26.838  27.607  1.00  0.00     0.031 C 
ATOM     46  C   UNL A   1      38.391  29.781  29.275  1.00  0.00     0.029 A 
ATOM     47  C   UNL A   1      39.586  30.554  29.599  1.00  0.00     0.049 A 
ATOM     48  H   UNL A   1      41.566  30.061  29.182  1.00  0.00     0.167 HD
ATOM     49  C   UNL A   1      45.696  28.761  28.489  1.00  0.00     0.031 A 
ATOM     50  C   UNL A   1      39.597  31.744  30.231  1.00  0.00     0.031 A 
ATOM     51  C   UNL A   1      45.802  30.065  29.084  1.00  0.00     0.049 A 
ATOM     52  C   UNL A   1      40.914  32.416  30.505  1.00  0.00     0.074 A 
ATOM     53  C   UNL A   1      46.944  30.806  29.335  1.00  0.00     0.029 A 
ATOM     54  N   UNL A   1      44.727  30.823  29.520  1.00  0.00    -0.354 N 
ATOM     55  N   UNL A   1      42.124  31.999  30.222  1.00  0.00    -0.248 NA
ATOM     56  C   UNL A   1      40.866  33.722  31.178  1.00  0.00     0.031 C 
ATOM     57  C   UNL A   1      46.559  32.000  29.956  1.00  0.00     0.029 A 
ATOM     58  C   UNL A   1      45.177  32.020  30.052  1.00  0.00     0.049 A 
ATOM     59  H   UNL A   1      43.783  30.552  29.460  1.00  0.00     0.167 HD
ATOM     60  C   UNL A   1      42.981  33.002  30.656  1.00  0.00     0.074 A 
ATOM     61  C   UNL A   1      42.151  34.050  31.216  1.00  0.00     0.031 C 
ATOM     62  C   UNL A   1      44.334  33.053  30.595  1.00  0.00     0.031 A 
BRANCH  49  63
ATOM     63  C   UNL A   1      46.961  28.026  28.137  1.00  0.00    -0.014 A 
ATOM     64  C   UNL A   1      47.585  27.172  29.062  1.00  0.00     0.010 A 
ATOM     65  C   UNL A   1      47.518  28.173  26.853  1.00  0.00     0.010 A 
ATOM     66  C   UNL A   1      48.770  26.512  28.727  1.00  0.00     0.020 A 
ATOM     67  C   UNL A   1      48.689  27.494  26.505  1.00  0.00     0.020 A 
ATOM     68  C   UNL A   1      49.318  26.683  27.452  1.00  0.00     0.054 A 
BRANCH  68  69
ATOM     69  S   UNL A   1      50.851  25.805  27.037  1.00  0.00     0.124 S 
ATOM     70  O   UNL A   1      50.545  24.446  27.477  1.00  0.00    -0.237 OA
ATOM     71  O   UNL A   1      50.948  25.991  25.591  1.00  0.00    -0.237 OA
ATOM     72  O   UNL A   1      51.870  26.500  27.821  1.00  0.00    -0.744 OA
ENDBRANCH  68  69
ENDBRANCH  49  63
BRANCH  50  73
ATOM     73  C   UNL A   1      38.315  32.380  30.637  1.00  0.00    -0.014 A 
ATOM     74  C   UNL A   1      37.625  33.217  29.743  1.00  0.00     0.010 A 
ATOM     75  C   UNL A   1      37.770  32.141  31.912  1.00  0.00     0.010 A 
ATOM     76  C   UNL A   1      36.419  33.816  30.120  1.00  0.00     0.020 A 
ATOM     77  C   UNL A   1      36.552  32.720  32.284  1.00  0.00     0.020 A 
ATOM     78  C   UNL A   1      35.890  33.563  31.389  1.00  0.00     0.054 A 
BRANCH  78  79
ATOM     79  S   UNL A   1      34.296  34.305  31.838  1.00  0.00     0.124 S 
ATOM     80  O   UNL A   1      33.734  33.298  32.732  1.00  0.00    -0.237 OA
ATOM     81  O   UNL A   1      34.697  35.560  32.470  1.00  0.00    -0.237 OA
ATOM     82  O   UNL A   1      33.616  34.454  30.553  1.00  0.00    -0.744 OA
ENDBRANCH  78  79
ENDBRANCH  50  73
BRANCH  62  83
ATOM     83  C   UNL A   1      45.007  34.294  31.111  1.00  0.00    -0.014 A 
ATOM     84  C   UNL A   1      45.202  35.412  30.282  1.00  0.00     0.010 A 
ATOM     85  C   UNL A   1      45.374  34.368  32.468  1.00  0.00     0.010 A 
ATOM     86  C   UNL A   1      45.765  36.581  30.800  1.00  0.00     0.020 A 
ATOM     87  C   UNL A   1      45.917  35.542  32.993  1.00  0.00     0.020 A 
ATOM     88  C   UNL A   1      46.117  36.639  32.152  1.00  0.00     0.054 A 
BRANCH  88  89
ATOM     89  S   UNL A   1      46.779  38.192  32.817  1.00  0.00     0.124 S 
ATOM     90  O   UNL A   1      46.766  37.936  34.255  1.00  0.00    -0.237 OA
ATOM     91  O   UNL A   1      48.103  38.268  32.204  1.00  0.00    -0.237 OA
ATOM     92  O   UNL A   1      45.827  39.199  32.356  1.00  0.00    -0.744 OA
ENDBRANCH  88  89
ENDBRANCH  62  83
ENDBRANCH  36  37
ENDBRANCH  28  31
ENDBRANCH  26  27
ENDBRANCH  25  26
ENDBRANCH   1  25
TORSDOF 17
ENDMDL
MODEL 3
REMARK VINA RESULT:     -10.2      4.493     10.374
REMARK SMILES CC(=O)c1cc2c(cc1NC(=O)/C=C/C(=O)NCCCCNC(=O)c1ccc(-c3c4nc(c(-c5ccc(S(=O)(=O)[O-])cc5)c5ccc([nH]5)c(-c5ccc(S(=O)(=O)[O-])cc5)c5nc(c(-c6ccc(S(=O)(=O)[O-])cc6)c6ccc3[nH]6)C=C5)C=C4)cc1)OCO2
REMARK SMILES IDX 19 1 18 2 17 3 15 4 16 5 14 7 13 8 11 9 10 10 12 12 9 13
REMARK SMILES IDX 4 14 5 15 6 16 8 17 7 18 87 19 85 20 86 21 2 22 1 23 3 24
REMARK SMILES IDX 20 25 21 26 22 27 23 28 24 30 25 31 26 32 84 33 27 34 83 35
REMARK SMILES IDX 28 36 29 37 30 38 77 39 31 40 82 41 76 42 78 43 32 44 81 45
REMARK SMILES IDX 75 46 74 47 33 49 63 50 44 51 62 52 45 53 48 54 61 55 79 56
REMARK SMILES IDX 46 57 47 58 60 60 80 61 49 62 34 63 35 64 43 65 36 66 42 67
REMARK SMILES IDX 37 68 38 69 39 70 40 71 41 72 64 73 65 74 73 75 66 76 72 77
REMARK SMILES IDX 67 78 68 79 69 80 70 81 71 82 50 83 51 84 59 85 52 86 58 87
REMARK SMILES IDX 53 88 54 89 55 90 56 91 57 92
REMARK H PARENT 17 6 10 11 22 29 78 48 48 59
REMARK Flexibility Score: inf
ROOT
ATOM      1  C   UNL A   1      34.542  33.585  29.909  1.00  0.00     0.023 C 
ENDROOT
BRANCH   1   2
ATOM      2  C   UNL A   1      34.092  32.884  28.628  1.00  0.00     0.116 C 
BRANCH   2   3
ATOM      3  N   UNL A   1      34.795  31.632  28.425  1.00  0.00    -0.353 N 
ATOM      4  C   UNL A   1      34.444  30.574  27.649  1.00  0.00     0.244 C 
ATOM      5  O   UNL A   1      35.240  29.665  27.432  1.00  0.00    -0.270 OA
ATOM      6  H   UNL A   1      35.641  31.536  28.916  1.00  0.00     0.163 HD
BRANCH   4   7
ATOM      7  C   UNL A   1      33.100  30.513  27.047  1.00  0.00     0.077 C 
ATOM      8  C   UNL A   1      32.799  29.568  26.145  1.00  0.00     0.077 C 
BRANCH   8   9
ATOM      9  C   UNL A   1      31.546  29.660  25.385  1.00  0.00     0.248 C 
ATOM     10  N   UNL A   1      30.970  28.531  24.874  1.00  0.00    -0.322 N 
ATOM     11  H   UNL A   1      30.176  28.711  24.320  1.00  0.00     0.170 HD
ATOM     12  O   UNL A   1      31.041  30.766  25.210  1.00  0.00    -0.270 OA
BRANCH  10  13
ATOM     13  C   UNL A   1      31.284  27.152  24.983  1.00  0.00     0.056 A 
ATOM     14  C   UNL A   1      31.985  26.519  23.918  1.00  0.00     0.045 A 
ATOM     15  C   UNL A   1      32.513  25.224  24.058  1.00  0.00     0.064 A 
ATOM     16  C   UNL A   1      32.287  24.570  25.247  1.00  0.00     0.166 A 
ATOM     17  C   UNL A   1      30.954  26.380  26.103  1.00  0.00     0.077 A 
ATOM     18  C   UNL A   1      31.498  25.120  26.224  1.00  0.00     0.167 A 
ATOM     19  O   UNL A   1      32.766  23.349  25.602  1.00  0.00    -0.454 OA
ATOM     20  O   UNL A   1      31.354  24.302  27.299  1.00  0.00    -0.454 OA
ATOM     21  C   UNL A   1      32.303  23.270  26.972  1.00  0.00     0.468 C 
BRANCH  14  22
ATOM     22  C   UNL A   1      32.152  27.215  22.615  1.00  0.00     0.162 C 
ATOM     23  C   UNL A   1      33.538  27.677  22.246  1.00  0.00     0.093 C 
ATOM     24  O   UNL A   1      31.203  27.309  21.841  1.00  0.00    -0.294 OA
ENDBRANCH  14  22
ENDBRANCH  10  13
ENDBRANCH   8   9
ENDBRANCH   4   7
ENDBRANCH   2   3
ENDBRANCH   1   2
BRANCH   1  25
ATOM     25  C   UNL A   1      36.030  33.939  29.960  1.00  0.00     0.023 C 
BRANCH  25  26
ATOM     26  C   UNL A   1      36.876  33.072  30.885  1.00  0.00     0.116 C 
BRANCH  26  27
ATOM     27  N   UNL A   1      36.239  31.814  31.247  1.00  0.00    -0.352 N 
ATOM     28  C   UNL A   1      36.767  30.548  31.165  1.00  0.00     0.251 C 
ATOM     29  H   UNL A   1      35.320  31.878  31.593  1.00  0.00     0.163 HD
ATOM     30  O   UNL A   1      36.087  29.566  31.442  1.00  0.00    -0.269 OA
BRANCH  28  31
ATOM     31  C   UNL A   1      38.153  30.393  30.688  1.00  0.00     0.039 A 
ATOM     32  C   UNL A   1      39.172  30.226  31.628  1.00  0.00     0.014 A 
ATOM     33  C   UNL A   1      38.422  30.331  29.319  1.00  0.00     0.014 A 
ATOM     34  C   UNL A   1      40.462  29.919  31.191  1.00  0.00     0.010 A 
ATOM     35  C   UNL A   1      39.694  29.970  28.890  1.00  0.00     0.010 A 
ATOM     36  C   UNL A   1      40.721  29.751  29.821  1.00  0.00    -0.014 A 
BRANCH  36  37
ATOM     37  C   UNL A   1      42.058  29.334  29.332  1.00  0.00     0.031 A 
ATOM     38  C   UNL A   1      43.165  30.345  29.242  1.00  0.00     0.074 A 
ATOM     39  C   UNL A   1      42.243  28.076  28.887  1.00  0.00     0.049 A 
ATOM     40  N   UNL A   1      44.360  30.211  28.730  1.00  0.00    -0.248 NA
ATOM     41  C   UNL A   1      42.880  31.688  29.770  1.00  0.00     0.031 C 
ATOM     42  C   UNL A   1      41.231  27.016  28.892  1.00  0.00     0.029 A 
ATOM     43  N   UNL A   1      43.343  27.481  28.325  1.00  0.00    -0.354 N 
ATOM     44  C   UNL A   1      44.960  31.459  28.847  1.00  0.00     0.074 A 
ATOM     45  C   UNL A   1      43.986  32.344  29.448  1.00  0.00     0.031 C 
ATOM     46  C   UNL A   1      41.766  25.897  28.374  1.00  0.00     0.029 A 
ATOM     47  C   UNL A   1      43.138  26.171  27.962  1.00  0.00     0.049 A 
ATOM     48  H   UNL A   1      44.201  27.948  28.194  1.00  0.00     0.167 HD
ATOM     49  C   UNL A   1      46.214  31.831  28.497  1.00  0.00     0.031 A 
ATOM     50  C   UNL A   1      43.960  25.292  27.356  1.00  0.00     0.031 A 
ATOM     51  C   UNL A   1      47.186  30.942  27.921  1.00  0.00     0.049 A 
ATOM     52  C   UNL A   1      45.350  25.727  26.982  1.00  0.00     0.074 A 
ATOM     53  C   UNL A   1      48.502  31.206  27.587  1.00  0.00     0.029 A 
ATOM     54  N   UNL A   1      46.947  29.615  27.597  1.00  0.00    -0.354 N 
ATOM     55  N   UNL A   1      45.918  26.897  27.150  1.00  0.00    -0.248 NA
ATOM     56  C   UNL A   1      46.212  24.722  26.343  1.00  0.00     0.031 C 
ATOM     57  C   UNL A   1      49.050  30.047  27.027  1.00  0.00     0.029 A 
ATOM     58  C   UNL A   1      48.088  29.050  27.053  1.00  0.00     0.049 A 
ATOM     59  H   UNL A   1      46.094  29.145  27.734  1.00  0.00     0.167 HD
ATOM     60  C   UNL A   1      47.213  26.762  26.663  1.00  0.00     0.074 A 
ATOM     61  C   UNL A   1      47.346  25.395  26.199  1.00  0.00     0.031 C 
ATOM     62  C   UNL A   1      48.202  27.686  26.606  1.00  0.00     0.031 A 
BRANCH  49  63
ATOM     63  C   UNL A   1      46.598  33.268  28.722  1.00  0.00    -0.014 A 
ATOM     64  C   UNL A   1      47.197  33.678  29.926  1.00  0.00     0.010 A 
ATOM     65  C   UNL A   1      46.380  34.216  27.705  1.00  0.00     0.010 A 
ATOM     66  C   UNL A   1      47.530  35.020  30.128  1.00  0.00     0.020 A 
ATOM     67  C   UNL A   1      46.736  35.554  27.895  1.00  0.00     0.020 A 
ATOM     68  C   UNL A   1      47.291  35.951  29.113  1.00  0.00     0.054 A 
BRANCH  68  69
ATOM     69  S   UNL A   1      47.745  37.684  29.396  1.00  0.00     0.124 S 
ATOM     70  O   UNL A   1      46.442  38.300  29.634  1.00  0.00    -0.237 OA
ATOM     71  O   UNL A   1      48.623  37.602  30.560  1.00  0.00    -0.237 OA
ATOM     72  O   UNL A   1      48.401  38.078  28.151  1.00  0.00    -0.744 OA
ENDBRANCH  68  69
ENDBRANCH  49  63
BRANCH  50  73
ATOM     73  C   UNL A   1      43.492  23.908  27.077  1.00  0.00    -0.014 A 
ATOM     74  C   UNL A   1      43.380  22.974  28.121  1.00  0.00     0.010 A 
ATOM     75  C   UNL A   1      43.139  23.522  25.771  1.00  0.00     0.010 A 
ATOM     76  C   UNL A   1      42.939  21.673  27.863  1.00  0.00     0.020 A 
ATOM     77  C   UNL A   1      42.675  22.228  25.513  1.00  0.00     0.020 A 
ATOM     78  C   UNL A   1      42.589  21.308  26.560  1.00  0.00     0.054 A 
BRANCH  78  79
ATOM     79  S   UNL A   1      41.964  19.631  26.256  1.00  0.00     0.124 S 
ATOM     80  O   UNL A   1      42.712  19.241  25.065  1.00  0.00    -0.237 OA
ATOM     81  O   UNL A   1      42.323  18.931  27.487  1.00  0.00    -0.237 OA
ATOM     82  O   UNL A   1      40.531  19.833  26.059  1.00  0.00    -0.744 OA
ENDBRANCH  78  79
ENDBRANCH  50  73
BRANCH  62  83
ATOM     83  C   UNL A   1      49.532  27.247  26.059  1.00  0.00    -0.014 A 
ATOM     84  C   UNL A   1      50.510  26.682  26.895  1.00  0.00     0.010 A 
ATOM     85  C   UNL A   1      49.770  27.328  24.674  1.00  0.00     0.010 A 
ATOM     86  C   UNL A   1      51.712  26.216  26.355  1.00  0.00     0.020 A 
ATOM     87  C   UNL A   1      50.960  26.842  24.130  1.00  0.00     0.020 A 
ATOM     88  C   UNL A   1      51.928  26.297  24.976  1.00  0.00     0.054 A 
BRANCH  88  89
ATOM     89  S   UNL A   1      53.465  25.619  24.290  1.00  0.00     0.124 S 
ATOM     90  O   UNL A   1      53.249  25.770  22.854  1.00  0.00    -0.237 OA
ATOM     91  O   UNL A   1      54.487  26.488  24.868  1.00  0.00    -0.237 OA
ATOM     92  O   UNL A   1      53.481  24.241  24.776  1.00  0.00    -0.744 OA
ENDBRANCH  88  89
ENDBRANCH  62  83
ENDBRANCH  36  37
ENDBRANCH  28  31
ENDBRANCH  26  27
ENDBRANCH  25  26
ENDBRANCH   1  25
TORSDOF 17
ENDMDL
