MODEL 1
REMARK VINA RESULT:      -9.6      0.000      0.000
REMARK SMILES CC(=O)N1CCC[C@H]1COCC(=O)NCCCCNC(=O)c1ccc(-c2c3nc(c(-c4ccc(S(=O)(=O)[O-])cc4)c4ccc([nH]4)c(-c4ccc(S(=O)(=O)[O-])cc4)c4nc(c(-c5ccc(S(=O)(=O)[O-])cc5)c5ccc2[nH]5)C=C4)C=C3)cc1
REMARK SMILES IDX 16 1 15 2 14 3 12 4 13 5 11 7 10 8 9 9 8 10 4 11 5 12 6 13
REMARK SMILES IDX 7 14 2 15 1 16 3 17 17 18 18 19 19 20 20 21 21 23 22 24
REMARK SMILES IDX 23 25 81 26 24 27 80 28 25 29 26 30 27 31 74 32 28 33 79 34
REMARK SMILES IDX 73 35 75 36 29 37 78 38 72 39 71 40 30 42 60 43 41 44 59 45
REMARK SMILES IDX 42 46 45 47 58 48 76 49 43 50 44 51 57 53 77 54 46 55 31 56
REMARK SMILES IDX 32 57 40 58 33 59 39 60 34 61 35 62 36 63 37 64 38 65 61 66
REMARK SMILES IDX 62 67 70 68 63 69 69 70 64 71 65 72 66 73 67 74 68 75 47 76
REMARK SMILES IDX 48 77 56 78 49 79 55 80 50 81 51 82 52 83 53 84 54 85
REMARK H PARENT 14 6 19 22 75 41 45 52
REMARK Flexibility Score: inf
ROOT
ATOM      1  C   UNL A   1      32.830  28.935  24.845  1.00  0.00     0.023 C 
ENDROOT
BRANCH   1   2
ATOM      2  C   UNL A   1      32.036  27.971  23.967  1.00  0.00     0.116 C 
BRANCH   2   3
ATOM      3  N   UNL A   1      32.742  27.586  22.763  1.00  0.00    -0.354 N 
ATOM      4  C   UNL A   1      33.185  26.344  22.406  1.00  0.00     0.245 C 
ATOM      5  O   UNL A   1      33.608  26.166  21.265  1.00  0.00    -0.272 OA
ATOM      6  H   UNL A   1      32.926  28.310  22.121  1.00  0.00     0.163 HD
BRANCH   4   7
ATOM      7  C   UNL A   1      33.085  25.193  23.418  1.00  0.00     0.260 C 
BRANCH   7   8
ATOM      8  O   UNL A   1      34.211  24.947  24.252  1.00  0.00    -0.370 OA
BRANCH   8   9
ATOM      9  C   UNL A   1      35.106  23.963  23.718  1.00  0.00     0.185 C 
BRANCH   9  10
ATOM     10  C   UNL A   1      35.652  23.017  24.805  1.00  0.00     0.111 C 
ATOM     11  N   UNL A   1      34.738  21.942  25.187  1.00  0.00    -0.338 N 
ATOM     12  C   UNL A   1      35.337  20.638  24.974  1.00  0.00     0.120 C 
ATOM     13  C   UNL A   1      36.829  20.925  25.008  1.00  0.00     0.024 C 
ATOM     14  C   UNL A   1      36.927  22.293  24.341  1.00  0.00     0.029 C 
BRANCH  11  15
ATOM     15  C   UNL A   1      33.570  22.219  25.866  1.00  0.00     0.219 C 
ATOM     16  C   UNL A   1      33.697  22.912  27.196  1.00  0.00     0.114 C 
ATOM     17  O   UNL A   1      32.464  21.962  25.396  1.00  0.00    -0.275 OA
ENDBRANCH  11  15
ENDBRANCH   9  10
ENDBRANCH   8   9
ENDBRANCH   7   8
ENDBRANCH   4   7
ENDBRANCH   2   3
ENDBRANCH   1   2
BRANCH   1  18
ATOM     18  C   UNL A   1      33.874  28.284  25.757  1.00  0.00     0.023 C 
BRANCH  18  19
ATOM     19  C   UNL A   1      33.676  28.499  27.255  1.00  0.00     0.116 C 
BRANCH  19  20
ATOM     20  N   UNL A   1      33.626  29.902  27.637  1.00  0.00    -0.352 N 
ATOM     21  C   UNL A   1      34.616  30.673  28.203  1.00  0.00     0.251 C 
ATOM     22  H   UNL A   1      32.771  30.359  27.469  1.00  0.00     0.163 HD
ATOM     23  O   UNL A   1      34.375  31.823  28.558  1.00  0.00    -0.269 OA
BRANCH  21  24
ATOM     24  C   UNL A   1      35.959  30.092  28.418  1.00  0.00     0.039 A 
ATOM     25  C   UNL A   1      36.873  30.083  27.359  1.00  0.00     0.014 A 
ATOM     26  C   UNL A   1      36.328  29.594  29.669  1.00  0.00     0.014 A 
ATOM     27  C   UNL A   1      38.184  29.654  27.578  1.00  0.00     0.010 A 
ATOM     28  C   UNL A   1      37.649  29.219  29.899  1.00  0.00     0.010 A 
ATOM     29  C   UNL A   1      38.595  29.258  28.860  1.00  0.00    -0.014 A 
BRANCH  29  30
ATOM     30  C   UNL A   1      40.004  28.896  29.163  1.00  0.00     0.031 A 
ATOM     31  C   UNL A   1      40.956  29.953  29.654  1.00  0.00     0.074 A 
ATOM     32  C   UNL A   1      40.456  27.657  28.882  1.00  0.00     0.049 A 
ATOM     33  N   UNL A   1      42.255  29.893  29.787  1.00  0.00    -0.248 NA
ATOM     34  C   UNL A   1      40.373  31.257  30.012  1.00  0.00     0.031 C 
ATOM     35  C   UNL A   1      39.642  26.549  28.373  1.00  0.00     0.029 A 
ATOM     36  N   UNL A   1      41.722  27.128  28.952  1.00  0.00    -0.354 N 
ATOM     37  C   UNL A   1      42.651  31.161  30.200  1.00  0.00     0.074 A 
ATOM     38  C   UNL A   1      41.457  31.972  30.284  1.00  0.00     0.031 C 
ATOM     39  C   UNL A   1      40.429  25.480  28.171  1.00  0.00     0.029 A 
ATOM     40  C   UNL A   1      41.809  25.835  28.490  1.00  0.00     0.049 A 
ATOM     41  H   UNL A   1      42.496  27.628  29.300  1.00  0.00     0.167 HD
ATOM     42  C   UNL A   1      43.897  31.604  30.485  1.00  0.00     0.031 A 
ATOM     43  C   UNL A   1      42.879  25.034  28.312  1.00  0.00     0.031 A 
ATOM     44  C   UNL A   1      45.076  30.783  30.444  1.00  0.00     0.049 A 
ATOM     45  C   UNL A   1      44.251  25.551  28.654  1.00  0.00     0.074 A 
ATOM     46  C   UNL A   1      46.370  31.124  30.799  1.00  0.00     0.029 A 
ATOM     47  N   UNL A   1      45.108  29.461  30.030  1.00  0.00    -0.354 N 
ATOM     48  N   UNL A   1      44.595  26.731  29.110  1.00  0.00    -0.248 NA
ATOM     49  C   UNL A   1      45.380  24.626  28.464  1.00  0.00     0.031 C 
ATOM     50  C   UNL A   1      47.193  30.020  30.559  1.00  0.00     0.029 A 
ATOM     51  C   UNL A   1      46.402  28.978  30.101  1.00  0.00     0.049 A 
ATOM     52  H   UNL A   1      44.326  28.944  29.729  1.00  0.00     0.167 HD
ATOM     53  C   UNL A   1      45.973  26.678  29.293  1.00  0.00     0.074 A 
ATOM     54  C   UNL A   1      46.400  25.351  28.904  1.00  0.00     0.031 C 
ATOM     55  C   UNL A   1      46.806  27.644  29.745  1.00  0.00     0.031 A 
BRANCH  42  56
ATOM     56  C   UNL A   1      44.065  33.050  30.866  1.00  0.00    -0.014 A 
ATOM     57  C   UNL A   1      43.985  33.461  32.207  1.00  0.00     0.010 A 
ATOM     58  C   UNL A   1      44.401  33.991  29.876  1.00  0.00     0.010 A 
ATOM     59  C   UNL A   1      44.222  34.795  32.549  1.00  0.00     0.020 A 
ATOM     60  C   UNL A   1      44.659  35.321  30.217  1.00  0.00     0.020 A 
ATOM     61  C   UNL A   1      44.558  35.716  31.553  1.00  0.00     0.054 A 
BRANCH  61  62
ATOM     62  S   UNL A   1      44.921  37.428  32.034  1.00  0.00     0.124 S 
ATOM     63  O   UNL A   1      44.687  37.389  33.475  1.00  0.00    -0.237 OA
ATOM     64  O   UNL A   1      46.315  37.587  31.628  1.00  0.00    -0.237 OA
ATOM     65  O   UNL A   1      43.958  38.216  31.269  1.00  0.00    -0.744 OA
ENDBRANCH  61  62
ENDBRANCH  42  56
BRANCH  43  66
ATOM     66  C   UNL A   1      42.708  23.662  27.760  1.00  0.00    -0.014 A 
ATOM     67  C   UNL A   1      42.757  23.439  26.372  1.00  0.00     0.010 A 
ATOM     68  C   UNL A   1      42.468  22.574  28.619  1.00  0.00     0.010 A 
ATOM     69  C   UNL A   1      42.530  22.162  25.852  1.00  0.00     0.020 A 
ATOM     70  C   UNL A   1      42.268  21.290  28.103  1.00  0.00     0.020 A 
ATOM     71  C   UNL A   1      42.281  21.096  26.721  1.00  0.00     0.054 A 
BRANCH  71  72
ATOM     72  S   UNL A   1      42.003  19.441  26.028  1.00  0.00     0.124 S 
ATOM     73  O   UNL A   1      40.561  19.445  25.807  1.00  0.00    -0.237 OA
ATOM     74  O   UNL A   1      42.828  19.458  24.823  1.00  0.00    -0.237 OA
ATOM     75  O   UNL A   1      42.475  18.548  27.084  1.00  0.00    -0.744 OA
ENDBRANCH  71  72
ENDBRANCH  43  66
BRANCH  55  76
ATOM     76  C   UNL A   1      48.261  27.299  29.912  1.00  0.00    -0.014 A 
ATOM     77  C   UNL A   1      49.193  27.561  28.894  1.00  0.00     0.010 A 
ATOM     78  C   UNL A   1      48.712  26.811  31.153  1.00  0.00     0.010 A 
ATOM     79  C   UNL A   1      50.554  27.337  29.114  1.00  0.00     0.020 A 
ATOM     80  C   UNL A   1      50.074  26.608  31.383  1.00  0.00     0.020 A 
ATOM     81  C   UNL A   1      50.988  26.868  30.359  1.00  0.00     0.054 A 
BRANCH  81  82
ATOM     82  S   UNL A   1      52.767  26.675  30.652  1.00  0.00     0.124 S 
ATOM     83  O   UNL A   1      53.125  27.970  31.221  1.00  0.00    -0.237 OA
ATOM     84  O   UNL A   1      52.822  25.545  31.577  1.00  0.00    -0.237 OA
ATOM     85  O   UNL A   1      53.310  26.407  29.322  1.00  0.00    -0.744 OA
ENDBRANCH  81  82
ENDBRANCH  55  76
ENDBRANCH  29  30
ENDBRANCH  21  24
ENDBRANCH  19  20
ENDBRANCH  18  19
ENDBRANCH   1  18
TORSDOF 18
ENDMDL
MODEL 2
REMARK VINA RESULT:      -9.3      2.702      9.447
REMARK SMILES CC(=O)N1CCC[C@H]1COCC(=O)NCCCCNC(=O)c1ccc(-c2c3nc(c(-c4ccc(S(=O)(=O)[O-])cc4)c4ccc([nH]4)c(-c4ccc(S(=O)(=O)[O-])cc4)c4nc(c(-c5ccc(S(=O)(=O)[O-])cc5)c5ccc2[nH]5)C=C4)C=C3)cc1
REMARK SMILES IDX 16 1 15 2 14 3 12 4 13 5 11 7 10 8 9 9 8 10 4 11 5 12 6 13
REMARK SMILES IDX 7 14 2 15 1 16 3 17 17 18 18 19 19 20 20 21 21 23 22 24
REMARK SMILES IDX 23 25 81 26 24 27 80 28 25 29 26 30 27 31 74 32 28 33 79 34
REMARK SMILES IDX 73 35 75 36 29 37 78 38 72 39 71 40 30 42 60 43 41 44 59 45
REMARK SMILES IDX 42 46 45 47 58 48 76 49 43 50 44 51 57 53 77 54 46 55 31 56
REMARK SMILES IDX 32 57 40 58 33 59 39 60 34 61 35 62 36 63 37 64 38 65 61 66
REMARK SMILES IDX 62 67 70 68 63 69 69 70 64 71 65 72 66 73 67 74 68 75 47 76
REMARK SMILES IDX 48 77 56 78 49 79 55 80 50 81 51 82 52 83 53 84 54 85
REMARK H PARENT 14 6 19 22 75 41 45 52
REMARK Flexibility Score: inf
ROOT
ATOM      1  C   UNL A   1      35.150  22.368  26.454  1.00  0.00     0.023 C 
ENDROOT
BRANCH   1   2
ATOM      2  C   UNL A   1      33.979  22.556  27.416  1.00  0.00     0.116 C 
BRANCH   2   3
ATOM      3  N   UNL A   1      32.761  21.919  26.961  1.00  0.00    -0.354 N 
ATOM      4  C   UNL A   1      31.980  22.262  25.894  1.00  0.00     0.245 C 
ATOM      5  O   UNL A   1      31.077  21.501  25.546  1.00  0.00    -0.272 OA
ATOM      6  H   UNL A   1      32.459  21.142  27.485  1.00  0.00     0.163 HD
BRANCH   4   7
ATOM      7  C   UNL A   1      32.288  23.553  25.122  1.00  0.00     0.260 C 
BRANCH   7   8
ATOM      8  O   UNL A   1      31.795  24.776  25.658  1.00  0.00    -0.370 OA
BRANCH   8   9
ATOM      9  C   UNL A   1      32.111  25.917  24.848  1.00  0.00     0.185 C 
BRANCH   9  10
ATOM     10  C   UNL A   1      31.094  27.060  25.026  1.00  0.00     0.111 C 
ATOM     11  N   UNL A   1      31.630  28.250  25.687  1.00  0.00    -0.338 N 
ATOM     12  C   UNL A   1      31.498  29.425  24.847  1.00  0.00     0.120 C 
ATOM     13  C   UNL A   1      30.358  29.064  23.910  1.00  0.00     0.024 C 
ATOM     14  C   UNL A   1      30.572  27.572  23.674  1.00  0.00     0.029 C 
BRANCH  11  15
ATOM     15  C   UNL A   1      31.983  28.215  27.019  1.00  0.00     0.219 C 
ATOM     16  C   UNL A   1      33.383  28.640  27.370  1.00  0.00     0.114 C 
ATOM     17  O   UNL A   1      31.184  27.900  27.899  1.00  0.00    -0.275 OA
ENDBRANCH  11  15
ENDBRANCH   9  10
ENDBRANCH   8   9
ENDBRANCH   7   8
ENDBRANCH   4   7
ENDBRANCH   2   3
ENDBRANCH   1   2
BRANCH   1  18
ATOM     18  C   UNL A   1      35.838  23.658  26.001  1.00  0.00     0.023 C 
BRANCH  18  19
ATOM     19  C   UNL A   1      37.012  23.486  25.042  1.00  0.00     0.116 C 
BRANCH  19  20
ATOM     20  N   UNL A   1      37.993  22.511  25.496  1.00  0.00    -0.352 N 
ATOM     21  C   UNL A   1      39.117  22.717  26.263  1.00  0.00     0.251 C 
ATOM     22  H   UNL A   1      37.830  21.581  25.217  1.00  0.00     0.163 HD
ATOM     23  O   UNL A   1      39.898  21.795  26.475  1.00  0.00    -0.269 OA
BRANCH  21  24
ATOM     24  C   UNL A   1      39.398  24.069  26.795  1.00  0.00     0.039 A 
ATOM     25  C   UNL A   1      39.014  24.377  28.104  1.00  0.00     0.014 A 
ATOM     26  C   UNL A   1      40.072  25.014  26.019  1.00  0.00     0.014 A 
ATOM     27  C   UNL A   1      39.382  25.603  28.664  1.00  0.00     0.010 A 
ATOM     28  C   UNL A   1      40.485  26.211  26.596  1.00  0.00     0.010 A 
ATOM     29  C   UNL A   1      40.157  26.513  27.929  1.00  0.00    -0.014 A 
BRANCH  29  30
ATOM     30  C   UNL A   1      40.662  27.781  28.519  1.00  0.00     0.031 A 
ATOM     31  C   UNL A   1      42.045  27.830  29.108  1.00  0.00     0.074 A 
ATOM     32  C   UNL A   1      39.838  28.843  28.635  1.00  0.00     0.049 A 
ATOM     33  N   UNL A   1      42.597  28.765  29.836  1.00  0.00    -0.248 NA
ATOM     34  C   UNL A   1      42.910  26.662  28.871  1.00  0.00     0.031 C 
ATOM     35  C   UNL A   1      38.463  28.913  28.133  1.00  0.00     0.029 A 
ATOM     36  N   UNL A   1      40.027  30.059  29.246  1.00  0.00    -0.354 N 
ATOM     37  C   UNL A   1      43.854  28.280  30.183  1.00  0.00     0.074 A 
ATOM     38  C   UNL A   1      43.978  26.965  29.596  1.00  0.00     0.031 C 
ATOM     39  C   UNL A   1      37.934  30.103  28.463  1.00  0.00     0.029 A 
ATOM     40  C   UNL A   1      38.910  30.862  29.238  1.00  0.00     0.049 A 
ATOM     41  H   UNL A   1      40.882  30.330  29.653  1.00  0.00     0.167 HD
ATOM     42  C   UNL A   1      44.814  28.882  30.922  1.00  0.00     0.031 A 
ATOM     43  C   UNL A   1      38.683  32.060  29.814  1.00  0.00     0.031 A 
ATOM     44  C   UNL A   1      44.705  30.207  31.466  1.00  0.00     0.049 A 
ATOM     45  C   UNL A   1      39.779  32.711  30.617  1.00  0.00     0.074 A 
ATOM     46  C   UNL A   1      45.662  30.931  32.157  1.00  0.00     0.029 A 
ATOM     47  N   UNL A   1      43.578  31.009  31.381  1.00  0.00    -0.354 N 
ATOM     48  N   UNL A   1      40.985  32.266  30.874  1.00  0.00    -0.248 NA
ATOM     49  C   UNL A   1      39.485  34.028  31.202  1.00  0.00     0.031 C 
ATOM     50  C   UNL A   1      45.099  32.156  32.525  1.00  0.00     0.029 A 
ATOM     51  C   UNL A   1      43.809  32.212  32.022  1.00  0.00     0.049 A 
ATOM     52  H   UNL A   1      42.740  30.759  30.930  1.00  0.00     0.167 HD
ATOM     53  C   UNL A   1      41.604  33.263  31.620  1.00  0.00     0.074 A 
ATOM     54  C   UNL A   1      40.644  34.336  31.771  1.00  0.00     0.031 C 
ATOM     55  C   UNL A   1      42.857  33.285  32.133  1.00  0.00     0.031 A 
BRANCH  42  56
ATOM     56  C   UNL A   1      46.079  28.115  31.198  1.00  0.00    -0.014 A 
ATOM     57  C   UNL A   1      47.190  28.214  30.343  1.00  0.00     0.010 A 
ATOM     58  C   UNL A   1      46.187  27.360  32.380  1.00  0.00     0.010 A 
ATOM     59  C   UNL A   1      48.382  27.556  30.657  1.00  0.00     0.020 A 
ATOM     60  C   UNL A   1      47.383  26.719  32.709  1.00  0.00     0.020 A 
ATOM     61  C   UNL A   1      48.472  26.814  31.839  1.00  0.00     0.054 A 
BRANCH  61  62
ATOM     62  S   UNL A   1      50.051  26.022  32.253  1.00  0.00     0.124 S 
ATOM     63  O   UNL A   1      50.769  27.112  32.909  1.00  0.00    -0.237 OA
ATOM     64  O   UNL A   1      49.641  24.925  33.125  1.00  0.00    -0.237 OA
ATOM     65  O   UNL A   1      50.587  25.617  30.956  1.00  0.00    -0.744 OA
ENDBRANCH  61  62
ENDBRANCH  42  56
BRANCH  43  66
ATOM     66  C   UNL A   1      37.357  32.721  29.679  1.00  0.00    -0.014 A 
ATOM     67  C   UNL A   1      37.052  33.485  28.537  1.00  0.00     0.010 A 
ATOM     68  C   UNL A   1      36.400  32.614  30.705  1.00  0.00     0.010 A 
ATOM     69  C   UNL A   1      35.832  34.161  28.442  1.00  0.00     0.020 A 
ATOM     70  C   UNL A   1      35.168  33.267  30.600  1.00  0.00     0.020 A 
ATOM     71  C   UNL A   1      34.900  34.052  29.477  1.00  0.00     0.054 A 
BRANCH  71  72
ATOM     72  S   UNL A   1      33.315  34.925  29.330  1.00  0.00     0.124 S 
ATOM     73  O   UNL A   1      33.735  36.236  28.846  1.00  0.00    -0.237 OA
ATOM     74  O   UNL A   1      32.585  34.100  28.370  1.00  0.00    -0.237 OA
ATOM     75  O   UNL A   1      32.785  34.898  30.691  1.00  0.00    -0.744 OA
ENDBRANCH  71  72
ENDBRANCH  43  66
BRANCH  55  76
ATOM     76  C   UNL A   1      43.303  34.528  32.852  1.00  0.00    -0.014 A 
ATOM     77  C   UNL A   1      43.853  35.616  32.154  1.00  0.00     0.010 A 
ATOM     78  C   UNL A   1      43.060  34.646  34.234  1.00  0.00     0.010 A 
ATOM     79  C   UNL A   1      44.156  36.802  32.827  1.00  0.00     0.020 A 
ATOM     80  C   UNL A   1      43.341  35.838  34.904  1.00  0.00     0.020 A 
ATOM     81  C   UNL A   1      43.892  36.909  34.197  1.00  0.00     0.054 A 
BRANCH  81  82
ATOM     82  S   UNL A   1      44.206  38.489  35.030  1.00  0.00     0.124 S 
ATOM     83  O   UNL A   1      43.352  39.404  34.279  1.00  0.00    -0.237 OA
ATOM     84  O   UNL A   1      43.784  38.220  36.403  1.00  0.00    -0.237 OA
ATOM     85  O   UNL A   1      45.642  38.693  34.857  1.00  0.00    -0.744 OA
ENDBRANCH  81  82
ENDBRANCH  55  76
ENDBRANCH  29  30
ENDBRANCH  21  24
ENDBRANCH  19  20
ENDBRANCH  18  19
ENDBRANCH   1  18
TORSDOF 18
ENDMDL
MODEL 3
REMARK VINA RESULT:      -9.0      5.212     10.703
REMARK SMILES CC(=O)N1CCC[C@H]1COCC(=O)NCCCCNC(=O)c1ccc(-c2c3nc(c(-c4ccc(S(=O)(=O)[O-])cc4)c4ccc([nH]4)c(-c4ccc(S(=O)(=O)[O-])cc4)c4nc(c(-c5ccc(S(=O)(=O)[O-])cc5)c5ccc2[nH]5)C=C4)C=C3)cc1
REMARK SMILES IDX 16 1 15 2 14 3 12 4 13 5 11 7 10 8 9 9 8 10 4 11 5 12 6 13
REMARK SMILES IDX 7 14 2 15 1 16 3 17 17 18 18 19 19 20 20 21 21 23 22 24
REMARK SMILES IDX 23 25 81 26 24 27 80 28 25 29 26 30 27 31 74 32 28 33 79 34
REMARK SMILES IDX 73 35 75 36 29 37 78 38 72 39 71 40 30 42 60 43 41 44 59 45
REMARK SMILES IDX 42 46 45 47 58 48 76 49 43 50 44 51 57 53 77 54 46 55 31 56
REMARK SMILES IDX 32 57 40 58 33 59 39 60 34 61 35 62 36 63 37 64 38 65 61 66
REMARK SMILES IDX 62 67 70 68 63 69 69 70 64 71 65 72 66 73 67 74 68 75 47 76
REMARK SMILES IDX 48 77 56 78 49 79 55 80 50 81 51 82 52 83 53 84 54 85
REMARK H PARENT 14 6 19 22 75 41 45 52
REMARK Flexibility Score: inf
ROOT
ATOM      1  C   UNL A   1      40.878  21.556  27.681  1.00  0.00     0.023 C 
ENDROOT
BRANCH   1   2
ATOM      2  C   UNL A   1      39.970  21.438  26.459  1.00  0.00     0.116 C 
BRANCH   2   3
ATOM      3  N   UNL A   1      39.246  22.658  26.169  1.00  0.00    -0.354 N 
ATOM      4  C   UNL A   1      37.970  22.788  25.698  1.00  0.00     0.245 C 
ATOM      5  O   UNL A   1      37.453  23.905  25.678  1.00  0.00    -0.272 OA
ATOM      6  H   UNL A   1      39.734  23.498  26.331  1.00  0.00     0.163 HD
BRANCH   4   7
ATOM      7  C   UNL A   1      37.198  21.533  25.266  1.00  0.00     0.260 C 
BRANCH   7   8
ATOM      8  O   UNL A   1      35.924  21.718  24.659  1.00  0.00    -0.370 OA
BRANCH   8   9
ATOM      9  C   UNL A   1      34.867  21.909  25.610  1.00  0.00     0.185 C 
BRANCH   9  10
ATOM     10  C   UNL A   1      33.563  22.389  24.946  1.00  0.00     0.111 C 
ATOM     11  N   UNL A   1      32.438  21.465  25.081  1.00  0.00    -0.338 N 
ATOM     12  C   UNL A   1      31.313  22.095  25.746  1.00  0.00     0.120 C 
ATOM     13  C   UNL A   1      31.541  23.577  25.499  1.00  0.00     0.024 C 
ATOM     14  C   UNL A   1      33.060  23.703  25.567  1.00  0.00     0.029 C 
BRANCH  11  15
ATOM     15  C   UNL A   1      32.445  20.249  24.431  1.00  0.00     0.219 C 
ATOM     16  C   UNL A   1      32.624  19.019  25.278  1.00  0.00     0.114 C 
ATOM     17  O   UNL A   1      32.264  20.156  23.219  1.00  0.00    -0.275 OA
ENDBRANCH  11  15
ENDBRANCH   9  10
ENDBRANCH   8   9
ENDBRANCH   7   8
ENDBRANCH   4   7
ENDBRANCH   2   3
ENDBRANCH   1   2
BRANCH   1  18
ATOM     18  C   UNL A   1      42.359  21.793  27.376  1.00  0.00     0.023 C 
BRANCH  18  19
ATOM     19  C   UNL A   1      42.827  23.244  27.434  1.00  0.00     0.116 C 
BRANCH  19  20
ATOM     20  N   UNL A   1      42.528  23.999  26.227  1.00  0.00    -0.352 N 
ATOM     21  C   UNL A   1      42.140  25.314  26.110  1.00  0.00     0.251 C 
ATOM     22  H   UNL A   1      42.615  23.502  25.381  1.00  0.00     0.163 HD
ATOM     23  O   UNL A   1      41.828  25.772  25.015  1.00  0.00    -0.269 OA
BRANCH  21  24
ATOM     24  C   UNL A   1      42.060  26.161  27.322  1.00  0.00     0.039 A 
ATOM     25  C   UNL A   1      43.017  27.162  27.514  1.00  0.00     0.014 A 
ATOM     26  C   UNL A   1      41.024  25.991  28.242  1.00  0.00     0.014 A 
ATOM     27  C   UNL A   1      42.886  28.050  28.585  1.00  0.00     0.010 A 
ATOM     28  C   UNL A   1      40.864  26.910  29.276  1.00  0.00     0.010 A 
ATOM     29  C   UNL A   1      41.785  27.958  29.450  1.00  0.00    -0.014 A 
BRANCH  29  30
ATOM     30  C   UNL A   1      41.547  28.944  30.537  1.00  0.00     0.031 A 
ATOM     31  C   UNL A   1      42.348  28.861  31.808  1.00  0.00     0.074 A 
ATOM     32  C   UNL A   1      40.535  29.829  30.431  1.00  0.00     0.049 A 
ATOM     33  N   UNL A   1      42.165  29.490  32.939  1.00  0.00    -0.248 NA
ATOM     34  C   UNL A   1      43.484  27.924  31.816  1.00  0.00     0.031 C 
ATOM     35  C   UNL A   1      39.663  29.991  29.264  1.00  0.00     0.029 A 
ATOM     36  N   UNL A   1      40.044  30.738  31.336  1.00  0.00    -0.354 N 
ATOM     37  C   UNL A   1      43.132  28.995  33.806  1.00  0.00     0.074 A 
ATOM     38  C   UNL A   1      43.891  28.005  33.076  1.00  0.00     0.031 C 
ATOM     39  C   UNL A   1      38.744  30.934  29.527  1.00  0.00     0.029 A 
ATOM     40  C   UNL A   1      38.927  31.412  30.894  1.00  0.00     0.049 A 
ATOM     41  H   UNL A   1      40.451  30.894  32.218  1.00  0.00     0.167 HD
ATOM     42  C   UNL A   1      43.364  29.339  35.095  1.00  0.00     0.031 A 
ATOM     43  C   UNL A   1      38.123  32.290  31.525  1.00  0.00     0.031 A 
ATOM     44  C   UNL A   1      42.637  30.355  35.804  1.00  0.00     0.049 A 
ATOM     45  C   UNL A   1      38.417  32.665  32.954  1.00  0.00     0.074 A 
ATOM     46  C   UNL A   1      42.858  30.831  37.085  1.00  0.00     0.029 A 
ATOM     47  N   UNL A   1      41.554  31.055  35.297  1.00  0.00    -0.354 N 
ATOM     48  N   UNL A   1      39.380  32.237  33.735  1.00  0.00    -0.248 NA
ATOM     49  C   UNL A   1      37.522  33.647  33.586  1.00  0.00     0.031 C 
ATOM     50  C   UNL A   1      41.882  31.790  37.369  1.00  0.00     0.029 A 
ATOM     51  C   UNL A   1      41.084  31.945  36.247  1.00  0.00     0.049 A 
ATOM     52  H   UNL A   1      41.176  30.937  34.396  1.00  0.00     0.167 HD
ATOM     53  C   UNL A   1      39.225  32.922  34.935  1.00  0.00     0.074 A 
ATOM     54  C   UNL A   1      38.082  33.795  34.779  1.00  0.00     0.031 C 
ATOM     55  C   UNL A   1      39.967  32.834  36.064  1.00  0.00     0.031 A 
BRANCH  42  56
ATOM     56  C   UNL A   1      44.450  28.609  35.837  1.00  0.00    -0.014 A 
ATOM     57  C   UNL A   1      45.769  29.095  35.856  1.00  0.00     0.010 A 
ATOM     58  C   UNL A   1      44.123  27.475  36.603  1.00  0.00     0.010 A 
ATOM     59  C   UNL A   1      46.747  28.447  36.616  1.00  0.00     0.020 A 
ATOM     60  C   UNL A   1      45.093  26.838  37.381  1.00  0.00     0.020 A 
ATOM     61  C   UNL A   1      46.403  27.324  37.374  1.00  0.00     0.054 A 
BRANCH  61  62
ATOM     62  S   UNL A   1      47.679  26.540  38.399  1.00  0.00     0.124 S 
ATOM     63  O   UNL A   1      47.347  27.047  39.728  1.00  0.00    -0.237 OA
ATOM     64  O   UNL A   1      47.429  25.117  38.190  1.00  0.00    -0.237 OA
ATOM     65  O   UNL A   1      48.931  27.040  37.837  1.00  0.00    -0.744 OA
ENDBRANCH  61  62
ENDBRANCH  42  56
BRANCH  43  66
ATOM     66  C   UNL A   1      36.941  32.866  30.826  1.00  0.00    -0.014 A 
ATOM     67  C   UNL A   1      37.105  33.874  29.859  1.00  0.00     0.010 A 
ATOM     68  C   UNL A   1      35.642  32.429  31.146  1.00  0.00     0.010 A 
ATOM     69  C   UNL A   1      35.990  34.460  29.252  1.00  0.00     0.020 A 
ATOM     70  C   UNL A   1      34.527  32.994  30.521  1.00  0.00     0.020 A 
ATOM     71  C   UNL A   1      34.708  34.020  29.591  1.00  0.00     0.054 A 
BRANCH  71  72
ATOM     72  S   UNL A   1      33.273  34.783  28.783  1.00  0.00     0.124 S 
ATOM     73  O   UNL A   1      32.390  35.043  29.916  1.00  0.00    -0.237 OA
ATOM     74  O   UNL A   1      33.855  35.965  28.150  1.00  0.00    -0.237 OA
ATOM     75  O   UNL A   1      32.817  33.751  27.854  1.00  0.00    -0.744 OA
ENDBRANCH  71  72
ENDBRANCH  43  66
BRANCH  55  76
ATOM     76  C   UNL A   1      39.621  33.745  37.209  1.00  0.00    -0.014 A 
ATOM     77  C   UNL A   1      38.904  33.275  38.323  1.00  0.00     0.010 A 
ATOM     78  C   UNL A   1      40.121  35.060  37.215  1.00  0.00     0.010 A 
ATOM     79  C   UNL A   1      38.691  34.108  39.424  1.00  0.00     0.020 A 
ATOM     80  C   UNL A   1      39.929  35.888  38.323  1.00  0.00     0.020 A 
ATOM     81  C   UNL A   1      39.211  35.408  39.420  1.00  0.00     0.054 A 
BRANCH  81  82
ATOM     82  S   UNL A   1      39.003  36.438  40.898  1.00  0.00     0.124 S 
ATOM     83  O   UNL A   1      37.944  35.734  41.615  1.00  0.00    -0.237 OA
ATOM     84  O   UNL A   1      40.325  36.383  41.519  1.00  0.00    -0.237 OA
ATOM     85  O   UNL A   1      38.630  37.745  40.361  1.00  0.00    -0.744 OA
ENDBRANCH  81  82
ENDBRANCH  55  76
ENDBRANCH  29  30
ENDBRANCH  21  24
ENDBRANCH  19  20
ENDBRANCH  18  19
ENDBRANCH   1  18
TORSDOF 18
ENDMDL
