MODEL 1
REMARK VINA RESULT:     -11.8      0.000      0.000
REMARK SMILES O=C(NCCCCNC(=O)c1cccc(Nc2ccnc3ccc(Cl)cc23)c1)c1ccc(-c2c3nc(c(-c4ccc(S(=O)(=O)[O-])cc4)c4ccc([nH]4)c(-c4ccc(S(=O)(=O)[O-])cc4)c4nc(c(-c5ccc(S(=O)(=O)[O-])cc5)c5ccc2[nH]5)C=C4)C=C3)cc1
REMARK SMILES IDX 5 1 4 2 3 3 1 4 2 5 29 7 30 8 88 9 31 10 87 11 32 12 33 13
REMARK SMILES IDX 34 14 81 15 35 16 86 17 80 18 82 19 36 20 85 21 79 22 78 23
REMARK SMILES IDX 37 25 67 26 48 27 66 28 49 29 52 30 65 31 83 32 50 33 51 34
REMARK SMILES IDX 64 36 84 37 53 38 38 39 39 40 47 41 40 42 46 43 41 44 42 45
REMARK SMILES IDX 43 46 44 47 45 48 68 49 69 50 77 51 70 52 76 53 71 54 72 55
REMARK SMILES IDX 73 56 74 57 75 58 54 59 55 60 63 61 56 62 62 63 57 64 58 65
REMARK SMILES IDX 59 66 60 67 61 68 6 69 7 70 8 71 9 72 10 74 11 75 12 76
REMARK SMILES IDX 28 77 13 78 15 79 14 80 16 81 17 83 18 84 27 85 19 86 21 87
REMARK SMILES IDX 26 88 20 89 22 90 24 91 23 92 25 93
REMARK H PARENT 3 6 82 24 52 35 8 73 16 82
REMARK Flexibility Score: inf
ROOT
ATOM      1  C   UNL A   1      33.297  28.014  25.571  1.00  0.00     0.023 C 
ENDROOT
BRANCH   1   2
ATOM      2  C   UNL A   1      33.745  28.254  27.009  1.00  0.00     0.116 C 
BRANCH   2   3
ATOM      3  N   UNL A   1      33.573  29.628  27.456  1.00  0.00    -0.352 N 
ATOM      4  O   UNL A   1      34.112  31.578  28.444  1.00  0.00    -0.269 OA
ATOM      5  C   UNL A   1      34.474  30.471  28.068  1.00  0.00     0.251 C 
ATOM      6  H   UNL A   1      32.680  30.012  27.298  1.00  0.00     0.163 HD
BRANCH   5   7
ATOM      7  C   UNL A   1      35.866  30.020  28.301  1.00  0.00     0.039 A 
ATOM      8  C   UNL A   1      36.268  29.560  29.555  1.00  0.00     0.014 A 
ATOM      9  C   UNL A   1      36.785  30.076  27.249  1.00  0.00     0.014 A 
ATOM     10  C   UNL A   1      37.613  29.319  29.801  1.00  0.00     0.010 A 
ATOM     11  C   UNL A   1      38.125  29.743  27.476  1.00  0.00     0.010 A 
ATOM     12  C   UNL A   1      38.559  29.399  28.765  1.00  0.00    -0.014 A 
BRANCH  12  13
ATOM     13  C   UNL A   1      39.978  29.067  29.058  1.00  0.00     0.031 A 
ATOM     14  C   UNL A   1      40.557  27.720  28.711  1.00  0.00     0.074 A 
ATOM     15  C   UNL A   1      40.765  30.023  29.589  1.00  0.00     0.049 A 
ATOM     16  N   UNL A   1      41.791  27.301  28.841  1.00  0.00    -0.248 NA
ATOM     17  C   UNL A   1      39.641  26.715  28.151  1.00  0.00     0.031 C 
ATOM     18  C   UNL A   1      40.314  31.363  29.980  1.00  0.00     0.029 A 
ATOM     19  N   UNL A   1      42.107  30.033  29.864  1.00  0.00    -0.354 N 
ATOM     20  C   UNL A   1      41.800  25.986  28.389  1.00  0.00     0.074 A 
ATOM     21  C   UNL A   1      40.440  25.665  28.009  1.00  0.00     0.031 C 
ATOM     22  C   UNL A   1      41.369  32.080  30.389  1.00  0.00     0.029 A 
ATOM     23  C   UNL A   1      42.558  31.237  30.350  1.00  0.00     0.049 A 
ATOM     24  H   UNL A   1      42.692  29.253  29.727  1.00  0.00     0.167 HD
ATOM     25  C   UNL A   1      42.846  25.129  28.289  1.00  0.00     0.031 A 
ATOM     26  C   UNL A   1      43.789  31.625  30.734  1.00  0.00     0.031 A 
ATOM     27  C   UNL A   1      44.197  25.451  28.674  1.00  0.00     0.049 A 
ATOM     28  C   UNL A   1      44.924  30.648  30.631  1.00  0.00     0.074 A 
ATOM     29  C   UNL A   1      45.325  24.649  28.611  1.00  0.00     0.029 A 
ATOM     30  N   UNL A   1      44.606  26.671  29.191  1.00  0.00    -0.354 N 
ATOM     31  N   UNL A   1      44.910  29.415  30.186  1.00  0.00    -0.248 NA
ATOM     32  C   UNL A   1      46.242  31.118  31.078  1.00  0.00     0.031 C 
ATOM     33  C   UNL A   1      46.407  25.371  29.128  1.00  0.00     0.029 A 
ATOM     34  C   UNL A   1      45.965  26.640  29.463  1.00  0.00     0.049 A 
ATOM     35  H   UNL A   1      44.018  27.446  29.342  1.00  0.00     0.167 HD
ATOM     36  C   UNL A   1      46.219  28.963  30.292  1.00  0.00     0.074 A 
ATOM     37  C   UNL A   1      47.002  30.065  30.813  1.00  0.00     0.031 C 
ATOM     38  C   UNL A   1      46.727  27.742  29.991  1.00  0.00     0.031 A 
BRANCH  25  39
ATOM     39  C   UNL A   1      42.572  23.750  27.748  1.00  0.00    -0.014 A 
ATOM     40  C   UNL A   1      42.713  23.469  26.377  1.00  0.00     0.010 A 
ATOM     41  C   UNL A   1      42.229  22.706  28.627  1.00  0.00     0.010 A 
ATOM     42  C   UNL A   1      42.486  22.178  25.891  1.00  0.00     0.020 A 
ATOM     43  C   UNL A   1      42.024  21.408  28.148  1.00  0.00     0.020 A 
ATOM     44  C   UNL A   1      42.140  21.156  26.779  1.00  0.00     0.054 A 
BRANCH  44  45
ATOM     45  S   UNL A   1      41.879  19.484  26.124  1.00  0.00     0.124 S 
ATOM     46  O   UNL A   1      42.243  18.652  27.268  1.00  0.00    -0.237 OA
ATOM     47  O   UNL A   1      40.459  19.492  25.781  1.00  0.00    -0.237 OA
ATOM     48  O   UNL A   1      42.791  19.410  24.985  1.00  0.00    -0.744 OA
ENDBRANCH  44  45
ENDBRANCH  25  39
BRANCH  26  49
ATOM     49  C   UNL A   1      43.996  32.993  31.277  1.00  0.00    -0.014 A 
ATOM     50  C   UNL A   1      43.891  33.247  32.655  1.00  0.00     0.010 A 
ATOM     51  C   UNL A   1      44.320  34.051  30.408  1.00  0.00     0.010 A 
ATOM     52  C   UNL A   1      44.082  34.541  33.152  1.00  0.00     0.020 A 
ATOM     53  C   UNL A   1      44.542  35.338  30.903  1.00  0.00     0.020 A 
ATOM     54  C   UNL A   1      44.405  35.578  32.270  1.00  0.00     0.054 A 
BRANCH  54  55
ATOM     55  S   UNL A   1      44.691  37.241  32.935  1.00  0.00     0.124 S 
ATOM     56  O   UNL A   1      43.435  37.912  32.618  1.00  0.00    -0.237 OA
ATOM     57  O   UNL A   1      44.931  36.982  34.352  1.00  0.00    -0.237 OA
ATOM     58  O   UNL A   1      45.859  37.708  32.190  1.00  0.00    -0.744 OA
ENDBRANCH  54  55
ENDBRANCH  26  49
BRANCH  38  59
ATOM     59  C   UNL A   1      48.204  27.549  30.201  1.00  0.00    -0.014 A 
ATOM     60  C   UNL A   1      48.698  26.963  31.380  1.00  0.00     0.010 A 
ATOM     61  C   UNL A   1      49.107  27.942  29.199  1.00  0.00     0.010 A 
ATOM     62  C   UNL A   1      50.074  26.815  31.572  1.00  0.00     0.020 A 
ATOM     63  C   UNL A   1      50.483  27.771  29.375  1.00  0.00     0.020 A 
ATOM     64  C   UNL A   1      50.958  27.226  30.569  1.00  0.00     0.054 A 
BRANCH  64  65
ATOM     65  S   UNL A   1      52.740  27.006  30.831  1.00  0.00     0.124 S 
ATOM     66  O   UNL A   1      53.146  26.333  29.601  1.00  0.00    -0.237 OA
ATOM     67  O   UNL A   1      53.215  28.378  30.983  1.00  0.00    -0.237 OA
ATOM     68  O   UNL A   1      52.813  26.190  32.041  1.00  0.00    -0.744 OA
ENDBRANCH  64  65
ENDBRANCH  38  59
ENDBRANCH  12  13
ENDBRANCH   5   7
ENDBRANCH   2   3
ENDBRANCH   1   2
BRANCH   1  69
ATOM     69  C   UNL A   1      33.257  29.246  24.669  1.00  0.00     0.023 C 
BRANCH  69  70
ATOM     70  C   UNL A   1      33.231  28.955  23.172  1.00  0.00     0.116 C 
BRANCH  70  71
ATOM     71  N   UNL A   1      31.974  29.312  22.542  1.00  0.00    -0.352 N 
ATOM     72  C   UNL A   1      30.814  28.602  22.375  1.00  0.00     0.251 C 
ATOM     73  H   UNL A   1      31.951  30.223  22.168  1.00  0.00     0.163 HD
ATOM     74  O   UNL A   1      29.908  29.084  21.699  1.00  0.00    -0.269 OA
BRANCH  72  75
ATOM     75  C   UNL A   1      30.623  27.267  22.983  1.00  0.00     0.041 A 
ATOM     76  C   UNL A   1      29.956  27.196  24.212  1.00  0.00     0.014 A 
ATOM     77  C   UNL A   1      31.230  26.122  22.456  1.00  0.00     0.039 A 
ATOM     78  C   UNL A   1      29.858  25.981  24.886  1.00  0.00     0.003 A 
ATOM     79  C   UNL A   1      31.132  24.896  23.126  1.00  0.00     0.039 A 
ATOM     80  C   UNL A   1      30.447  24.838  24.345  1.00  0.00     0.026 A 
BRANCH  79  81
ATOM     81  N   UNL A   1      31.932  23.797  22.719  1.00  0.00    -0.355 N 
ATOM     82  H   UNL A   1      31.668  23.252  21.943  1.00  0.00     0.167 HD
BRANCH  81  83
ATOM     83  C   UNL A   1      33.119  23.491  23.440  1.00  0.00     0.050 A 
ATOM     84  C   UNL A   1      33.971  24.539  23.804  1.00  0.00     0.047 A 
ATOM     85  C   UNL A   1      33.443  22.171  23.818  1.00  0.00     0.025 A 
ATOM     86  C   UNL A   1      35.058  24.258  24.600  1.00  0.00     0.114 A 
ATOM     87  C   UNL A   1      34.579  22.003  24.641  1.00  0.00     0.072 A 
ATOM     88  C   UNL A   1      32.687  21.037  23.438  1.00  0.00     0.033 A 
ATOM     89  N   UNL A   1      35.365  23.019  25.028  1.00  0.00    -0.256 NA
ATOM     90  C   UNL A   1      34.902  20.729  25.083  1.00  0.00     0.030 A 
ATOM     91  C   UNL A   1      33.055  19.767  23.876  1.00  0.00     0.041 A 
ATOM     92  C   UNL A   1      34.156  19.609  24.708  1.00  0.00     0.023 A 
ATOM     93  Cl  UNL A   1      32.152  18.389  23.386  1.00  0.00    -0.084 Cl
ENDBRANCH  81  83
ENDBRANCH  79  81
ENDBRANCH  72  75
ENDBRANCH  70  71
ENDBRANCH  69  70
ENDBRANCH   1  69
TORSDOF 16
ENDMDL
MODEL 2
REMARK VINA RESULT:     -11.4      1.445      2.059
REMARK SMILES O=C(NCCCCNC(=O)c1cccc(Nc2ccnc3ccc(Cl)cc23)c1)c1ccc(-c2c3nc(c(-c4ccc(S(=O)(=O)[O-])cc4)c4ccc([nH]4)c(-c4ccc(S(=O)(=O)[O-])cc4)c4nc(c(-c5ccc(S(=O)(=O)[O-])cc5)c5ccc2[nH]5)C=C4)C=C3)cc1
REMARK SMILES IDX 5 1 4 2 3 3 1 4 2 5 29 7 30 8 88 9 31 10 87 11 32 12 33 13
REMARK SMILES IDX 34 14 81 15 35 16 86 17 80 18 82 19 36 20 85 21 79 22 78 23
REMARK SMILES IDX 37 25 67 26 48 27 66 28 49 29 52 30 65 31 83 32 50 33 51 34
REMARK SMILES IDX 64 36 84 37 53 38 38 39 39 40 47 41 40 42 46 43 41 44 42 45
REMARK SMILES IDX 43 46 44 47 45 48 68 49 69 50 77 51 70 52 76 53 71 54 72 55
REMARK SMILES IDX 73 56 74 57 75 58 54 59 55 60 63 61 56 62 62 63 57 64 58 65
REMARK SMILES IDX 59 66 60 67 61 68 6 69 7 70 8 71 9 72 10 74 11 75 12 76
REMARK SMILES IDX 28 77 13 78 15 79 14 80 16 81 17 83 18 84 27 85 19 86 21 87
REMARK SMILES IDX 26 88 20 89 22 90 24 91 23 92 25 93
REMARK H PARENT 3 6 82 24 52 35 8 73 16 82
REMARK Flexibility Score: inf
ROOT
ATOM      1  C   UNL A   1      32.568  27.790  25.930  1.00  0.00     0.023 C 
ENDROOT
BRANCH   1   2
ATOM      2  C   UNL A   1      33.644  28.287  26.888  1.00  0.00     0.116 C 
BRANCH   2   3
ATOM      3  N   UNL A   1      33.428  29.648  27.358  1.00  0.00    -0.352 N 
ATOM      4  O   UNL A   1      33.892  31.586  28.406  1.00  0.00    -0.269 OA
ATOM      5  C   UNL A   1      34.289  30.495  28.019  1.00  0.00     0.251 C 
ATOM      6  H   UNL A   1      32.534  30.017  27.178  1.00  0.00     0.163 HD
BRANCH   5   7
ATOM      7  C   UNL A   1      35.682  30.067  28.291  1.00  0.00     0.039 A 
ATOM      8  C   UNL A   1      36.062  29.638  29.563  1.00  0.00     0.014 A 
ATOM      9  C   UNL A   1      36.623  30.113  27.258  1.00  0.00     0.014 A 
ATOM     10  C   UNL A   1      37.405  29.420  29.842  1.00  0.00     0.010 A 
ATOM     11  C   UNL A   1      37.961  29.803  27.520  1.00  0.00     0.010 A 
ATOM     12  C   UNL A   1      38.372  29.491  28.825  1.00  0.00    -0.014 A 
BRANCH  12  13
ATOM     13  C   UNL A   1      39.789  29.183  29.154  1.00  0.00     0.031 A 
ATOM     14  C   UNL A   1      40.406  27.855  28.804  1.00  0.00     0.074 A 
ATOM     15  C   UNL A   1      40.539  30.147  29.723  1.00  0.00     0.049 A 
ATOM     16  N   UNL A   1      41.644  27.459  28.965  1.00  0.00    -0.248 NA
ATOM     17  C   UNL A   1      39.528  26.840  28.202  1.00  0.00     0.031 C 
ATOM     18  C   UNL A   1      40.049  31.471  30.121  1.00  0.00     0.029 A 
ATOM     19  N   UNL A   1      41.872  30.181  30.038  1.00  0.00    -0.354 N 
ATOM     20  C   UNL A   1      41.694  26.152  28.493  1.00  0.00     0.074 A 
ATOM     21  C   UNL A   1      40.353  25.809  28.069  1.00  0.00     0.031 C 
ATOM     22  C   UNL A   1      41.076  32.204  30.572  1.00  0.00     0.029 A 
ATOM     23  C   UNL A   1      42.283  31.386  30.556  1.00  0.00     0.049 A 
ATOM     24  H   UNL A   1      42.477  29.415  29.907  1.00  0.00     0.167 HD
ATOM     25  C   UNL A   1      42.760  25.319  28.412  1.00  0.00     0.031 A 
ATOM     26  C   UNL A   1      43.494  31.792  30.982  1.00  0.00     0.031 A 
ATOM     27  C   UNL A   1      44.092  25.662  28.841  1.00  0.00     0.049 A 
ATOM     28  C   UNL A   1      44.652  30.842  30.898  1.00  0.00     0.074 A 
ATOM     29  C   UNL A   1      45.238  24.885  28.800  1.00  0.00     0.029 A 
ATOM     30  N   UNL A   1      44.460  26.882  29.388  1.00  0.00    -0.354 N 
ATOM     31  N   UNL A   1      44.677  29.615  30.434  1.00  0.00    -0.248 NA
ATOM     32  C   UNL A   1      45.946  31.331  31.390  1.00  0.00     0.031 C 
ATOM     33  C   UNL A   1      46.289  25.620  29.359  1.00  0.00     0.029 A 
ATOM     34  C   UNL A   1      45.811  26.875  29.700  1.00  0.00     0.049 A 
ATOM     35  H   UNL A   1      43.852  27.642  29.534  1.00  0.00     0.167 HD
ATOM     36  C   UNL A   1      45.992  29.189  30.572  1.00  0.00     0.074 A 
ATOM     37  C   UNL A   1      46.736  30.299  31.132  1.00  0.00     0.031 C 
ATOM     38  C   UNL A   1      46.533  27.984  30.267  1.00  0.00     0.031 A 
BRANCH  25  39
ATOM     39  C   UNL A   1      42.531  23.943  27.841  1.00  0.00    -0.014 A 
ATOM     40  C   UNL A   1      42.752  23.678  26.478  1.00  0.00     0.010 A 
ATOM     41  C   UNL A   1      42.150  22.886  28.689  1.00  0.00     0.010 A 
ATOM     42  C   UNL A   1      42.566  22.390  25.967  1.00  0.00     0.020 A 
ATOM     43  C   UNL A   1      41.986  21.591  28.186  1.00  0.00     0.020 A 
ATOM     44  C   UNL A   1      42.181  21.355  26.823  1.00  0.00     0.054 A 
BRANCH  44  45
ATOM     45  S   UNL A   1      41.975  19.688  26.137  1.00  0.00     0.124 S 
ATOM     46  O   UNL A   1      42.894  19.713  25.003  1.00  0.00    -0.237 OA
ATOM     47  O   UNL A   1      42.375  18.831  27.251  1.00  0.00    -0.237 OA
ATOM     48  O   UNL A   1      40.557  19.629  25.789  1.00  0.00    -0.744 OA
ENDBRANCH  44  45
ENDBRANCH  25  39
BRANCH  26  49
ATOM     49  C   UNL A   1      43.656  33.156  31.552  1.00  0.00    -0.014 A 
ATOM     50  C   UNL A   1      43.485  33.390  32.927  1.00  0.00     0.010 A 
ATOM     51  C   UNL A   1      44.003  34.231  30.712  1.00  0.00     0.010 A 
ATOM     52  C   UNL A   1      43.634  34.679  33.448  1.00  0.00     0.020 A 
ATOM     53  C   UNL A   1      44.183  35.513  31.233  1.00  0.00     0.020 A 
ATOM     54  C   UNL A   1      43.981  35.732  32.596  1.00  0.00     0.054 A 
BRANCH  54  55
ATOM     55  S   UNL A   1      44.213  37.391  33.294  1.00  0.00     0.124 S 
ATOM     56  O   UNL A   1      44.028  38.239  32.122  1.00  0.00    -0.237 OA
ATOM     57  O   UNL A   1      43.159  37.462  34.302  1.00  0.00    -0.237 OA
ATOM     58  O   UNL A   1      45.572  37.347  33.830  1.00  0.00    -0.744 OA
ENDBRANCH  54  55
ENDBRANCH  26  49
BRANCH  38  59
ATOM     59  C   UNL A   1      48.008  27.817  30.519  1.00  0.00    -0.014 A 
ATOM     60  C   UNL A   1      48.954  28.158  29.536  1.00  0.00     0.010 A 
ATOM     61  C   UNL A   1      48.452  27.330  31.760  1.00  0.00     0.010 A 
ATOM     62  C   UNL A   1      50.317  27.972  29.775  1.00  0.00     0.020 A 
ATOM     63  C   UNL A   1      49.816  27.169  32.013  1.00  0.00     0.020 A 
ATOM     64  C   UNL A   1      50.740  27.473  31.011  1.00  0.00     0.054 A 
BRANCH  64  65
ATOM     65  S   UNL A   1      52.516  27.259  31.306  1.00  0.00     0.124 S 
ATOM     66  O   UNL A   1      52.573  27.173  32.763  1.00  0.00    -0.237 OA
ATOM     67  O   UNL A   1      52.815  26.020  30.592  1.00  0.00    -0.237 OA
ATOM     68  O   UNL A   1      53.111  28.463  30.729  1.00  0.00    -0.744 OA
ENDBRANCH  64  65
ENDBRANCH  38  59
ENDBRANCH  12  13
ENDBRANCH   5   7
ENDBRANCH   2   3
ENDBRANCH   1   2
BRANCH   1  69
ATOM     69  C   UNL A   1      32.681  28.274  24.486  1.00  0.00     0.023 C 
BRANCH  69  70
ATOM     70  C   UNL A   1      33.993  27.937  23.787  1.00  0.00     0.116 C 
BRANCH  70  71
ATOM     71  N   UNL A   1      33.810  27.409  22.449  1.00  0.00    -0.352 N 
ATOM     72  C   UNL A   1      33.158  26.290  22.001  1.00  0.00     0.251 C 
ATOM     73  H   UNL A   1      34.226  27.948  21.738  1.00  0.00     0.163 HD
ATOM     74  O   UNL A   1      33.234  25.986  20.813  1.00  0.00    -0.269 OA
BRANCH  72  75
ATOM     75  C   UNL A   1      32.367  25.432  22.910  1.00  0.00     0.041 A 
ATOM     76  C   UNL A   1      30.986  25.651  22.982  1.00  0.00     0.014 A 
ATOM     77  C   UNL A   1      32.976  24.547  23.806  1.00  0.00     0.039 A 
ATOM     78  C   UNL A   1      30.214  24.957  23.911  1.00  0.00     0.003 A 
ATOM     79  C   UNL A   1      32.207  23.842  24.740  1.00  0.00     0.039 A 
ATOM     80  C   UNL A   1      30.824  24.059  24.787  1.00  0.00     0.026 A 
BRANCH  79  81
ATOM     81  N   UNL A   1      32.839  23.128  25.790  1.00  0.00    -0.355 N 
ATOM     82  H   UNL A   1      32.829  23.483  26.708  1.00  0.00     0.167 HD
BRANCH  81  83
ATOM     83  C   UNL A   1      33.487  21.894  25.505  1.00  0.00     0.050 A 
ATOM     84  C   UNL A   1      32.699  20.767  25.252  1.00  0.00     0.047 A 
ATOM     85  C   UNL A   1      34.893  21.786  25.444  1.00  0.00     0.025 A 
ATOM     86  C   UNL A   1      33.322  19.602  24.863  1.00  0.00     0.114 A 
ATOM     87  C   UNL A   1      35.421  20.543  25.027  1.00  0.00     0.072 A 
ATOM     88  C   UNL A   1      35.776  22.847  25.753  1.00  0.00     0.033 A 
ATOM     89  N   UNL A   1      34.657  19.478  24.739  1.00  0.00    -0.256 NA
ATOM     90  C   UNL A   1      36.794  20.409  24.900  1.00  0.00     0.030 A 
ATOM     91  C   UNL A   1      37.153  22.670  25.642  1.00  0.00     0.041 A 
ATOM     92  C   UNL A   1      37.668  21.456  25.205  1.00  0.00     0.023 A 
ATOM     93  Cl  UNL A   1      38.225  23.952  26.049  1.00  0.00    -0.084 Cl
ENDBRANCH  81  83
ENDBRANCH  79  81
ENDBRANCH  72  75
ENDBRANCH  70  71
ENDBRANCH  69  70
ENDBRANCH   1  69
TORSDOF 16
ENDMDL
MODEL 3
REMARK VINA RESULT:     -11.3      4.881      9.967
REMARK SMILES O=C(NCCCCNC(=O)c1cccc(Nc2ccnc3ccc(Cl)cc23)c1)c1ccc(-c2c3nc(c(-c4ccc(S(=O)(=O)[O-])cc4)c4ccc([nH]4)c(-c4ccc(S(=O)(=O)[O-])cc4)c4nc(c(-c5ccc(S(=O)(=O)[O-])cc5)c5ccc2[nH]5)C=C4)C=C3)cc1
REMARK SMILES IDX 5 1 4 2 3 3 1 4 2 5 29 7 30 8 88 9 31 10 87 11 32 12 33 13
REMARK SMILES IDX 34 14 81 15 35 16 86 17 80 18 82 19 36 20 85 21 79 22 78 23
REMARK SMILES IDX 37 25 67 26 48 27 66 28 49 29 52 30 65 31 83 32 50 33 51 34
REMARK SMILES IDX 64 36 84 37 53 38 38 39 39 40 47 41 40 42 46 43 41 44 42 45
REMARK SMILES IDX 43 46 44 47 45 48 68 49 69 50 77 51 70 52 76 53 71 54 72 55
REMARK SMILES IDX 73 56 74 57 75 58 54 59 55 60 63 61 56 62 62 63 57 64 58 65
REMARK SMILES IDX 59 66 60 67 61 68 6 69 7 70 8 71 9 72 10 74 11 75 12 76
REMARK SMILES IDX 28 77 13 78 15 79 14 80 16 81 17 83 18 84 27 85 19 86 21 87
REMARK SMILES IDX 26 88 20 89 22 90 24 91 23 92 25 93
REMARK H PARENT 3 6 82 24 52 35 8 73 16 82
REMARK Flexibility Score: inf
ROOT
ATOM      1  C   UNL A   1      40.170  22.331  27.455  1.00  0.00     0.023 C 
ENDROOT
BRANCH   1   2
ATOM      2  C   UNL A   1      41.451  23.147  27.327  1.00  0.00     0.116 C 
BRANCH   2   3
ATOM      3  N   UNL A   1      41.473  24.027  26.168  1.00  0.00    -0.352 N 
ATOM      4  O   UNL A   1      41.320  25.956  25.016  1.00  0.00    -0.269 OA
ATOM      5  C   UNL A   1      41.359  25.398  26.105  1.00  0.00     0.251 C 
ATOM      6  H   UNL A   1      41.584  23.576  25.300  1.00  0.00     0.163 HD
BRANCH   5   7
ATOM      7  C   UNL A   1      41.247  26.188  27.354  1.00  0.00     0.039 A 
ATOM      8  C   UNL A   1      40.153  26.029  28.205  1.00  0.00     0.014 A 
ATOM      9  C   UNL A   1      42.247  27.114  27.666  1.00  0.00     0.014 A 
ATOM     10  C   UNL A   1      39.975  26.905  29.267  1.00  0.00     0.010 A 
ATOM     11  C   UNL A   1      42.111  27.934  28.791  1.00  0.00     0.010 A 
ATOM     12  C   UNL A   1      40.953  27.864  29.580  1.00  0.00    -0.014 A 
BRANCH  12  13
ATOM     13  C   UNL A   1      40.753  28.736  30.768  1.00  0.00     0.031 A 
ATOM     14  C   UNL A   1      41.649  28.639  31.974  1.00  0.00     0.074 A 
ATOM     15  C   UNL A   1      39.782  29.670  30.722  1.00  0.00     0.049 A 
ATOM     16  N   UNL A   1      41.646  29.373  33.058  1.00  0.00    -0.248 NA
ATOM     17  C   UNL A   1      42.677  27.587  31.968  1.00  0.00     0.031 C 
ATOM     18  C   UNL A   1      38.841  29.852  29.612  1.00  0.00     0.029 A 
ATOM     19  N   UNL A   1      39.442  30.658  31.608  1.00  0.00    -0.354 N 
ATOM     20  C   UNL A   1      42.660  28.871  33.866  1.00  0.00     0.074 A 
ATOM     21  C   UNL A   1      43.239  27.747  33.160  1.00  0.00     0.031 C 
ATOM     22  C   UNL A   1      38.071  30.920  29.858  1.00  0.00     0.029 A 
ATOM     23  C   UNL A   1      38.418  31.462  31.166  1.00  0.00     0.049 A 
ATOM     24  H   UNL A   1      39.888  30.780  32.477  1.00  0.00     0.167 HD
ATOM     25  C   UNL A   1      43.077  29.311  35.079  1.00  0.00     0.031 A 
ATOM     26  C   UNL A   1      37.813  32.513  31.749  1.00  0.00     0.031 A 
ATOM     27  C   UNL A   1      42.494  30.426  35.781  1.00  0.00     0.049 A 
ATOM     28  C   UNL A   1      38.283  32.967  33.100  1.00  0.00     0.074 A 
ATOM     29  C   UNL A   1      42.847  30.947  37.014  1.00  0.00     0.029 A 
ATOM     30  N   UNL A   1      41.438  31.194  35.313  1.00  0.00    -0.354 N 
ATOM     31  N   UNL A   1      39.254  32.484  33.838  1.00  0.00    -0.248 NA
ATOM     32  C   UNL A   1      37.578  34.109  33.696  1.00  0.00     0.031 C 
ATOM     33  C   UNL A   1      41.979  32.004  37.310  1.00  0.00     0.029 A 
ATOM     34  C   UNL A   1      41.119  32.176  36.238  1.00  0.00     0.049 A 
ATOM     35  H   UNL A   1      40.982  31.062  34.451  1.00  0.00     0.167 HD
ATOM     36  C   UNL A   1      39.282  33.271  34.982  1.00  0.00     0.074 A 
ATOM     37  C   UNL A   1      38.252  34.277  34.824  1.00  0.00     0.031 C 
ATOM     38  C   UNL A   1      40.084  33.164  36.070  1.00  0.00     0.031 A 
BRANCH  25  39
ATOM     39  C   UNL A   1      44.220  28.579  35.734  1.00  0.00    -0.014 A 
ATOM     40  C   UNL A   1      43.987  27.468  36.564  1.00  0.00     0.010 A 
ATOM     41  C   UNL A   1      45.547  28.967  35.468  1.00  0.00     0.010 A 
ATOM     42  C   UNL A   1      45.058  26.778  37.141  1.00  0.00     0.020 A 
ATOM     43  C   UNL A   1      46.620  28.265  36.025  1.00  0.00     0.020 A 
ATOM     44  C   UNL A   1      46.368  27.183  36.870  1.00  0.00     0.054 A 
BRANCH  44  45
ATOM     45  S   UNL A   1      47.738  26.251  37.611  1.00  0.00     0.124 S 
ATOM     46  O   UNL A   1      47.157  24.918  37.745  1.00  0.00    -0.237 OA
ATOM     47  O   UNL A   1      48.791  26.378  36.608  1.00  0.00    -0.237 OA
ATOM     48  O   UNL A   1      47.992  26.949  38.869  1.00  0.00    -0.744 OA
ENDBRANCH  44  45
ENDBRANCH  25  39
BRANCH  26  49
ATOM     49  C   UNL A   1      36.678  33.186  31.062  1.00  0.00    -0.014 A 
ATOM     50  C   UNL A   1      35.373  33.109  31.578  1.00  0.00     0.010 A 
ATOM     51  C   UNL A   1      36.909  33.927  29.888  1.00  0.00     0.010 A 
ATOM     52  C   UNL A   1      34.315  33.741  30.917  1.00  0.00     0.020 A 
ATOM     53  C   UNL A   1      35.860  34.585  29.243  1.00  0.00     0.020 A 
ATOM     54  C   UNL A   1      34.566  34.474  29.753  1.00  0.00     0.054 A 
BRANCH  54  55
ATOM     55  S   UNL A   1      33.189  35.323  28.932  1.00  0.00     0.124 S 
ATOM     56  O   UNL A   1      33.879  36.390  28.215  1.00  0.00    -0.237 OA
ATOM     57  O   UNL A   1      32.615  34.269  28.101  1.00  0.00    -0.237 OA
ATOM     58  O   UNL A   1      32.346  35.757  30.044  1.00  0.00    -0.744 OA
ENDBRANCH  54  55
ENDBRANCH  26  49
BRANCH  38  59
ATOM     59  C   UNL A   1      39.888  34.180  37.163  1.00  0.00    -0.014 A 
ATOM     60  C   UNL A   1      38.998  33.939  38.225  1.00  0.00     0.010 A 
ATOM     61  C   UNL A   1      40.615  35.382  37.135  1.00  0.00     0.010 A 
ATOM     62  C   UNL A   1      38.807  34.903  39.217  1.00  0.00     0.020 A 
ATOM     63  C   UNL A   1      40.447  36.337  38.140  1.00  0.00     0.020 A 
ATOM     64  C   UNL A   1      39.529  36.100  39.165  1.00  0.00     0.054 A 
BRANCH  64  65
ATOM     65  S   UNL A   1      39.279  37.330  40.475  1.00  0.00     0.124 S 
ATOM     66  O   UNL A   1      38.897  36.492  41.608  1.00  0.00    -0.237 OA
ATOM     67  O   UNL A   1      40.589  37.965  40.576  1.00  0.00    -0.237 OA
ATOM     68  O   UNL A   1      38.218  38.185  39.947  1.00  0.00    -0.744 OA
ENDBRANCH  64  65
ENDBRANCH  38  59
ENDBRANCH  12  13
ENDBRANCH   5   7
ENDBRANCH   2   3
ENDBRANCH   1   2
BRANCH   1  69
ATOM     69  C   UNL A   1      39.570  21.816  26.148  1.00  0.00     0.023 C 
BRANCH  69  70
ATOM     70  C   UNL A   1      38.107  22.175  25.918  1.00  0.00     0.116 C 
BRANCH  70  71
ATOM     71  N   UNL A   1      37.823  22.573  24.552  1.00  0.00    -0.352 N 
ATOM     72  C   UNL A   1      36.641  22.656  23.863  1.00  0.00     0.251 C 
ATOM     73  H   UNL A   1      38.618  22.826  24.029  1.00  0.00     0.163 HD
ATOM     74  O   UNL A   1      36.664  22.915  22.662  1.00  0.00    -0.269 OA
BRANCH  72  75
ATOM     75  C   UNL A   1      35.336  22.439  24.524  1.00  0.00     0.041 A 
ATOM     76  C   UNL A   1      34.874  21.123  24.644  1.00  0.00     0.014 A 
ATOM     77  C   UNL A   1      34.495  23.503  24.866  1.00  0.00     0.039 A 
ATOM     78  C   UNL A   1      33.598  20.871  25.145  1.00  0.00     0.003 A 
ATOM     79  C   UNL A   1      33.214  23.258  25.374  1.00  0.00     0.039 A 
ATOM     80  C   UNL A   1      32.772  21.936  25.505  1.00  0.00     0.026 A 
BRANCH  79  81
ATOM     81  N   UNL A   1      32.284  24.322  25.503  1.00  0.00    -0.355 N 
ATOM     82  H   UNL A   1      31.707  24.384  26.298  1.00  0.00     0.167 HD
BRANCH  81  83
ATOM     83  C   UNL A   1      32.193  25.300  24.474  1.00  0.00     0.050 A 
ATOM     84  C   UNL A   1      31.626  24.934  23.250  1.00  0.00     0.047 A 
ATOM     85  C   UNL A   1      32.632  26.628  24.665  1.00  0.00     0.025 A 
ATOM     86  C   UNL A   1      31.433  25.907  22.296  1.00  0.00     0.114 A 
ATOM     87  C   UNL A   1      32.376  27.543  23.620  1.00  0.00     0.072 A 
ATOM     88  C   UNL A   1      33.283  27.078  25.839  1.00  0.00     0.033 A 
ATOM     89  N   UNL A   1      31.787  27.195  22.466  1.00  0.00    -0.256 NA
ATOM     90  C   UNL A   1      32.739  28.870  23.788  1.00  0.00     0.030 A 
ATOM     91  C   UNL A   1      33.661  28.413  25.964  1.00  0.00     0.041 A 
ATOM     92  C   UNL A   1      33.382  29.316  24.946  1.00  0.00     0.023 A 
ATOM     93  Cl  UNL A   1      34.480  28.949  27.377  1.00  0.00    -0.084 Cl
ENDBRANCH  81  83
ENDBRANCH  79  81
ENDBRANCH  72  75
ENDBRANCH  70  71
ENDBRANCH  69  70
ENDBRANCH   1  69
TORSDOF 16
ENDMDL
