MODEL 1
REMARK VINA RESULT:     -11.8      0.000      0.000
REMARK SMILES COc1ccc(C(=O)N[C@H](C(=O)NCCCCNC(=O)c2ccc(-c3c4nc(c(-c5ccc(S(=O)(=O)[O-])cc5)c5ccc([nH]5)c(-c5ccc(S(=O)(=O)[O-])cc5)c5nc(c(-c6ccc(S(=O)(=O)[O-])cc6)c6ccc3[nH]6)C=C5)C=C4)cc2)C2=C(C)N=N[C@H]2C)c(F)c1F
REMARK SMILES IDX 15 1 14 2 13 3 11 4 12 5 10 7 9 8 7 9 8 10 6 12 3 13 4 14
REMARK SMILES IDX 90 15 5 16 88 17 91 18 89 19 2 20 1 21 81 22 82 23 86 24
REMARK SMILES IDX 83 25 84 26 85 27 87 28 16 29 17 30 18 31 19 32 20 34 21 35
REMARK SMILES IDX 22 36 80 37 23 38 79 39 24 40 25 41 26 42 73 43 27 44 78 45
REMARK SMILES IDX 72 46 74 47 28 48 77 49 71 50 70 51 29 53 59 54 40 55 58 56
REMARK SMILES IDX 41 57 44 58 57 59 75 60 42 61 43 62 56 64 76 65 45 66 30 67
REMARK SMILES IDX 31 68 39 69 32 70 38 71 33 72 34 73 35 74 36 75 37 76 60 77
REMARK SMILES IDX 61 78 69 79 62 80 68 81 63 82 64 83 65 84 66 85 67 86 46 87
REMARK SMILES IDX 47 88 55 89 48 90 54 91 49 92 50 93 51 94 52 95 53 96
REMARK H PARENT 13 6 9 11 18 33 74 52 44 63
REMARK Flexibility Score: inf
ROOT
ATOM      1  C   UNL A   1      35.432  29.697  27.316  1.00  0.00     0.023 C 
ENDROOT
BRANCH   1   2
ATOM      2  C   UNL A   1      34.379  28.890  26.559  1.00  0.00     0.116 C 
BRANCH   2   3
ATOM      3  N   UNL A   1      33.206  28.690  27.382  1.00  0.00    -0.354 N 
ATOM      4  C   UNL A   1      32.166  27.830  27.186  1.00  0.00     0.247 C 
ATOM      5  O   UNL A   1      31.170  27.945  27.909  1.00  0.00    -0.272 OA
ATOM      6  H   UNL A   1      33.152  29.248  28.190  1.00  0.00     0.163 HD
BRANCH   4   7
ATOM      7  C   UNL A   1      32.222  26.755  26.063  1.00  0.00     0.202 C 
BRANCH   7   8
ATOM      8  N   UNL A   1      31.490  25.615  26.600  1.00  0.00    -0.336 N 
ATOM      9  C   UNL A   1      31.817  24.296  26.752  1.00  0.00     0.255 C 
ATOM     10  O   UNL A   1      31.081  23.582  27.432  1.00  0.00    -0.269 OA
ATOM     11  H   UNL A   1      30.583  25.837  26.915  1.00  0.00     0.165 HD
BRANCH   9  12
ATOM     12  C   UNL A   1      32.938  23.650  26.041  1.00  0.00     0.078 A 
ATOM     13  C   UNL A   1      35.139  22.324  24.889  1.00  0.00     0.157 A 
ATOM     14  C   UNL A   1      35.114  22.570  26.261  1.00  0.00     0.050 A 
ATOM     15  C   UNL A   1      34.101  22.823  24.096  1.00  0.00     0.201 A 
ATOM     16  C   UNL A   1      34.017  23.221  26.833  1.00  0.00     0.021 A 
ATOM     17  C   UNL A   1      33.026  23.507  24.662  1.00  0.00     0.175 A 
ATOM     18  F   UNL A   1      34.116  22.625  22.769  1.00  0.00    -0.200 F 
ATOM     19  F   UNL A   1      32.101  24.033  23.846  1.00  0.00    -0.203 F 
BRANCH  13  20
ATOM     20  O   UNL A   1      36.136  21.652  24.236  1.00  0.00    -0.494 OA
ATOM     21  C   UNL A   1      36.779  20.617  24.972  1.00  0.00     0.278 C 
ENDBRANCH  13  20
ENDBRANCH   9  12
ENDBRANCH   7   8
BRANCH   7  22
ATOM     22  C   UNL A   1      31.596  27.280  24.817  1.00  0.00     0.011 C 
ATOM     23  C   UNL A   1      32.188  27.741  23.705  1.00  0.00     0.064 C 
ATOM     24  C   UNL A   1      30.138  27.529  24.604  1.00  0.00     0.156 C 
ATOM     25  C   UNL A   1      33.627  27.746  23.319  1.00  0.00     0.069 C 
ATOM     26  N   UNL A   1      31.296  28.325  22.841  1.00  0.00    -0.160 NA
ATOM     27  N   UNL A   1      30.135  28.293  23.324  1.00  0.00    -0.181 NA
ATOM     28  C   UNL A   1      29.313  26.268  24.358  1.00  0.00     0.040 C 
ENDBRANCH   7  22
ENDBRANCH   4   7
ENDBRANCH   2   3
ENDBRANCH   1   2
BRANCH   1  29
ATOM     29  C   UNL A   1      34.881  30.955  27.988  1.00  0.00     0.023 C 
BRANCH  29  30
ATOM     30  C   UNL A   1      35.791  31.565  29.050  1.00  0.00     0.116 C 
BRANCH  30  31
ATOM     31  N   UNL A   1      35.670  30.932  30.357  1.00  0.00    -0.352 N 
ATOM     32  C   UNL A   1      36.642  30.286  31.085  1.00  0.00     0.251 C 
ATOM     33  H   UNL A   1      34.779  30.972  30.772  1.00  0.00     0.163 HD
ATOM     34  O   UNL A   1      36.359  29.723  32.139  1.00  0.00    -0.269 OA
BRANCH  32  35
ATOM     35  C   UNL A   1      38.016  30.241  30.552  1.00  0.00     0.039 A 
ATOM     36  C   UNL A   1      39.087  30.255  31.446  1.00  0.00     0.014 A 
ATOM     37  C   UNL A   1      38.232  30.088  29.180  1.00  0.00     0.014 A 
ATOM     38  C   UNL A   1      40.377  30.017  30.971  1.00  0.00     0.010 A 
ATOM     39  C   UNL A   1      39.506  29.778  28.721  1.00  0.00     0.010 A 
ATOM     40  C   UNL A   1      40.589  29.722  29.614  1.00  0.00    -0.014 A 
BRANCH  40  41
ATOM     41  C   UNL A   1      41.921  29.304  29.113  1.00  0.00     0.031 A 
ATOM     42  C   UNL A   1      43.033  30.307  28.987  1.00  0.00     0.074 A 
ATOM     43  C   UNL A   1      42.100  28.036  28.688  1.00  0.00     0.049 A 
ATOM     44  N   UNL A   1      44.234  30.146  28.498  1.00  0.00    -0.248 NA
ATOM     45  C   UNL A   1      42.746  31.678  29.442  1.00  0.00     0.031 C 
ATOM     46  C   UNL A   1      41.081  26.982  28.707  1.00  0.00     0.029 A 
ATOM     47  N   UNL A   1      43.201  27.421  28.148  1.00  0.00    -0.354 N 
ATOM     48  C   UNL A   1      44.841  31.394  28.568  1.00  0.00     0.074 A 
ATOM     49  C   UNL A   1      43.859  32.312  29.103  1.00  0.00     0.031 C 
ATOM     50  C   UNL A   1      41.614  25.847  28.226  1.00  0.00     0.029 A 
ATOM     51  C   UNL A   1      42.994  26.099  27.830  1.00  0.00     0.049 A 
ATOM     52  H   UNL A   1      44.058  27.882  28.002  1.00  0.00     0.167 HD
ATOM     53  C   UNL A   1      46.107  31.740  28.235  1.00  0.00     0.031 A 
ATOM     54  C   UNL A   1      43.820  25.192  27.271  1.00  0.00     0.031 A 
ATOM     55  C   UNL A   1      47.085  30.821  27.718  1.00  0.00     0.049 A 
ATOM     56  C   UNL A   1      45.221  25.601  26.911  1.00  0.00     0.074 A 
ATOM     57  C   UNL A   1      48.415  31.061  27.419  1.00  0.00     0.029 A 
ATOM     58  N   UNL A   1      46.840  29.490  27.421  1.00  0.00    -0.354 N 
ATOM     59  N   UNL A   1      45.798  26.770  27.055  1.00  0.00    -0.248 NA
ATOM     60  C   UNL A   1      46.080  24.570  26.315  1.00  0.00     0.031 C 
ATOM     61  C   UNL A   1      48.963  29.884  26.897  1.00  0.00     0.029 A 
ATOM     62  C   UNL A   1      47.987  28.900  26.916  1.00  0.00     0.049 A 
ATOM     63  H   UNL A   1      45.979  29.031  27.550  1.00  0.00     0.167 HD
ATOM     64  C   UNL A   1      47.095  26.609  26.581  1.00  0.00     0.074 A 
ATOM     65  C   UNL A   1      47.221  25.227  26.165  1.00  0.00     0.031 C 
ATOM     66  C   UNL A   1      48.091  27.525  26.496  1.00  0.00     0.031 A 
BRANCH  53  67
ATOM     67  C   UNL A   1      46.500  33.181  28.420  1.00  0.00    -0.014 A 
ATOM     68  C   UNL A   1      47.052  33.630  29.635  1.00  0.00     0.010 A 
ATOM     69  C   UNL A   1      46.342  34.093  27.362  1.00  0.00     0.010 A 
ATOM     70  C   UNL A   1      47.396  34.973  29.801  1.00  0.00     0.020 A 
ATOM     71  C   UNL A   1      46.708  35.433  27.516  1.00  0.00     0.020 A 
ATOM     72  C   UNL A   1      47.215  35.868  28.742  1.00  0.00     0.054 A 
BRANCH  72  73
ATOM     73  S   UNL A   1      47.681  37.604  28.983  1.00  0.00     0.124 S 
ATOM     74  O   UNL A   1      46.377  38.247  29.129  1.00  0.00    -0.237 OA
ATOM     75  O   UNL A   1      48.495  37.555  30.194  1.00  0.00    -0.237 OA
ATOM     76  O   UNL A   1      48.408  37.940  27.761  1.00  0.00    -0.744 OA
ENDBRANCH  72  73
ENDBRANCH  53  67
BRANCH  54  77
ATOM     77  C   UNL A   1      43.344  23.803  27.033  1.00  0.00    -0.014 A 
ATOM     78  C   UNL A   1      43.252  22.892  28.100  1.00  0.00     0.010 A 
ATOM     79  C   UNL A   1      42.958  23.391  25.746  1.00  0.00     0.010 A 
ATOM     80  C   UNL A   1      42.797  21.589  27.881  1.00  0.00     0.020 A 
ATOM     81  C   UNL A   1      42.479  22.095  25.527  1.00  0.00     0.020 A 
ATOM     82  C   UNL A   1      42.412  21.199  26.595  1.00  0.00     0.054 A 
BRANCH  82  83
ATOM     83  S   UNL A   1      41.765  19.522  26.345  1.00  0.00     0.124 S 
ATOM     84  O   UNL A   1      42.433  19.122  25.110  1.00  0.00    -0.237 OA
ATOM     85  O   UNL A   1      42.201  18.829  27.554  1.00  0.00    -0.237 OA
ATOM     86  O   UNL A   1      40.322  19.726  26.240  1.00  0.00    -0.744 OA
ENDBRANCH  82  83
ENDBRANCH  54  77
BRANCH  66  87
ATOM     87  C   UNL A   1      49.409  27.061  25.941  1.00  0.00    -0.014 A 
ATOM     88  C   UNL A   1      49.717  27.226  24.579  1.00  0.00     0.010 A 
ATOM     89  C   UNL A   1      50.373  26.504  26.802  1.00  0.00     0.010 A 
ATOM     90  C   UNL A   1      50.959  26.822  24.082  1.00  0.00     0.020 A 
ATOM     91  C   UNL A   1      51.624  26.121  26.313  1.00  0.00     0.020 A 
ATOM     92  C   UNL A   1      51.905  26.272  24.953  1.00  0.00     0.054 A 
BRANCH  92  93
ATOM     93  S   UNL A   1      53.528  25.802  24.294  1.00  0.00     0.124 S 
ATOM     94  O   UNL A   1      53.648  24.417  24.742  1.00  0.00    -0.237 OA
ATOM     95  O   UNL A   1      53.356  25.986  22.855  1.00  0.00    -0.237 OA
ATOM     96  O   UNL A   1      54.445  26.745  24.931  1.00  0.00    -0.744 OA
ENDBRANCH  92  93
ENDBRANCH  66  87
ENDBRANCH  40  41
ENDBRANCH  32  35
ENDBRANCH  30  31
ENDBRANCH  29  30
ENDBRANCH   1  29
TORSDOF 18
ENDMDL
MODEL 2
REMARK VINA RESULT:     -11.7      4.148      9.485
REMARK SMILES COc1ccc(C(=O)N[C@H](C(=O)NCCCCNC(=O)c2ccc(-c3c4nc(c(-c5ccc(S(=O)(=O)[O-])cc5)c5ccc([nH]5)c(-c5ccc(S(=O)(=O)[O-])cc5)c5nc(c(-c6ccc(S(=O)(=O)[O-])cc6)c6ccc3[nH]6)C=C5)C=C4)cc2)C2=C(C)N=N[C@H]2C)c(F)c1F
REMARK SMILES IDX 15 1 14 2 13 3 11 4 12 5 10 7 9 8 7 9 8 10 6 12 3 13 4 14
REMARK SMILES IDX 90 15 5 16 88 17 91 18 89 19 2 20 1 21 81 22 82 23 86 24
REMARK SMILES IDX 83 25 84 26 85 27 87 28 16 29 17 30 18 31 19 32 20 34 21 35
REMARK SMILES IDX 22 36 80 37 23 38 79 39 24 40 25 41 26 42 73 43 27 44 78 45
REMARK SMILES IDX 72 46 74 47 28 48 77 49 71 50 70 51 29 53 59 54 40 55 58 56
REMARK SMILES IDX 41 57 44 58 57 59 75 60 42 61 43 62 56 64 76 65 45 66 30 67
REMARK SMILES IDX 31 68 39 69 32 70 38 71 33 72 34 73 35 74 36 75 37 76 60 77
REMARK SMILES IDX 61 78 69 79 62 80 68 81 63 82 64 83 65 84 66 85 67 86 46 87
REMARK SMILES IDX 47 88 55 89 48 90 54 91 49 92 50 93 51 94 52 95 53 96
REMARK H PARENT 13 6 9 11 18 33 74 52 44 63
REMARK Flexibility Score: inf
ROOT
ATOM      1  C   UNL A   1      35.862  23.012  23.292  1.00  0.00     0.023 C 
ENDROOT
BRANCH   1   2
ATOM      2  C   UNL A   1      34.494  23.686  23.202  1.00  0.00     0.116 C 
BRANCH   2   3
ATOM      3  N   UNL A   1      34.435  24.831  24.086  1.00  0.00    -0.354 N 
ATOM      4  C   UNL A   1      33.348  25.571  24.448  1.00  0.00     0.247 C 
ATOM      5  O   UNL A   1      33.539  26.623  25.067  1.00  0.00    -0.272 OA
ATOM      6  H   UNL A   1      35.293  25.113  24.477  1.00  0.00     0.163 HD
BRANCH   4   7
ATOM      7  C   UNL A   1      31.911  25.116  24.064  1.00  0.00     0.202 C 
BRANCH   7   8
ATOM      8  N   UNL A   1      31.278  24.771  25.330  1.00  0.00    -0.336 N 
ATOM      9  C   UNL A   1      31.410  23.697  26.166  1.00  0.00     0.255 C 
ATOM     10  O   UNL A   1      30.903  23.757  27.286  1.00  0.00    -0.269 OA
ATOM     11  H   UNL A   1      30.628  25.442  25.645  1.00  0.00     0.165 HD
BRANCH   9  12
ATOM     12  C   UNL A   1      32.020  22.417  25.755  1.00  0.00     0.078 A 
ATOM     13  C   UNL A   1      33.240  19.942  25.192  1.00  0.00     0.157 A 
ATOM     14  C   UNL A   1      33.574  20.636  26.354  1.00  0.00     0.050 A 
ATOM     15  C   UNL A   1      32.363  20.539  24.281  1.00  0.00     0.201 A 
ATOM     16  C   UNL A   1      32.961  21.861  26.636  1.00  0.00     0.021 A 
ATOM     17  C   UNL A   1      31.782  21.778  24.544  1.00  0.00     0.175 A 
ATOM     18  F   UNL A   1      32.048  19.905  23.140  1.00  0.00    -0.200 F 
ATOM     19  F   UNL A   1      31.014  22.339  23.599  1.00  0.00    -0.203 F 
BRANCH  13  20
ATOM     20  O   UNL A   1      33.740  18.717  24.845  1.00  0.00    -0.494 OA
ATOM     21  C   UNL A   1      33.103  17.591  25.440  1.00  0.00     0.278 C 
ENDBRANCH  13  20
ENDBRANCH   9  12
ENDBRANCH   7   8
BRANCH   7  22
ATOM     22  C   UNL A   1      31.192  26.219  23.365  1.00  0.00     0.011 C 
ATOM     23  C   UNL A   1      31.418  26.736  22.149  1.00  0.00     0.064 C 
ATOM     24  C   UNL A   1      30.126  27.085  23.956  1.00  0.00     0.156 C 
ATOM     25  C   UNL A   1      32.353  26.289  21.078  1.00  0.00     0.069 C 
ATOM     26  N   UNL A   1      30.684  27.872  21.918  1.00  0.00    -0.160 NA
ATOM     27  N   UNL A   1      29.986  28.153  22.926  1.00  0.00    -0.181 NA
ATOM     28  C   UNL A   1      28.760  26.413  24.071  1.00  0.00     0.040 C 
ENDBRANCH   7  22
ENDBRANCH   4   7
ENDBRANCH   2   3
ENDBRANCH   1   2
BRANCH   1  29
ATOM     29  C   UNL A   1      36.200  22.483  24.686  1.00  0.00     0.023 C 
BRANCH  29  30
ATOM     30  C   UNL A   1      37.289  23.261  25.419  1.00  0.00     0.116 C 
BRANCH  30  31
ATOM     31  N   UNL A   1      38.437  22.445  25.796  1.00  0.00    -0.352 N 
ATOM     32  C   UNL A   1      39.571  22.829  26.472  1.00  0.00     0.251 C 
ATOM     33  H   UNL A   1      38.394  21.498  25.534  1.00  0.00     0.163 HD
ATOM     34  O   UNL A   1      40.495  22.039  26.637  1.00  0.00    -0.269 OA
BRANCH  32  35
ATOM     35  C   UNL A   1      39.675  24.221  26.949  1.00  0.00     0.039 A 
ATOM     36  C   UNL A   1      39.202  24.532  28.225  1.00  0.00     0.014 A 
ATOM     37  C   UNL A   1      40.326  25.183  26.174  1.00  0.00     0.014 A 
ATOM     38  C   UNL A   1      39.469  25.791  28.764  1.00  0.00     0.010 A 
ATOM     39  C   UNL A   1      40.653  26.408  26.741  1.00  0.00     0.010 A 
ATOM     40  C   UNL A   1      40.244  26.719  28.047  1.00  0.00    -0.014 A 
BRANCH  40  41
ATOM     41  C   UNL A   1      40.681  27.997  28.661  1.00  0.00     0.031 A 
ATOM     42  C   UNL A   1      42.066  28.131  29.227  1.00  0.00     0.074 A 
ATOM     43  C   UNL A   1      39.796  29.007  28.785  1.00  0.00     0.049 A 
ATOM     44  N   UNL A   1      42.598  29.138  29.869  1.00  0.00    -0.248 NA
ATOM     45  C   UNL A   1      42.960  26.971  29.080  1.00  0.00     0.031 C 
ATOM     46  C   UNL A   1      38.404  28.980  28.325  1.00  0.00     0.029 A 
ATOM     47  N   UNL A   1      39.932  30.252  29.346  1.00  0.00    -0.354 N 
ATOM     48  C   UNL A   1      43.879  28.729  30.219  1.00  0.00     0.074 A 
ATOM     49  C   UNL A   1      44.027  27.366  29.758  1.00  0.00     0.031 C 
ATOM     50  C   UNL A   1      37.826  30.160  28.599  1.00  0.00     0.029 A 
ATOM     51  C   UNL A   1      38.789  31.013  29.287  1.00  0.00     0.049 A 
ATOM     52  H   UNL A   1      40.771  30.570  29.753  1.00  0.00     0.167 HD
ATOM     53  C   UNL A   1      44.850  29.432  30.849  1.00  0.00     0.031 A 
ATOM     54  C   UNL A   1      38.538  32.256  29.744  1.00  0.00     0.031 A 
ATOM     55  C   UNL A   1      44.704  30.792  31.290  1.00  0.00     0.049 A 
ATOM     56  C   UNL A   1      39.633  33.015  30.440  1.00  0.00     0.074 A 
ATOM     57  C   UNL A   1      45.654  31.614  31.873  1.00  0.00     0.029 A 
ATOM     58  N   UNL A   1      43.534  31.532  31.202  1.00  0.00    -0.354 N 
ATOM     59  N   UNL A   1      40.862  32.636  30.693  1.00  0.00    -0.248 NA
ATOM     60  C   UNL A   1      39.306  34.369  30.908  1.00  0.00     0.031 C 
ATOM     61  C   UNL A   1      45.044  32.835  32.179  1.00  0.00     0.029 A 
ATOM     62  C   UNL A   1      43.730  32.791  31.743  1.00  0.00     0.049 A 
ATOM     63  H   UNL A   1      42.691  31.209  30.811  1.00  0.00     0.167 HD
ATOM     64  C   UNL A   1      41.461  33.712  31.339  1.00  0.00     0.074 A 
ATOM     65  C   UNL A   1      40.466  34.761  31.418  1.00  0.00     0.031 C 
ATOM     66  C   UNL A   1      42.723  33.820  31.823  1.00  0.00     0.031 A 
BRANCH  53  67
ATOM     67  C   UNL A   1      46.158  28.731  31.097  1.00  0.00    -0.014 A 
ATOM     68  C   UNL A   1      46.364  27.975  32.266  1.00  0.00     0.010 A 
ATOM     69  C   UNL A   1      47.187  28.806  30.140  1.00  0.00     0.010 A 
ATOM     70  C   UNL A   1      47.589  27.344  32.494  1.00  0.00     0.020 A 
ATOM     71  C   UNL A   1      48.405  28.155  30.353  1.00  0.00     0.020 A 
ATOM     72  C   UNL A   1      48.605  27.443  31.538  1.00  0.00     0.054 A 
BRANCH  72  73
ATOM     73  S   UNL A   1      50.181  26.605  31.855  1.00  0.00     0.124 S 
ATOM     74  O   UNL A   1      49.781  25.201  31.849  1.00  0.00    -0.237 OA
ATOM     75  O   UNL A   1      51.004  27.028  30.725  1.00  0.00    -0.237 OA
ATOM     76  O   UNL A   1      50.597  27.130  33.155  1.00  0.00    -0.744 OA
ENDBRANCH  72  73
ENDBRANCH  53  67
BRANCH  54  77
ATOM     77  C   UNL A   1      37.194  32.863  29.543  1.00  0.00    -0.014 A 
ATOM     78  C   UNL A   1      36.204  32.736  30.533  1.00  0.00     0.010 A 
ATOM     79  C   UNL A   1      36.906  33.589  28.374  1.00  0.00     0.010 A 
ATOM     80  C   UNL A   1      34.944  33.312  30.350  1.00  0.00     0.020 A 
ATOM     81  C   UNL A   1      35.655  34.187  28.199  1.00  0.00     0.020 A 
ATOM     82  C   UNL A   1      34.678  34.036  29.185  1.00  0.00     0.054 A 
BRANCH  82  83
ATOM     83  S   UNL A   1      33.056  34.829  28.996  1.00  0.00     0.124 S 
ATOM     84  O   UNL A   1      32.550  34.812  30.365  1.00  0.00    -0.237 OA
ATOM     85  O   UNL A   1      33.406  36.144  28.467  1.00  0.00    -0.237 OA
ATOM     86  O   UNL A   1      32.357  33.954  28.057  1.00  0.00    -0.744 OA
ENDBRANCH  82  83
ENDBRANCH  54  77
BRANCH  66  87
ATOM     87  C   UNL A   1      43.103  35.121  32.475  1.00  0.00    -0.014 A 
ATOM     88  C   UNL A   1      43.828  36.097  31.770  1.00  0.00     0.010 A 
ATOM     89  C   UNL A   1      42.680  35.393  33.790  1.00  0.00     0.010 A 
ATOM     90  C   UNL A   1      44.144  37.315  32.376  1.00  0.00     0.020 A 
ATOM     91  C   UNL A   1      42.974  36.619  34.389  1.00  0.00     0.020 A 
ATOM     92  C   UNL A   1      43.715  37.569  33.682  1.00  0.00     0.054 A 
BRANCH  92  93
ATOM     93  S   UNL A   1      44.094  39.177  34.429  1.00  0.00     0.124 S 
ATOM     94  O   UNL A   1      45.386  39.496  33.826  1.00  0.00    -0.237 OA
ATOM     95  O   UNL A   1      42.974  40.007  33.992  1.00  0.00    -0.237 OA
ATOM     96  O   UNL A   1      44.128  38.893  35.862  1.00  0.00    -0.744 OA
ENDBRANCH  92  93
ENDBRANCH  66  87
ENDBRANCH  40  41
ENDBRANCH  32  35
ENDBRANCH  30  31
ENDBRANCH  29  30
ENDBRANCH   1  29
TORSDOF 18
ENDMDL
MODEL 3
REMARK VINA RESULT:     -11.6      3.249      4.972
REMARK SMILES COc1ccc(C(=O)N[C@H](C(=O)NCCCCNC(=O)c2ccc(-c3c4nc(c(-c5ccc(S(=O)(=O)[O-])cc5)c5ccc([nH]5)c(-c5ccc(S(=O)(=O)[O-])cc5)c5nc(c(-c6ccc(S(=O)(=O)[O-])cc6)c6ccc3[nH]6)C=C5)C=C4)cc2)C2=C(C)N=N[C@H]2C)c(F)c1F
REMARK SMILES IDX 15 1 14 2 13 3 11 4 12 5 10 7 9 8 7 9 8 10 6 12 3 13 4 14
REMARK SMILES IDX 90 15 5 16 88 17 91 18 89 19 2 20 1 21 81 22 82 23 86 24
REMARK SMILES IDX 83 25 84 26 85 27 87 28 16 29 17 30 18 31 19 32 20 34 21 35
REMARK SMILES IDX 22 36 80 37 23 38 79 39 24 40 25 41 26 42 73 43 27 44 78 45
REMARK SMILES IDX 72 46 74 47 28 48 77 49 71 50 70 51 29 53 59 54 40 55 58 56
REMARK SMILES IDX 41 57 44 58 57 59 75 60 42 61 43 62 56 64 76 65 45 66 30 67
REMARK SMILES IDX 31 68 39 69 32 70 38 71 33 72 34 73 35 74 36 75 37 76 60 77
REMARK SMILES IDX 61 78 69 79 62 80 68 81 63 82 64 83 65 84 66 85 67 86 46 87
REMARK SMILES IDX 47 88 55 89 48 90 54 91 49 92 50 93 51 94 52 95 53 96
REMARK H PARENT 13 6 9 11 18 33 74 52 44 63
REMARK Flexibility Score: inf
ROOT
ATOM      1  C   UNL A   1      31.651  27.604  27.271  1.00  0.00     0.023 C 
ENDROOT
BRANCH   1   2
ATOM      2  C   UNL A   1      31.549  26.336  26.427  1.00  0.00     0.116 C 
BRANCH   2   3
ATOM      3  N   UNL A   1      32.862  25.773  26.197  1.00  0.00    -0.354 N 
ATOM      4  C   UNL A   1      33.220  24.764  25.353  1.00  0.00     0.247 C 
ATOM      5  O   UNL A   1      34.365  24.307  25.442  1.00  0.00    -0.272 OA
ATOM      6  H   UNL A   1      33.594  26.172  26.720  1.00  0.00     0.163 HD
BRANCH   4   7
ATOM      7  C   UNL A   1      32.203  24.185  24.327  1.00  0.00     0.202 C 
BRANCH   7   8
ATOM      8  N   UNL A   1      32.721  24.580  23.024  1.00  0.00    -0.336 N 
ATOM      9  C   UNL A   1      32.699  25.766  22.342  1.00  0.00     0.255 C 
ATOM     10  O   UNL A   1      33.400  25.879  21.337  1.00  0.00    -0.269 OA
ATOM     11  H   UNL A   1      33.175  23.852  22.539  1.00  0.00     0.165 HD
BRANCH   9  12
ATOM     12  C   UNL A   1      31.784  26.876  22.673  1.00  0.00     0.078 A 
ATOM     13  C   UNL A   1      30.199  29.139  23.217  1.00  0.00     0.157 A 
ATOM     14  C   UNL A   1      31.577  29.276  23.051  1.00  0.00     0.050 A 
ATOM     15  C   UNL A   1      29.643  27.856  23.196  1.00  0.00     0.201 A 
ATOM     16  C   UNL A   1      32.362  28.153  22.773  1.00  0.00     0.021 A 
ATOM     17  C   UNL A   1      30.432  26.732  22.957  1.00  0.00     0.175 A 
ATOM     18  F   UNL A   1      28.324  27.695  23.382  1.00  0.00    -0.200 F 
ATOM     19  F   UNL A   1      29.860  25.522  23.029  1.00  0.00    -0.203 F 
BRANCH  13  20
ATOM     20  O   UNL A   1      29.335  30.176  23.442  1.00  0.00    -0.494 OA
ATOM     21  C   UNL A   1      28.222  30.264  22.559  1.00  0.00     0.278 C 
ENDBRANCH  13  20
ENDBRANCH   9  12
ENDBRANCH   7   8
BRANCH   7  22
ATOM     22  C   UNL A   1      32.120  22.704  24.466  1.00  0.00     0.011 C 
ATOM     23  C   UNL A   1      31.561  21.978  25.447  1.00  0.00     0.064 C 
ATOM     24  C   UNL A   1      32.781  21.700  23.578  1.00  0.00     0.156 C 
ATOM     25  C   UNL A   1      30.744  22.415  26.613  1.00  0.00     0.069 C 
ATOM     26  N   UNL A   1      31.848  20.641  25.337  1.00  0.00    -0.160 NA
ATOM     27  N   UNL A   1      32.586  20.433  24.340  1.00  0.00    -0.181 NA
ATOM     28  C   UNL A   1      32.094  21.503  22.229  1.00  0.00     0.040 C 
ENDBRANCH   7  22
ENDBRANCH   4   7
ENDBRANCH   2   3
ENDBRANCH   1   2
BRANCH   1  29
ATOM     29  C   UNL A   1      32.315  28.776  26.549  1.00  0.00     0.023 C 
BRANCH  29  30
ATOM     30  C   UNL A   1      33.678  29.181  27.104  1.00  0.00     0.116 C 
BRANCH  30  31
ATOM     31  N   UNL A   1      33.683  30.492  27.741  1.00  0.00    -0.352 N 
ATOM     32  C   UNL A   1      34.685  31.077  28.479  1.00  0.00     0.251 C 
ATOM     33  H   UNL A   1      32.865  31.027  27.628  1.00  0.00     0.163 HD
ATOM     34  O   UNL A   1      34.503  32.159  29.030  1.00  0.00    -0.269 OA
BRANCH  32  35
ATOM     35  C   UNL A   1      35.963  30.357  28.636  1.00  0.00     0.039 A 
ATOM     36  C   UNL A   1      36.906  30.427  27.610  1.00  0.00     0.014 A 
ATOM     37  C   UNL A   1      36.258  29.702  29.835  1.00  0.00     0.014 A 
ATOM     38  C   UNL A   1      38.188  29.919  27.824  1.00  0.00     0.010 A 
ATOM     39  C   UNL A   1      37.555  29.264  30.071  1.00  0.00     0.010 A 
ATOM     40  C   UNL A   1      38.537  29.383  29.075  1.00  0.00    -0.014 A 
BRANCH  40  41
ATOM     41  C   UNL A   1      39.934  28.988  29.383  1.00  0.00     0.031 A 
ATOM     42  C   UNL A   1      40.878  29.972  30.015  1.00  0.00     0.074 A 
ATOM     43  C   UNL A   1      40.374  27.769  29.009  1.00  0.00     0.049 A 
ATOM     44  N   UNL A   1      42.150  29.834  30.284  1.00  0.00    -0.248 NA
ATOM     45  C   UNL A   1      40.327  31.292  30.363  1.00  0.00     0.031 C 
ATOM     46  C   UNL A   1      39.570  26.745  28.336  1.00  0.00     0.029 A 
ATOM     47  N   UNL A   1      41.611  27.189  29.132  1.00  0.00    -0.354 N 
ATOM     48  C   UNL A   1      42.557  31.052  30.814  1.00  0.00     0.074 A 
ATOM     49  C   UNL A   1      41.409  31.931  30.785  1.00  0.00     0.031 C 
ATOM     50  C   UNL A   1      40.327  25.655  28.132  1.00  0.00     0.029 A 
ATOM     51  C   UNL A   1      41.676  25.914  28.620  1.00  0.00     0.049 A 
ATOM     52  H   UNL A   1      42.380  27.642  29.548  1.00  0.00     0.167 HD
ATOM     53  C   UNL A   1      43.773  31.401  31.299  1.00  0.00     0.031 A 
ATOM     54  C   UNL A   1      42.709  25.052  28.542  1.00  0.00     0.031 A 
ATOM     55  C   UNL A   1      44.907  30.519  31.340  1.00  0.00     0.049 A 
ATOM     56  C   UNL A   1      44.048  25.463  29.087  1.00  0.00     0.074 A 
ATOM     57  C   UNL A   1      46.161  30.756  31.878  1.00  0.00     0.029 A 
ATOM     58  N   UNL A   1      44.930  29.233  30.823  1.00  0.00    -0.354 N 
ATOM     59  N   UNL A   1      44.393  26.595  29.653  1.00  0.00    -0.248 NA
ATOM     60  C   UNL A   1      45.135  24.480  28.985  1.00  0.00     0.031 C 
ATOM     61  C   UNL A   1      46.956  29.629  31.644  1.00  0.00     0.029 A 
ATOM     62  C   UNL A   1      46.183  28.673  31.004  1.00  0.00     0.049 A 
ATOM     63  H   UNL A   1      44.168  28.785  30.391  1.00  0.00     0.167 HD
ATOM     64  C   UNL A   1      45.735  26.454  29.988  1.00  0.00     0.074 A 
ATOM     65  C   UNL A   1      46.132  25.121  29.580  1.00  0.00     0.031 C 
ATOM     66  C   UNL A   1      46.564  27.349  30.580  1.00  0.00     0.031 A 
BRANCH  53  67
ATOM     67  C   UNL A   1      43.931  32.803  31.821  1.00  0.00    -0.014 A 
ATOM     68  C   UNL A   1      43.727  33.096  33.182  1.00  0.00     0.010 A 
ATOM     69  C   UNL A   1      44.315  33.838  30.948  1.00  0.00     0.010 A 
ATOM     70  C   UNL A   1      43.859  34.404  33.652  1.00  0.00     0.020 A 
ATOM     71  C   UNL A   1      44.472  35.144  31.419  1.00  0.00     0.020 A 
ATOM     72  C   UNL A   1      44.225  35.422  32.765  1.00  0.00     0.054 A 
BRANCH  72  73
ATOM     73  S   UNL A   1      44.400  37.110  33.404  1.00  0.00     0.124 S 
ATOM     74  O   UNL A   1      43.006  37.512  33.576  1.00  0.00    -0.237 OA
ATOM     75  O   UNL A   1      45.152  36.911  34.640  1.00  0.00    -0.237 OA
ATOM     76  O   UNL A   1      45.124  37.809  32.344  1.00  0.00    -0.744 OA
ENDBRANCH  72  73
ENDBRANCH  53  67
BRANCH  54  77
ATOM     77  C   UNL A   1      42.510  23.709  27.935  1.00  0.00    -0.014 A 
ATOM     78  C   UNL A   1      42.659  23.527  26.549  1.00  0.00     0.010 A 
ATOM     79  C   UNL A   1      42.192  22.601  28.740  1.00  0.00     0.010 A 
ATOM     80  C   UNL A   1      42.481  22.265  25.977  1.00  0.00     0.020 A 
ATOM     81  C   UNL A   1      42.037  21.331  28.175  1.00  0.00     0.020 A 
ATOM     82  C   UNL A   1      42.173  21.174  26.795  1.00  0.00     0.054 A 
BRANCH  82  83
ATOM     83  S   UNL A   1      42.007  19.532  26.040  1.00  0.00     0.124 S 
ATOM     84  O   UNL A   1      40.570  19.457  25.791  1.00  0.00    -0.237 OA
ATOM     85  O   UNL A   1      42.850  19.642  24.852  1.00  0.00    -0.237 OA
ATOM     86  O   UNL A   1      42.514  18.630  27.072  1.00  0.00    -0.744 OA
ENDBRANCH  82  83
ENDBRANCH  54  77
BRANCH  66  87
ATOM     87  C   UNL A   1      47.982  26.914  30.830  1.00  0.00    -0.014 A 
ATOM     88  C   UNL A   1      48.992  27.167  29.884  1.00  0.00     0.010 A 
ATOM     89  C   UNL A   1      48.319  26.298  32.049  1.00  0.00     0.010 A 
ATOM     90  C   UNL A   1      50.311  26.789  30.144  1.00  0.00     0.020 A 
ATOM     91  C   UNL A   1      49.641  25.940  32.321  1.00  0.00     0.020 A 
ATOM     92  C   UNL A   1      50.628  26.178  31.361  1.00  0.00     0.054 A 
BRANCH  92  93
ATOM     93  S   UNL A   1      52.356  25.742  31.696  1.00  0.00     0.124 S 
ATOM     94  O   UNL A   1      52.247  24.339  32.084  1.00  0.00    -0.237 OA
ATOM     95  O   UNL A   1      53.005  25.992  30.411  1.00  0.00    -0.237 OA
ATOM     96  O   UNL A   1      52.741  26.658  32.768  1.00  0.00    -0.744 OA
ENDBRANCH  92  93
ENDBRANCH  66  87
ENDBRANCH  40  41
ENDBRANCH  32  35
ENDBRANCH  30  31
ENDBRANCH  29  30
ENDBRANCH   1  29
TORSDOF 18
ENDMDL
