MODEL 1
REMARK VINA RESULT:     -14.8      0.000      0.000
REMARK SMILES Cc1coc2cc3c(cc12)[C@@H](C)[C@H](CCC(=O)N[C@@H](Cc1c[nH]c2ccccc12)C(=O)NCCCCNC(=O)c1ccc(-c2c4nc(c(-c5ccc(S(=O)(=O)[O-])cc5)c5ccc([nH]5)c(-c5ccc(S(=O)(=O)[O-])cc5)c5nc(c(-c6ccc(S(=O)(=O)[O-])cc6)c6ccc2[nH]6)C=C5)C=C4)cc1)C(=O)O3
REMARK SMILES IDX 34 1 33 2 32 3 30 4 31 5 19 7 18 8 16 9 17 10 15 12 14 13
REMARK SMILES IDX 13 14 1 15 2 16 3 17 10 18 4 19 5 20 9 21 6 22 8 23 7 24
REMARK SMILES IDX 11 25 102 26 12 27 100 28 101 29 20 30 21 31 22 32 29 33
REMARK SMILES IDX 23 34 24 35 28 36 25 38 27 39 26 40 35 41 36 42 37 43 38 44
REMARK SMILES IDX 39 46 40 47 41 48 99 49 42 50 98 51 43 52 44 53 45 54 92 55
REMARK SMILES IDX 46 56 97 57 91 58 93 59 47 60 96 61 90 62 89 63 48 65 78 66
REMARK SMILES IDX 59 67 77 68 60 69 63 70 76 71 94 72 61 73 62 74 75 76 95 77
REMARK SMILES IDX 64 78 49 79 50 80 58 81 51 82 57 83 52 84 53 85 54 86 55 87
REMARK SMILES IDX 56 88 79 89 80 90 88 91 81 92 87 93 82 94 83 95 84 96 85 97
REMARK SMILES IDX 86 98 65 99 66 100 74 101 67 102 73 103 68 104 69 105 70 106
REMARK SMILES IDX 71 107 72 108
REMARK H PARENT 32 6 18 11 23 37 37 45 93 64 63 75
REMARK Flexibility Score: inf
ROOT
ATOM      1  C   UNL A   1      38.678  23.588  26.548  1.00  0.00     0.023 C 
ENDROOT
BRANCH   1   2
ATOM      2  C   UNL A   1      37.367  23.740  25.815  1.00  0.00     0.116 C 
BRANCH   2   3
ATOM      3  N   UNL A   1      37.411  23.366  24.421  1.00  0.00    -0.354 N 
ATOM      4  C   UNL A   1      36.410  22.844  23.658  1.00  0.00     0.242 C 
ATOM      5  O   UNL A   1      36.554  22.860  22.432  1.00  0.00    -0.273 OA
ATOM      6  H   UNL A   1      38.273  23.505  23.965  1.00  0.00     0.163 HD
BRANCH   4   7
ATOM      7  C   UNL A   1      35.080  22.376  24.286  1.00  0.00     0.175 C 
BRANCH   7   8
ATOM      8  N   UNL A   1      33.903  23.143  23.765  1.00  0.00    -0.344 N 
ATOM      9  C   UNL A   1      33.488  24.455  23.776  1.00  0.00     0.220 C 
ATOM     10  O   UNL A   1      32.463  24.699  23.124  1.00  0.00    -0.275 OA
ATOM     11  H   UNL A   1      33.264  22.561  23.295  1.00  0.00     0.164 HD
BRANCH   9  12
ATOM     12  C   UNL A   1      34.152  25.627  24.552  1.00  0.00     0.101 C 
BRANCH  12  13
ATOM     13  C   UNL A   1      33.514  27.094  24.412  1.00  0.00     0.026 C 
BRANCH  13  14
ATOM     14  C   UNL A   1      32.961  27.750  25.738  1.00  0.00     0.107 C 
ATOM     15  C   UNL A   1      28.290  32.632  23.167  1.00  0.00     0.048 C 
ATOM     16  C   UNL A   1      28.669  31.274  22.721  1.00  0.00    -0.005 A 
ATOM     17  C   UNL A   1      28.103  30.574  21.672  1.00  0.00     0.199 A 
ATOM     18  C   UNL A   1      29.620  30.391  23.316  1.00  0.00     0.024 A 
ATOM     19  O   UNL A   1      28.572  29.303  21.630  1.00  0.00    -0.464 OA
ATOM     20  C   UNL A   1      29.443  29.175  22.661  1.00  0.00     0.137 A 
ATOM     21  C   UNL A   1      30.570  30.464  24.366  1.00  0.00     0.020 A 
ATOM     22  C   UNL A   1      30.003  27.982  23.080  1.00  0.00     0.095 A 
ATOM     23  C   UNL A   1      31.178  29.280  24.792  1.00  0.00    -0.001 A 
ATOM     24  C   UNL A   1      30.715  28.088  24.266  1.00  0.00     0.138 A 
ATOM     25  C   UNL A   1      32.238  29.149  25.857  1.00  0.00     0.034 C 
ATOM     26  O   UNL A   1      30.851  26.954  25.104  1.00  0.00    -0.426 OA
ATOM     27  C   UNL A   1      31.518  29.287  27.231  1.00  0.00     0.014 C 
ATOM     28  C   UNL A   1      31.859  26.847  26.082  1.00  0.00     0.314 C 
ATOM     29  O   UNL A   1      31.907  26.061  27.003  1.00  0.00    -0.251 OA
ENDBRANCH  13  14
ENDBRANCH  12  13
ENDBRANCH   9  12
ENDBRANCH   7   8
BRANCH   7  30
ATOM     30  C   UNL A   1      35.136  20.794  24.344  1.00  0.00     0.072 C 
BRANCH  30  31
ATOM     31  C   UNL A   1      34.227  19.878  25.134  1.00  0.00    -0.020 A 
ATOM     32  C   UNL A   1      33.447  20.083  26.255  1.00  0.00     0.087 A 
ATOM     33  C   UNL A   1      34.068  18.481  24.815  1.00  0.00     0.003 A 
ATOM     34  N   UNL A   1      32.770  18.927  26.560  1.00  0.00    -0.361 N 
ATOM     35  C   UNL A   1      33.091  17.949  25.653  1.00  0.00     0.046 A 
ATOM     36  C   UNL A   1      34.632  17.649  23.829  1.00  0.00     0.010 A 
ATOM     37  H   UNL A   1      32.148  18.816  27.316  1.00  0.00     0.166 HD
ATOM     38  C   UNL A   1      32.569  16.661  25.481  1.00  0.00     0.026 A 
ATOM     39  C   UNL A   1      34.116  16.367  23.632  1.00  0.00     0.001 A 
ATOM     40  C   UNL A   1      33.074  15.896  24.426  1.00  0.00     0.002 A 
ENDBRANCH  30  31
ENDBRANCH   7  30
ENDBRANCH   4   7
ENDBRANCH   2   3
ENDBRANCH   1   2
BRANCH   1  41
ATOM     41  C   UNL A   1      39.355  22.243  26.296  1.00  0.00     0.023 C 
BRANCH  41  42
ATOM     42  C   UNL A   1      40.818  22.131  26.755  1.00  0.00     0.116 C 
BRANCH  42  43
ATOM     43  N   UNL A   1      41.816  22.395  25.735  1.00  0.00    -0.352 N 
ATOM     44  C   UNL A   1      42.674  23.426  25.466  1.00  0.00     0.251 C 
ATOM     45  H   UNL A   1      41.893  21.660  25.084  1.00  0.00     0.163 HD
ATOM     46  O   UNL A   1      43.545  23.228  24.617  1.00  0.00    -0.269 OA
BRANCH  44  47
ATOM     47  C   UNL A   1      42.541  24.778  26.062  1.00  0.00     0.039 A 
ATOM     48  C   UNL A   1      43.194  25.188  27.218  1.00  0.00     0.014 A 
ATOM     49  C   UNL A   1      41.617  25.651  25.462  1.00  0.00     0.014 A 
ATOM     50  C   UNL A   1      42.792  26.331  27.881  1.00  0.00     0.010 A 
ATOM     51  C   UNL A   1      41.263  26.845  26.082  1.00  0.00     0.010 A 
ATOM     52  C   UNL A   1      41.803  27.143  27.327  1.00  0.00    -0.014 A 
BRANCH  52  53
ATOM     53  C   UNL A   1      41.486  28.359  28.062  1.00  0.00     0.031 A 
ATOM     54  C   UNL A   1      42.501  29.438  27.927  1.00  0.00     0.074 A 
ATOM     55  C   UNL A   1      40.364  28.538  28.781  1.00  0.00     0.049 A 
ATOM     56  N   UNL A   1      43.261  29.932  28.848  1.00  0.00    -0.248 NA
ATOM     57  C   UNL A   1      42.809  29.914  26.570  1.00  0.00     0.031 C 
ATOM     58  C   UNL A   1      39.171  27.693  28.835  1.00  0.00     0.029 A 
ATOM     59  N   UNL A   1      40.025  29.605  29.555  1.00  0.00    -0.354 N 
ATOM     60  C   UNL A   1      44.026  30.915  28.228  1.00  0.00     0.074 A 
ATOM     61  C   UNL A   1      43.810  30.760  26.810  1.00  0.00     0.031 C 
ATOM     62  C   UNL A   1      38.158  28.393  29.396  1.00  0.00     0.029 A 
ATOM     63  C   UNL A   1      38.678  29.660  29.880  1.00  0.00     0.049 A 
ATOM     64  H   UNL A   1      40.679  30.276  29.858  1.00  0.00     0.167 HD
ATOM     65  C   UNL A   1      44.638  31.908  28.928  1.00  0.00     0.031 A 
ATOM     66  C   UNL A   1      38.034  30.710  30.446  1.00  0.00     0.031 A 
ATOM     67  C   UNL A   1      44.751  31.591  30.327  1.00  0.00     0.049 A 
ATOM     68  C   UNL A   1      39.052  31.529  31.144  1.00  0.00     0.074 A 
ATOM     69  C   UNL A   1      45.412  30.622  31.053  1.00  0.00     0.029 A 
ATOM     70  N   UNL A   1      43.812  32.128  31.173  1.00  0.00    -0.354 N 
ATOM     71  N   UNL A   1      39.706  31.122  32.195  1.00  0.00    -0.248 NA
ATOM     72  C   UNL A   1      39.638  32.661  30.446  1.00  0.00     0.031 C 
ATOM     73  C   UNL A   1      44.539  30.310  32.135  1.00  0.00     0.029 A 
ATOM     74  C   UNL A   1      43.420  31.141  32.042  1.00  0.00     0.049 A 
ATOM     75  H   UNL A   1      43.480  33.054  31.159  1.00  0.00     0.167 HD
ATOM     76  C   UNL A   1      40.982  31.638  32.041  1.00  0.00     0.074 A 
ATOM     77  C   UNL A   1      40.846  32.673  31.017  1.00  0.00     0.031 C 
ATOM     78  C   UNL A   1      42.072  30.998  32.558  1.00  0.00     0.031 A 
BRANCH  65  79
ATOM     79  C   UNL A   1      44.826  33.306  28.394  1.00  0.00    -0.014 A 
ATOM     80  C   UNL A   1      43.860  33.957  27.600  1.00  0.00     0.010 A 
ATOM     81  C   UNL A   1      45.880  34.102  28.890  1.00  0.00     0.010 A 
ATOM     82  C   UNL A   1      43.936  35.317  27.298  1.00  0.00     0.020 A 
ATOM     83  C   UNL A   1      45.942  35.479  28.631  1.00  0.00     0.020 A 
ATOM     84  C   UNL A   1      44.970  36.075  27.830  1.00  0.00     0.054 A 
BRANCH  84  85
ATOM     85  S   UNL A   1      44.966  37.856  27.512  1.00  0.00     0.124 S 
ATOM     86  O   UNL A   1      45.093  38.401  28.861  1.00  0.00    -0.237 OA
ATOM     87  O   UNL A   1      46.134  38.022  26.652  1.00  0.00    -0.237 OA
ATOM     88  O   UNL A   1      43.678  38.085  26.863  1.00  0.00    -0.744 OA
ENDBRANCH  84  85
ENDBRANCH  65  79
BRANCH  66  89
ATOM     89  C   UNL A   1      36.725  31.275  30.037  1.00  0.00    -0.014 A 
ATOM     90  C   UNL A   1      36.492  31.607  28.688  1.00  0.00     0.010 A 
ATOM     91  C   UNL A   1      35.850  31.799  31.009  1.00  0.00     0.010 A 
ATOM     92  C   UNL A   1      35.491  32.513  28.329  1.00  0.00     0.020 A 
ATOM     93  C   UNL A   1      34.846  32.713  30.655  1.00  0.00     0.020 A 
ATOM     94  C   UNL A   1      34.703  33.096  29.321  1.00  0.00     0.054 A 
BRANCH  94  95
ATOM     95  S   UNL A   1      33.575  34.435  28.843  1.00  0.00     0.124 S 
ATOM     96  O   UNL A   1      32.982  34.803  30.126  1.00  0.00    -0.237 OA
ATOM     97  O   UNL A   1      34.484  35.422  28.267  1.00  0.00    -0.237 OA
ATOM     98  O   UNL A   1      32.665  33.800  27.892  1.00  0.00    -0.744 OA
ENDBRANCH  94  95
ENDBRANCH  66  89
BRANCH  78  99
ATOM     99  C   UNL A   1      41.847  29.873  33.553  1.00  0.00    -0.014 A 
ATOM    100  C   UNL A   1      42.001  30.168  34.920  1.00  0.00     0.010 A 
ATOM    101  C   UNL A   1      41.644  28.527  33.183  1.00  0.00     0.010 A 
ATOM    102  C   UNL A   1      41.975  29.159  35.886  1.00  0.00     0.020 A 
ATOM    103  C   UNL A   1      41.586  27.511  34.150  1.00  0.00     0.020 A 
ATOM    104  C   UNL A   1      41.772  27.834  35.496  1.00  0.00     0.054 A 
BRANCH 104 105
ATOM    105  S   UNL A   1      41.767  26.554  36.781  1.00  0.00     0.124 S 
ATOM    106  O   UNL A   1      42.984  26.863  37.529  1.00  0.00    -0.237 OA
ATOM    107  O   UNL A   1      40.517  26.816  37.493  1.00  0.00    -0.237 OA
ATOM    108  O   UNL A   1      41.800  25.300  36.034  1.00  0.00    -0.744 OA
ENDBRANCH 104 105
ENDBRANCH  78  99
ENDBRANCH  52  53
ENDBRANCH  44  47
ENDBRANCH  42  43
ENDBRANCH  41  42
ENDBRANCH   1  41
TORSDOF 20
ENDMDL
MODEL 2
REMARK VINA RESULT:     -14.2      2.910     10.380
REMARK SMILES Cc1coc2cc3c(cc12)[C@@H](C)[C@H](CCC(=O)N[C@@H](Cc1c[nH]c2ccccc12)C(=O)NCCCCNC(=O)c1ccc(-c2c4nc(c(-c5ccc(S(=O)(=O)[O-])cc5)c5ccc([nH]5)c(-c5ccc(S(=O)(=O)[O-])cc5)c5nc(c(-c6ccc(S(=O)(=O)[O-])cc6)c6ccc2[nH]6)C=C5)C=C4)cc1)C(=O)O3
REMARK SMILES IDX 34 1 33 2 32 3 30 4 31 5 19 7 18 8 16 9 17 10 15 12 14 13
REMARK SMILES IDX 13 14 1 15 2 16 3 17 10 18 4 19 5 20 9 21 6 22 8 23 7 24
REMARK SMILES IDX 11 25 102 26 12 27 100 28 101 29 20 30 21 31 22 32 29 33
REMARK SMILES IDX 23 34 24 35 28 36 25 38 27 39 26 40 35 41 36 42 37 43 38 44
REMARK SMILES IDX 39 46 40 47 41 48 99 49 42 50 98 51 43 52 44 53 45 54 92 55
REMARK SMILES IDX 46 56 97 57 91 58 93 59 47 60 96 61 90 62 89 63 48 65 78 66
REMARK SMILES IDX 59 67 77 68 60 69 63 70 76 71 94 72 61 73 62 74 75 76 95 77
REMARK SMILES IDX 64 78 49 79 50 80 58 81 51 82 57 83 52 84 53 85 54 86 55 87
REMARK SMILES IDX 56 88 79 89 80 90 88 91 81 92 87 93 82 94 83 95 84 96 85 97
REMARK SMILES IDX 86 98 65 99 66 100 74 101 67 102 73 103 68 104 69 105 70 106
REMARK SMILES IDX 71 107 72 108
REMARK H PARENT 32 6 18 11 23 37 37 45 93 64 63 75
REMARK Flexibility Score: inf
ROOT
ATOM      1  C   UNL A   1      35.193  30.400  27.726  1.00  0.00     0.023 C 
ENDROOT
BRANCH   1   2
ATOM      2  C   UNL A   1      34.450  29.164  27.281  1.00  0.00     0.116 C 
BRANCH   2   3
ATOM      3  N   UNL A   1      33.152  28.993  27.889  1.00  0.00    -0.354 N 
ATOM      4  C   UNL A   1      32.015  28.498  27.320  1.00  0.00     0.242 C 
ATOM      5  O   UNL A   1      31.095  28.165  28.073  1.00  0.00    -0.273 OA
ATOM      6  H   UNL A   1      33.077  29.268  28.831  1.00  0.00     0.163 HD
BRANCH   4   7
ATOM      7  C   UNL A   1      31.925  28.230  25.803  1.00  0.00     0.175 C 
BRANCH   7   8
ATOM      8  N   UNL A   1      31.418  26.854  25.498  1.00  0.00    -0.344 N 
ATOM      9  C   UNL A   1      31.878  25.567  25.656  1.00  0.00     0.220 C 
ATOM     10  O   UNL A   1      31.081  24.670  25.348  1.00  0.00    -0.275 OA
ATOM     11  H   UNL A   1      30.529  26.876  25.076  1.00  0.00     0.164 HD
BRANCH   9  12
ATOM     12  C   UNL A   1      33.294  25.145  26.137  1.00  0.00     0.101 C 
BRANCH  12  13
ATOM     13  C   UNL A   1      33.738  23.613  25.955  1.00  0.00     0.026 C 
BRANCH  13  14
ATOM     14  C   UNL A   1      34.992  23.348  25.032  1.00  0.00     0.107 C 
ATOM     15  C   UNL A   1      35.171  16.126  24.776  1.00  0.00     0.048 C 
ATOM     16  C   UNL A   1      34.060  17.100  24.820  1.00  0.00    -0.005 A 
ATOM     17  C   UNL A   1      32.712  16.804  24.740  1.00  0.00     0.199 A 
ATOM     18  C   UNL A   1      34.147  18.524  24.872  1.00  0.00     0.024 A 
ATOM     19  O   UNL A   1      31.972  17.935  24.654  1.00  0.00    -0.464 OA
ATOM     20  C   UNL A   1      32.844  18.974  24.673  1.00  0.00     0.137 A 
ATOM     21  C   UNL A   1      35.181  19.484  25.010  1.00  0.00     0.020 A 
ATOM     22  C   UNL A   1      32.510  20.292  24.422  1.00  0.00     0.095 A 
ATOM     23  C   UNL A   1      34.870  20.829  24.795  1.00  0.00    -0.001 A 
ATOM     24  C   UNL A   1      33.608  21.134  24.319  1.00  0.00     0.138 A 
ATOM     25  C   UNL A   1      35.809  22.000  24.932  1.00  0.00     0.034 C 
ATOM     26  O   UNL A   1      33.515  22.312  23.538  1.00  0.00    -0.426 OA
ATOM     27  C   UNL A   1      36.724  21.999  23.672  1.00  0.00     0.014 C 
ATOM     28  C   UNL A   1      34.395  23.400  23.695  1.00  0.00     0.314 C 
ATOM     29  O   UNL A   1      34.567  24.323  22.927  1.00  0.00    -0.251 OA
ENDBRANCH  13  14
ENDBRANCH  12  13
ENDBRANCH   9  12
ENDBRANCH   7   8
BRANCH   7  30
ATOM     30  C   UNL A   1      31.340  29.545  25.142  1.00  0.00     0.072 C 
BRANCH  30  31
ATOM     31  C   UNL A   1      30.930  29.736  23.698  1.00  0.00    -0.020 A 
ATOM     32  C   UNL A   1      31.505  29.334  22.508  1.00  0.00     0.087 A 
ATOM     33  C   UNL A   1      29.768  30.497  23.317  1.00  0.00     0.003 A 
ATOM     34  N   UNL A   1      30.710  29.728  21.459  1.00  0.00    -0.361 N 
ATOM     35  C   UNL A   1      29.608  30.392  21.937  1.00  0.00     0.046 A 
ATOM     36  C   UNL A   1      28.801  31.210  24.051  1.00  0.00     0.010 A 
ATOM     37  H   UNL A   1      30.901  29.561  20.508  1.00  0.00     0.166 HD
ATOM     38  C   UNL A   1      28.472  30.866  21.270  1.00  0.00     0.026 A 
ATOM     39  C   UNL A   1      27.654  31.679  23.407  1.00  0.00     0.001 A 
ATOM     40  C   UNL A   1      27.479  31.476  22.042  1.00  0.00     0.002 A 
ENDBRANCH  30  31
ENDBRANCH   7  30
ENDBRANCH   4   7
ENDBRANCH   2   3
ENDBRANCH   1   2
BRANCH   1  41
ATOM     41  C   UNL A   1      34.306  31.639  27.810  1.00  0.00     0.023 C 
BRANCH  41  42
ATOM     42  C   UNL A   1      34.833  32.786  28.687  1.00  0.00     0.116 C 
BRANCH  42  43
ATOM     43  N   UNL A   1      34.462  32.724  30.088  1.00  0.00    -0.352 N 
ATOM     44  C   UNL A   1      35.091  32.331  31.238  1.00  0.00     0.251 C 
ATOM     45  H   UNL A   1      33.543  33.038  30.249  1.00  0.00     0.163 HD
ATOM     46  O   UNL A   1      34.539  32.607  32.305  1.00  0.00    -0.269 OA
BRANCH  44  47
ATOM     47  C   UNL A   1      36.328  31.514  31.256  1.00  0.00     0.039 A 
ATOM     48  C   UNL A   1      37.612  32.040  31.173  1.00  0.00     0.014 A 
ATOM     49  C   UNL A   1      36.170  30.117  31.257  1.00  0.00     0.014 A 
ATOM     50  C   UNL A   1      38.686  31.222  30.884  1.00  0.00     0.010 A 
ATOM     51  C   UNL A   1      37.259  29.278  31.046  1.00  0.00     0.010 A 
ATOM     52  C   UNL A   1      38.503  29.842  30.790  1.00  0.00    -0.014 A 
BRANCH  52  53
ATOM     53  C   UNL A   1      39.700  29.053  30.544  1.00  0.00     0.031 A 
ATOM     54  C   UNL A   1      40.547  28.833  31.748  1.00  0.00     0.074 A 
ATOM     55  C   UNL A   1      40.025  28.520  29.353  1.00  0.00     0.049 A 
ATOM     56  N   UNL A   1      41.745  29.268  31.965  1.00  0.00    -0.248 NA
ATOM     57  C   UNL A   1      39.922  28.180  32.907  1.00  0.00     0.031 C 
ATOM     58  C   UNL A   1      39.211  28.437  28.139  1.00  0.00     0.029 A 
ATOM     59  N   UNL A   1      41.154  27.838  29.018  1.00  0.00    -0.354 N 
ATOM     60  C   UNL A   1      42.103  28.792  33.222  1.00  0.00     0.074 A 
ATOM     61  C   UNL A   1      40.900  28.256  33.809  1.00  0.00     0.031 C 
ATOM     62  C   UNL A   1      39.768  27.538  27.294  1.00  0.00     0.029 A 
ATOM     63  C   UNL A   1      41.048  27.116  27.838  1.00  0.00     0.049 A 
ATOM     64  H   UNL A   1      41.973  27.857  29.564  1.00  0.00     0.167 HD
ATOM     65  C   UNL A   1      43.401  28.701  33.621  1.00  0.00     0.031 A 
ATOM     66  C   UNL A   1      41.926  26.189  27.386  1.00  0.00     0.031 A 
ATOM     67  C   UNL A   1      44.273  29.506  32.808  1.00  0.00     0.049 A 
ATOM     68  C   UNL A   1      43.231  26.463  28.032  1.00  0.00     0.074 A 
ATOM     69  C   UNL A   1      44.404  30.859  32.570  1.00  0.00     0.029 A 
ATOM     70  N   UNL A   1      44.962  28.874  31.803  1.00  0.00    -0.354 N 
ATOM     71  N   UNL A   1      43.943  27.527  27.794  1.00  0.00    -0.248 NA
ATOM     72  C   UNL A   1      43.572  25.745  29.250  1.00  0.00     0.031 C 
ATOM     73  C   UNL A   1      44.766  30.959  31.195  1.00  0.00     0.029 A 
ATOM     74  C   UNL A   1      44.890  29.665  30.684  1.00  0.00     0.049 A 
ATOM     75  H   UNL A   1      45.424  28.008  31.872  1.00  0.00     0.167 HD
ATOM     76  C   UNL A   1      44.505  27.860  29.016  1.00  0.00     0.074 A 
ATOM     77  C   UNL A   1      44.343  26.663  29.840  1.00  0.00     0.031 C 
ATOM     78  C   UNL A   1      44.803  29.155  29.329  1.00  0.00     0.031 A 
BRANCH  65  79
ATOM     79  C   UNL A   1      43.914  27.616  34.534  1.00  0.00    -0.014 A 
ATOM     80  C   UNL A   1      44.128  26.290  34.102  1.00  0.00     0.010 A 
ATOM     81  C   UNL A   1      44.437  27.963  35.797  1.00  0.00     0.010 A 
ATOM     82  C   UNL A   1      44.808  25.353  34.881  1.00  0.00     0.020 A 
ATOM     83  C   UNL A   1      45.162  27.042  36.569  1.00  0.00     0.020 A 
ATOM     84  C   UNL A   1      45.337  25.740  36.105  1.00  0.00     0.054 A 
BRANCH  84  85
ATOM     85  S   UNL A   1      46.313  24.528  37.027  1.00  0.00     0.124 S 
ATOM     86  O   UNL A   1      47.198  24.005  35.988  1.00  0.00    -0.237 OA
ATOM     87  O   UNL A   1      46.955  25.354  38.045  1.00  0.00    -0.237 OA
ATOM     88  O   UNL A   1      45.311  23.590  37.526  1.00  0.00    -0.744 OA
ENDBRANCH  84  85
ENDBRANCH  65  79
BRANCH  66  89
ATOM     89  C   UNL A   1      41.601  24.857  26.821  1.00  0.00    -0.014 A 
ATOM     90  C   UNL A   1      40.595  24.068  27.414  1.00  0.00     0.010 A 
ATOM     91  C   UNL A   1      42.497  24.231  25.933  1.00  0.00     0.010 A 
ATOM     92  C   UNL A   1      40.549  22.685  27.213  1.00  0.00     0.020 A 
ATOM     93  C   UNL A   1      42.458  22.842  25.731  1.00  0.00     0.020 A 
ATOM     94  C   UNL A   1      41.510  22.075  26.408  1.00  0.00     0.054 A 
BRANCH  94  95
ATOM     95  S   UNL A   1      41.558  20.261  26.358  1.00  0.00     0.124 S 
ATOM     96  O   UNL A   1      42.600  20.014  25.365  1.00  0.00    -0.237 OA
ATOM     97  O   UNL A   1      41.909  19.917  27.733  1.00  0.00    -0.237 OA
ATOM     98  O   UNL A   1      40.206  19.889  25.952  1.00  0.00    -0.744 OA
ENDBRANCH  94  95
ENDBRANCH  66  89
BRANCH  78  99
ATOM     99  C   UNL A   1      44.787  30.191  28.219  1.00  0.00    -0.014 A 
ATOM    100  C   UNL A   1      46.010  30.793  27.868  1.00  0.00     0.010 A 
ATOM    101  C   UNL A   1      43.608  30.691  27.629  1.00  0.00     0.010 A 
ATOM    102  C   UNL A   1      46.058  31.868  26.977  1.00  0.00     0.020 A 
ATOM    103  C   UNL A   1      43.650  31.751  26.709  1.00  0.00     0.020 A 
ATOM    104  C   UNL A   1      44.876  32.345  26.405  1.00  0.00     0.054 A 
BRANCH 104 105
ATOM    105  S   UNL A   1      44.984  33.756  25.271  1.00  0.00     0.124 S 
ATOM    106  O   UNL A   1      44.100  34.731  25.905  1.00  0.00    -0.237 OA
ATOM    107  O   UNL A   1      46.406  34.092  25.306  1.00  0.00    -0.237 OA
ATOM    108  O   UNL A   1      44.507  33.225  23.996  1.00  0.00    -0.744 OA
ENDBRANCH 104 105
ENDBRANCH  78  99
ENDBRANCH  52  53
ENDBRANCH  44  47
ENDBRANCH  42  43
ENDBRANCH  41  42
ENDBRANCH   1  41
TORSDOF 20
ENDMDL
MODEL 3
REMARK VINA RESULT:     -13.5      2.209      3.107
REMARK SMILES Cc1coc2cc3c(cc12)[C@@H](C)[C@H](CCC(=O)N[C@@H](Cc1c[nH]c2ccccc12)C(=O)NCCCCNC(=O)c1ccc(-c2c4nc(c(-c5ccc(S(=O)(=O)[O-])cc5)c5ccc([nH]5)c(-c5ccc(S(=O)(=O)[O-])cc5)c5nc(c(-c6ccc(S(=O)(=O)[O-])cc6)c6ccc2[nH]6)C=C5)C=C4)cc1)C(=O)O3
REMARK SMILES IDX 34 1 33 2 32 3 30 4 31 5 19 7 18 8 16 9 17 10 15 12 14 13
REMARK SMILES IDX 13 14 1 15 2 16 3 17 10 18 4 19 5 20 9 21 6 22 8 23 7 24
REMARK SMILES IDX 11 25 102 26 12 27 100 28 101 29 20 30 21 31 22 32 29 33
REMARK SMILES IDX 23 34 24 35 28 36 25 38 27 39 26 40 35 41 36 42 37 43 38 44
REMARK SMILES IDX 39 46 40 47 41 48 99 49 42 50 98 51 43 52 44 53 45 54 92 55
REMARK SMILES IDX 46 56 97 57 91 58 93 59 47 60 96 61 90 62 89 63 48 65 78 66
REMARK SMILES IDX 59 67 77 68 60 69 63 70 76 71 94 72 61 73 62 74 75 76 95 77
REMARK SMILES IDX 64 78 49 79 50 80 58 81 51 82 57 83 52 84 53 85 54 86 55 87
REMARK SMILES IDX 56 88 79 89 80 90 88 91 81 92 87 93 82 94 83 95 84 96 85 97
REMARK SMILES IDX 86 98 65 99 66 100 74 101 67 102 73 103 68 104 69 105 70 106
REMARK SMILES IDX 71 107 72 108
REMARK H PARENT 32 6 18 11 23 37 37 45 93 64 63 75
REMARK Flexibility Score: inf
ROOT
ATOM      1  C   UNL A   1      40.058  21.060  26.114  1.00  0.00     0.023 C 
ENDROOT
BRANCH   1   2
ATOM      2  C   UNL A   1      38.562  21.094  25.917  1.00  0.00     0.116 C 
BRANCH   2   3
ATOM      3  N   UNL A   1      38.003  22.418  25.781  1.00  0.00    -0.354 N 
ATOM      4  C   UNL A   1      36.704  22.803  25.934  1.00  0.00     0.242 C 
ATOM      5  O   UNL A   1      36.474  24.010  26.060  1.00  0.00    -0.273 OA
ATOM      6  H   UNL A   1      38.639  23.132  25.548  1.00  0.00     0.163 HD
BRANCH   4   7
ATOM      7  C   UNL A   1      35.570  21.767  26.087  1.00  0.00     0.175 C 
BRANCH   7   8
ATOM      8  N   UNL A   1      34.652  22.093  27.225  1.00  0.00    -0.344 N 
ATOM      9  C   UNL A   1      33.351  22.518  27.362  1.00  0.00     0.220 C 
ATOM     10  O   UNL A   1      32.924  22.577  28.523  1.00  0.00    -0.275 OA
ATOM     11  H   UNL A   1      35.092  21.972  28.097  1.00  0.00     0.164 HD
BRANCH   9  12
ATOM     12  C   UNL A   1      32.398  22.961  26.216  1.00  0.00     0.101 C 
BRANCH  12  13
ATOM     13  C   UNL A   1      32.684  24.360  25.483  1.00  0.00     0.026 C 
BRANCH  13  14
ATOM     14  C   UNL A   1      32.738  24.331  23.906  1.00  0.00     0.107 C 
ATOM     15  C   UNL A   1      28.710  30.073  22.155  1.00  0.00     0.048 C 
ATOM     16  C   UNL A   1      29.651  29.809  23.264  1.00  0.00    -0.005 A 
ATOM     17  C   UNL A   1      30.039  30.712  24.235  1.00  0.00     0.199 A 
ATOM     18  C   UNL A   1      30.398  28.618  23.512  1.00  0.00     0.024 A 
ATOM     19  O   UNL A   1      31.027  30.198  25.007  1.00  0.00    -0.464 OA
ATOM     20  C   UNL A   1      31.286  28.954  24.531  1.00  0.00     0.137 A 
ATOM     21  C   UNL A   1      30.464  27.314  22.959  1.00  0.00     0.020 A 
ATOM     22  C   UNL A   1      32.350  28.163  24.922  1.00  0.00     0.095 A 
ATOM     23  C   UNL A   1      31.510  26.478  23.358  1.00  0.00    -0.001 A 
ATOM     24  C   UNL A   1      32.502  27.015  24.158  1.00  0.00     0.138 A 
ATOM     25  C   UNL A   1      31.733  25.051  22.923  1.00  0.00     0.034 C 
ATOM     26  O   UNL A   1      33.782  26.425  24.028  1.00  0.00    -0.426 OA
ATOM     27  C   UNL A   1      32.311  25.103  21.478  1.00  0.00     0.014 C 
ATOM     28  C   UNL A   1      33.965  25.085  23.635  1.00  0.00     0.314 C 
ATOM     29  O   UNL A   1      34.991  24.567  23.249  1.00  0.00    -0.251 OA
ENDBRANCH  13  14
ENDBRANCH  12  13
ENDBRANCH   9  12
ENDBRANCH   7   8
BRANCH   7  30
ATOM     30  C   UNL A   1      35.066  21.426  24.625  1.00  0.00     0.072 C 
BRANCH  30  31
ATOM     31  C   UNL A   1      33.982  20.443  24.240  1.00  0.00    -0.020 A 
ATOM     32  C   UNL A   1      32.692  20.617  23.778  1.00  0.00     0.087 A 
ATOM     33  C   UNL A   1      34.148  19.017  24.366  1.00  0.00     0.003 A 
ATOM     34  N   UNL A   1      32.123  19.390  23.535  1.00  0.00    -0.361 N 
ATOM     35  C   UNL A   1      33.021  18.396  23.832  1.00  0.00     0.046 A 
ATOM     36  C   UNL A   1      35.204  18.209  24.829  1.00  0.00     0.010 A 
ATOM     37  H   UNL A   1      31.209  19.245  23.198  1.00  0.00     0.166 HD
ATOM     38  C   UNL A   1      32.944  17.012  23.635  1.00  0.00     0.026 A 
ATOM     39  C   UNL A   1      35.153  16.828  24.629  1.00  0.00     0.001 A 
ATOM     40  C   UNL A   1      34.052  16.246  24.007  1.00  0.00     0.002 A 
ENDBRANCH  30  31
ENDBRANCH   7  30
ENDBRANCH   4   7
ENDBRANCH   2   3
ENDBRANCH   1   2
BRANCH   1  41
ATOM     41  C   UNL A   1      40.632  19.646  26.125  1.00  0.00     0.023 C 
BRANCH  41  42
ATOM     42  C   UNL A   1      42.099  19.519  26.567  1.00  0.00     0.116 C 
BRANCH  42  43
ATOM     43  N   UNL A   1      43.087  19.694  25.519  1.00  0.00    -0.352 N 
ATOM     44  C   UNL A   1      43.964  20.686  25.173  1.00  0.00     0.251 C 
ATOM     45  H   UNL A   1      43.137  18.919  24.915  1.00  0.00     0.163 HD
ATOM     46  O   UNL A   1      44.817  20.414  24.326  1.00  0.00    -0.269 OA
BRANCH  44  47
ATOM     47  C   UNL A   1      43.871  22.075  25.684  1.00  0.00     0.039 A 
ATOM     48  C   UNL A   1      44.499  22.525  26.840  1.00  0.00     0.014 A 
ATOM     49  C   UNL A   1      43.011  22.951  24.998  1.00  0.00     0.014 A 
ATOM     50  C   UNL A   1      44.125  23.721  27.419  1.00  0.00     0.010 A 
ATOM     51  C   UNL A   1      42.689  24.194  25.533  1.00  0.00     0.010 A 
ATOM     52  C   UNL A   1      43.196  24.542  26.780  1.00  0.00    -0.014 A 
BRANCH  52  53
ATOM     53  C   UNL A   1      42.908  25.811  27.430  1.00  0.00     0.031 A 
ATOM     54  C   UNL A   1      43.925  26.870  27.184  1.00  0.00     0.074 A 
ATOM     55  C   UNL A   1      41.810  26.053  28.167  1.00  0.00     0.049 A 
ATOM     56  N   UNL A   1      44.715  27.426  28.042  1.00  0.00    -0.248 NA
ATOM     57  C   UNL A   1      44.194  27.240  25.787  1.00  0.00     0.031 C 
ATOM     58  C   UNL A   1      40.614  25.223  28.321  1.00  0.00     0.029 A 
ATOM     59  N   UNL A   1      41.500  27.178  28.868  1.00  0.00    -0.354 N 
ATOM     60  C   UNL A   1      45.466  28.353  27.327  1.00  0.00     0.074 A 
ATOM     61  C   UNL A   1      45.206  28.094  25.932  1.00  0.00     0.031 C 
ATOM     62  C   UNL A   1      39.622  25.972  28.857  1.00  0.00     0.029 A 
ATOM     63  C   UNL A   1      40.164  27.268  29.228  1.00  0.00     0.049 A 
ATOM     64  H   UNL A   1      42.166  27.864  29.100  1.00  0.00     0.167 HD
ATOM     65  C   UNL A   1      46.104  29.391  27.932  1.00  0.00     0.031 A 
ATOM     66  C   UNL A   1      39.543  28.362  29.732  1.00  0.00     0.031 A 
ATOM     67  C   UNL A   1      46.258  29.180  29.347  1.00  0.00     0.049 A 
ATOM     68  C   UNL A   1      40.586  29.223  30.336  1.00  0.00     0.074 A 
ATOM     69  C   UNL A   1      46.936  28.263  30.124  1.00  0.00     0.029 A 
ATOM     70  N   UNL A   1      45.348  29.786  30.178  1.00  0.00    -0.354 N 
ATOM     71  N   UNL A   1      41.269  28.891  31.395  1.00  0.00    -0.248 NA
ATOM     72  C   UNL A   1      41.157  30.295  29.537  1.00  0.00     0.031 C 
ATOM     73  C   UNL A   1      46.094  28.040  31.252  1.00  0.00     0.029 A 
ATOM     74  C   UNL A   1      44.977  28.870  31.130  1.00  0.00     0.049 A 
ATOM     75  H   UNL A   1      45.021  30.711  30.104  1.00  0.00     0.167 HD
ATOM     76  C   UNL A   1      42.543  29.385  31.164  1.00  0.00     0.074 A 
ATOM     77  C   UNL A   1      42.382  30.340  30.069  1.00  0.00     0.031 C 
ATOM     78  C   UNL A   1      43.644  28.777  31.695  1.00  0.00     0.031 A 
BRANCH  65  79
ATOM     79  C   UNL A   1      46.284  30.744  27.288  1.00  0.00    -0.014 A 
ATOM     80  C   UNL A   1      45.215  31.640  27.082  1.00  0.00     0.010 A 
ATOM     81  C   UNL A   1      47.585  31.255  27.102  1.00  0.00     0.010 A 
ATOM     82  C   UNL A   1      45.417  32.965  26.696  1.00  0.00     0.020 A 
ATOM     83  C   UNL A   1      47.802  32.599  26.759  1.00  0.00     0.020 A 
ATOM     84  C   UNL A   1      46.712  33.443  26.553  1.00  0.00     0.054 A 
BRANCH  84  85
ATOM     85  S   UNL A   1      46.931  35.197  26.169  1.00  0.00     0.124 S 
ATOM     86  O   UNL A   1      47.014  35.786  27.503  1.00  0.00    -0.237 OA
ATOM     87  O   UNL A   1      48.175  35.195  25.403  1.00  0.00    -0.237 OA
ATOM     88  O   UNL A   1      45.732  35.533  25.408  1.00  0.00    -0.744 OA
ENDBRANCH  84  85
ENDBRANCH  65  79
BRANCH  66  89
ATOM     89  C   UNL A   1      38.225  28.905  29.322  1.00  0.00    -0.014 A 
ATOM     90  C   UNL A   1      38.017  29.313  27.989  1.00  0.00     0.010 A 
ATOM     91  C   UNL A   1      37.305  29.334  30.298  1.00  0.00     0.010 A 
ATOM     92  C   UNL A   1      36.992  30.204  27.658  1.00  0.00     0.020 A 
ATOM     93  C   UNL A   1      36.278  30.233  29.972  1.00  0.00     0.020 A 
ATOM     94  C   UNL A   1      36.156  30.694  28.661  1.00  0.00     0.054 A 
BRANCH  94  95
ATOM     95  S   UNL A   1      34.992  32.020  28.235  1.00  0.00     0.124 S 
ATOM     96  O   UNL A   1      35.875  33.014  27.631  1.00  0.00    -0.237 OA
ATOM     97  O   UNL A   1      34.077  31.352  27.313  1.00  0.00    -0.237 OA
ATOM     98  O   UNL A   1      34.410  32.397  29.520  1.00  0.00    -0.744 OA
ENDBRANCH  94  95
ENDBRANCH  66  89
BRANCH  78  99
ATOM     99  C   UNL A   1      43.444  27.732  32.778  1.00  0.00    -0.014 A 
ATOM    100  C   UNL A   1      43.120  28.183  34.071  1.00  0.00     0.010 A 
ATOM    101  C   UNL A   1      43.710  26.358  32.602  1.00  0.00     0.010 A 
ATOM    102  C   UNL A   1      43.081  27.304  35.156  1.00  0.00     0.020 A 
ATOM    103  C   UNL A   1      43.644  25.463  33.682  1.00  0.00     0.020 A 
ATOM    104  C   UNL A   1      43.348  25.948  34.957  1.00  0.00     0.054 A 
BRANCH 104 105
ATOM    105  S   UNL A   1      43.307  24.847  36.398  1.00  0.00     0.124 S 
ATOM    106  O   UNL A   1      43.757  25.729  37.473  1.00  0.00    -0.237 OA
ATOM    107  O   UNL A   1      41.901  24.453  36.465  1.00  0.00    -0.237 OA
ATOM    108  O   UNL A   1      44.233  23.772  36.051  1.00  0.00    -0.744 OA
ENDBRANCH 104 105
ENDBRANCH  78  99
ENDBRANCH  52  53
ENDBRANCH  44  47
ENDBRANCH  42  43
ENDBRANCH  41  42
ENDBRANCH   1  41
TORSDOF 20
ENDMDL
