MODEL 1
REMARK VINA RESULT:     -12.0      0.000      0.000
REMARK SMILES O=C(NCCCCNC(=O)[C@@H]1[C@@H](C(=O)Nc2cccc([N+](=O)[O-])c2)[C@@H]2C=C[C@H]1O2)c1ccc(-c2c3nc(c(-c4ccc(S(=O)(=O)[O-])cc4)c4ccc([nH]4)c(-c4ccc(S(=O)(=O)[O-])cc4)c4nc(c(-c5ccc(S(=O)(=O)[O-])cc5)c5ccc2[nH]5)C=C4)C=C3)cc1
REMARK SMILES IDX 5 1 4 2 3 3 1 4 2 5 30 7 31 8 89 9 32 10 88 11 33 12 34 13
REMARK SMILES IDX 35 14 82 15 36 16 87 17 81 18 83 19 37 20 86 21 80 22 79 23
REMARK SMILES IDX 38 25 68 26 49 27 67 28 50 29 53 30 66 31 84 32 51 33 52 34
REMARK SMILES IDX 65 36 85 37 54 38 39 39 40 40 48 41 41 42 47 43 42 44 43 45
REMARK SMILES IDX 44 46 45 47 46 48 69 49 70 50 78 51 71 52 77 53 72 54 73 55
REMARK SMILES IDX 74 56 75 57 76 58 55 59 56 60 64 61 57 62 63 63 58 64 59 65
REMARK SMILES IDX 60 66 61 67 62 68 6 69 7 70 8 71 9 72 10 74 11 75 12 76
REMARK SMILES IDX 28 77 25 78 27 79 29 80 26 81 13 82 14 83 15 84 16 86 17 87
REMARK SMILES IDX 24 88 18 89 20 90 19 91 21 92 22 93 23 94
REMARK H PARENT 3 6 83 24 53 35 8 73 15 85
REMARK Flexibility Score: inf
ROOT
ATOM      1  C   UNL A   1      37.339  23.722  25.385  1.00  0.00     0.023 C 
ENDROOT
BRANCH   1   2
ATOM      2  C   UNL A   1      38.300  24.096  26.509  1.00  0.00     0.116 C 
BRANCH   2   3
ATOM      3  N   UNL A   1      39.702  24.042  26.117  1.00  0.00    -0.352 N 
ATOM      4  O   UNL A   1      41.845  24.756  26.014  1.00  0.00    -0.269 OA
ATOM      5  C   UNL A   1      40.731  24.861  26.517  1.00  0.00     0.251 C 
ATOM      6  H   UNL A   1      39.943  23.328  25.484  1.00  0.00     0.163 HD
BRANCH   5   7
ATOM      7  C   UNL A   1      40.459  25.895  27.536  1.00  0.00     0.039 A 
ATOM      8  C   UNL A   1      41.142  27.112  27.497  1.00  0.00     0.014 A 
ATOM      9  C   UNL A   1      39.570  25.610  28.575  1.00  0.00     0.014 A 
ATOM     10  C   UNL A   1      41.057  27.977  28.579  1.00  0.00     0.010 A 
ATOM     11  C   UNL A   1      39.423  26.522  29.622  1.00  0.00     0.010 A 
ATOM     12  C   UNL A   1      40.200  27.691  29.655  1.00  0.00    -0.014 A 
BRANCH  12  13
ATOM     13  C   UNL A   1      40.116  28.644  30.790  1.00  0.00     0.031 A 
ATOM     14  C   UNL A   1      41.086  28.575  31.938  1.00  0.00     0.074 A 
ATOM     15  C   UNL A   1      39.177  29.610  30.755  1.00  0.00     0.049 A 
ATOM     16  N   UNL A   1      41.180  29.358  32.984  1.00  0.00    -0.248 NA
ATOM     17  C   UNL A   1      42.073  27.483  31.919  1.00  0.00     0.031 C 
ATOM     18  C   UNL A   1      38.185  29.780  29.690  1.00  0.00     0.029 A 
ATOM     19  N   UNL A   1      38.920  30.642  31.618  1.00  0.00    -0.354 N 
ATOM     20  C   UNL A   1      42.210  28.839  33.759  1.00  0.00     0.074 A 
ATOM     21  C   UNL A   1      42.702  27.664  33.072  1.00  0.00     0.031 C 
ATOM     22  C   UNL A   1      37.468  30.886  29.932  1.00  0.00     0.029 A 
ATOM     23  C   UNL A   1      37.907  31.468  31.196  1.00  0.00     0.049 A 
ATOM     24  H   UNL A   1      39.415  30.780  32.459  1.00  0.00     0.167 HD
ATOM     25  C   UNL A   1      42.701  29.300  34.936  1.00  0.00     0.031 A 
ATOM     26  C   UNL A   1      37.382  32.570  31.762  1.00  0.00     0.031 A 
ATOM     27  C   UNL A   1      42.214  30.476  35.610  1.00  0.00     0.049 A 
ATOM     28  C   UNL A   1      37.938  33.055  33.067  1.00  0.00     0.074 A 
ATOM     29  C   UNL A   1      42.667  31.042  36.790  1.00  0.00     0.029 A 
ATOM     30  N   UNL A   1      41.160  31.262  35.170  1.00  0.00    -0.354 N 
ATOM     31  N   UNL A   1      38.927  32.563  33.773  1.00  0.00    -0.248 NA
ATOM     32  C   UNL A   1      37.306  34.245  33.651  1.00  0.00     0.031 C 
ATOM     33  C   UNL A   1      41.859  32.148  37.084  1.00  0.00     0.029 A 
ATOM     34  C   UNL A   1      40.935  32.299  36.062  1.00  0.00     0.049 A 
ATOM     35  H   UNL A   1      40.647  31.108  34.344  1.00  0.00     0.167 HD
ATOM     36  C   UNL A   1      39.051  33.396  34.878  1.00  0.00     0.074 A 
ATOM     37  C   UNL A   1      38.043  34.429  34.738  1.00  0.00     0.031 C 
ATOM     38  C   UNL A   1      39.923  33.313  35.913  1.00  0.00     0.031 A 
BRANCH  25  39
ATOM     39  C   UNL A   1      43.801  28.503  35.588  1.00  0.00    -0.014 A 
ATOM     40  C   UNL A   1      45.156  28.829  35.398  1.00  0.00     0.010 A 
ATOM     41  C   UNL A   1      43.469  27.417  36.419  1.00  0.00     0.010 A 
ATOM     42  C   UNL A   1      46.160  28.052  35.985  1.00  0.00     0.020 A 
ATOM     43  C   UNL A   1      44.469  26.653  37.027  1.00  0.00     0.020 A 
ATOM     44  C   UNL A   1      45.809  26.961  36.787  1.00  0.00     0.054 A 
BRANCH  44  45
ATOM     45  S   UNL A   1      47.128  25.959  37.529  1.00  0.00     0.124 S 
ATOM     46  O   UNL A   1      46.601  24.606  37.369  1.00  0.00    -0.237 OA
ATOM     47  O   UNL A   1      48.285  26.283  36.699  1.00  0.00    -0.237 OA
ATOM     48  O   UNL A   1      47.198  26.442  38.905  1.00  0.00    -0.744 OA
ENDBRANCH  44  45
ENDBRANCH  25  39
BRANCH  26  49
ATOM     49  C   UNL A   1      36.279  33.289  31.072  1.00  0.00    -0.014 A 
ATOM     50  C   UNL A   1      35.105  33.621  31.766  1.00  0.00     0.010 A 
ATOM     51  C   UNL A   1      36.426  33.696  29.732  1.00  0.00     0.010 A 
ATOM     52  C   UNL A   1      34.094  34.350  31.134  1.00  0.00     0.020 A 
ATOM     53  C   UNL A   1      35.428  34.445  29.106  1.00  0.00     0.020 A 
ATOM     54  C   UNL A   1      34.265  34.762  29.809  1.00  0.00     0.054 A 
BRANCH  54  55
ATOM     55  S   UNL A   1      32.977  35.779  29.034  1.00  0.00     0.124 S 
ATOM     56  O   UNL A   1      32.381  34.842  28.088  1.00  0.00    -0.237 OA
ATOM     57  O   UNL A   1      32.139  36.150  30.171  1.00  0.00    -0.237 OA
ATOM     58  O   UNL A   1      33.727  36.882  28.438  1.00  0.00    -0.744 OA
ENDBRANCH  54  55
ENDBRANCH  26  49
BRANCH  38  59
ATOM     59  C   UNL A   1      39.844  34.390  36.960  1.00  0.00    -0.014 A 
ATOM     60  C   UNL A   1      40.517  35.614  36.799  1.00  0.00     0.010 A 
ATOM     61  C   UNL A   1      39.059  34.181  38.109  1.00  0.00     0.010 A 
ATOM     62  C   UNL A   1      40.435  36.598  37.788  1.00  0.00     0.020 A 
ATOM     63  C   UNL A   1      38.955  35.172  39.087  1.00  0.00     0.020 A 
ATOM     64  C   UNL A   1      39.658  36.368  38.929  1.00  0.00     0.054 A 
BRANCH  64  65
ATOM     65  S   UNL A   1      39.542  37.669  40.187  1.00  0.00     0.124 S 
ATOM     66  O   UNL A   1      39.107  36.917  41.361  1.00  0.00    -0.237 OA
ATOM     67  O   UNL A   1      40.908  38.187  40.244  1.00  0.00    -0.237 OA
ATOM     68  O   UNL A   1      38.555  38.594  39.638  1.00  0.00    -0.744 OA
ENDBRANCH  64  65
ENDBRANCH  38  59
ENDBRANCH  12  13
ENDBRANCH   5   7
ENDBRANCH   2   3
ENDBRANCH   1   2
BRANCH   1  69
ATOM     69  C   UNL A   1      37.438  22.275  24.912  1.00  0.00     0.023 C 
BRANCH  69  70
ATOM     70  C   UNL A   1      36.327  21.377  25.438  1.00  0.00     0.116 C 
BRANCH  70  71
ATOM     71  N   UNL A   1      35.531  22.036  26.463  1.00  0.00    -0.356 N 
ATOM     72  C   UNL A   1      34.324  22.670  26.316  1.00  0.00     0.227 C 
ATOM     73  H   UNL A   1      35.907  22.027  27.374  1.00  0.00     0.163 HD
ATOM     74  O   UNL A   1      33.807  23.238  27.275  1.00  0.00    -0.275 OA
BRANCH  72  75
ATOM     75  C   UNL A   1      33.678  22.594  24.962  1.00  0.00     0.127 C 
ATOM     76  C   UNL A   1      33.012  23.898  24.402  1.00  0.00     0.127 C 
ATOM     77  C   UNL A   1      32.504  21.606  24.981  1.00  0.00     0.155 C 
ATOM     78  C   UNL A   1      31.645  23.316  23.983  1.00  0.00     0.155 C 
ATOM     79  C   UNL A   1      31.369  22.063  25.848  1.00  0.00     0.004 C 
ATOM     80  O   UNL A   1      31.958  21.929  23.680  1.00  0.00    -0.365 OA
ATOM     81  C   UNL A   1      30.825  23.115  25.224  1.00  0.00     0.004 C 
BRANCH  76  82
ATOM     82  C   UNL A   1      33.924  24.463  23.314  1.00  0.00     0.231 C 
ATOM     83  O   UNL A   1      34.910  23.821  22.929  1.00  0.00    -0.274 OA
ATOM     84  N   UNL A   1      33.736  25.670  22.712  1.00  0.00    -0.325 N 
ATOM     85  H   UNL A   1      34.354  25.856  21.968  1.00  0.00     0.169 HD
BRANCH  84  86
ATOM     86  C   UNL A   1      32.818  26.686  22.971  1.00  0.00     0.048 A 
ATOM     87  C   UNL A   1      31.659  26.703  22.188  1.00  0.00     0.026 A 
ATOM     88  C   UNL A   1      32.985  27.607  24.004  1.00  0.00     0.111 A 
ATOM     89  C   UNL A   1      30.602  27.550  22.519  1.00  0.00     0.009 A 
ATOM     90  C   UNL A   1      31.919  28.455  24.331  1.00  0.00     0.271 A 
ATOM     91  C   UNL A   1      30.721  28.416  23.606  1.00  0.00     0.086 A 
BRANCH  90  92
ATOM     92  N   UNL A   1      32.033  29.343  25.494  1.00  0.00     0.062 N 
ATOM     93  O   UNL A   1      31.399  30.406  25.472  1.00  0.00    -0.258 OA
ATOM     94  O   UNL A   1      32.746  28.968  26.435  1.00  0.00    -0.258 OA
ENDBRANCH  90  92
ENDBRANCH  84  86
ENDBRANCH  76  82
ENDBRANCH  72  75
ENDBRANCH  70  71
ENDBRANCH  69  70
ENDBRANCH   1  69
TORSDOF 17
ENDMDL
MODEL 2
REMARK VINA RESULT:     -12.0      6.441     12.030
REMARK SMILES O=C(NCCCCNC(=O)[C@@H]1[C@@H](C(=O)Nc2cccc([N+](=O)[O-])c2)[C@@H]2C=C[C@H]1O2)c1ccc(-c2c3nc(c(-c4ccc(S(=O)(=O)[O-])cc4)c4ccc([nH]4)c(-c4ccc(S(=O)(=O)[O-])cc4)c4nc(c(-c5ccc(S(=O)(=O)[O-])cc5)c5ccc2[nH]5)C=C4)C=C3)cc1
REMARK SMILES IDX 5 1 4 2 3 3 1 4 2 5 30 7 31 8 89 9 32 10 88 11 33 12 34 13
REMARK SMILES IDX 35 14 82 15 36 16 87 17 81 18 83 19 37 20 86 21 80 22 79 23
REMARK SMILES IDX 38 25 68 26 49 27 67 28 50 29 53 30 66 31 84 32 51 33 52 34
REMARK SMILES IDX 65 36 85 37 54 38 39 39 40 40 48 41 41 42 47 43 42 44 43 45
REMARK SMILES IDX 44 46 45 47 46 48 69 49 70 50 78 51 71 52 77 53 72 54 73 55
REMARK SMILES IDX 74 56 75 57 76 58 55 59 56 60 64 61 57 62 63 63 58 64 59 65
REMARK SMILES IDX 60 66 61 67 62 68 6 69 7 70 8 71 9 72 10 74 11 75 12 76
REMARK SMILES IDX 28 77 25 78 27 79 29 80 26 81 13 82 14 83 15 84 16 86 17 87
REMARK SMILES IDX 24 88 18 89 20 90 19 91 21 92 22 93 23 94
REMARK H PARENT 3 6 83 24 53 35 8 73 15 85
REMARK Flexibility Score: inf
ROOT
ATOM      1  C   UNL A   1      34.718  29.521  27.260  1.00  0.00     0.023 C 
ENDROOT
BRANCH   1   2
ATOM      2  C   UNL A   1      35.670  30.370  28.095  1.00  0.00     0.116 C 
BRANCH   2   3
ATOM      3  N   UNL A   1      35.532  30.157  29.530  1.00  0.00    -0.352 N 
ATOM      4  O   UNL A   1      36.208  29.553  31.601  1.00  0.00    -0.269 OA
ATOM      5  C   UNL A   1      36.502  29.800  30.436  1.00  0.00     0.251 C 
ATOM      6  H   UNL A   1      34.627  30.286  29.898  1.00  0.00     0.163 HD
BRANCH   5   7
ATOM      7  C   UNL A   1      37.898  29.682  29.970  1.00  0.00     0.039 A 
ATOM      8  C   UNL A   1      38.178  29.651  28.602  1.00  0.00     0.014 A 
ATOM      9  C   UNL A   1      38.920  29.525  30.909  1.00  0.00     0.014 A 
ATOM     10  C   UNL A   1      39.452  29.306  28.173  1.00  0.00     0.010 A 
ATOM     11  C   UNL A   1      40.220  29.261  30.472  1.00  0.00     0.010 A 
ATOM     12  C   UNL A   1      40.486  29.104  29.102  1.00  0.00    -0.014 A 
BRANCH  12  13
ATOM     13  C   UNL A   1      41.843  28.754  28.613  1.00  0.00     0.031 A 
ATOM     14  C   UNL A   1      42.962  29.759  28.638  1.00  0.00     0.074 A 
ATOM     15  C   UNL A   1      42.071  27.497  28.183  1.00  0.00     0.049 A 
ATOM     16  N   UNL A   1      44.215  29.602  28.291  1.00  0.00    -0.248 NA
ATOM     17  C   UNL A   1      42.636  31.117  29.103  1.00  0.00     0.031 C 
ATOM     18  C   UNL A   1      41.064  26.434  28.118  1.00  0.00     0.029 A 
ATOM     19  N   UNL A   1      43.221  26.894  27.748  1.00  0.00    -0.354 N 
ATOM     20  C   UNL A   1      44.818  30.842  28.465  1.00  0.00     0.074 A 
ATOM     21  C   UNL A   1      43.790  31.747  28.934  1.00  0.00     0.031 C 
ATOM     22  C   UNL A   1      41.654  25.297  27.728  1.00  0.00     0.029 A 
ATOM     23  C   UNL A   1      43.063  25.561  27.457  1.00  0.00     0.049 A 
ATOM     24  H   UNL A   1      44.079  27.369  27.654  1.00  0.00     0.167 HD
ATOM     25  C   UNL A   1      46.110  31.195  28.253  1.00  0.00     0.031 A 
ATOM     26  C   UNL A   1      43.948  24.649  27.016  1.00  0.00     0.031 A 
ATOM     27  C   UNL A   1      47.131  30.289  27.795  1.00  0.00     0.049 A 
ATOM     28  C   UNL A   1      45.369  25.066  26.782  1.00  0.00     0.074 A 
ATOM     29  C   UNL A   1      48.476  30.542  27.581  1.00  0.00     0.029 A 
ATOM     30  N   UNL A   1      46.921  28.956  27.474  1.00  0.00    -0.354 N 
ATOM     31  N   UNL A   1      45.924  26.238  26.973  1.00  0.00    -0.248 NA
ATOM     32  C   UNL A   1      46.283  24.036  26.273  1.00  0.00     0.031 C 
ATOM     33  C   UNL A   1      49.070  29.373  27.091  1.00  0.00     0.029 A 
ATOM     34  C   UNL A   1      48.106  28.378  27.046  1.00  0.00     0.049 A 
ATOM     35  H   UNL A   1      46.058  28.488  27.541  1.00  0.00     0.167 HD
ATOM     36  C   UNL A   1      47.260  26.083  26.627  1.00  0.00     0.074 A 
ATOM     37  C   UNL A   1      47.430  24.700  26.227  1.00  0.00     0.031 C 
ATOM     38  C   UNL A   1      48.256  27.003  26.643  1.00  0.00     0.031 A 
BRANCH  25  39
ATOM     39  C   UNL A   1      46.481  32.639  28.479  1.00  0.00    -0.014 A 
ATOM     40  C   UNL A   1      46.370  33.594  27.454  1.00  0.00     0.010 A 
ATOM     41  C   UNL A   1      46.931  33.046  29.749  1.00  0.00     0.010 A 
ATOM     42  C   UNL A   1      46.754  34.920  27.678  1.00  0.00     0.020 A 
ATOM     43  C   UNL A   1      47.292  34.376  29.984  1.00  0.00     0.020 A 
ATOM     44  C   UNL A   1      47.223  35.300  28.940  1.00  0.00     0.054 A 
BRANCH  44  45
ATOM     45  S   UNL A   1      47.727  37.023  29.205  1.00  0.00     0.124 S 
ATOM     46  O   UNL A   1      46.565  37.571  29.902  1.00  0.00    -0.237 OA
ATOM     47  O   UNL A   1      48.935  36.886  30.015  1.00  0.00    -0.237 OA
ATOM     48  O   UNL A   1      47.941  37.533  27.854  1.00  0.00    -0.744 OA
ENDBRANCH  44  45
ENDBRANCH  25  39
BRANCH  26  49
ATOM     49  C   UNL A   1      43.502  23.250  26.789  1.00  0.00    -0.014 A 
ATOM     50  C   UNL A   1      43.643  22.655  25.524  1.00  0.00     0.010 A 
ATOM     51  C   UNL A   1      42.988  22.487  27.855  1.00  0.00     0.010 A 
ATOM     52  C   UNL A   1      43.279  21.321  25.328  1.00  0.00     0.020 A 
ATOM     53  C   UNL A   1      42.647  21.146  27.667  1.00  0.00     0.020 A 
ATOM     54  C   UNL A   1      42.788  20.573  26.403  1.00  0.00     0.054 A 
BRANCH  54  55
ATOM     55  S   UNL A   1      42.402  18.819  26.146  1.00  0.00     0.124 S 
ATOM     56  O   UNL A   1      42.635  18.261  27.473  1.00  0.00    -0.237 OA
ATOM     57  O   UNL A   1      41.008  18.861  25.712  1.00  0.00    -0.237 OA
ATOM     58  O   UNL A   1      43.353  18.408  25.115  1.00  0.00    -0.744 OA
ENDBRANCH  54  55
ENDBRANCH  26  49
BRANCH  38  59
ATOM     59  C   UNL A   1      49.627  26.531  26.243  1.00  0.00    -0.014 A 
ATOM     60  C   UNL A   1      50.117  26.733  24.941  1.00  0.00     0.010 A 
ATOM     61  C   UNL A   1      50.447  25.899  27.197  1.00  0.00     0.010 A 
ATOM     62  C   UNL A   1      51.391  26.279  24.589  1.00  0.00     0.020 A 
ATOM     63  C   UNL A   1      51.729  25.466  26.855  1.00  0.00     0.020 A 
ATOM     64  C   UNL A   1      52.187  25.643  25.548  1.00  0.00     0.054 A 
BRANCH  64  65
ATOM     65  S   UNL A   1      53.848  25.086  25.079  1.00  0.00     0.124 S 
ATOM     66  O   UNL A   1      54.110  25.885  23.885  1.00  0.00    -0.237 OA
ATOM     67  O   UNL A   1      54.648  25.431  26.253  1.00  0.00    -0.237 OA
ATOM     68  O   UNL A   1      53.680  23.654  24.848  1.00  0.00    -0.744 OA
ENDBRANCH  64  65
ENDBRANCH  38  59
ENDBRANCH  12  13
ENDBRANCH   5   7
ENDBRANCH   2   3
ENDBRANCH   1   2
BRANCH   1  69
ATOM     69  C   UNL A   1      33.273  30.013  27.235  1.00  0.00     0.023 C 
BRANCH  69  70
ATOM     70  C   UNL A   1      32.632  29.972  25.854  1.00  0.00     0.116 C 
BRANCH  70  71
ATOM     71  N   UNL A   1      33.471  29.284  24.883  1.00  0.00    -0.356 N 
ATOM     72  C   UNL A   1      33.235  28.080  24.268  1.00  0.00     0.227 C 
ATOM     73  H   UNL A   1      34.310  29.738  24.639  1.00  0.00     0.163 HD
ATOM     74  O   UNL A   1      34.079  27.601  23.514  1.00  0.00    -0.275 OA
BRANCH  72  75
ATOM     75  C   UNL A   1      31.908  27.430  24.536  1.00  0.00     0.127 C 
ATOM     76  C   UNL A   1      31.887  25.871  24.708  1.00  0.00     0.127 C 
ATOM     77  C   UNL A   1      30.955  27.643  23.353  1.00  0.00     0.155 C 
ATOM     78  C   UNL A   1      30.732  25.532  23.742  1.00  0.00     0.155 C 
ATOM     79  C   UNL A   1      31.406  26.943  22.105  1.00  0.00     0.004 C 
ATOM     80  O   UNL A   1      29.914  26.733  23.776  1.00  0.00    -0.365 OA
ATOM     81  C   UNL A   1      31.255  25.634  22.339  1.00  0.00     0.004 C 
BRANCH  76  82
ATOM     82  C   UNL A   1      31.704  25.565  26.194  1.00  0.00     0.231 C 
ATOM     83  O   UNL A   1      31.158  26.388  26.940  1.00  0.00    -0.274 OA
ATOM     84  N   UNL A   1      32.117  24.412  26.790  1.00  0.00    -0.325 N 
ATOM     85  H   UNL A   1      31.849  24.322  27.734  1.00  0.00     0.169 HD
BRANCH  84  86
ATOM     86  C   UNL A   1      32.853  23.339  26.293  1.00  0.00     0.048 A 
ATOM     87  C   UNL A   1      34.199  23.271  26.666  1.00  0.00     0.026 A 
ATOM     88  C   UNL A   1      32.282  22.327  25.522  1.00  0.00     0.111 A 
ATOM     89  C   UNL A   1      34.947  22.126  26.388  1.00  0.00     0.009 A 
ATOM     90  C   UNL A   1      33.039  21.181  25.245  1.00  0.00     0.271 A 
ATOM     91  C   UNL A   1      34.363  21.068  25.692  1.00  0.00     0.086 A 
BRANCH  90  92
ATOM     92  N   UNL A   1      32.414  20.055  24.542  1.00  0.00     0.062 N 
ATOM     93  O   UNL A   1      32.124  19.051  25.205  1.00  0.00    -0.258 OA
ATOM     94  O   UNL A   1      32.200  20.183  23.328  1.00  0.00    -0.258 OA
ENDBRANCH  90  92
ENDBRANCH  84  86
ENDBRANCH  76  82
ENDBRANCH  72  75
ENDBRANCH  70  71
ENDBRANCH  69  70
ENDBRANCH   1  69
TORSDOF 17
ENDMDL
MODEL 3
REMARK VINA RESULT:     -11.9      6.138      7.962
REMARK SMILES O=C(NCCCCNC(=O)[C@@H]1[C@@H](C(=O)Nc2cccc([N+](=O)[O-])c2)[C@@H]2C=C[C@H]1O2)c1ccc(-c2c3nc(c(-c4ccc(S(=O)(=O)[O-])cc4)c4ccc([nH]4)c(-c4ccc(S(=O)(=O)[O-])cc4)c4nc(c(-c5ccc(S(=O)(=O)[O-])cc5)c5ccc2[nH]5)C=C4)C=C3)cc1
REMARK SMILES IDX 5 1 4 2 3 3 1 4 2 5 30 7 31 8 89 9 32 10 88 11 33 12 34 13
REMARK SMILES IDX 35 14 82 15 36 16 87 17 81 18 83 19 37 20 86 21 80 22 79 23
REMARK SMILES IDX 38 25 68 26 49 27 67 28 50 29 53 30 66 31 84 32 51 33 52 34
REMARK SMILES IDX 65 36 85 37 54 38 39 39 40 40 48 41 41 42 47 43 42 44 43 45
REMARK SMILES IDX 44 46 45 47 46 48 69 49 70 50 78 51 71 52 77 53 72 54 73 55
REMARK SMILES IDX 74 56 75 57 76 58 55 59 56 60 64 61 57 62 63 63 58 64 59 65
REMARK SMILES IDX 60 66 61 67 62 68 6 69 7 70 8 71 9 72 10 74 11 75 12 76
REMARK SMILES IDX 28 77 25 78 27 79 29 80 26 81 13 82 14 83 15 84 16 86 17 87
REMARK SMILES IDX 24 88 18 89 20 90 19 91 21 92 22 93 23 94
REMARK H PARENT 3 6 83 24 53 35 8 73 15 85
REMARK Flexibility Score: inf
ROOT
ATOM      1  C   UNL A   1      38.105  21.297  25.061  1.00  0.00     0.023 C 
ENDROOT
BRANCH   1   2
ATOM      2  C   UNL A   1      39.177  21.209  26.142  1.00  0.00     0.116 C 
BRANCH   2   3
ATOM      3  N   UNL A   1      40.029  20.033  26.022  1.00  0.00    -0.352 N 
ATOM      4  O   UNL A   1      41.983  18.908  25.858  1.00  0.00    -0.269 OA
ATOM      5  C   UNL A   1      41.400  19.963  26.085  1.00  0.00     0.251 C 
ATOM      6  H   UNL A   1      39.562  19.178  25.877  1.00  0.00     0.163 HD
BRANCH   5   7
ATOM      7  C   UNL A   1      42.158  21.192  26.393  1.00  0.00     0.039 A 
ATOM      8  C   UNL A   1      42.508  21.486  27.712  1.00  0.00     0.014 A 
ATOM      9  C   UNL A   1      42.452  22.088  25.363  1.00  0.00     0.014 A 
ATOM     10  C   UNL A   1      43.007  22.743  28.023  1.00  0.00     0.010 A 
ATOM     11  C   UNL A   1      43.033  23.321  25.669  1.00  0.00     0.010 A 
ATOM     12  C   UNL A   1      43.272  23.676  27.006  1.00  0.00    -0.014 A 
BRANCH  12  13
ATOM     13  C   UNL A   1      43.824  25.005  27.367  1.00  0.00     0.031 A 
ATOM     14  C   UNL A   1      45.259  25.356  27.083  1.00  0.00     0.074 A 
ATOM     15  C   UNL A   1      43.001  25.919  27.918  1.00  0.00     0.049 A 
ATOM     16  N   UNL A   1      45.886  26.487  27.292  1.00  0.00    -0.248 NA
ATOM     17  C   UNL A   1      46.104  24.303  26.496  1.00  0.00     0.031 C 
ATOM     18  C   UNL A   1      41.588  25.695  28.236  1.00  0.00     0.029 A 
ATOM     19  N   UNL A   1      43.222  27.221  28.282  1.00  0.00    -0.354 N 
ATOM     20  C   UNL A   1      47.201  26.274  26.894  1.00  0.00     0.074 A 
ATOM     21  C   UNL A   1      47.286  24.901  26.445  1.00  0.00     0.031 C 
ATOM     22  C   UNL A   1      41.055  26.838  28.689  1.00  0.00     0.029 A 
ATOM     23  C   UNL A   1      42.098  27.855  28.753  1.00  0.00     0.049 A 
ATOM     24  H   UNL A   1      44.101  27.660  28.212  1.00  0.00     0.167 HD
ATOM     25  C   UNL A   1      48.241  27.144  26.902  1.00  0.00     0.031 A 
ATOM     26  C   UNL A   1      41.922  29.115  29.192  1.00  0.00     0.031 A 
ATOM     27  C   UNL A   1      48.147  28.512  27.341  1.00  0.00     0.049 A 
ATOM     28  C   UNL A   1      43.090  30.055  29.199  1.00  0.00     0.074 A 
ATOM     29  C   UNL A   1      49.136  29.482  27.358  1.00  0.00     0.029 A 
ATOM     30  N   UNL A   1      47.001  29.105  27.848  1.00  0.00    -0.354 N 
ATOM     31  N   UNL A   1      44.320  29.841  28.798  1.00  0.00    -0.248 NA
ATOM     32  C   UNL A   1      42.845  31.407  29.716  1.00  0.00     0.031 C 
ATOM     33  C   UNL A   1      48.597  30.648  27.914  1.00  0.00     0.029 A 
ATOM     34  C   UNL A   1      47.260  30.421  28.197  1.00  0.00     0.049 A 
ATOM     35  H   UNL A   1      46.129  28.658  27.945  1.00  0.00     0.167 HD
ATOM     36  C   UNL A   1      44.994  31.039  28.997  1.00  0.00     0.074 A 
ATOM     37  C   UNL A   1      44.030  31.975  29.541  1.00  0.00     0.031 C 
ATOM     38  C   UNL A   1      46.293  31.336  28.746  1.00  0.00     0.031 A 
BRANCH  25  39
ATOM     39  C   UNL A   1      49.583  26.624  26.456  1.00  0.00    -0.014 A 
ATOM     40  C   UNL A   1      50.021  26.768  25.128  1.00  0.00     0.010 A 
ATOM     41  C   UNL A   1      50.427  25.995  27.391  1.00  0.00     0.010 A 
ATOM     42  C   UNL A   1      51.256  26.244  24.729  1.00  0.00     0.020 A 
ATOM     43  C   UNL A   1      51.672  25.492  27.002  1.00  0.00     0.020 A 
ATOM     44  C   UNL A   1      52.069  25.600  25.668  1.00  0.00     0.054 A 
BRANCH  44  45
ATOM     45  S   UNL A   1      53.661  24.918  25.126  1.00  0.00     0.124 S 
ATOM     46  O   UNL A   1      54.538  25.290  26.235  1.00  0.00    -0.237 OA
ATOM     47  O   UNL A   1      53.376  23.491  25.004  1.00  0.00    -0.237 OA
ATOM     48  O   UNL A   1      53.923  25.608  23.866  1.00  0.00    -0.744 OA
ENDBRANCH  44  45
ENDBRANCH  25  39
BRANCH  26  49
ATOM     49  C   UNL A   1      40.573  29.548  29.643  1.00  0.00    -0.014 A 
ATOM     50  C   UNL A   1      40.277  29.635  31.013  1.00  0.00     0.010 A 
ATOM     51  C   UNL A   1      39.600  29.932  28.701  1.00  0.00     0.010 A 
ATOM     52  C   UNL A   1      39.029  30.100  31.435  1.00  0.00     0.020 A 
ATOM     53  C   UNL A   1      38.362  30.420  29.121  1.00  0.00     0.020 A 
ATOM     54  C   UNL A   1      38.081  30.495  30.487  1.00  0.00     0.054 A 
BRANCH  54  55
ATOM     55  S   UNL A   1      36.499  31.175  31.059  1.00  0.00     0.124 S 
ATOM     56  O   UNL A   1      36.046  30.145  31.988  1.00  0.00    -0.237 OA
ATOM     57  O   UNL A   1      36.898  32.443  31.663  1.00  0.00    -0.237 OA
ATOM     58  O   UNL A   1      35.718  31.300  29.830  1.00  0.00    -0.744 OA
ENDBRANCH  54  55
ENDBRANCH  26  49
BRANCH  38  59
ATOM     59  C   UNL A   1      46.737  32.745  29.033  1.00  0.00    -0.014 A 
ATOM     60  C   UNL A   1      47.418  33.068  30.220  1.00  0.00     0.010 A 
ATOM     61  C   UNL A   1      46.491  33.754  28.083  1.00  0.00     0.010 A 
ATOM     62  C   UNL A   1      47.815  34.384  30.468  1.00  0.00     0.020 A 
ATOM     63  C   UNL A   1      46.908  35.065  28.318  1.00  0.00     0.020 A 
ATOM     64  C   UNL A   1      47.552  35.377  29.517  1.00  0.00     0.054 A 
BRANCH  64  65
ATOM     65  S   UNL A   1      48.100  37.074  29.846  1.00  0.00     0.124 S 
ATOM     66  O   UNL A   1      46.965  37.621  30.584  1.00  0.00    -0.237 OA
ATOM     67  O   UNL A   1      49.319  36.874  30.628  1.00  0.00    -0.237 OA
ATOM     68  O   UNL A   1      48.308  37.634  28.514  1.00  0.00    -0.744 OA
ENDBRANCH  64  65
ENDBRANCH  38  59
ENDBRANCH  12  13
ENDBRANCH   5   7
ENDBRANCH   2   3
ENDBRANCH   1   2
BRANCH   1  69
ATOM     69  C   UNL A   1      37.226  20.057  24.927  1.00  0.00     0.023 C 
BRANCH  69  70
ATOM     70  C   UNL A   1      35.733  20.353  24.972  1.00  0.00     0.116 C 
BRANCH  70  71
ATOM     71  N   UNL A   1      35.397  21.315  26.012  1.00  0.00    -0.356 N 
ATOM     72  C   UNL A   1      34.537  22.380  25.930  1.00  0.00     0.227 C 
ATOM     73  H   UNL A   1      35.844  21.185  26.880  1.00  0.00     0.163 HD
ATOM     74  O   UNL A   1      34.411  23.142  26.885  1.00  0.00    -0.275 OA
BRANCH  72  75
ATOM     75  C   UNL A   1      33.757  22.526  24.654  1.00  0.00     0.127 C 
ATOM     76  C   UNL A   1      33.096  23.918  24.365  1.00  0.00     0.127 C 
ATOM     77  C   UNL A   1      32.550  21.580  24.651  1.00  0.00     0.155 C 
ATOM     78  C   UNL A   1      31.670  23.443  24.011  1.00  0.00     0.155 C 
ATOM     79  C   UNL A   1      31.527  21.932  25.690  1.00  0.00     0.004 C 
ATOM     80  O   UNL A   1      31.891  22.110  23.477  1.00  0.00    -0.365 OA
ATOM     81  C   UNL A   1      30.970  23.081  25.288  1.00  0.00     0.004 C 
BRANCH  76  82
ATOM     82  C   UNL A   1      33.919  24.614  23.282  1.00  0.00     0.231 C 
ATOM     83  O   UNL A   1      34.832  24.010  22.704  1.00  0.00    -0.274 OA
ATOM     84  N   UNL A   1      33.726  25.903  22.889  1.00  0.00    -0.325 N 
ATOM     85  H   UNL A   1      34.274  26.182  22.120  1.00  0.00     0.169 HD
BRANCH  84  86
ATOM     86  C   UNL A   1      32.884  26.894  23.390  1.00  0.00     0.048 A 
ATOM     87  C   UNL A   1      33.348  27.617  24.494  1.00  0.00     0.026 A 
ATOM     88  C   UNL A   1      31.668  27.223  22.792  1.00  0.00     0.111 A 
ATOM     89  C   UNL A   1      32.668  28.756  24.922  1.00  0.00     0.009 A 
ATOM     90  C   UNL A   1      30.989  28.369  23.228  1.00  0.00     0.271 A 
ATOM     91  C   UNL A   1      31.495  29.148  24.277  1.00  0.00     0.086 A 
BRANCH  90  92
ATOM     92  N   UNL A   1      29.774  28.798  22.528  1.00  0.00     0.062 N 
ATOM     93  O   UNL A   1      29.909  29.493  21.512  1.00  0.00    -0.258 OA
ATOM     94  O   UNL A   1      28.685  28.427  22.987  1.00  0.00    -0.258 OA
ENDBRANCH  90  92
ENDBRANCH  84  86
ENDBRANCH  76  82
ENDBRANCH  72  75
ENDBRANCH  70  71
ENDBRANCH  69  70
ENDBRANCH   1  69
TORSDOF 17
ENDMDL
