MODEL 1
REMARK VINA RESULT:     -10.4      0.000      0.000
REMARK SMILES C[NH+]1CCN(c2nc3c(cc2F)c(=O)c(C(=O)NCCCCNC(=O)c2ccc(-c4c5nc(c(-c6ccc(S(=O)(=O)[O-])cc6)c6ccc([nH]6)c(-c6ccc(S(=O)(=O)[O-])cc6)c6nc(c(-c7ccc(S(=O)(=O)[O-])cc7)c7ccc4[nH]7)C=C6)C=C5)cc2)cn3-c2ccc(F)cc2F)CC1
REMARK SMILES IDX 21 1 20 2 19 3 18 4 16 5 17 6 15 8 6 9 7 10 11 11 8 12 10 13
REMARK SMILES IDX 12 14 9 15 87 16 13 17 86 18 14 19 5 20 1 21 2 22 3 23 97 24
REMARK SMILES IDX 4 26 96 27 88 28 89 29 94 30 90 31 93 32 95 33 91 34 92 35
REMARK SMILES IDX 22 36 23 37 24 38 25 40 26 41 27 42 85 43 28 44 84 45 29 46
REMARK SMILES IDX 30 47 31 48 78 49 32 50 83 51 77 52 79 53 33 54 82 55 76 56
REMARK SMILES IDX 75 57 34 59 64 60 45 61 63 62 46 63 49 64 62 65 80 66 47 67
REMARK SMILES IDX 48 68 61 70 81 71 50 72 35 73 36 74 44 75 37 76 43 77 38 78
REMARK SMILES IDX 39 79 40 80 41 81 42 82 65 83 66 84 74 85 67 86 73 87 68 88
REMARK SMILES IDX 69 89 70 90 71 91 72 92 51 93 52 94 60 95 53 96 59 97 54 98
REMARK SMILES IDX 55 99 56 100 57 101 58 102
REMARK H PARENT 18 7 2 25 23 39 79 58 49 69
REMARK Flexibility Score: inf
ROOT
ATOM      1  C   UNL A   1      34.133  33.683  28.405  1.00  0.00     0.023 C 
ENDROOT
BRANCH   1   2
ATOM      2  C   UNL A   1      34.267  34.660  29.569  1.00  0.00     0.023 C 
BRANCH   2   3
ATOM      3  C   UNL A   1      33.929  34.075  30.943  1.00  0.00     0.116 C 
BRANCH   3   4
ATOM      4  N   UNL A   1      33.927  35.105  31.963  1.00  0.00    -0.352 N 
ATOM      5  C   UNL A   1      34.768  35.360  33.000  1.00  0.00     0.256 C 
ATOM      6  O   UNL A   1      34.496  36.347  33.693  1.00  0.00    -0.269 OA
ATOM      7  H   UNL A   1      33.176  35.737  31.892  1.00  0.00     0.163 HD
BRANCH   5   8
ATOM      8  C   UNL A   1      36.006  34.578  33.279  1.00  0.00     0.104 A 
ATOM      9  C   UNL A   1      39.805  31.359  34.327  1.00  0.00     0.167 A 
ATOM     10  N   UNL A   1      39.635  32.352  33.416  1.00  0.00    -0.209 NA
ATOM     11  C   UNL A   1      38.810  31.064  35.261  1.00  0.00     0.166 A 
ATOM     12  C   UNL A   1      38.478  33.063  33.397  1.00  0.00     0.151 A 
ATOM     13  C   UNL A   1      37.658  31.824  35.303  1.00  0.00     0.059 A 
ATOM     14  F   UNL A   1      38.978  30.096  36.175  1.00  0.00    -0.203 F 
ATOM     15  C   UNL A   1      37.501  32.841  34.364  1.00  0.00     0.069 A 
ATOM     16  N   UNL A   1      38.240  34.058  32.393  1.00  0.00    -0.297 N 
ATOM     17  C   UNL A   1      36.334  33.731  34.445  1.00  0.00     0.203 A 
ATOM     18  C   UNL A   1      37.001  34.698  32.380  1.00  0.00     0.111 A 
ATOM     19  O   UNL A   1      35.730  33.752  35.508  1.00  0.00    -0.288 OA
BRANCH   9  20
ATOM     20  N   UNL A   1      41.000  30.690  34.302  1.00  0.00    -0.343 N 
ATOM     21  C   UNL A   1      43.085  27.447  36.082  1.00  0.00     0.332 C 
ATOM     22  N   UNL A   1      42.765  28.611  35.260  1.00  0.00    -0.334 N 
ATOM     23  C   UNL A   1      42.402  29.774  36.107  1.00  0.00     0.283 C 
ATOM     24  C   UNL A   1      41.639  28.303  34.346  1.00  0.00     0.283 C 
ATOM     25  H   UNL A   1      43.593  28.845  34.713  1.00  0.00     0.347 HD
ATOM     26  C   UNL A   1      42.031  31.031  35.278  1.00  0.00     0.179 C 
ATOM     27  C   UNL A   1      41.232  29.510  33.476  1.00  0.00     0.179 C 
ENDBRANCH   9  20
BRANCH  16  28
ATOM     28  C   UNL A   1      39.198  34.365  31.377  1.00  0.00     0.083 A 
ATOM     29  C   UNL A   1      40.520  34.705  31.709  1.00  0.00     0.033 A 
ATOM     30  C   UNL A   1      38.852  34.324  30.013  1.00  0.00     0.150 A 
ATOM     31  C   UNL A   1      41.456  34.989  30.711  1.00  0.00     0.041 A 
ATOM     32  C   UNL A   1      39.775  34.615  29.014  1.00  0.00     0.080 A 
ATOM     33  F   UNL A   1      37.596  34.024  29.647  1.00  0.00    -0.205 F 
ATOM     34  C   UNL A   1      41.072  34.943  29.376  1.00  0.00     0.126 A 
ATOM     35  F   UNL A   1      41.971  35.224  28.423  1.00  0.00    -0.207 F 
ENDBRANCH  16  28
ENDBRANCH   5   8
ENDBRANCH   3   4
ENDBRANCH   2   3
ENDBRANCH   1   2
BRANCH   1  36
ATOM     36  C   UNL A   1      35.013  32.446  28.506  1.00  0.00     0.116 C 
BRANCH  36  37
ATOM     37  N   UNL A   1      34.311  31.209  28.197  1.00  0.00    -0.352 N 
ATOM     38  C   UNL A   1      34.841  29.944  28.111  1.00  0.00     0.251 C 
ATOM     39  H   UNL A   1      33.344  31.288  28.030  1.00  0.00     0.163 HD
ATOM     40  O   UNL A   1      34.153  28.988  27.771  1.00  0.00    -0.269 OA
BRANCH  38  41
ATOM     41  C   UNL A   1      36.277  29.775  28.399  1.00  0.00     0.039 A 
ATOM     42  C   UNL A   1      36.661  29.364  29.676  1.00  0.00     0.014 A 
ATOM     43  C   UNL A   1      37.216  29.925  27.375  1.00  0.00     0.014 A 
ATOM     44  C   UNL A   1      37.996  29.041  29.915  1.00  0.00     0.010 A 
ATOM     45  C   UNL A   1      38.538  29.557  27.603  1.00  0.00     0.010 A 
ATOM     46  C   UNL A   1      38.935  29.109  28.872  1.00  0.00    -0.014 A 
BRANCH  46  47
ATOM     47  C   UNL A   1      40.349  28.737  29.097  1.00  0.00     0.031 A 
ATOM     48  C   UNL A   1      41.287  29.736  29.710  1.00  0.00     0.074 A 
ATOM     49  C   UNL A   1      40.795  27.528  28.707  1.00  0.00     0.049 A 
ATOM     50  N   UNL A   1      42.564  29.620  29.953  1.00  0.00    -0.248 NA
ATOM     51  C   UNL A   1      40.716  31.043  30.079  1.00  0.00     0.031 C 
ATOM     52  C   UNL A   1      39.982  26.485  28.075  1.00  0.00     0.029 A 
ATOM     53  N   UNL A   1      42.048  26.973  28.783  1.00  0.00    -0.354 N 
ATOM     54  C   UNL A   1      42.956  30.839  30.488  1.00  0.00     0.074 A 
ATOM     55  C   UNL A   1      41.789  31.694  30.503  1.00  0.00     0.031 C 
ATOM     56  C   UNL A   1      40.752  25.407  27.847  1.00  0.00     0.029 A 
ATOM     57  C   UNL A   1      42.114  25.691  28.291  1.00  0.00     0.049 A 
ATOM     58  H   UNL A   1      42.825  27.449  29.154  1.00  0.00     0.167 HD
ATOM     59  C   UNL A   1      44.174  31.209  30.942  1.00  0.00     0.031 A 
ATOM     60  C   UNL A   1      43.156  24.841  28.212  1.00  0.00     0.031 A 
ATOM     61  C   UNL A   1      45.325  30.350  30.954  1.00  0.00     0.049 A 
ATOM     62  C   UNL A   1      44.502  25.277  28.718  1.00  0.00     0.074 A 
ATOM     63  C   UNL A   1      46.587  30.612  31.456  1.00  0.00     0.029 A 
ATOM     64  N   UNL A   1      45.353  29.064  30.439  1.00  0.00    -0.354 N 
ATOM     65  N   UNL A   1      44.841  26.418  29.268  1.00  0.00    -0.248 NA
ATOM     66  C   UNL A   1      45.605  24.313  28.594  1.00  0.00     0.031 C 
ATOM     67  C   UNL A   1      47.388  29.490  31.218  1.00  0.00     0.029 A 
ATOM     68  C   UNL A   1      46.616  28.522  30.595  1.00  0.00     0.049 A 
ATOM     69  H   UNL A   1      44.588  28.604  30.023  1.00  0.00     0.167 HD
ATOM     70  C   UNL A   1      46.191  26.300  29.578  1.00  0.00     0.074 A 
ATOM     71  C   UNL A   1      46.608  24.979  29.152  1.00  0.00     0.031 C 
ATOM     72  C   UNL A   1      47.008  27.205  30.167  1.00  0.00     0.031 A 
BRANCH  59  73
ATOM     73  C   UNL A   1      44.320  32.608  31.469  1.00  0.00    -0.014 A 
ATOM     74  C   UNL A   1      44.862  33.626  30.665  1.00  0.00     0.010 A 
ATOM     75  C   UNL A   1      43.886  32.912  32.770  1.00  0.00     0.010 A 
ATOM     76  C   UNL A   1      44.994  34.922  31.165  1.00  0.00     0.020 A 
ATOM     77  C   UNL A   1      44.000  34.212  33.269  1.00  0.00     0.020 A 
ATOM     78  C   UNL A   1      44.563  35.206  32.466  1.00  0.00     0.054 A 
BRANCH  78  79
ATOM     79  S   UNL A   1      44.745  36.902  33.083  1.00  0.00     0.124 S 
ATOM     80  O   UNL A   1      43.474  37.113  33.772  1.00  0.00    -0.237 OA
ATOM     81  O   UNL A   1      45.919  36.798  33.947  1.00  0.00    -0.237 OA
ATOM     82  O   UNL A   1      44.933  37.696  31.871  1.00  0.00    -0.744 OA
ENDBRANCH  78  79
ENDBRANCH  59  73
BRANCH  60  83
ATOM     83  C   UNL A   1      42.954  23.477  27.660  1.00  0.00    -0.014 A 
ATOM     84  C   UNL A   1      42.550  22.430  28.507  1.00  0.00     0.010 A 
ATOM     85  C   UNL A   1      43.133  23.222  26.289  1.00  0.00     0.010 A 
ATOM     86  C   UNL A   1      42.330  21.150  27.992  1.00  0.00     0.020 A 
ATOM     87  C   UNL A   1      42.901  21.945  25.769  1.00  0.00     0.020 A 
ATOM     88  C   UNL A   1      42.501  20.917  26.625  1.00  0.00     0.054 A 
BRANCH  88  89
ATOM     89  S   UNL A   1      42.162  19.255  25.981  1.00  0.00     0.124 S 
ATOM     90  O   UNL A   1      42.548  18.405  27.102  1.00  0.00    -0.237 OA
ATOM     91  O   UNL A   1      40.730  19.321  25.699  1.00  0.00    -0.237 OA
ATOM     92  O   UNL A   1      43.019  19.162  24.801  1.00  0.00    -0.744 OA
ENDBRANCH  88  89
ENDBRANCH  60  83
BRANCH  72  93
ATOM     93  C   UNL A   1      48.435  26.804  30.409  1.00  0.00    -0.014 A 
ATOM     94  C   UNL A   1      49.452  27.212  29.530  1.00  0.00     0.010 A 
ATOM     95  C   UNL A   1      48.770  26.111  31.585  1.00  0.00     0.010 A 
ATOM     96  C   UNL A   1      50.789  26.933  29.828  1.00  0.00     0.020 A 
ATOM     97  C   UNL A   1      50.106  25.845  31.893  1.00  0.00     0.020 A 
ATOM     98  C   UNL A   1      51.107  26.260  31.013  1.00  0.00     0.054 A 
BRANCH  98  99
ATOM     99  S   UNL A   1      52.855  25.983  31.407  1.00  0.00     0.124 S 
ATOM    100  O   UNL A   1      52.840  24.622  31.935  1.00  0.00    -0.237 OA
ATOM    101  O   UNL A   1      53.502  26.146  30.107  1.00  0.00    -0.237 OA
ATOM    102  O   UNL A   1      53.161  27.025  32.385  1.00  0.00    -0.744 OA
ENDBRANCH  98  99
ENDBRANCH  72  93
ENDBRANCH  46  47
ENDBRANCH  38  41
ENDBRANCH  36  37
ENDBRANCH   1  36
TORSDOF 16
ENDMDL
MODEL 2
REMARK VINA RESULT:      -9.7      4.804     12.303
REMARK SMILES C[NH+]1CCN(c2nc3c(cc2F)c(=O)c(C(=O)NCCCCNC(=O)c2ccc(-c4c5nc(c(-c6ccc(S(=O)(=O)[O-])cc6)c6ccc([nH]6)c(-c6ccc(S(=O)(=O)[O-])cc6)c6nc(c(-c7ccc(S(=O)(=O)[O-])cc7)c7ccc4[nH]7)C=C6)C=C5)cc2)cn3-c2ccc(F)cc2F)CC1
REMARK SMILES IDX 21 1 20 2 19 3 18 4 16 5 17 6 15 8 6 9 7 10 11 11 8 12 10 13
REMARK SMILES IDX 12 14 9 15 87 16 13 17 86 18 14 19 5 20 1 21 2 22 3 23 97 24
REMARK SMILES IDX 4 26 96 27 88 28 89 29 94 30 90 31 93 32 95 33 91 34 92 35
REMARK SMILES IDX 22 36 23 37 24 38 25 40 26 41 27 42 85 43 28 44 84 45 29 46
REMARK SMILES IDX 30 47 31 48 78 49 32 50 83 51 77 52 79 53 33 54 82 55 76 56
REMARK SMILES IDX 75 57 34 59 64 60 45 61 63 62 46 63 49 64 62 65 80 66 47 67
REMARK SMILES IDX 48 68 61 70 81 71 50 72 35 73 36 74 44 75 37 76 43 77 38 78
REMARK SMILES IDX 39 79 40 80 41 81 42 82 65 83 66 84 74 85 67 86 73 87 68 88
REMARK SMILES IDX 69 89 70 90 71 91 72 92 51 93 52 94 60 95 53 96 59 97 54 98
REMARK SMILES IDX 55 99 56 100 57 101 58 102
REMARK H PARENT 18 7 2 25 23 39 79 58 49 69
REMARK Flexibility Score: inf
ROOT
ATOM      1  C   UNL A   1      46.540  25.275  28.266  1.00  0.00     0.023 C 
ENDROOT
BRANCH   1   2
ATOM      2  C   UNL A   1      46.337  24.465  26.989  1.00  0.00     0.023 C 
BRANCH   2   3
ATOM      3  C   UNL A   1      45.370  23.286  27.120  1.00  0.00     0.116 C 
BRANCH   3   4
ATOM      4  N   UNL A   1      44.903  23.142  28.485  1.00  0.00    -0.352 N 
ATOM      5  C   UNL A   1      43.657  23.145  29.025  1.00  0.00     0.256 C 
ATOM      6  O   UNL A   1      43.591  22.977  30.248  1.00  0.00    -0.269 OA
ATOM      7  H   UNL A   1      45.625  23.020  29.144  1.00  0.00     0.163 HD
BRANCH   5   8
ATOM      8  C   UNL A   1      42.404  23.258  28.225  1.00  0.00     0.104 A 
ATOM      9  C   UNL A   1      37.914  23.069  25.838  1.00  0.00     0.167 A 
ATOM     10  N   UNL A   1      38.666  24.076  26.353  1.00  0.00    -0.209 NA
ATOM     11  C   UNL A   1      38.360  21.747  25.879  1.00  0.00     0.166 A 
ATOM     12  C   UNL A   1      39.864  23.799  26.932  1.00  0.00     0.151 A 
ATOM     13  C   UNL A   1      39.606  21.456  26.399  1.00  0.00     0.059 A 
ATOM     14  F   UNL A   1      37.629  20.749  25.357  1.00  0.00    -0.203 F 
ATOM     15  C   UNL A   1      40.366  22.501  26.919  1.00  0.00     0.069 A 
ATOM     16  N   UNL A   1      40.637  24.832  27.556  1.00  0.00    -0.297 N 
ATOM     17  C   UNL A   1      41.735  22.240  27.387  1.00  0.00     0.203 A 
ATOM     18  C   UNL A   1      41.819  24.470  28.202  1.00  0.00     0.111 A 
ATOM     19  O   UNL A   1      42.261  21.205  27.003  1.00  0.00    -0.288 OA
BRANCH   9  20
ATOM     20  N   UNL A   1      36.724  23.417  25.256  1.00  0.00    -0.343 N 
ATOM     21  C   UNL A   1      33.107  21.785  23.743  1.00  0.00     0.332 C 
ATOM     22  N   UNL A   1      34.161  22.727  24.111  1.00  0.00    -0.334 N 
ATOM     23  C   UNL A   1      35.434  22.392  23.426  1.00  0.00     0.283 C 
ATOM     24  C   UNL A   1      34.377  22.710  25.578  1.00  0.00     0.283 C 
ATOM     25  H   UNL A   1      33.864  23.659  23.821  1.00  0.00     0.347 HD
ATOM     26  C   UNL A   1      36.592  23.352  23.804  1.00  0.00     0.179 C 
ATOM     27  C   UNL A   1      35.507  23.662  26.023  1.00  0.00     0.179 C 
ENDBRANCH   9  20
BRANCH  16  28
ATOM     28  C   UNL A   1      40.206  26.194  27.596  1.00  0.00     0.083 A 
ATOM     29  C   UNL A   1      39.326  26.644  28.596  1.00  0.00     0.033 A 
ATOM     30  C   UNL A   1      40.657  27.130  26.646  1.00  0.00     0.150 A 
ATOM     31  C   UNL A   1      38.920  27.981  28.639  1.00  0.00     0.041 A 
ATOM     32  C   UNL A   1      40.249  28.459  26.676  1.00  0.00     0.080 A 
ATOM     33  F   UNL A   1      41.482  26.742  25.660  1.00  0.00    -0.205 F 
ATOM     34  C   UNL A   1      39.383  28.871  27.677  1.00  0.00     0.126 A 
ATOM     35  F   UNL A   1      38.984  30.150  27.718  1.00  0.00    -0.207 F 
ENDBRANCH  16  28
ENDBRANCH   5   8
ENDBRANCH   3   4
ENDBRANCH   2   3
ENDBRANCH   1   2
BRANCH   1  36
ATOM     36  C   UNL A   1      46.375  26.779  28.100  1.00  0.00     0.116 C 
BRANCH  36  37
ATOM     37  N   UNL A   1      45.832  27.162  26.805  1.00  0.00    -0.352 N 
ATOM     38  C   UNL A   1      44.749  27.972  26.557  1.00  0.00     0.251 C 
ATOM     39  H   UNL A   1      46.295  26.800  26.015  1.00  0.00     0.163 HD
ATOM     40  O   UNL A   1      44.347  28.162  25.415  1.00  0.00    -0.269 OA
BRANCH  38  41
ATOM     41  C   UNL A   1      44.057  28.573  27.711  1.00  0.00     0.039 A 
ATOM     42  C   UNL A   1      43.376  27.736  28.596  1.00  0.00     0.014 A 
ATOM     43  C   UNL A   1      44.178  29.943  27.960  1.00  0.00     0.014 A 
ATOM     44  C   UNL A   1      42.859  28.268  29.776  1.00  0.00     0.010 A 
ATOM     45  C   UNL A   1      43.704  30.462  29.160  1.00  0.00     0.010 A 
ATOM     46  C   UNL A   1      43.046  29.628  30.076  1.00  0.00    -0.014 A 
BRANCH  46  47
ATOM     47  C   UNL A   1      42.536  30.204  31.340  1.00  0.00     0.031 A 
ATOM     48  C   UNL A   1      41.212  30.911  31.348  1.00  0.00     0.074 A 
ATOM     49  C   UNL A   1      43.281  30.134  32.459  1.00  0.00     0.049 A 
ATOM     50  N   UNL A   1      40.609  31.514  32.337  1.00  0.00    -0.248 NA
ATOM     51  C   UNL A   1      40.480  30.963  30.071  1.00  0.00     0.031 C 
ATOM     52  C   UNL A   1      44.596  29.495  32.566  1.00  0.00     0.029 A 
ATOM     53  N   UNL A   1      43.039  30.609  33.723  1.00  0.00    -0.354 N 
ATOM     54  C   UNL A   1      39.437  32.031  31.802  1.00  0.00     0.074 A 
ATOM     55  C   UNL A   1      39.427  31.701  30.394  1.00  0.00     0.031 C 
ATOM     56  C   UNL A   1      45.030  29.596  33.834  1.00  0.00     0.029 A 
ATOM     57  C   UNL A   1      44.040  30.326  34.621  1.00  0.00     0.049 A 
ATOM     58  H   UNL A   1      42.224  31.107  33.964  1.00  0.00     0.167 HD
ATOM     59  C   UNL A   1      38.449  32.706  32.432  1.00  0.00     0.031 A 
ATOM     60  C   UNL A   1      44.144  30.618  35.931  1.00  0.00     0.031 A 
ATOM     61  C   UNL A   1      38.446  33.008  33.835  1.00  0.00     0.049 A 
ATOM     62  C   UNL A   1      43.035  31.373  36.608  1.00  0.00     0.074 A 
ATOM     63  C   UNL A   1      37.458  33.628  34.578  1.00  0.00     0.029 A 
ATOM     64  N   UNL A   1      39.481  32.711  34.706  1.00  0.00    -0.354 N 
ATOM     65  N   UNL A   1      41.909  31.810  36.096  1.00  0.00    -0.248 NA
ATOM     66  C   UNL A   1      43.208  31.676  38.036  1.00  0.00     0.031 C 
ATOM     67  C   UNL A   1      37.910  33.733  35.898  1.00  0.00     0.029 A 
ATOM     68  C   UNL A   1      39.165  33.151  35.979  1.00  0.00     0.049 A 
ATOM     69  H   UNL A   1      40.318  32.256  34.458  1.00  0.00     0.167 HD
ATOM     70  C   UNL A   1      41.229  32.418  37.145  1.00  0.00     0.074 A 
ATOM     71  C   UNL A   1      42.069  32.296  38.319  1.00  0.00     0.031 C 
ATOM     72  C   UNL A   1      40.015  33.018  37.134  1.00  0.00     0.031 A 
BRANCH  59  73
ATOM     73  C   UNL A   1      37.284  33.159  31.599  1.00  0.00    -0.014 A 
ATOM     74  C   UNL A   1      37.486  33.923  30.436  1.00  0.00     0.010 A 
ATOM     75  C   UNL A   1      35.978  32.795  31.970  1.00  0.00     0.010 A 
ATOM     76  C   UNL A   1      36.396  34.340  29.671  1.00  0.00     0.020 A 
ATOM     77  C   UNL A   1      34.886  33.197  31.197  1.00  0.00     0.020 A 
ATOM     78  C   UNL A   1      35.101  33.975  30.058  1.00  0.00     0.054 A 
BRANCH  78  79
ATOM     79  S   UNL A   1      33.708  34.532  29.039  1.00  0.00     0.124 S 
ATOM     80  O   UNL A   1      33.460  33.362  28.199  1.00  0.00    -0.237 OA
ATOM     81  O   UNL A   1      32.681  34.817  30.038  1.00  0.00    -0.237 OA
ATOM     82  O   UNL A   1      34.234  35.699  28.336  1.00  0.00    -0.744 OA
ENDBRANCH  78  79
ENDBRANCH  59  73
BRANCH  60  83
ATOM     83  C   UNL A   1      45.331  30.161  36.697  1.00  0.00    -0.014 A 
ATOM     84  C   UNL A   1      46.498  30.945  36.719  1.00  0.00     0.010 A 
ATOM     85  C   UNL A   1      45.296  28.962  37.430  1.00  0.00     0.010 A 
ATOM     86  C   UNL A   1      47.610  30.537  37.459  1.00  0.00     0.020 A 
ATOM     87  C   UNL A   1      46.403  28.558  38.183  1.00  0.00     0.020 A 
ATOM     88  C   UNL A   1      47.554  29.349  38.192  1.00  0.00     0.054 A 
BRANCH  88  89
ATOM     89  S   UNL A   1      48.997  28.872  39.181  1.00  0.00     0.124 S 
ATOM     90  O   UNL A   1      48.890  27.416  39.200  1.00  0.00    -0.237 OA
ATOM     91  O   UNL A   1      50.102  29.415  38.395  1.00  0.00    -0.237 OA
ATOM     92  O   UNL A   1      48.769  29.532  40.464  1.00  0.00    -0.744 OA
ENDBRANCH  88  89
ENDBRANCH  60  83
BRANCH  72  93
ATOM     93  C   UNL A   1      39.501  33.577  38.429  1.00  0.00    -0.014 A 
ATOM     94  C   UNL A   1      38.751  32.778  39.307  1.00  0.00     0.010 A 
ATOM     95  C   UNL A   1      39.871  34.877  38.817  1.00  0.00     0.010 A 
ATOM     96  C   UNL A   1      38.379  33.272  40.560  1.00  0.00     0.020 A 
ATOM     97  C   UNL A   1      39.514  35.368  40.076  1.00  0.00     0.020 A 
ATOM     98  C   UNL A   1      38.771  34.561  40.939  1.00  0.00     0.054 A 
BRANCH  98  99
ATOM     99  S   UNL A   1      38.339  35.141  42.602  1.00  0.00     0.124 S 
ATOM    100  O   UNL A   1      39.057  34.197  43.454  1.00  0.00    -0.237 OA
ATOM    101  O   UNL A   1      38.854  36.508  42.604  1.00  0.00    -0.237 OA
ATOM    102  O   UNL A   1      36.883  35.029  42.643  1.00  0.00    -0.744 OA
ENDBRANCH  98  99
ENDBRANCH  72  93
ENDBRANCH  46  47
ENDBRANCH  38  41
ENDBRANCH  36  37
ENDBRANCH   1  36
TORSDOF 16
ENDMDL
MODEL 3
REMARK VINA RESULT:      -9.7      4.656     10.920
REMARK SMILES C[NH+]1CCN(c2nc3c(cc2F)c(=O)c(C(=O)NCCCCNC(=O)c2ccc(-c4c5nc(c(-c6ccc(S(=O)(=O)[O-])cc6)c6ccc([nH]6)c(-c6ccc(S(=O)(=O)[O-])cc6)c6nc(c(-c7ccc(S(=O)(=O)[O-])cc7)c7ccc4[nH]7)C=C6)C=C5)cc2)cn3-c2ccc(F)cc2F)CC1
REMARK SMILES IDX 21 1 20 2 19 3 18 4 16 5 17 6 15 8 6 9 7 10 11 11 8 12 10 13
REMARK SMILES IDX 12 14 9 15 87 16 13 17 86 18 14 19 5 20 1 21 2 22 3 23 97 24
REMARK SMILES IDX 4 26 96 27 88 28 89 29 94 30 90 31 93 32 95 33 91 34 92 35
REMARK SMILES IDX 22 36 23 37 24 38 25 40 26 41 27 42 85 43 28 44 84 45 29 46
REMARK SMILES IDX 30 47 31 48 78 49 32 50 83 51 77 52 79 53 33 54 82 55 76 56
REMARK SMILES IDX 75 57 34 59 64 60 45 61 63 62 46 63 49 64 62 65 80 66 47 67
REMARK SMILES IDX 48 68 61 70 81 71 50 72 35 73 36 74 44 75 37 76 43 77 38 78
REMARK SMILES IDX 39 79 40 80 41 81 42 82 65 83 66 84 74 85 67 86 73 87 68 88
REMARK SMILES IDX 69 89 70 90 71 91 72 92 51 93 52 94 60 95 53 96 59 97 54 98
REMARK SMILES IDX 55 99 56 100 57 101 58 102
REMARK H PARENT 18 7 2 25 23 39 79 58 49 69
REMARK Flexibility Score: inf
ROOT
ATOM      1  C   UNL A   1      36.827  33.141  34.258  1.00  0.00     0.023 C 
ENDROOT
BRANCH   1   2
ATOM      2  C   UNL A   1      35.912  32.678  33.128  1.00  0.00     0.023 C 
BRANCH   2   3
ATOM      3  C   UNL A   1      35.325  33.803  32.272  1.00  0.00     0.116 C 
BRANCH   3   4
ATOM      4  N   UNL A   1      36.320  34.345  31.368  1.00  0.00    -0.352 N 
ATOM      5  C   UNL A   1      36.759  33.937  30.148  1.00  0.00     0.256 C 
ATOM      6  O   UNL A   1      37.623  34.642  29.616  1.00  0.00    -0.269 OA
ATOM      7  H   UNL A   1      36.759  35.160  31.700  1.00  0.00     0.163 HD
BRANCH   5   8
ATOM      8  C   UNL A   1      36.205  32.763  29.415  1.00  0.00     0.104 A 
ATOM      9  C   UNL A   1      34.065  29.223  26.452  1.00  0.00     0.167 A 
ATOM     10  N   UNL A   1      35.249  29.310  27.111  1.00  0.00    -0.209 NA
ATOM     11  C   UNL A   1      33.118  30.245  26.540  1.00  0.00     0.166 A 
ATOM     12  C   UNL A   1      35.531  30.411  27.855  1.00  0.00     0.151 A 
ATOM     13  C   UNL A   1      33.358  31.338  27.349  1.00  0.00     0.059 A 
ATOM     14  F   UNL A   1      31.939  30.158  25.905  1.00  0.00    -0.203 F 
ATOM     15  C   UNL A   1      34.576  31.411  28.020  1.00  0.00     0.069 A 
ATOM     16  N   UNL A   1      36.807  30.565  28.491  1.00  0.00    -0.297 N 
ATOM     17  C   UNL A   1      34.820  32.509  28.965  1.00  0.00     0.203 A 
ATOM     18  C   UNL A   1      37.062  31.754  29.174  1.00  0.00     0.111 A 
ATOM     19  O   UNL A   1      33.840  33.120  29.366  1.00  0.00    -0.288 OA
BRANCH   9  20
ATOM     20  N   UNL A   1      33.837  28.080  25.732  1.00  0.00    -0.343 N 
ATOM     21  C   UNL A   1      30.791  25.925  23.705  1.00  0.00     0.332 C 
ATOM     22  N   UNL A   1      32.078  26.303  24.282  1.00  0.00    -0.334 N 
ATOM     23  C   UNL A   1      31.969  26.476  25.752  1.00  0.00     0.283 C 
ATOM     24  C   UNL A   1      32.564  27.565  23.677  1.00  0.00     0.283 C 
ATOM     25  H   UNL A   1      32.741  25.553  24.086  1.00  0.00     0.347 HD
ATOM     26  C   UNL A   1      33.308  26.901  26.410  1.00  0.00     0.179 C 
ATOM     27  C   UNL A   1      33.907  28.033  24.275  1.00  0.00     0.179 C 
ENDBRANCH   9  20
BRANCH  16  28
ATOM     28  C   UNL A   1      37.836  29.578  28.391  1.00  0.00     0.083 A 
ATOM     29  C   UNL A   1      38.726  29.570  27.303  1.00  0.00     0.033 A 
ATOM     30  C   UNL A   1      38.001  28.593  29.383  1.00  0.00     0.150 A 
ATOM     31  C   UNL A   1      39.740  28.613  27.218  1.00  0.00     0.041 A 
ATOM     32  C   UNL A   1      39.002  27.631  29.300  1.00  0.00     0.080 A 
ATOM     33  F   UNL A   1      37.163  28.548  30.431  1.00  0.00    -0.205 F 
ATOM     34  C   UNL A   1      39.864  27.653  28.215  1.00  0.00     0.126 A 
ATOM     35  F   UNL A   1      40.834  26.732  28.125  1.00  0.00    -0.207 F 
ENDBRANCH  16  28
ENDBRANCH   5   8
ENDBRANCH   3   4
ENDBRANCH   2   3
ENDBRANCH   1   2
BRANCH   1  36
ATOM     36  C   UNL A   1      37.829  32.100  34.734  1.00  0.00     0.116 C 
BRANCH  36  37
ATOM     37  N   UNL A   1      37.439  30.734  34.418  1.00  0.00    -0.352 N 
ATOM     38  C   UNL A   1      38.029  29.882  33.515  1.00  0.00     0.251 C 
ATOM     39  H   UNL A   1      36.662  30.379  34.908  1.00  0.00     0.163 HD
ATOM     40  O   UNL A   1      37.559  28.773  33.288  1.00  0.00    -0.269 OA
BRANCH  38  41
ATOM     41  C   UNL A   1      39.223  30.357  32.794  1.00  0.00     0.039 A 
ATOM     42  C   UNL A   1      39.052  31.085  31.617  1.00  0.00     0.014 A 
ATOM     43  C   UNL A   1      40.493  30.165  33.346  1.00  0.00     0.014 A 
ATOM     44  C   UNL A   1      40.159  31.681  31.016  1.00  0.00     0.010 A 
ATOM     45  C   UNL A   1      41.589  30.799  32.772  1.00  0.00     0.010 A 
ATOM     46  C   UNL A   1      41.429  31.564  31.606  1.00  0.00    -0.014 A 
BRANCH  46  47
ATOM     47  C   UNL A   1      42.611  32.218  31.003  1.00  0.00     0.031 A 
ATOM     48  C   UNL A   1      43.505  31.430  30.091  1.00  0.00     0.074 A 
ATOM     49  C   UNL A   1      42.903  33.495  31.314  1.00  0.00     0.049 A 
ATOM     50  N   UNL A   1      44.605  31.805  29.495  1.00  0.00    -0.248 NA
ATOM     51  C   UNL A   1      43.122  30.031  29.831  1.00  0.00     0.031 C 
ATOM     52  C   UNL A   1      42.122  34.352  32.210  1.00  0.00     0.029 A 
ATOM     53  N   UNL A   1      43.942  34.295  30.909  1.00  0.00    -0.354 N 
ATOM     54  C   UNL A   1      45.055  30.689  28.804  1.00  0.00     0.074 A 
ATOM     55  C   UNL A   1      44.129  29.612  29.079  1.00  0.00     0.031 C 
ATOM     56  C   UNL A   1      42.695  35.566  32.264  1.00  0.00     0.029 A 
ATOM     57  C   UNL A   1      43.895  35.566  31.431  1.00  0.00     0.049 A 
ATOM     58  H   UNL A   1      44.654  33.988  30.303  1.00  0.00     0.167 HD
ATOM     59  C   UNL A   1      46.134  30.575  27.997  1.00  0.00     0.031 A 
ATOM     60  C   UNL A   1      44.723  36.613  31.252  1.00  0.00     0.031 A 
ATOM     61  C   UNL A   1      47.036  31.653  27.701  1.00  0.00     0.049 A 
ATOM     62  C   UNL A   1      45.919  36.461  30.355  1.00  0.00     0.074 A 
ATOM     63  C   UNL A   1      48.120  31.653  26.841  1.00  0.00     0.029 A 
ATOM     64  N   UNL A   1      46.959  32.919  28.255  1.00  0.00    -0.354 N 
ATOM     65  N   UNL A   1      46.300  35.411  29.668  1.00  0.00    -0.248 NA
ATOM     66  C   UNL A   1      46.795  37.632  30.207  1.00  0.00     0.031 C 
ATOM     67  C   UNL A   1      48.717  32.917  26.899  1.00  0.00     0.029 A 
ATOM     68  C   UNL A   1      47.986  33.708  27.771  1.00  0.00     0.049 A 
ATOM     69  H   UNL A   1      46.274  33.215  28.899  1.00  0.00     0.167 HD
ATOM     70  C   UNL A   1      47.448  35.802  28.988  1.00  0.00     0.074 A 
ATOM     71  C   UNL A   1      47.700  37.183  29.347  1.00  0.00     0.031 C 
ATOM     72  C   UNL A   1      48.218  35.081  28.139  1.00  0.00     0.031 A 
BRANCH  59  73
ATOM     73  C   UNL A   1      46.393  29.233  27.375  1.00  0.00    -0.014 A 
ATOM     74  C   UNL A   1      45.845  28.903  26.123  1.00  0.00     0.010 A 
ATOM     75  C   UNL A   1      47.213  28.304  28.037  1.00  0.00     0.010 A 
ATOM     76  C   UNL A   1      46.091  27.652  25.555  1.00  0.00     0.020 A 
ATOM     77  C   UNL A   1      47.475  27.057  27.464  1.00  0.00     0.020 A 
ATOM     78  C   UNL A   1      46.904  26.736  26.231  1.00  0.00     0.054 A 
BRANCH  78  79
ATOM     79  S   UNL A   1      47.206  25.121  25.463  1.00  0.00     0.124 S 
ATOM     80  O   UNL A   1      48.425  25.371  24.698  1.00  0.00    -0.237 OA
ATOM     81  O   UNL A   1      47.359  24.244  26.621  1.00  0.00    -0.237 OA
ATOM     82  O   UNL A   1      46.008  24.887  24.660  1.00  0.00    -0.744 OA
ENDBRANCH  78  79
ENDBRANCH  59  73
BRANCH  60  83
ATOM     83  C   UNL A   1      44.426  37.909  31.913  1.00  0.00    -0.014 A 
ATOM     84  C   UNL A   1      43.753  38.920  31.205  1.00  0.00     0.010 A 
ATOM     85  C   UNL A   1      44.784  38.131  33.254  1.00  0.00     0.010 A 
ATOM     86  C   UNL A   1      43.445  40.133  31.826  1.00  0.00     0.020 A 
ATOM     87  C   UNL A   1      44.465  39.338  33.883  1.00  0.00     0.020 A 
ATOM     88  C   UNL A   1      43.797  40.332  33.164  1.00  0.00     0.054 A 
BRANCH  88  89
ATOM     89  S   UNL A   1      43.339  41.899  33.956  1.00  0.00     0.124 S 
ATOM     90  O   UNL A   1      41.884  41.801  34.013  1.00  0.00    -0.237 OA
ATOM     91  O   UNL A   1      44.031  41.809  35.240  1.00  0.00    -0.237 OA
ATOM     92  O   UNL A   1      43.862  42.912  33.043  1.00  0.00    -0.744 OA
ENDBRANCH  88  89
ENDBRANCH  60  83
BRANCH  72  93
ATOM     93  C   UNL A   1      49.401  35.765  27.518  1.00  0.00    -0.014 A 
ATOM     94  C   UNL A   1      50.681  35.637  28.081  1.00  0.00     0.010 A 
ATOM     95  C   UNL A   1      49.245  36.446  26.297  1.00  0.00     0.010 A 
ATOM     96  C   UNL A   1      51.791  36.179  27.430  1.00  0.00     0.020 A 
ATOM     97  C   UNL A   1      50.356  36.976  25.636  1.00  0.00     0.020 A 
ATOM     98  C   UNL A   1      51.622  36.838  26.207  1.00  0.00     0.054 A 
BRANCH  98  99
ATOM     99  S   UNL A   1      53.094  37.461  25.350  1.00  0.00     0.124 S 
ATOM    100  O   UNL A   1      53.036  38.891  25.642  1.00  0.00    -0.237 OA
ATOM    101  O   UNL A   1      54.175  36.729  26.004  1.00  0.00    -0.237 OA
ATOM    102  O   UNL A   1      52.861  37.104  23.953  1.00  0.00    -0.744 OA
ENDBRANCH  98  99
ENDBRANCH  72  93
ENDBRANCH  46  47
ENDBRANCH  38  41
ENDBRANCH  36  37
ENDBRANCH   1  36
TORSDOF 16
ENDMDL
