MODEL 1
REMARK VINA RESULT:     -11.8      0.000      0.000
REMARK SMILES CCOC(=O)c1nc(Nc2cccc(C(=O)NCCCCNC(=O)c3ccc(-c4c5nc(c(-c6ccc(S(=O)(=O)[O-])cc6)c6ccc([nH]6)c(-c6ccc(S(=O)(=O)[O-])cc6)c6nc(c(-c7ccc(S(=O)(=O)[O-])cc7)c7ccc4[nH]7)C=C6)C=C5)cc3)c2)c2ccccc2n1
REMARK SMILES IDX 18 1 17 2 15 3 16 4 14 6 10 7 11 8 85 9 12 10 13 11 9 12
REMARK SMILES IDX 8 14 6 15 7 16 92 17 91 18 86 19 90 20 87 21 89 22 88 23
REMARK SMILES IDX 4 24 5 25 3 26 2 27 1 28 19 29 20 30 21 31 22 32 23 33 24 35
REMARK SMILES IDX 25 36 26 37 84 38 27 39 83 40 28 41 29 42 30 43 77 44 31 45
REMARK SMILES IDX 82 46 76 47 78 48 32 49 81 50 75 51 74 52 33 54 63 55 44 56
REMARK SMILES IDX 62 57 45 58 48 59 61 60 79 61 46 62 47 63 60 65 80 66 49 67
REMARK SMILES IDX 34 68 35 69 43 70 36 71 42 72 37 73 38 74 39 75 40 76 41 77
REMARK SMILES IDX 64 78 65 79 73 80 66 81 72 82 67 83 68 84 69 85 70 86 71 87
REMARK SMILES IDX 50 88 51 89 59 90 52 91 58 92 53 93 54 94 55 95 56 96 57 97
REMARK H PARENT 17 5 9 13 22 34 78 53 48 64
REMARK Flexibility Score: inf
ROOT
ATOM      1  C   UNL A   1      31.442  29.179  24.418  1.00  0.00     0.116 C 
ENDROOT
BRANCH   1   2
ATOM      2  N   UNL A   1      32.794  29.301  23.890  1.00  0.00    -0.352 N 
ATOM      3  C   UNL A   1      33.594  28.391  23.226  1.00  0.00     0.251 C 
ATOM      4  O   UNL A   1      34.728  28.728  22.893  1.00  0.00    -0.269 OA
ATOM      5  H   UNL A   1      33.209  30.183  24.030  1.00  0.00     0.163 HD
BRANCH   3   6
ATOM      6  C   UNL A   1      33.151  26.992  22.974  1.00  0.00     0.041 A 
ATOM      7  C   UNL A   1      32.852  24.705  23.770  1.00  0.00     0.040 A 
ATOM      8  C   UNL A   1      32.702  24.289  22.443  1.00  0.00     0.026 A 
ATOM      9  C   UNL A   1      32.966  26.078  24.010  1.00  0.00     0.040 A 
ATOM     10  C   UNL A   1      32.704  25.219  21.396  1.00  0.00     0.003 A 
ATOM     11  C   UNL A   1      32.958  26.566  21.658  1.00  0.00     0.014 A 
BRANCH   7  12
ATOM     12  N   UNL A   1      32.938  23.760  24.812  1.00  0.00    -0.340 N 
ATOM     13  H   UNL A   1      32.468  23.996  25.645  1.00  0.00     0.168 HD
BRANCH  12  14
ATOM     14  C   UNL A   1      33.609  22.520  24.818  1.00  0.00     0.142 A 
ATOM     15  C   UNL A   1      33.474  20.232  24.761  1.00  0.00     0.241 A 
ATOM     16  N   UNL A   1      32.855  21.417  24.703  1.00  0.00    -0.204 NA
ATOM     17  N   UNL A   1      34.796  20.045  24.882  1.00  0.00    -0.222 NA
ATOM     18  C   UNL A   1      35.545  21.146  24.970  1.00  0.00     0.077 A 
ATOM     19  C   UNL A   1      35.007  22.446  24.977  1.00  0.00     0.043 A 
ATOM     20  C   UNL A   1      36.922  20.990  25.059  1.00  0.00     0.029 A 
ATOM     21  C   UNL A   1      35.882  23.552  25.145  1.00  0.00     0.014 A 
ATOM     22  C   UNL A   1      37.783  22.081  25.183  1.00  0.00     0.002 A 
ATOM     23  C   UNL A   1      37.262  23.366  25.243  1.00  0.00     0.001 A 
BRANCH  15  24
ATOM     24  C   UNL A   1      32.579  19.037  24.673  1.00  0.00     0.376 C 
ATOM     25  O   UNL A   1      32.366  18.267  25.589  1.00  0.00    -0.242 OA
BRANCH  24  26
ATOM     26  O   UNL A   1      32.118  18.915  23.395  1.00  0.00    -0.460 OA
BRANCH  26  27
ATOM     27  C   UNL A   1      32.813  17.958  22.583  1.00  0.00     0.230 C 
ATOM     28  C   UNL A   1      33.609  16.979  23.432  1.00  0.00     0.049 C 
ENDBRANCH  26  27
ENDBRANCH  24  26
ENDBRANCH  15  24
ENDBRANCH  12  14
ENDBRANCH   7  12
ENDBRANCH   3   6
ENDBRANCH   1   2
BRANCH   1  29
ATOM     29  C   UNL A   1      31.337  29.239  25.934  1.00  0.00     0.023 C 
BRANCH  29  30
ATOM     30  C   UNL A   1      32.219  28.273  26.710  1.00  0.00     0.023 C 
BRANCH  30  31
ATOM     31  C   UNL A   1      33.604  28.789  27.082  1.00  0.00     0.116 C 
BRANCH  31  32
ATOM     32  N   UNL A   1      33.607  30.147  27.610  1.00  0.00    -0.352 N 
ATOM     33  C   UNL A   1      34.605  30.823  28.276  1.00  0.00     0.251 C 
ATOM     34  H   UNL A   1      32.775  30.656  27.471  1.00  0.00     0.163 HD
ATOM     35  O   UNL A   1      34.391  31.942  28.735  1.00  0.00    -0.269 OA
BRANCH  33  36
ATOM     36  C   UNL A   1      35.921  30.176  28.474  1.00  0.00     0.039 A 
ATOM     37  C   UNL A   1      36.858  30.218  27.439  1.00  0.00     0.014 A 
ATOM     38  C   UNL A   1      36.246  29.578  29.693  1.00  0.00     0.014 A 
ATOM     39  C   UNL A   1      38.154  29.745  27.663  1.00  0.00     0.010 A 
ATOM     40  C   UNL A   1      37.560  29.192  29.942  1.00  0.00     0.010 A 
ATOM     41  C   UNL A   1      38.530  29.277  28.933  1.00  0.00    -0.014 A 
BRANCH  41  42
ATOM     42  C   UNL A   1      39.934  28.887  29.231  1.00  0.00     0.031 A 
ATOM     43  C   UNL A   1      40.878  29.883  29.855  1.00  0.00     0.074 A 
ATOM     44  C   UNL A   1      40.382  27.665  28.874  1.00  0.00     0.049 A 
ATOM     45  N   UNL A   1      42.151  29.753  30.123  1.00  0.00    -0.248 NA
ATOM     46  C   UNL A   1      40.325  31.204  30.198  1.00  0.00     0.031 C 
ATOM     47  C   UNL A   1      39.583  26.627  28.217  1.00  0.00     0.029 A 
ATOM     48  N   UNL A   1      41.623  27.092  29.003  1.00  0.00    -0.354 N 
ATOM     49  C   UNL A   1      42.556  30.977  30.645  1.00  0.00     0.074 A 
ATOM     50  C   UNL A   1      41.404  31.852  30.611  1.00  0.00     0.031 C 
ATOM     51  C   UNL A   1      40.346  25.537  28.028  1.00  0.00     0.029 A 
ATOM     52  C   UNL A   1      41.697  25.810  28.506  1.00  0.00     0.049 A 
ATOM     53  H   UNL A   1      42.389  27.554  29.415  1.00  0.00     0.167 HD
ATOM     54  C   UNL A   1      43.768  31.335  31.128  1.00  0.00     0.031 A 
ATOM     55  C   UNL A   1      42.735  24.955  28.432  1.00  0.00     0.031 A 
ATOM     56  C   UNL A   1      44.906  30.456  31.180  1.00  0.00     0.049 A 
ATOM     57  C   UNL A   1      44.074  25.380  28.974  1.00  0.00     0.074 A 
ATOM     58  C   UNL A   1      46.159  30.706  31.713  1.00  0.00     0.029 A 
ATOM     59  N   UNL A   1      44.933  29.162  30.686  1.00  0.00    -0.354 N 
ATOM     60  N   UNL A   1      44.413  26.517  29.533  1.00  0.00    -0.248 NA
ATOM     61  C   UNL A   1      45.168  24.402  28.885  1.00  0.00     0.031 C 
ATOM     62  C   UNL A   1      46.960  29.583  31.490  1.00  0.00     0.029 A 
ATOM     63  C   UNL A   1      46.187  28.609  30.877  1.00  0.00     0.049 A 
ATOM     64  H   UNL A   1      44.172  28.703  30.261  1.00  0.00     0.167 HD
ATOM     65  C   UNL A   1      45.750  26.377  29.893  1.00  0.00     0.074 A 
ATOM     66  C   UNL A   1      46.152  25.042  29.503  1.00  0.00     0.031 C 
ATOM     67  C   UNL A   1      46.570  27.275  30.493  1.00  0.00     0.031 A 
BRANCH  54  68
ATOM     68  C   UNL A   1      43.934  32.739  31.645  1.00  0.00    -0.014 A 
ATOM     69  C   UNL A   1      44.329  33.786  30.791  1.00  0.00     0.010 A 
ATOM     70  C   UNL A   1      43.623  33.032  32.986  1.00  0.00     0.010 A 
ATOM     71  C   UNL A   1      44.434  35.093  31.276  1.00  0.00     0.020 A 
ATOM     72  C   UNL A   1      43.698  34.342  33.466  1.00  0.00     0.020 A 
ATOM     73  C   UNL A   1      44.114  35.363  32.610  1.00  0.00     0.054 A 
BRANCH  73  74
ATOM     74  S   UNL A   1      44.209  37.077  33.193  1.00  0.00     0.124 S 
ATOM     75  O   UNL A   1      45.467  37.073  33.937  1.00  0.00    -0.237 OA
ATOM     76  O   UNL A   1      44.219  37.838  31.947  1.00  0.00    -0.237 OA
ATOM     77  O   UNL A   1      43.006  37.235  34.007  1.00  0.00    -0.744 OA
ENDBRANCH  73  74
ENDBRANCH  54  68
BRANCH  55  78
ATOM     78  C   UNL A   1      42.557  23.605  27.824  1.00  0.00    -0.014 A 
ATOM     79  C   UNL A   1      42.122  22.519  28.605  1.00  0.00     0.010 A 
ATOM     80  C   UNL A   1      42.842  23.394  26.463  1.00  0.00     0.010 A 
ATOM     81  C   UNL A   1      42.008  21.242  28.045  1.00  0.00     0.020 A 
ATOM     82  C   UNL A   1      42.698  22.126  25.891  1.00  0.00     0.020 A 
ATOM     83  C   UNL A   1      42.299  21.054  26.692  1.00  0.00     0.054 A 
BRANCH  83  84
ATOM     84  S   UNL A   1      42.121  19.393  25.981  1.00  0.00     0.124 S 
ATOM     85  O   UNL A   1      42.900  19.505  24.752  1.00  0.00    -0.237 OA
ATOM     86  O   UNL A   1      42.695  18.543  27.020  1.00  0.00    -0.237 OA
ATOM     87  O   UNL A   1      40.678  19.253  25.798  1.00  0.00    -0.744 OA
ENDBRANCH  83  84
ENDBRANCH  55  78
BRANCH  67  88
ATOM     88  C   UNL A   1      47.974  26.831  30.811  1.00  0.00    -0.014 A 
ATOM     89  C   UNL A   1      49.030  27.035  29.906  1.00  0.00     0.010 A 
ATOM     90  C   UNL A   1      48.249  26.256  32.066  1.00  0.00     0.010 A 
ATOM     91  C   UNL A   1      50.329  26.640  30.236  1.00  0.00     0.020 A 
ATOM     92  C   UNL A   1      49.551  25.890  32.412  1.00  0.00     0.020 A 
ATOM     93  C   UNL A   1      50.581  26.071  31.488  1.00  0.00     0.054 A 
BRANCH  93  94
ATOM     94  S   UNL A   1      52.284  25.611  31.911  1.00  0.00     0.124 S 
ATOM     95  O   UNL A   1      52.575  26.511  33.023  1.00  0.00    -0.237 OA
ATOM     96  O   UNL A   1      52.156  24.199  32.262  1.00  0.00    -0.237 OA
ATOM     97  O   UNL A   1      53.030  25.876  30.683  1.00  0.00    -0.744 OA
ENDBRANCH  93  94
ENDBRANCH  67  88
ENDBRANCH  41  42
ENDBRANCH  33  36
ENDBRANCH  31  32
ENDBRANCH  30  31
ENDBRANCH  29  30
ENDBRANCH   1  29
TORSDOF 19
ENDMDL
MODEL 2
REMARK VINA RESULT:     -11.8      2.645      9.738
REMARK SMILES CCOC(=O)c1nc(Nc2cccc(C(=O)NCCCCNC(=O)c3ccc(-c4c5nc(c(-c6ccc(S(=O)(=O)[O-])cc6)c6ccc([nH]6)c(-c6ccc(S(=O)(=O)[O-])cc6)c6nc(c(-c7ccc(S(=O)(=O)[O-])cc7)c7ccc4[nH]7)C=C6)C=C5)cc3)c2)c2ccccc2n1
REMARK SMILES IDX 18 1 17 2 15 3 16 4 14 6 10 7 11 8 85 9 12 10 13 11 9 12
REMARK SMILES IDX 8 14 6 15 7 16 92 17 91 18 86 19 90 20 87 21 89 22 88 23
REMARK SMILES IDX 4 24 5 25 3 26 2 27 1 28 19 29 20 30 21 31 22 32 23 33 24 35
REMARK SMILES IDX 25 36 26 37 84 38 27 39 83 40 28 41 29 42 30 43 77 44 31 45
REMARK SMILES IDX 82 46 76 47 78 48 32 49 81 50 75 51 74 52 33 54 63 55 44 56
REMARK SMILES IDX 62 57 45 58 48 59 61 60 79 61 46 62 47 63 60 65 80 66 49 67
REMARK SMILES IDX 34 68 35 69 43 70 36 71 42 72 37 73 38 74 39 75 40 76 41 77
REMARK SMILES IDX 64 78 65 79 73 80 66 81 72 82 67 83 68 84 69 85 70 86 71 87
REMARK SMILES IDX 50 88 51 89 59 90 52 91 58 92 53 93 54 94 55 95 56 96 57 97
REMARK H PARENT 17 5 9 13 22 34 78 53 48 64
REMARK Flexibility Score: inf
ROOT
ATOM      1  C   UNL A   1      34.230  20.604  25.257  1.00  0.00     0.116 C 
ENDROOT
BRANCH   1   2
ATOM      2  N   UNL A   1      33.392  20.606  24.065  1.00  0.00    -0.352 N 
ATOM      3  C   UNL A   1      32.418  21.490  23.644  1.00  0.00     0.251 C 
ATOM      4  O   UNL A   1      31.823  21.263  22.593  1.00  0.00    -0.269 OA
ATOM      5  H   UNL A   1      33.548  19.849  23.456  1.00  0.00     0.163 HD
BRANCH   3   6
ATOM      6  C   UNL A   1      32.014  22.665  24.465  1.00  0.00     0.041 A 
ATOM      7  C   UNL A   1      32.276  25.023  25.035  1.00  0.00     0.040 A 
ATOM      8  C   UNL A   1      31.576  24.789  26.222  1.00  0.00     0.026 A 
ATOM      9  C   UNL A   1      32.384  23.965  24.126  1.00  0.00     0.040 A 
ATOM     10  C   UNL A   1      31.035  23.526  26.498  1.00  0.00     0.003 A 
ATOM     11  C   UNL A   1      31.280  22.457  25.635  1.00  0.00     0.014 A 
BRANCH   7  12
ATOM     12  N   UNL A   1      32.893  26.268  24.799  1.00  0.00    -0.340 N 
ATOM     13  H   UNL A   1      33.829  26.233  24.496  1.00  0.00     0.168 HD
BRANCH  12  14
ATOM     14  C   UNL A   1      32.344  27.559  24.942  1.00  0.00     0.142 A 
ATOM     15  C   UNL A   1      30.788  29.100  24.263  1.00  0.00     0.241 A 
ATOM     16  N   UNL A   1      31.286  27.860  24.176  1.00  0.00    -0.204 NA
ATOM     17  N   UNL A   1      31.228  30.064  25.085  1.00  0.00    -0.222 NA
ATOM     18  C   UNL A   1      32.264  29.750  25.865  1.00  0.00     0.077 A 
ATOM     19  C   UNL A   1      32.909  28.500  25.826  1.00  0.00     0.043 A 
ATOM     20  C   UNL A   1      32.722  30.713  26.755  1.00  0.00     0.029 A 
ATOM     21  C   UNL A   1      34.048  28.288  26.646  1.00  0.00     0.014 A 
ATOM     22  C   UNL A   1      33.817  30.487  27.590  1.00  0.00     0.002 A 
ATOM     23  C   UNL A   1      34.494  29.277  27.525  1.00  0.00     0.001 A 
BRANCH  15  24
ATOM     24  C   UNL A   1      29.639  29.394  23.352  1.00  0.00     0.376 C 
ATOM     25  O   UNL A   1      29.104  28.575  22.630  1.00  0.00    -0.242 OA
BRANCH  24  26
ATOM     26  O   UNL A   1      29.351  30.726  23.410  1.00  0.00    -0.460 OA
BRANCH  26  27
ATOM     27  C   UNL A   1      28.079  31.101  22.863  1.00  0.00     0.230 C 
ATOM     28  C   UNL A   1      28.173  31.383  21.373  1.00  0.00     0.049 C 
ENDBRANCH  26  27
ENDBRANCH  24  26
ENDBRANCH  15  24
ENDBRANCH  12  14
ENDBRANCH   7  12
ENDBRANCH   3   6
ENDBRANCH   1   2
BRANCH   1  29
ATOM     29  C   UNL A   1      35.661  21.071  25.037  1.00  0.00     0.023 C 
BRANCH  29  30
ATOM     30  C   UNL A   1      35.852  22.557  24.773  1.00  0.00     0.023 C 
BRANCH  30  31
ATOM     31  C   UNL A   1      36.903  23.254  25.627  1.00  0.00     0.116 C 
BRANCH  31  32
ATOM     32  N   UNL A   1      38.065  22.427  25.928  1.00  0.00    -0.352 N 
ATOM     33  C   UNL A   1      39.260  22.779  26.514  1.00  0.00     0.251 C 
ATOM     34  H   UNL A   1      37.984  21.479  25.675  1.00  0.00     0.163 HD
ATOM     35  O   UNL A   1      40.169  21.958  26.602  1.00  0.00    -0.269 OA
BRANCH  33  36
ATOM     36  C   UNL A   1      39.458  24.163  26.998  1.00  0.00     0.039 A 
ATOM     37  C   UNL A   1      39.074  24.487  28.301  1.00  0.00     0.014 A 
ATOM     38  C   UNL A   1      40.068  25.122  26.186  1.00  0.00     0.014 A 
ATOM     39  C   UNL A   1      39.391  25.745  28.821  1.00  0.00     0.010 A 
ATOM     40  C   UNL A   1      40.462  26.339  26.735  1.00  0.00     0.010 A 
ATOM     41  C   UNL A   1      40.134  26.662  28.060  1.00  0.00    -0.014 A 
BRANCH  41  42
ATOM     42  C   UNL A   1      40.592  27.955  28.635  1.00  0.00     0.031 A 
ATOM     43  C   UNL A   1      41.997  28.092  29.161  1.00  0.00     0.074 A 
ATOM     44  C   UNL A   1      39.725  28.983  28.751  1.00  0.00     0.049 A 
ATOM     45  N   UNL A   1      42.555  29.112  29.761  1.00  0.00    -0.248 NA
ATOM     46  C   UNL A   1      42.881  26.923  29.021  1.00  0.00     0.031 C 
ATOM     47  C   UNL A   1      38.322  28.962  28.326  1.00  0.00     0.029 A 
ATOM     48  N   UNL A   1      39.891  30.242  29.272  1.00  0.00    -0.354 N 
ATOM     49  C   UNL A   1      43.843  28.702  30.085  1.00  0.00     0.074 A 
ATOM     50  C   UNL A   1      43.969  27.325  29.660  1.00  0.00     0.031 C 
ATOM     51  C   UNL A   1      37.767  30.160  28.577  1.00  0.00     0.029 A 
ATOM     52  C   UNL A   1      38.754  31.018  29.221  1.00  0.00     0.049 A 
ATOM     53  H   UNL A   1      40.743  30.561  29.646  1.00  0.00     0.167 HD
ATOM     54  C   UNL A   1      44.839  29.412  30.665  1.00  0.00     0.031 A 
ATOM     55  C   UNL A   1      38.528  32.274  29.653  1.00  0.00     0.031 A 
ATOM     56  C   UNL A   1      44.719  30.788  31.067  1.00  0.00     0.049 A 
ATOM     57  C   UNL A   1      39.654  33.041  30.298  1.00  0.00     0.074 A 
ATOM     58  C   UNL A   1      45.693  31.614  31.602  1.00  0.00     0.029 A 
ATOM     59  N   UNL A   1      43.560  31.542  30.979  1.00  0.00    -0.354 N 
ATOM     60  N   UNL A   1      40.888  32.657  30.525  1.00  0.00    -0.248 NA
ATOM     61  C   UNL A   1      39.359  34.413  30.734  1.00  0.00     0.031 C 
ATOM     62  C   UNL A   1      45.108  32.849  31.890  1.00  0.00     0.029 A 
ATOM     63  C   UNL A   1      43.787  32.815  31.474  1.00  0.00     0.049 A 
ATOM     64  H   UNL A   1      42.702  31.221  30.618  1.00  0.00     0.167 HD
ATOM     65  C   UNL A   1      41.523  33.753  31.099  1.00  0.00     0.074 A 
ATOM     66  C   UNL A   1      40.544  34.817  31.169  1.00  0.00     0.031 C 
ATOM     67  C   UNL A   1      42.804  33.868  31.529  1.00  0.00     0.031 A 
BRANCH  54  68
ATOM     68  C   UNL A   1      46.155  28.718  30.899  1.00  0.00    -0.014 A 
ATOM     69  C   UNL A   1      46.394  27.994  32.082  1.00  0.00     0.010 A 
ATOM     70  C   UNL A   1      47.140  28.729  29.895  1.00  0.00     0.010 A 
ATOM     71  C   UNL A   1      47.602  27.318  32.266  1.00  0.00     0.020 A 
ATOM     72  C   UNL A   1      48.338  28.029  30.062  1.00  0.00     0.020 A 
ATOM     73  C   UNL A   1      48.566  27.336  31.253  1.00  0.00     0.054 A 
BRANCH  73  74
ATOM     74  S   UNL A   1      50.101  26.404  31.499  1.00  0.00     0.124 S 
ATOM     75  O   UNL A   1      49.600  25.123  31.992  1.00  0.00    -0.237 OA
ATOM     76  O   UNL A   1      50.678  26.377  30.158  1.00  0.00    -0.237 OA
ATOM     77  O   UNL A   1      50.839  27.200  32.477  1.00  0.00    -0.744 OA
ENDBRANCH  73  74
ENDBRANCH  54  68
BRANCH  55  78
ATOM     78  C   UNL A   1      37.183  32.896  29.491  1.00  0.00    -0.014 A 
ATOM     79  C   UNL A   1      36.679  33.189  28.211  1.00  0.00     0.010 A 
ATOM     80  C   UNL A   1      36.406  33.217  30.619  1.00  0.00     0.010 A 
ATOM     81  C   UNL A   1      35.440  33.822  28.064  1.00  0.00     0.020 A 
ATOM     82  C   UNL A   1      35.153  33.820  30.474  1.00  0.00     0.020 A 
ATOM     83  C   UNL A   1      34.686  34.135  29.197  1.00  0.00     0.054 A 
BRANCH  83  84
ATOM     84  S   UNL A   1      33.071  34.934  28.981  1.00  0.00     0.124 S 
ATOM     85  O   UNL A   1      33.451  36.270  28.536  1.00  0.00    -0.237 OA
ATOM     86  O   UNL A   1      32.432  34.088  27.977  1.00  0.00    -0.237 OA
ATOM     87  O   UNL A   1      32.475  34.863  30.314  1.00  0.00    -0.744 OA
ENDBRANCH  83  84
ENDBRANCH  55  78
BRANCH  67  88
ATOM     88  C   UNL A   1      43.241  35.203  32.071  1.00  0.00    -0.014 A 
ATOM     89  C   UNL A   1      43.844  36.167  31.245  1.00  0.00     0.010 A 
ATOM     90  C   UNL A   1      42.986  35.518  33.418  1.00  0.00     0.010 A 
ATOM     91  C   UNL A   1      44.215  37.410  31.765  1.00  0.00     0.020 A 
ATOM     92  C   UNL A   1      43.326  36.770  33.934  1.00  0.00     0.020 A 
ATOM     93  C   UNL A   1      43.952  37.704  33.107  1.00  0.00     0.054 A 
BRANCH  93  94
ATOM     94  S   UNL A   1      44.401  39.342  33.746  1.00  0.00     0.124 S 
ATOM     95  O   UNL A   1      43.093  39.924  34.032  1.00  0.00    -0.237 OA
ATOM     96  O   UNL A   1      45.214  39.017  34.915  1.00  0.00    -0.237 OA
ATOM     97  O   UNL A   1      45.129  39.959  32.640  1.00  0.00    -0.744 OA
ENDBRANCH  93  94
ENDBRANCH  67  88
ENDBRANCH  41  42
ENDBRANCH  33  36
ENDBRANCH  31  32
ENDBRANCH  30  31
ENDBRANCH  29  30
ENDBRANCH   1  29
TORSDOF 19
ENDMDL
MODEL 3
REMARK VINA RESULT:     -10.5      2.892      9.491
REMARK SMILES CCOC(=O)c1nc(Nc2cccc(C(=O)NCCCCNC(=O)c3ccc(-c4c5nc(c(-c6ccc(S(=O)(=O)[O-])cc6)c6ccc([nH]6)c(-c6ccc(S(=O)(=O)[O-])cc6)c6nc(c(-c7ccc(S(=O)(=O)[O-])cc7)c7ccc4[nH]7)C=C6)C=C5)cc3)c2)c2ccccc2n1
REMARK SMILES IDX 18 1 17 2 15 3 16 4 14 6 10 7 11 8 85 9 12 10 13 11 9 12
REMARK SMILES IDX 8 14 6 15 7 16 92 17 91 18 86 19 90 20 87 21 89 22 88 23
REMARK SMILES IDX 4 24 5 25 3 26 2 27 1 28 19 29 20 30 21 31 22 32 23 33 24 35
REMARK SMILES IDX 25 36 26 37 84 38 27 39 83 40 28 41 29 42 30 43 77 44 31 45
REMARK SMILES IDX 82 46 76 47 78 48 32 49 81 50 75 51 74 52 33 54 63 55 44 56
REMARK SMILES IDX 62 57 45 58 48 59 61 60 79 61 46 62 47 63 60 65 80 66 49 67
REMARK SMILES IDX 34 68 35 69 43 70 36 71 42 72 37 73 38 74 39 75 40 76 41 77
REMARK SMILES IDX 64 78 65 79 73 80 66 81 72 82 67 83 68 84 69 85 70 86 71 87
REMARK SMILES IDX 50 88 51 89 59 90 52 91 58 92 53 93 54 94 55 95 56 96 57 97
REMARK H PARENT 17 5 9 13 22 34 78 53 48 64
REMARK Flexibility Score: inf
ROOT
ATOM      1  C   UNL A   1      35.278  21.124  25.423  1.00  0.00     0.116 C 
ENDROOT
BRANCH   1   2
ATOM      2  N   UNL A   1      34.188  20.547  24.647  1.00  0.00    -0.352 N 
ATOM      3  C   UNL A   1      32.913  21.012  24.390  1.00  0.00     0.251 C 
ATOM      4  O   UNL A   1      32.154  20.323  23.712  1.00  0.00    -0.269 OA
ATOM      5  H   UNL A   1      34.396  19.678  24.235  1.00  0.00     0.163 HD
BRANCH   3   6
ATOM      6  C   UNL A   1      32.408  22.285  24.975  1.00  0.00     0.041 A 
ATOM      7  C   UNL A   1      32.514  24.718  25.127  1.00  0.00     0.040 A 
ATOM      8  C   UNL A   1      31.773  24.652  26.311  1.00  0.00     0.026 A 
ATOM      9  C   UNL A   1      32.722  23.527  24.424  1.00  0.00     0.040 A 
ATOM     10  C   UNL A   1      31.291  23.427  26.787  1.00  0.00     0.003 A 
ATOM     11  C   UNL A   1      31.633  22.240  26.135  1.00  0.00     0.014 A 
BRANCH   7  12
ATOM     12  N   UNL A   1      33.072  25.939  24.696  1.00  0.00    -0.340 N 
ATOM     13  H   UNL A   1      33.962  25.882  24.281  1.00  0.00     0.168 HD
BRANCH  12  14
ATOM     14  C   UNL A   1      32.520  27.234  24.784  1.00  0.00     0.142 A 
ATOM     15  C   UNL A   1      30.989  28.754  24.010  1.00  0.00     0.241 A 
ATOM     16  N   UNL A   1      31.488  27.513  23.975  1.00  0.00    -0.204 NA
ATOM     17  N   UNL A   1      31.403  29.742  24.817  1.00  0.00    -0.222 NA
ATOM     18  C   UNL A   1      32.413  29.451  25.638  1.00  0.00     0.077 A 
ATOM     19  C   UNL A   1      33.057  28.200  25.657  1.00  0.00     0.043 A 
ATOM     20  C   UNL A   1      32.844  30.440  26.514  1.00  0.00     0.029 A 
ATOM     21  C   UNL A   1      34.170  28.012  26.519  1.00  0.00     0.014 A 
ATOM     22  C   UNL A   1      33.910  30.238  27.391  1.00  0.00     0.002 A 
ATOM     23  C   UNL A   1      34.588  29.026  27.382  1.00  0.00     0.001 A 
BRANCH  15  24
ATOM     24  C   UNL A   1      29.869  29.022  23.055  1.00  0.00     0.376 C 
ATOM     25  O   UNL A   1      29.461  28.228  22.230  1.00  0.00    -0.242 OA
BRANCH  24  26
ATOM     26  O   UNL A   1      29.447  30.310  23.209  1.00  0.00    -0.460 OA
BRANCH  26  27
ATOM     27  C   UNL A   1      28.133  30.587  22.705  1.00  0.00     0.230 C 
ATOM     28  C   UNL A   1      27.595  31.903  23.242  1.00  0.00     0.049 C 
ENDBRANCH  26  27
ENDBRANCH  24  26
ENDBRANCH  15  24
ENDBRANCH  12  14
ENDBRANCH   7  12
ENDBRANCH   3   6
ENDBRANCH   1   2
BRANCH   1  29
ATOM     29  C   UNL A   1      36.229  22.011  24.634  1.00  0.00     0.023 C 
BRANCH  29  30
ATOM     30  C   UNL A   1      36.434  23.421  25.167  1.00  0.00     0.023 C 
BRANCH  30  31
ATOM     31  C   UNL A   1      37.610  23.609  26.116  1.00  0.00     0.116 C 
BRANCH  31  32
ATOM     32  N   UNL A   1      38.382  22.394  26.349  1.00  0.00    -0.352 N 
ATOM     33  C   UNL A   1      39.703  22.255  26.710  1.00  0.00     0.251 C 
ATOM     34  H   UNL A   1      37.887  21.551  26.230  1.00  0.00     0.163 HD
ATOM     35  O   UNL A   1      40.212  21.139  26.768  1.00  0.00    -0.269 OA
BRANCH  33  36
ATOM     36  C   UNL A   1      40.518  23.459  26.983  1.00  0.00     0.039 A 
ATOM     37  C   UNL A   1      40.519  24.502  26.054  1.00  0.00     0.014 A 
ATOM     38  C   UNL A   1      41.237  23.579  28.175  1.00  0.00     0.014 A 
ATOM     39  C   UNL A   1      41.162  25.703  26.366  1.00  0.00     0.010 A 
ATOM     40  C   UNL A   1      41.798  24.805  28.520  1.00  0.00     0.010 A 
ATOM     41  C   UNL A   1      41.762  25.882  27.623  1.00  0.00    -0.014 A 
BRANCH  41  42
ATOM     42  C   UNL A   1      42.341  27.192  28.026  1.00  0.00     0.031 A 
ATOM     43  C   UNL A   1      43.819  27.442  27.877  1.00  0.00     0.074 A 
ATOM     44  C   UNL A   1      41.551  28.128  28.594  1.00  0.00     0.049 A 
ATOM     45  N   UNL A   1      44.517  28.488  28.237  1.00  0.00    -0.248 NA
ATOM     46  C   UNL A   1      44.621  26.367  27.270  1.00  0.00     0.031 C 
ATOM     47  C   UNL A   1      40.113  27.990  28.841  1.00  0.00     0.029 A 
ATOM     48  N   UNL A   1      41.849  29.379  29.078  1.00  0.00    -0.354 N 
ATOM     49  C   UNL A   1      45.837  28.191  27.920  1.00  0.00     0.074 A 
ATOM     50  C   UNL A   1      45.851  26.848  27.383  1.00  0.00     0.031 C 
ATOM     51  C   UNL A   1      39.651  29.120  29.402  1.00  0.00     0.029 A 
ATOM     52  C   UNL A   1      40.762  30.045  29.598  1.00  0.00     0.049 A 
ATOM     53  H   UNL A   1      42.755  29.763  29.054  1.00  0.00     0.167 HD
ATOM     54  C   UNL A   1      46.936  28.971  28.044  1.00  0.00     0.031 A 
ATOM     55  C   UNL A   1      40.670  31.258  30.177  1.00  0.00     0.031 A 
ATOM     56  C   UNL A   1      46.917  30.315  28.558  1.00  0.00     0.049 A 
ATOM     57  C   UNL A   1      41.910  32.104  30.306  1.00  0.00     0.074 A 
ATOM     58  C   UNL A   1      47.969  31.209  28.660  1.00  0.00     0.029 A 
ATOM     59  N   UNL A   1      45.795  30.958  29.055  1.00  0.00    -0.354 N 
ATOM     60  N   UNL A   1      43.136  31.831  29.927  1.00  0.00    -0.248 NA
ATOM     61  C   UNL A   1      41.751  33.426  30.928  1.00  0.00     0.031 C 
ATOM     62  C   UNL A   1      47.494  32.373  29.271  1.00  0.00     0.029 A 
ATOM     63  C   UNL A   1      46.133  32.229  29.488  1.00  0.00     0.049 A 
ATOM     64  H   UNL A   1      44.891  30.570  29.093  1.00  0.00     0.167 HD
ATOM     65  C   UNL A   1      43.886  32.961  30.236  1.00  0.00     0.074 A 
ATOM     66  C   UNL A   1      42.975  33.925  30.816  1.00  0.00     0.031 C 
ATOM     67  C   UNL A   1      45.212  33.181  30.055  1.00  0.00     0.031 A 
BRANCH  54  68
ATOM     68  C   UNL A   1      48.260  28.397  27.613  1.00  0.00    -0.014 A 
ATOM     69  C   UNL A   1      49.079  27.700  28.520  1.00  0.00     0.010 A 
ATOM     70  C   UNL A   1      48.659  28.493  26.267  1.00  0.00     0.010 A 
ATOM     71  C   UNL A   1      50.284  27.133  28.095  1.00  0.00     0.020 A 
ATOM     72  C   UNL A   1      49.848  27.902  25.831  1.00  0.00     0.020 A 
ATOM     73  C   UNL A   1      50.658  27.234  26.751  1.00  0.00     0.054 A 
BRANCH  73  74
ATOM     74  S   UNL A   1      52.200  26.441  26.219  1.00  0.00     0.124 S 
ATOM     75  O   UNL A   1      53.208  27.361  26.744  1.00  0.00    -0.237 OA
ATOM     76  O   UNL A   1      52.134  25.141  26.879  1.00  0.00    -0.237 OA
ATOM     77  O   UNL A   1      52.089  26.406  24.763  1.00  0.00    -0.744 OA
ENDBRANCH  73  74
ENDBRANCH  54  68
BRANCH  55  78
ATOM     78  C   UNL A   1      39.358  31.755  30.681  1.00  0.00    -0.014 A 
ATOM     79  C   UNL A   1      38.921  31.436  31.979  1.00  0.00     0.010 A 
ATOM     80  C   UNL A   1      38.528  32.534  29.855  1.00  0.00     0.010 A 
ATOM     81  C   UNL A   1      37.666  31.858  32.430  1.00  0.00     0.020 A 
ATOM     82  C   UNL A   1      37.286  32.985  30.314  1.00  0.00     0.020 A 
ATOM     83  C   UNL A   1      36.856  32.628  31.593  1.00  0.00     0.054 A 
BRANCH  83  84
ATOM     84  S   UNL A   1      35.241  33.185  32.207  1.00  0.00     0.124 S 
ATOM     85  O   UNL A   1      34.326  32.285  31.513  1.00  0.00    -0.237 OA
ATOM     86  O   UNL A   1      35.363  32.978  33.647  1.00  0.00    -0.237 OA
ATOM     87  O   UNL A   1      35.181  34.584  31.789  1.00  0.00    -0.744 OA
ENDBRANCH  83  84
ENDBRANCH  55  78
BRANCH  67  88
ATOM     88  C   UNL A   1      45.754  34.531  30.442  1.00  0.00    -0.014 A 
ATOM     89  C   UNL A   1      46.239  34.782  31.737  1.00  0.00     0.010 A 
ATOM     90  C   UNL A   1      45.834  35.548  29.471  1.00  0.00     0.010 A 
ATOM     91  C   UNL A   1      46.764  36.036  32.064  1.00  0.00     0.020 A 
ATOM     92  C   UNL A   1      46.386  36.791  29.785  1.00  0.00     0.020 A 
ATOM     93  C   UNL A   1      46.835  37.032  31.085  1.00  0.00     0.054 A 
BRANCH  93  94
ATOM     94  S   UNL A   1      47.562  38.635  31.522  1.00  0.00     0.124 S 
ATOM     95  O   UNL A   1      46.493  39.562  31.163  1.00  0.00    -0.237 OA
ATOM     96  O   UNL A   1      47.817  38.492  32.953  1.00  0.00    -0.237 OA
ATOM     97  O   UNL A   1      48.760  38.712  30.687  1.00  0.00    -0.744 OA
ENDBRANCH  93  94
ENDBRANCH  67  88
ENDBRANCH  41  42
ENDBRANCH  33  36
ENDBRANCH  31  32
ENDBRANCH  30  31
ENDBRANCH  29  30
ENDBRANCH   1  29
TORSDOF 19
ENDMDL
