MODEL 1
REMARK VINA RESULT:     -10.8      0.000      0.000
REMARK SMILES CC(C)[NH2+][C@@]1(C(=O)NCCCCNC(=O)c2ccc(-c3c4nc(c(-c5ccc(S(=O)(=O)[O-])cc5)c5ccc([nH]5)c(-c5ccc(S(=O)(=O)[O-])cc5)c5nc(c(-c6ccc(S(=O)(=O)[O-])cc6)c6ccc3[nH]6)C=C5)C=C4)cc2)CC[C@@H](Sc2ccncc2)C1
REMARK SMILES IDX 11 1 10 2 9 3 8 4 6 5 7 6 5 8 76 9 86 10 77 11 78 12 4 13
REMARK SMILES IDX 2 16 1 17 3 18 79 19 80 20 81 21 85 22 82 23 84 24 83 25
REMARK SMILES IDX 12 26 13 27 14 28 15 30 16 31 17 32 75 33 18 34 74 35 19 36
REMARK SMILES IDX 20 37 21 38 68 39 22 40 73 41 67 42 69 43 23 44 72 45 66 46
REMARK SMILES IDX 65 47 24 49 54 50 35 51 53 52 36 53 39 54 52 55 70 56 37 57
REMARK SMILES IDX 38 58 51 60 71 61 40 62 25 63 26 64 34 65 27 66 33 67 28 68
REMARK SMILES IDX 29 69 30 70 31 71 32 72 55 73 56 74 64 75 57 76 63 77 58 78
REMARK SMILES IDX 59 79 60 80 61 81 62 82 41 83 42 84 50 85 43 86 49 87 44 88
REMARK SMILES IDX 45 89 46 90 47 91 48 92
REMARK H PARENT 8 7 4 14 4 15 13 29 69 48 39 59
REMARK Flexibility Score: inf
ROOT
ATOM      1  C   UNL A   1      31.900  31.814  26.969  1.00  0.00     0.023 C 
ENDROOT
BRANCH   1   2
ATOM      2  C   UNL A   1      32.097  30.299  27.026  1.00  0.00     0.023 C 
BRANCH   2   3
ATOM      3  C   UNL A   1      33.485  29.823  26.601  1.00  0.00     0.116 C 
BRANCH   3   4
ATOM      4  N   UNL A   1      33.594  29.714  25.166  1.00  0.00    -0.351 N 
ATOM      5  C   UNL A   1      33.376  28.701  24.285  1.00  0.00     0.281 C 
ATOM      6  O   UNL A   1      33.725  28.966  23.125  1.00  0.00    -0.268 OA
ATOM      7  H   UNL A   1      33.887  30.548  24.734  1.00  0.00     0.163 HD
BRANCH   5   8
ATOM      8  C   UNL A   1      32.801  27.280  24.679  1.00  0.00     0.176 C 
ATOM      9  C   UNL A   1      33.529  26.515  25.794  1.00  0.00     0.080 C 
ATOM     10  C   UNL A   1      32.859  26.357  23.439  1.00  0.00     0.094 C 
ATOM     11  C   UNL A   1      34.215  25.290  25.191  1.00  0.00     0.022 C 
ATOM     12  C   UNL A   1      33.960  25.329  23.691  1.00  0.00     0.058 C 
BRANCH   8  13
ATOM     13  N   UNL A   1      31.352  27.411  25.028  1.00  0.00    -0.332 N 
ATOM     14  H   UNL A   1      31.288  27.459  26.045  1.00  0.00     0.347 HD
ATOM     15  H   UNL A   1      31.043  28.244  24.525  1.00  0.00     0.347 HD
BRANCH  13  16
ATOM     16  C   UNL A   1      30.436  26.351  24.581  1.00  0.00     0.176 C 
ATOM     17  C   UNL A   1      29.975  25.610  25.842  1.00  0.00     0.075 C 
ATOM     18  C   UNL A   1      29.204  26.887  23.845  1.00  0.00     0.075 C 
ENDBRANCH  13  16
ENDBRANCH   8  13
BRANCH  12  19
ATOM     19  S   UNL A   1      33.669  23.698  22.890  1.00  0.00    -0.122 SA
BRANCH  19  20
ATOM     20  C   UNL A   1      34.848  22.653  23.724  1.00  0.00     0.011 A 
ATOM     21  C   UNL A   1      34.436  21.651  24.597  1.00  0.00     0.035 A 
ATOM     22  C   UNL A   1      36.211  22.833  23.492  1.00  0.00     0.035 A 
ATOM     23  C   UNL A   1      35.407  20.910  25.248  1.00  0.00     0.112 A 
ATOM     24  C   UNL A   1      37.105  22.043  24.193  1.00  0.00     0.112 A 
ATOM     25  N   UNL A   1      36.732  21.091  25.074  1.00  0.00    -0.265 NA
ENDBRANCH  19  20
ENDBRANCH  12  19
ENDBRANCH   5   8
ENDBRANCH   3   4
ENDBRANCH   2   3
ENDBRANCH   1   2
BRANCH   1  26
ATOM     26  C   UNL A   1      33.007  32.633  27.626  1.00  0.00     0.116 C 
BRANCH  26  27
ATOM     27  N   UNL A   1      32.666  34.033  27.832  1.00  0.00    -0.352 N 
ATOM     28  C   UNL A   1      33.250  34.924  28.706  1.00  0.00     0.251 C 
ATOM     29  H   UNL A   1      31.931  34.385  27.281  1.00  0.00     0.163 HD
ATOM     30  O   UNL A   1      32.808  36.055  28.830  1.00  0.00    -0.269 OA
BRANCH  28  31
ATOM     31  C   UNL A   1      34.390  34.461  29.524  1.00  0.00     0.039 A 
ATOM     32  C   UNL A   1      34.133  33.856  30.755  1.00  0.00     0.014 A 
ATOM     33  C   UNL A   1      35.695  34.553  29.035  1.00  0.00     0.014 A 
ATOM     34  C   UNL A   1      35.184  33.276  31.466  1.00  0.00     0.010 A 
ATOM     35  C   UNL A   1      36.726  33.908  29.705  1.00  0.00     0.010 A 
ATOM     36  C   UNL A   1      36.482  33.263  30.927  1.00  0.00    -0.014 A 
BRANCH  36  37
ATOM     37  C   UNL A   1      37.596  32.579  31.628  1.00  0.00     0.031 A 
ATOM     38  C   UNL A   1      38.088  33.105  32.949  1.00  0.00     0.074 A 
ATOM     39  C   UNL A   1      38.203  31.525  31.048  1.00  0.00     0.049 A 
ATOM     40  N   UNL A   1      39.070  32.668  33.695  1.00  0.00    -0.248 NA
ATOM     41  C   UNL A   1      37.411  34.297  33.486  1.00  0.00     0.031 C 
ATOM     42  C   UNL A   1      37.856  30.957  29.742  1.00  0.00     0.029 A 
ATOM     43  N   UNL A   1      39.243  30.743  31.482  1.00  0.00    -0.354 N 
ATOM     44  C   UNL A   1      39.137  33.538  34.777  1.00  0.00     0.074 A 
ATOM     45  C   UNL A   1      38.137  34.559  34.562  1.00  0.00     0.031 C 
ATOM     46  C   UNL A   1      38.645  29.899  29.498  1.00  0.00     0.029 A 
ATOM     47  C   UNL A   1      39.574  29.730  30.612  1.00  0.00     0.049 A 
ATOM     48  H   UNL A   1      39.709  30.892  32.336  1.00  0.00     0.167 HD
ATOM     49  C   UNL A   1      39.942  33.479  35.865  1.00  0.00     0.031 A 
ATOM     50  C   UNL A   1      40.514  28.771  30.703  1.00  0.00     0.031 A 
ATOM     51  C   UNL A   1      40.921  32.448  36.085  1.00  0.00     0.049 A 
ATOM     52  C   UNL A   1      41.380  28.710  31.931  1.00  0.00     0.074 A 
ATOM     53  C   UNL A   1      41.744  32.264  37.181  1.00  0.00     0.029 A 
ATOM     54  N   UNL A   1      41.206  31.427  35.193  1.00  0.00    -0.354 N 
ATOM     55  N   UNL A   1      41.381  29.502  32.977  1.00  0.00    -0.248 NA
ATOM     56  C   UNL A   1      42.359  27.617  31.999  1.00  0.00     0.031 C 
ATOM     57  C   UNL A   1      42.556  31.151  36.935  1.00  0.00     0.029 A 
ATOM     58  C   UNL A   1      42.202  30.614  35.707  1.00  0.00     0.049 A 
ATOM     59  H   UNL A   1      40.765  31.296  34.323  1.00  0.00     0.167 HD
ATOM     60  C   UNL A   1      42.342  28.986  33.840  1.00  0.00     0.074 A 
ATOM     61  C   UNL A   1      42.890  27.808  33.200  1.00  0.00     0.031 C 
ATOM     62  C   UNL A   1      42.735  29.446  35.054  1.00  0.00     0.031 A 
BRANCH  49  63
ATOM     63  C   UNL A   1      39.787  34.561  36.899  1.00  0.00    -0.014 A 
ATOM     64  C   UNL A   1      40.537  35.750  36.820  1.00  0.00     0.010 A 
ATOM     65  C   UNL A   1      38.868  34.402  37.950  1.00  0.00     0.010 A 
ATOM     66  C   UNL A   1      40.406  36.736  37.801  1.00  0.00     0.020 A 
ATOM     67  C   UNL A   1      38.713  35.399  38.918  1.00  0.00     0.020 A 
ATOM     68  C   UNL A   1      39.498  36.551  38.847  1.00  0.00     0.054 A 
BRANCH  68  69
ATOM     69  S   UNL A   1      39.338  37.852  40.100  1.00  0.00     0.124 S 
ATOM     70  O   UNL A   1      40.599  38.573  39.945  1.00  0.00    -0.237 OA
ATOM     71  O   UNL A   1      38.146  38.574  39.664  1.00  0.00    -0.237 OA
ATOM     72  O   UNL A   1      39.192  37.113  41.351  1.00  0.00    -0.744 OA
ENDBRANCH  68  69
ENDBRANCH  49  63
BRANCH  50  73
ATOM     73  C   UNL A   1      40.662  27.767  29.615  1.00  0.00    -0.014 A 
ATOM     74  C   UNL A   1      41.694  27.891  28.668  1.00  0.00     0.010 A 
ATOM     75  C   UNL A   1      39.782  26.671  29.529  1.00  0.00     0.010 A 
ATOM     76  C   UNL A   1      41.833  26.950  27.643  1.00  0.00     0.020 A 
ATOM     77  C   UNL A   1      39.934  25.716  28.520  1.00  0.00     0.020 A 
ATOM     78  C   UNL A   1      40.952  25.867  27.576  1.00  0.00     0.054 A 
BRANCH  78  79
ATOM     79  S   UNL A   1      41.183  24.629  26.270  1.00  0.00     0.124 S 
ATOM     80  O   UNL A   1      39.862  24.013  26.199  1.00  0.00    -0.237 OA
ATOM     81  O   UNL A   1      41.563  25.448  25.121  1.00  0.00    -0.237 OA
ATOM     82  O   UNL A   1      42.246  23.776  26.794  1.00  0.00    -0.744 OA
ENDBRANCH  78  79
ENDBRANCH  50  73
BRANCH  62  83
ATOM     83  C   UNL A   1      43.786  28.654  35.783  1.00  0.00    -0.014 A 
ATOM     84  C   UNL A   1      43.436  27.604  36.648  1.00  0.00     0.010 A 
ATOM     85  C   UNL A   1      45.146  28.939  35.561  1.00  0.00     0.010 A 
ATOM     86  C   UNL A   1      44.428  26.874  37.308  1.00  0.00     0.020 A 
ATOM     87  C   UNL A   1      46.140  28.195  36.198  1.00  0.00     0.020 A 
ATOM     88  C   UNL A   1      45.775  27.176  37.080  1.00  0.00     0.054 A 
BRANCH  88  89
ATOM     89  S   UNL A   1      47.047  26.193  37.920  1.00  0.00     0.124 S 
ATOM     90  O   UNL A   1      48.213  27.068  37.833  1.00  0.00    -0.237 OA
ATOM     91  O   UNL A   1      46.488  26.020  39.259  1.00  0.00    -0.237 OA
ATOM     92  O   UNL A   1      47.123  24.971  37.121  1.00  0.00    -0.744 OA
ENDBRANCH  88  89
ENDBRANCH  62  83
ENDBRANCH  36  37
ENDBRANCH  28  31
ENDBRANCH  26  27
ENDBRANCH   1  26
TORSDOF 18
ENDMDL
MODEL 2
REMARK VINA RESULT:     -10.6      6.401     11.925
REMARK SMILES CC(C)[NH2+][C@@]1(C(=O)NCCCCNC(=O)c2ccc(-c3c4nc(c(-c5ccc(S(=O)(=O)[O-])cc5)c5ccc([nH]5)c(-c5ccc(S(=O)(=O)[O-])cc5)c5nc(c(-c6ccc(S(=O)(=O)[O-])cc6)c6ccc3[nH]6)C=C5)C=C4)cc2)CC[C@@H](Sc2ccncc2)C1
REMARK SMILES IDX 11 1 10 2 9 3 8 4 6 5 7 6 5 8 76 9 86 10 77 11 78 12 4 13
REMARK SMILES IDX 2 16 1 17 3 18 79 19 80 20 81 21 85 22 82 23 84 24 83 25
REMARK SMILES IDX 12 26 13 27 14 28 15 30 16 31 17 32 75 33 18 34 74 35 19 36
REMARK SMILES IDX 20 37 21 38 68 39 22 40 73 41 67 42 69 43 23 44 72 45 66 46
REMARK SMILES IDX 65 47 24 49 54 50 35 51 53 52 36 53 39 54 52 55 70 56 37 57
REMARK SMILES IDX 38 58 51 60 71 61 40 62 25 63 26 64 34 65 27 66 33 67 28 68
REMARK SMILES IDX 29 69 30 70 31 71 32 72 55 73 56 74 64 75 57 76 63 77 58 78
REMARK SMILES IDX 59 79 60 80 61 81 62 82 41 83 42 84 50 85 43 86 49 87 44 88
REMARK SMILES IDX 45 89 46 90 47 91 48 92
REMARK H PARENT 8 7 4 14 4 15 13 29 69 48 39 59
REMARK Flexibility Score: inf
ROOT
ATOM      1  C   UNL A   1      37.945  20.720  25.382  1.00  0.00     0.023 C 
ENDROOT
BRANCH   1   2
ATOM      2  C   UNL A   1      37.399  21.876  24.546  1.00  0.00     0.023 C 
BRANCH   2   3
ATOM      3  C   UNL A   1      37.125  23.156  25.335  1.00  0.00     0.116 C 
BRANCH   3   4
ATOM      4  N   UNL A   1      36.230  22.917  26.442  1.00  0.00    -0.351 N 
ATOM      5  C   UNL A   1      34.892  22.699  26.533  1.00  0.00     0.281 C 
ATOM      6  O   UNL A   1      34.468  22.679  27.697  1.00  0.00    -0.268 OA
ATOM      7  H   UNL A   1      36.685  22.911  27.315  1.00  0.00     0.163 HD
BRANCH   5   8
ATOM      8  C   UNL A   1      33.923  22.550  25.290  1.00  0.00     0.176 C 
ATOM      9  C   UNL A   1      32.413  22.637  25.564  1.00  0.00     0.080 C 
ATOM     10  C   UNL A   1      34.146  21.161  24.646  1.00  0.00     0.094 C 
ATOM     11  C   UNL A   1      31.785  21.264  25.326  1.00  0.00     0.022 C 
ATOM     12  C   UNL A   1      32.916  20.313  24.961  1.00  0.00     0.058 C 
BRANCH   8  13
ATOM     13  N   UNL A   1      34.298  23.554  24.246  1.00  0.00    -0.332 N 
ATOM     14  H   UNL A   1      35.243  23.872  24.457  1.00  0.00     0.347 HD
ATOM     15  H   UNL A   1      34.185  23.056  23.362  1.00  0.00     0.347 HD
BRANCH  13  16
ATOM     16  C   UNL A   1      33.455  24.751  24.104  1.00  0.00     0.176 C 
ATOM     17  C   UNL A   1      34.150  25.871  24.886  1.00  0.00     0.075 C 
ATOM     18  C   UNL A   1      33.281  25.198  22.649  1.00  0.00     0.075 C 
ENDBRANCH  13  16
ENDBRANCH   8  13
BRANCH  12  19
ATOM     19  S   UNL A   1      32.515  19.055  23.678  1.00  0.00    -0.122 SA
BRANCH  19  20
ATOM     20  C   UNL A   1      33.220  17.572  24.371  1.00  0.00     0.011 A 
ATOM     21  C   UNL A   1      34.594  17.354  24.369  1.00  0.00     0.035 A 
ATOM     22  C   UNL A   1      32.380  16.612  24.936  1.00  0.00     0.035 A 
ATOM     23  C   UNL A   1      35.067  16.158  24.879  1.00  0.00     0.112 A 
ATOM     24  C   UNL A   1      32.950  15.447  25.419  1.00  0.00     0.112 A 
ATOM     25  N   UNL A   1      34.275  15.195  25.394  1.00  0.00    -0.265 NA
ENDBRANCH  19  20
ENDBRANCH  12  19
ENDBRANCH   5   8
ENDBRANCH   3   4
ENDBRANCH   2   3
ENDBRANCH   1   2
BRANCH   1  26
ATOM     26  C   UNL A   1      39.306  20.974  26.024  1.00  0.00     0.116 C 
BRANCH  26  27
ATOM     27  N   UNL A   1      40.171  19.804  26.065  1.00  0.00    -0.352 N 
ATOM     28  C   UNL A   1      41.537  19.770  26.246  1.00  0.00     0.251 C 
ATOM     29  H   UNL A   1      39.727  18.933  25.951  1.00  0.00     0.163 HD
ATOM     30  O   UNL A   1      42.147  18.715  26.180  1.00  0.00    -0.269 OA
BRANCH  28  31
ATOM     31  C   UNL A   1      42.247  21.046  26.469  1.00  0.00     0.039 A 
ATOM     32  C   UNL A   1      42.436  21.909  25.389  1.00  0.00     0.014 A 
ATOM     33  C   UNL A   1      42.649  21.415  27.755  1.00  0.00     0.014 A 
ATOM     34  C   UNL A   1      42.966  23.180  25.614  1.00  0.00     0.010 A 
ATOM     35  C   UNL A   1      43.102  22.707  27.987  1.00  0.00     0.010 A 
ATOM     36  C   UNL A   1      43.266  23.603  26.920  1.00  0.00    -0.014 A 
BRANCH  36  37
ATOM     37  C   UNL A   1      43.751  24.979  27.188  1.00  0.00     0.031 A 
ATOM     38  C   UNL A   1      45.190  25.333  26.925  1.00  0.00     0.074 A 
ATOM     39  C   UNL A   1      42.915  25.889  27.724  1.00  0.00     0.049 A 
ATOM     40  N   UNL A   1      45.808  26.467  27.128  1.00  0.00    -0.248 NA
ATOM     41  C   UNL A   1      46.053  24.264  26.395  1.00  0.00     0.031 C 
ATOM     42  C   UNL A   1      41.513  25.651  28.079  1.00  0.00     0.029 A 
ATOM     43  N   UNL A   1      43.123  27.201  28.067  1.00  0.00    -0.354 N 
ATOM     44  C   UNL A   1      47.132  26.244  26.767  1.00  0.00     0.074 A 
ATOM     45  C   UNL A   1      47.239  24.853  26.387  1.00  0.00     0.031 C 
ATOM     46  C   UNL A   1      40.979  26.786  28.557  1.00  0.00     0.029 A 
ATOM     47  C   UNL A   1      42.006  27.824  28.572  1.00  0.00     0.049 A 
ATOM     48  H   UNL A   1      43.990  27.655  27.961  1.00  0.00     0.167 HD
ATOM     49  C   UNL A   1      48.162  27.124  26.731  1.00  0.00     0.031 A 
ATOM     50  C   UNL A   1      41.826  29.090  28.994  1.00  0.00     0.031 A 
ATOM     51  C   UNL A   1      48.046  28.512  27.088  1.00  0.00     0.049 A 
ATOM     52  C   UNL A   1      42.977  30.056  28.921  1.00  0.00     0.074 A 
ATOM     53  C   UNL A   1      49.013  29.499  27.029  1.00  0.00     0.029 A 
ATOM     54  N   UNL A   1      46.891  29.109  27.569  1.00  0.00    -0.354 N 
ATOM     55  N   UNL A   1      44.205  29.843  28.511  1.00  0.00    -0.248 NA
ATOM     56  C   UNL A   1      42.714  31.435  29.353  1.00  0.00     0.031 C 
ATOM     57  C   UNL A   1      48.453  30.687  27.511  1.00  0.00     0.029 A 
ATOM     58  C   UNL A   1      47.124  30.450  27.823  1.00  0.00     0.049 A 
ATOM     59  H   UNL A   1      46.032  28.649  27.708  1.00  0.00     0.167 HD
ATOM     60  C   UNL A   1      44.853  31.069  28.610  1.00  0.00     0.074 A 
ATOM     61  C   UNL A   1      43.878  32.019  29.103  1.00  0.00     0.031 C 
ATOM     62  C   UNL A   1      46.140  31.380  28.316  1.00  0.00     0.031 A 
BRANCH  49  63
ATOM     63  C   UNL A   1      49.500  26.602  26.282  1.00  0.00    -0.014 A 
ATOM     64  C   UNL A   1      50.275  25.779  27.121  1.00  0.00     0.010 A 
ATOM     65  C   UNL A   1      49.984  26.919  25.000  1.00  0.00     0.010 A 
ATOM     66  C   UNL A   1      51.528  25.324  26.706  1.00  0.00     0.020 A 
ATOM     67  C   UNL A   1      51.226  26.442  24.570  1.00  0.00     0.020 A 
ATOM     68  C   UNL A   1      51.998  25.663  25.434  1.00  0.00     0.054 A 
BRANCH  68  69
ATOM     69  S   UNL A   1      53.623  25.048  24.915  1.00  0.00     0.124 S 
ATOM     70  O   UNL A   1      53.537  23.635  25.273  1.00  0.00    -0.237 OA
ATOM     71  O   UNL A   1      53.633  25.333  23.482  1.00  0.00    -0.237 OA
ATOM     72  O   UNL A   1      54.562  25.837  25.710  1.00  0.00    -0.744 OA
ENDBRANCH  68  69
ENDBRANCH  49  63
BRANCH  50  73
ATOM     73  C   UNL A   1      40.492  29.528  29.489  1.00  0.00    -0.014 A 
ATOM     74  C   UNL A   1      40.208  29.520  30.866  1.00  0.00     0.010 A 
ATOM     75  C   UNL A   1      39.506  29.971  28.588  1.00  0.00     0.010 A 
ATOM     76  C   UNL A   1      38.954  29.929  31.333  1.00  0.00     0.020 A 
ATOM     77  C   UNL A   1      38.261  30.404  29.054  1.00  0.00     0.020 A 
ATOM     78  C   UNL A   1      37.989  30.369  30.424  1.00  0.00     0.054 A 
BRANCH  78  79
ATOM     79  S   UNL A   1      36.388  30.945  31.055  1.00  0.00     0.124 S 
ATOM     80  O   UNL A   1      35.556  30.902  29.857  1.00  0.00    -0.237 OA
ATOM     81  O   UNL A   1      36.077  29.952  32.080  1.00  0.00    -0.237 OA
ATOM     82  O   UNL A   1      36.685  32.282  31.565  1.00  0.00    -0.744 OA
ENDBRANCH  78  79
ENDBRANCH  50  73
BRANCH  62  83
ATOM     83  C   UNL A   1      46.559  32.815  28.491  1.00  0.00    -0.014 A 
ATOM     84  C   UNL A   1      47.126  33.266  29.694  1.00  0.00     0.010 A 
ATOM     85  C   UNL A   1      46.423  33.712  27.416  1.00  0.00     0.010 A 
ATOM     86  C   UNL A   1      47.518  34.600  29.832  1.00  0.00     0.020 A 
ATOM     87  C   UNL A   1      46.838  35.039  27.541  1.00  0.00     0.020 A 
ATOM     88  C   UNL A   1      47.369  35.479  28.755  1.00  0.00     0.054 A 
BRANCH  88  89
ATOM     89  S   UNL A   1      47.917  37.197  28.944  1.00  0.00     0.124 S 
ATOM     90  O   UNL A   1      49.367  37.045  29.031  1.00  0.00    -0.237 OA
ATOM     91  O   UNL A   1      47.423  37.828  27.722  1.00  0.00    -0.237 OA
ATOM     92  O   UNL A   1      47.261  37.637  30.173  1.00  0.00    -0.744 OA
ENDBRANCH  88  89
ENDBRANCH  62  83
ENDBRANCH  36  37
ENDBRANCH  28  31
ENDBRANCH  26  27
ENDBRANCH   1  26
TORSDOF 18
ENDMDL
MODEL 3
REMARK VINA RESULT:     -10.6      6.260     10.516
REMARK SMILES CC(C)[NH2+][C@@]1(C(=O)NCCCCNC(=O)c2ccc(-c3c4nc(c(-c5ccc(S(=O)(=O)[O-])cc5)c5ccc([nH]5)c(-c5ccc(S(=O)(=O)[O-])cc5)c5nc(c(-c6ccc(S(=O)(=O)[O-])cc6)c6ccc3[nH]6)C=C5)C=C4)cc2)CC[C@@H](Sc2ccncc2)C1
REMARK SMILES IDX 11 1 10 2 9 3 8 4 6 5 7 6 5 8 76 9 86 10 77 11 78 12 4 13
REMARK SMILES IDX 2 16 1 17 3 18 79 19 80 20 81 21 85 22 82 23 84 24 83 25
REMARK SMILES IDX 12 26 13 27 14 28 15 30 16 31 17 32 75 33 18 34 74 35 19 36
REMARK SMILES IDX 20 37 21 38 68 39 22 40 73 41 67 42 69 43 23 44 72 45 66 46
REMARK SMILES IDX 65 47 24 49 54 50 35 51 53 52 36 53 39 54 52 55 70 56 37 57
REMARK SMILES IDX 38 58 51 60 71 61 40 62 25 63 26 64 34 65 27 66 33 67 28 68
REMARK SMILES IDX 29 69 30 70 31 71 32 72 55 73 56 74 64 75 57 76 63 77 58 78
REMARK SMILES IDX 59 79 60 80 61 81 62 82 41 83 42 84 50 85 43 86 49 87 44 88
REMARK SMILES IDX 45 89 46 90 47 91 48 92
REMARK H PARENT 8 7 4 14 4 15 13 29 69 48 39 59
REMARK Flexibility Score: inf
ROOT
ATOM      1  C   UNL A   1      38.403  19.904  24.837  1.00  0.00     0.023 C 
ENDROOT
BRANCH   1   2
ATOM      2  C   UNL A   1      36.980  20.429  25.021  1.00  0.00     0.023 C 
BRANCH   2   3
ATOM      3  C   UNL A   1      36.892  21.813  25.663  1.00  0.00     0.116 C 
BRANCH   3   4
ATOM      4  N   UNL A   1      35.856  21.869  26.666  1.00  0.00    -0.351 N 
ATOM      5  C   UNL A   1      34.628  22.450  26.712  1.00  0.00     0.281 C 
ATOM      6  O   UNL A   1      34.089  22.390  27.827  1.00  0.00    -0.268 OA
ATOM      7  H   UNL A   1      36.088  21.385  27.491  1.00  0.00     0.163 HD
BRANCH   5   8
ATOM      8  C   UNL A   1      33.948  23.204  25.497  1.00  0.00     0.176 C 
ATOM      9  C   UNL A   1      34.623  24.494  25.008  1.00  0.00     0.080 C 
ATOM     10  C   UNL A   1      32.514  23.617  25.905  1.00  0.00     0.094 C 
ATOM     11  C   UNL A   1      33.721  25.683  25.337  1.00  0.00     0.022 C 
ATOM     12  C   UNL A   1      32.514  25.133  26.084  1.00  0.00     0.058 C 
BRANCH   8  13
ATOM     13  N   UNL A   1      33.794  22.256  24.350  1.00  0.00    -0.332 N 
ATOM     14  H   UNL A   1      33.927  22.793  23.493  1.00  0.00     0.347 HD
ATOM     15  H   UNL A   1      34.484  21.526  24.527  1.00  0.00     0.347 HD
BRANCH  13  16
ATOM     16  C   UNL A   1      32.519  21.534  24.218  1.00  0.00     0.176 C 
ATOM     17  C   UNL A   1      32.150  21.564  22.731  1.00  0.00     0.075 C 
ATOM     18  C   UNL A   1      32.602  20.075  24.677  1.00  0.00     0.075 C 
ENDBRANCH  13  16
ENDBRANCH   8  13
BRANCH  12  19
ATOM     19  S   UNL A   1      30.905  25.940  25.698  1.00  0.00    -0.122 SA
BRANCH  19  20
ATOM     20  C   UNL A   1      31.294  27.669  25.889  1.00  0.00     0.011 A 
ATOM     21  C   UNL A   1      31.257  28.542  24.807  1.00  0.00     0.035 A 
ATOM     22  C   UNL A   1      31.635  28.161  27.148  1.00  0.00     0.035 A 
ATOM     23  C   UNL A   1      31.619  29.861  25.018  1.00  0.00     0.112 A 
ATOM     24  C   UNL A   1      31.983  29.496  27.257  1.00  0.00     0.112 A 
ATOM     25  N   UNL A   1      31.992  30.355  26.217  1.00  0.00    -0.265 NA
ENDBRANCH  19  20
ENDBRANCH  12  19
ENDBRANCH   5   8
ENDBRANCH   3   4
ENDBRANCH   2   3
ENDBRANCH   1   2
BRANCH   1  26
ATOM     26  C   UNL A   1      39.383  20.295  25.939  1.00  0.00     0.116 C 
BRANCH  26  27
ATOM     27  N   UNL A   1      40.493  19.368  26.102  1.00  0.00    -0.352 N 
ATOM     28  C   UNL A   1      41.804  19.666  26.407  1.00  0.00     0.251 C 
ATOM     29  H   UNL A   1      40.283  18.415  25.980  1.00  0.00     0.163 HD
ATOM     30  O   UNL A   1      42.651  18.788  26.436  1.00  0.00    -0.269 OA
BRANCH  28  31
ATOM     31  C   UNL A   1      42.165  21.078  26.647  1.00  0.00     0.039 A 
ATOM     32  C   UNL A   1      42.430  21.493  27.953  1.00  0.00     0.014 A 
ATOM     33  C   UNL A   1      42.318  21.960  25.575  1.00  0.00     0.014 A 
ATOM     34  C   UNL A   1      42.921  22.780  28.176  1.00  0.00     0.010 A 
ATOM     35  C   UNL A   1      42.881  23.212  25.791  1.00  0.00     0.010 A 
ATOM     36  C   UNL A   1      43.188  23.634  27.093  1.00  0.00    -0.014 A 
BRANCH  36  37
ATOM     37  C   UNL A   1      43.788  24.975  27.304  1.00  0.00     0.031 A 
ATOM     38  C   UNL A   1      42.939  26.105  27.820  1.00  0.00     0.074 A 
ATOM     39  C   UNL A   1      45.077  25.189  26.974  1.00  0.00     0.049 A 
ATOM     40  N   UNL A   1      43.272  27.352  28.035  1.00  0.00    -0.248 NA
ATOM     41  C   UNL A   1      41.526  25.804  28.099  1.00  0.00     0.031 C 
ATOM     42  C   UNL A   1      45.987  24.188  26.410  1.00  0.00     0.029 A 
ATOM     43  N   UNL A   1      45.846  26.321  27.064  1.00  0.00    -0.354 N 
ATOM     44  C   UNL A   1      42.109  27.985  28.458  1.00  0.00     0.074 A 
ATOM     45  C   UNL A   1      41.051  27.000  28.415  1.00  0.00     0.031 C 
ATOM     46  C   UNL A   1      47.198  24.741  26.237  1.00  0.00     0.029 A 
ATOM     47  C   UNL A   1      47.144  26.142  26.647  1.00  0.00     0.049 A 
ATOM     48  H   UNL A   1      45.502  27.181  27.397  1.00  0.00     0.167 HD
ATOM     49  C   UNL A   1      41.940  29.264  28.870  1.00  0.00     0.031 A 
ATOM     50  C   UNL A   1      48.177  27.005  26.604  1.00  0.00     0.031 A 
ATOM     51  C   UNL A   1      42.999  30.234  28.932  1.00  0.00     0.049 A 
ATOM     52  C   UNL A   1      47.973  28.414  27.090  1.00  0.00     0.074 A 
ATOM     53  C   UNL A   1      42.945  31.538  29.391  1.00  0.00     0.029 A 
ATOM     54  N   UNL A   1      44.305  30.005  28.526  1.00  0.00    -0.354 N 
ATOM     55  N   UNL A   1      46.880  28.974  27.552  1.00  0.00    -0.248 NA
ATOM     56  C   UNL A   1      49.143  29.300  27.064  1.00  0.00     0.031 C 
ATOM     57  C   UNL A   1      44.212  32.111  29.226  1.00  0.00     0.029 A 
ATOM     58  C   UNL A   1      45.065  31.147  28.711  1.00  0.00     0.049 A 
ATOM     59  H   UNL A   1      44.642  29.156  28.161  1.00  0.00     0.167 HD
ATOM     60  C   UNL A   1      47.239  30.272  27.897  1.00  0.00     0.074 A 
ATOM     61  C   UNL A   1      48.651  30.408  27.604  1.00  0.00     0.031 C 
ATOM     62  C   UNL A   1      46.469  31.263  28.412  1.00  0.00     0.031 A 
BRANCH  49  63
ATOM     63  C   UNL A   1      40.555  29.678  29.289  1.00  0.00    -0.014 A 
ATOM     64  C   UNL A   1      40.251  29.926  30.641  1.00  0.00     0.010 A 
ATOM     65  C   UNL A   1      39.548  29.840  28.321  1.00  0.00     0.010 A 
ATOM     66  C   UNL A   1      38.956  30.282  31.022  1.00  0.00     0.020 A 
ATOM     67  C   UNL A   1      38.257  30.224  28.696  1.00  0.00     0.020 A 
ATOM     68  C   UNL A   1      37.965  30.423  30.046  1.00  0.00     0.054 A 
BRANCH  68  69
ATOM     69  S   UNL A   1      36.294  30.898  30.567  1.00  0.00     0.124 S 
ATOM     70  O   UNL A   1      35.976  29.855  31.539  1.00  0.00    -0.237 OA
ATOM     71  O   UNL A   1      36.497  32.233  31.123  1.00  0.00    -0.237 OA
ATOM     72  O   UNL A   1      35.519  30.853  29.329  1.00  0.00    -0.744 OA
ENDBRANCH  68  69
ENDBRANCH  49  63
BRANCH  50  73
ATOM     73  C   UNL A   1      49.508  26.551  26.117  1.00  0.00    -0.014 A 
ATOM     74  C   UNL A   1      49.954  26.908  24.833  1.00  0.00     0.010 A 
ATOM     75  C   UNL A   1      50.344  25.775  26.941  1.00  0.00     0.010 A 
ATOM     76  C   UNL A   1      51.203  26.481  24.372  1.00  0.00     0.020 A 
ATOM     77  C   UNL A   1      51.603  25.367  26.493  1.00  0.00     0.020 A 
ATOM     78  C   UNL A   1      52.021  25.713  25.205  1.00  0.00     0.054 A 
BRANCH  78  79
ATOM     79  S   UNL A   1      53.660  25.214  24.607  1.00  0.00     0.124 S 
ATOM     80  O   UNL A   1      53.637  23.772  24.828  1.00  0.00    -0.237 OA
ATOM     81  O   UNL A   1      53.631  25.643  23.211  1.00  0.00    -0.237 OA
ATOM     82  O   UNL A   1      54.577  25.965  25.462  1.00  0.00    -0.744 OA
ENDBRANCH  78  79
ENDBRANCH  50  73
BRANCH  62  83
ATOM     83  C   UNL A   1      47.146  32.571  28.721  1.00  0.00    -0.014 A 
ATOM     84  C   UNL A   1      47.248  33.584  27.754  1.00  0.00     0.010 A 
ATOM     85  C   UNL A   1      47.645  32.803  30.016  1.00  0.00     0.010 A 
ATOM     86  C   UNL A   1      47.871  34.795  28.065  1.00  0.00     0.020 A 
ATOM     87  C   UNL A   1      48.244  34.022  30.338  1.00  0.00     0.020 A 
ATOM     88  C   UNL A   1      48.367  35.006  29.355  1.00  0.00     0.054 A 
BRANCH  88  89
ATOM     89  S   UNL A   1      49.140  36.599  29.747  1.00  0.00     0.124 S 
ATOM     90  O   UNL A   1      50.275  36.191  30.570  1.00  0.00    -0.237 OA
ATOM     91  O   UNL A   1      49.478  37.126  28.427  1.00  0.00    -0.237 OA
ATOM     92  O   UNL A   1      48.088  37.330  30.452  1.00  0.00    -0.744 OA
ENDBRANCH  88  89
ENDBRANCH  62  83
ENDBRANCH  36  37
ENDBRANCH  28  31
ENDBRANCH  26  27
ENDBRANCH   1  26
TORSDOF 18
ENDMDL
