MODEL 1
REMARK VINA RESULT:     -12.0      0.000      0.000
REMARK SMILES CCS(=O)(=O)Nc1ccc(N2CC[NH+](C)CC2)cc1C(=O)NCCCCNC(=O)c1ccc(-c2c3nc(c(-c4ccc(S(=O)(=O)[O-])cc4)c4ccc([nH]4)c(-c4ccc(S(=O)(=O)[O-])cc4)c4nc(c(-c5ccc(S(=O)(=O)[O-])cc5)c5ccc2[nH]5)C=C4)C=C3)cc1
REMARK SMILES IDX 24 1 23 2 22 3 20 4 21 5 19 7 7 8 8 9 9 10 18 11 10 12 6 13
REMARK SMILES IDX 3 15 4 16 5 17 2 18 1 19 11 20 12 21 17 22 13 23 16 24 14 25
REMARK SMILES IDX 15 26 25 28 26 29 27 30 28 31 29 33 30 34 31 35 89 36 32 37
REMARK SMILES IDX 88 38 33 39 34 40 35 41 82 42 36 43 87 44 81 45 83 46 37 47
REMARK SMILES IDX 86 48 80 49 79 50 38 52 68 53 49 54 67 55 50 56 53 57 66 58
REMARK SMILES IDX 84 59 51 60 52 61 65 63 85 64 54 65 39 66 40 67 48 68 41 69
REMARK SMILES IDX 47 70 42 71 43 72 44 73 45 74 46 75 69 76 70 77 78 78 71 79
REMARK SMILES IDX 77 80 72 81 73 82 74 83 75 84 76 85 55 86 56 87 64 88 57 89
REMARK SMILES IDX 63 90 58 91 59 92 60 93 61 94 62 95
REMARK H PARENT 22 6 6 14 14 27 27 32 83 51 53 62
REMARK Flexibility Score: inf
ROOT
ATOM      1  C   UNL A   1      37.763  21.905  25.153  1.00  0.00     0.023 C 
ENDROOT
BRANCH   1   2
ATOM      2  C   UNL A   1      36.548  21.003  24.933  1.00  0.00     0.116 C 
BRANCH   2   3
ATOM      3  N   UNL A   1      35.566  21.060  26.002  1.00  0.00    -0.352 N 
ATOM      4  C   UNL A   1      34.211  21.286  25.972  1.00  0.00     0.253 C 
ATOM      5  O   UNL A   1      33.603  21.337  27.043  1.00  0.00    -0.269 OA
ATOM      6  H   UNL A   1      35.934  20.909  26.903  1.00  0.00     0.163 HD
BRANCH   4   7
ATOM      7  C   UNL A   1      33.442  21.529  24.718  1.00  0.00     0.066 A 
ATOM      8  C   UNL A   1      32.700  20.577  24.018  1.00  0.00     0.061 A 
ATOM      9  C   UNL A   1      32.189  20.917  22.762  1.00  0.00     0.030 A 
ATOM     10  C   UNL A   1      32.197  22.236  22.320  1.00  0.00     0.028 A 
ATOM     11  C   UNL A   1      33.375  22.882  24.280  1.00  0.00     0.042 A 
ATOM     12  C   UNL A   1      32.675  23.272  23.125  1.00  0.00     0.038 A 
BRANCH   8  13
ATOM     13  N   UNL A   1      32.334  19.273  24.461  1.00  0.00    -0.283 N 
ATOM     14  H   UNL A   1      31.489  19.173  24.957  1.00  0.00     0.180 HD
BRANCH  13  15
ATOM     15  S   UNL A   1      33.252  17.899  24.189  1.00  0.00     0.232 S 
ATOM     16  O   UNL A   1      34.635  18.191  24.469  1.00  0.00    -0.207 OA
ATOM     17  O   UNL A   1      32.856  17.520  22.843  1.00  0.00    -0.207 OA
BRANCH  15  18
ATOM     18  C   UNL A   1      32.706  16.586  25.280  1.00  0.00     0.156 C 
ATOM     19  C   UNL A   1      33.573  15.342  25.262  1.00  0.00     0.023 C 
ENDBRANCH  15  18
ENDBRANCH  13  15
ENDBRANCH   8  13
BRANCH  12  20
ATOM     20  N   UNL A   1      32.377  24.587  22.829  1.00  0.00    -0.360 N 
ATOM     21  C   UNL A   1      32.906  25.309  21.663  1.00  0.00     0.178 C 
ATOM     22  C   UNL A   1      31.309  25.299  23.559  1.00  0.00     0.178 C 
ATOM     23  C   UNL A   1      33.265  26.772  22.034  1.00  0.00     0.283 C 
ATOM     24  C   UNL A   1      31.726  26.751  23.881  1.00  0.00     0.283 C 
ATOM     25  N   UNL A   1      32.149  27.502  22.682  1.00  0.00    -0.334 N 
ATOM     26  C   UNL A   1      32.560  28.855  23.054  1.00  0.00     0.332 C 
ATOM     27  H   UNL A   1      31.371  27.582  22.027  1.00  0.00     0.347 HD
ENDBRANCH  12  20
ENDBRANCH   4   7
ENDBRANCH   2   3
ENDBRANCH   1   2
BRANCH   1  28
ATOM     28  C   UNL A   1      37.469  23.385  25.429  1.00  0.00     0.023 C 
BRANCH  28  29
ATOM     29  C   UNL A   1      38.376  24.111  26.421  1.00  0.00     0.116 C 
BRANCH  29  30
ATOM     30  N   UNL A   1      39.799  23.980  26.149  1.00  0.00    -0.352 N 
ATOM     31  C   UNL A   1      40.858  24.716  26.631  1.00  0.00     0.251 C 
ATOM     32  H   UNL A   1      40.042  23.258  25.526  1.00  0.00     0.163 HD
ATOM     33  O   UNL A   1      42.000  24.472  26.250  1.00  0.00    -0.269 OA
BRANCH  31  34
ATOM     34  C   UNL A   1      40.617  25.839  27.565  1.00  0.00     0.039 A 
ATOM     35  C   UNL A   1      39.653  25.678  28.564  1.00  0.00     0.014 A 
ATOM     36  C   UNL A   1      41.352  27.024  27.486  1.00  0.00     0.014 A 
ATOM     37  C   UNL A   1      39.494  26.666  29.539  1.00  0.00     0.010 A 
ATOM     38  C   UNL A   1      41.242  27.976  28.502  1.00  0.00     0.010 A 
ATOM     39  C   UNL A   1      40.322  27.801  29.548  1.00  0.00    -0.014 A 
BRANCH  39  40
ATOM     40  C   UNL A   1      40.257  28.785  30.665  1.00  0.00     0.031 A 
ATOM     41  C   UNL A   1      41.159  28.649  31.862  1.00  0.00     0.074 A 
ATOM     42  C   UNL A   1      39.350  29.783  30.623  1.00  0.00     0.049 A 
ATOM     43  N   UNL A   1      41.229  29.401  32.932  1.00  0.00    -0.248 NA
ATOM     44  C   UNL A   1      42.092  27.511  31.869  1.00  0.00     0.031 C 
ATOM     45  C   UNL A   1      38.388  30.007  29.540  1.00  0.00     0.029 A 
ATOM     46  N   UNL A   1      39.083  30.796  31.512  1.00  0.00    -0.354 N 
ATOM     47  C   UNL A   1      42.203  28.824  33.740  1.00  0.00     0.074 A 
ATOM     48  C   UNL A   1      42.660  27.632  33.061  1.00  0.00     0.031 C 
ATOM     49  C   UNL A   1      37.664  31.104  29.813  1.00  0.00     0.029 A 
ATOM     50  C   UNL A   1      38.071  31.637  31.109  1.00  0.00     0.049 A 
ATOM     51  H   UNL A   1      39.571  30.908  32.360  1.00  0.00     0.167 HD
ATOM     52  C   UNL A   1      42.686  29.258  34.930  1.00  0.00     0.031 A 
ATOM     53  C   UNL A   1      37.525  32.712  31.713  1.00  0.00     0.031 A 
ATOM     54  C   UNL A   1      42.228  30.443  35.606  1.00  0.00     0.049 A 
ATOM     55  C   UNL A   1      38.059  33.154  33.049  1.00  0.00     0.074 A 
ATOM     56  C   UNL A   1      42.692  30.989  36.791  1.00  0.00     0.029 A 
ATOM     57  N   UNL A   1      41.197  31.260  35.168  1.00  0.00    -0.354 N 
ATOM     58  N   UNL A   1      39.030  32.637  33.761  1.00  0.00    -0.248 NA
ATOM     59  C   UNL A   1      37.429  34.335  33.658  1.00  0.00     0.031 C 
ATOM     60  C   UNL A   1      41.899  32.098  37.103  1.00  0.00     0.029 A 
ATOM     61  C   UNL A   1      40.989  32.289  36.074  1.00  0.00     0.049 A 
ATOM     62  H   UNL A   1      40.687  31.130  34.336  1.00  0.00     0.167 HD
ATOM     63  C   UNL A   1      39.149  33.446  34.886  1.00  0.00     0.074 A 
ATOM     64  C   UNL A   1      38.161  34.497  34.751  1.00  0.00     0.031 C 
ATOM     65  C   UNL A   1      40.002  33.331  35.933  1.00  0.00     0.031 A 
BRANCH  52  66
ATOM     66  C   UNL A   1      43.765  28.434  35.586  1.00  0.00    -0.014 A 
ATOM     67  C   UNL A   1      43.447  27.402  36.487  1.00  0.00     0.010 A 
ATOM     68  C   UNL A   1      45.115  28.661  35.260  1.00  0.00     0.010 A 
ATOM     69  C   UNL A   1      44.458  26.641  37.081  1.00  0.00     0.020 A 
ATOM     70  C   UNL A   1      46.128  27.882  35.827  1.00  0.00     0.020 A 
ATOM     71  C   UNL A   1      45.794  26.888  36.748  1.00  0.00     0.054 A 
BRANCH  71  72
ATOM     72  S   UNL A   1      47.083  25.869  37.517  1.00  0.00     0.124 S 
ATOM     73  O   UNL A   1      46.449  24.553  37.549  1.00  0.00    -0.237 OA
ATOM     74  O   UNL A   1      48.197  26.006  36.582  1.00  0.00    -0.237 OA
ATOM     75  O   UNL A   1      47.289  26.492  38.822  1.00  0.00    -0.744 OA
ENDBRANCH  71  72
ENDBRANCH  52  66
BRANCH  53  76
ATOM     76  C   UNL A   1      36.410  33.451  31.055  1.00  0.00    -0.014 A 
ATOM     77  C   UNL A   1      36.500  33.831  29.704  1.00  0.00     0.010 A 
ATOM     78  C   UNL A   1      35.248  33.778  31.778  1.00  0.00     0.010 A 
ATOM     79  C   UNL A   1      35.459  34.542  29.096  1.00  0.00     0.020 A 
ATOM     80  C   UNL A   1      34.193  34.459  31.165  1.00  0.00     0.020 A 
ATOM     81  C   UNL A   1      34.309  34.846  29.830  1.00  0.00     0.054 A 
BRANCH  81  82
ATOM     82  S   UNL A   1      32.953  35.726  29.005  1.00  0.00     0.124 S 
ATOM     83  O   UNL A   1      32.408  34.695  28.129  1.00  0.00    -0.237 OA
ATOM     84  O   UNL A   1      32.105  36.117  30.128  1.00  0.00    -0.237 OA
ATOM     85  O   UNL A   1      33.626  36.833  28.327  1.00  0.00    -0.744 OA
ENDBRANCH  81  82
ENDBRANCH  53  76
BRANCH  65  86
ATOM     86  C   UNL A   1      39.938  34.388  37.007  1.00  0.00    -0.014 A 
ATOM     87  C   UNL A   1      40.649  35.596  36.893  1.00  0.00     0.010 A 
ATOM     88  C   UNL A   1      39.104  34.189  38.123  1.00  0.00     0.010 A 
ATOM     89  C   UNL A   1      40.553  36.570  37.892  1.00  0.00     0.020 A 
ATOM     90  C   UNL A   1      38.980  35.174  39.107  1.00  0.00     0.020 A 
ATOM     91  C   UNL A   1      39.717  36.354  38.991  1.00  0.00     0.054 A 
BRANCH  91  92
ATOM     92  S   UNL A   1      39.577  37.652  40.249  1.00  0.00     0.124 S 
ATOM     93  O   UNL A   1      39.036  36.916  41.389  1.00  0.00    -0.237 OA
ATOM     94  O   UNL A   1      40.957  38.107  40.393  1.00  0.00    -0.237 OA
ATOM     95  O   UNL A   1      38.667  38.624  39.647  1.00  0.00    -0.744 OA
ENDBRANCH  91  92
ENDBRANCH  65  86
ENDBRANCH  39  40
ENDBRANCH  31  34
ENDBRANCH  29  30
ENDBRANCH  28  29
ENDBRANCH   1  28
TORSDOF 18
ENDMDL
MODEL 2
REMARK VINA RESULT:     -12.0      4.802     10.336
REMARK SMILES CCS(=O)(=O)Nc1ccc(N2CC[NH+](C)CC2)cc1C(=O)NCCCCNC(=O)c1ccc(-c2c3nc(c(-c4ccc(S(=O)(=O)[O-])cc4)c4ccc([nH]4)c(-c4ccc(S(=O)(=O)[O-])cc4)c4nc(c(-c5ccc(S(=O)(=O)[O-])cc5)c5ccc2[nH]5)C=C4)C=C3)cc1
REMARK SMILES IDX 24 1 23 2 22 3 20 4 21 5 19 7 7 8 8 9 9 10 18 11 10 12 6 13
REMARK SMILES IDX 3 15 4 16 5 17 2 18 1 19 11 20 12 21 17 22 13 23 16 24 14 25
REMARK SMILES IDX 15 26 25 28 26 29 27 30 28 31 29 33 30 34 31 35 89 36 32 37
REMARK SMILES IDX 88 38 33 39 34 40 35 41 82 42 36 43 87 44 81 45 83 46 37 47
REMARK SMILES IDX 86 48 80 49 79 50 38 52 68 53 49 54 67 55 50 56 53 57 66 58
REMARK SMILES IDX 84 59 51 60 52 61 65 63 85 64 54 65 39 66 40 67 48 68 41 69
REMARK SMILES IDX 47 70 42 71 43 72 44 73 45 74 46 75 69 76 70 77 78 78 71 79
REMARK SMILES IDX 77 80 72 81 73 82 74 83 75 84 76 85 55 86 56 87 64 88 57 89
REMARK SMILES IDX 63 90 58 91 59 92 60 93 61 94 62 95
REMARK H PARENT 22 6 6 14 14 27 27 32 83 51 53 62
REMARK Flexibility Score: inf
ROOT
ATOM      1  C   UNL A   1      33.948  28.322  24.459  1.00  0.00     0.023 C 
ENDROOT
BRANCH   1   2
ATOM      2  C   UNL A   1      33.395  28.093  23.052  1.00  0.00     0.116 C 
BRANCH   2   3
ATOM      3  N   UNL A   1      33.281  26.693  22.681  1.00  0.00    -0.352 N 
ATOM      4  C   UNL A   1      32.201  25.843  22.687  1.00  0.00     0.253 C 
ATOM      5  O   UNL A   1      32.382  24.666  22.369  1.00  0.00    -0.269 OA
ATOM      6  H   UNL A   1      34.121  26.283  22.371  1.00  0.00     0.163 HD
BRANCH   4   7
ATOM      7  C   UNL A   1      30.831  26.252  23.108  1.00  0.00     0.066 A 
ATOM      8  C   UNL A   1      30.034  25.595  24.046  1.00  0.00     0.061 A 
ATOM      9  C   UNL A   1      28.703  25.997  24.195  1.00  0.00     0.030 A 
ATOM     10  C   UNL A   1      28.243  27.175  23.616  1.00  0.00     0.028 A 
ATOM     11  C   UNL A   1      30.361  27.490  22.585  1.00  0.00     0.042 A 
ATOM     12  C   UNL A   1      29.097  28.018  22.902  1.00  0.00     0.038 A 
BRANCH   8  13
ATOM     13  N   UNL A   1      30.435  24.565  24.947  1.00  0.00    -0.283 N 
ATOM     14  H   UNL A   1      30.212  23.634  24.714  1.00  0.00     0.180 HD
BRANCH  13  15
ATOM     15  S   UNL A   1      31.263  24.839  26.375  1.00  0.00     0.232 S 
ATOM     16  O   UNL A   1      30.971  23.776  27.304  1.00  0.00    -0.207 OA
ATOM     17  O   UNL A   1      30.880  26.202  26.703  1.00  0.00    -0.207 OA
BRANCH  15  18
ATOM     18  C   UNL A   1      33.027  24.858  26.054  1.00  0.00     0.156 C 
ATOM     19  C   UNL A   1      33.773  23.629  26.531  1.00  0.00     0.023 C 
ENDBRANCH  15  18
ENDBRANCH  13  15
ENDBRANCH   8  13
BRANCH  12  20
ATOM     20  N   UNL A   1      28.730  29.319  22.624  1.00  0.00    -0.360 N 
ATOM     21  C   UNL A   1      29.323  30.130  21.551  1.00  0.00     0.178 C 
ATOM     22  C   UNL A   1      27.537  29.916  23.257  1.00  0.00     0.178 C 
ATOM     23  C   UNL A   1      29.523  31.599  22.014  1.00  0.00     0.283 C 
ATOM     24  C   UNL A   1      27.800  31.378  23.676  1.00  0.00     0.283 C 
ATOM     25  N   UNL A   1      28.289  32.213  22.561  1.00  0.00    -0.334 N 
ATOM     26  C   UNL A   1      28.549  33.575  23.026  1.00  0.00     0.332 C 
ATOM     27  H   UNL A   1      27.583  32.264  21.827  1.00  0.00     0.347 HD
ENDBRANCH  12  20
ENDBRANCH   4   7
ENDBRANCH   2   3
ENDBRANCH   1   2
BRANCH   1  28
ATOM     28  C   UNL A   1      32.915  28.400  25.590  1.00  0.00     0.023 C 
BRANCH  28  29
ATOM     29  C   UNL A   1      33.441  28.584  27.013  1.00  0.00     0.116 C 
BRANCH  29  30
ATOM     30  N   UNL A   1      33.406  29.955  27.499  1.00  0.00    -0.352 N 
ATOM     31  C   UNL A   1      34.394  30.699  28.103  1.00  0.00     0.251 C 
ATOM     32  H   UNL A   1      32.547  30.421  27.378  1.00  0.00     0.163 HD
ATOM     33  O   UNL A   1      34.159  31.844  28.480  1.00  0.00    -0.269 OA
BRANCH  31  34
ATOM     34  C   UNL A   1      35.726  30.101  28.351  1.00  0.00     0.039 A 
ATOM     35  C   UNL A   1      36.673  30.137  27.324  1.00  0.00     0.014 A 
ATOM     36  C   UNL A   1      36.056  29.543  29.588  1.00  0.00     0.014 A 
ATOM     37  C   UNL A   1      37.977  29.700  27.568  1.00  0.00     0.010 A 
ATOM     38  C   UNL A   1      37.377  29.174  29.851  1.00  0.00     0.010 A 
ATOM     39  C   UNL A   1      38.357  29.262  28.849  1.00  0.00    -0.014 A 
BRANCH  39  40
ATOM     40  C   UNL A   1      39.777  28.934  29.154  1.00  0.00     0.031 A 
ATOM     41  C   UNL A   1      40.681  29.954  29.794  1.00  0.00     0.074 A 
ATOM     42  C   UNL A   1      40.270  27.725  28.813  1.00  0.00     0.049 A 
ATOM     43  N   UNL A   1      41.946  29.847  30.116  1.00  0.00    -0.248 NA
ATOM     44  C   UNL A   1      40.095  31.269  30.097  1.00  0.00     0.031 C 
ATOM     45  C   UNL A   1      39.514  26.658  28.151  1.00  0.00     0.029 A 
ATOM     46  N   UNL A   1      41.524  27.187  28.971  1.00  0.00    -0.354 N 
ATOM     47  C   UNL A   1      42.308  31.080  30.648  1.00  0.00     0.074 A 
ATOM     48  C   UNL A   1      41.144  31.934  30.559  1.00  0.00     0.031 C 
ATOM     49  C   UNL A   1      40.308  25.588  27.992  1.00  0.00     0.029 A 
ATOM     50  C   UNL A   1      41.642  25.901  28.494  1.00  0.00     0.049 A 
ATOM     51  H   UNL A   1      42.271  27.677  29.387  1.00  0.00     0.167 HD
ATOM     52  C   UNL A   1      43.495  31.461  31.180  1.00  0.00     0.031 A 
ATOM     53  C   UNL A   1      42.701  25.068  28.456  1.00  0.00     0.031 A 
ATOM     54  C   UNL A   1      44.654  30.610  31.265  1.00  0.00     0.049 A 
ATOM     55  C   UNL A   1      44.018  25.526  29.025  1.00  0.00     0.074 A 
ATOM     56  C   UNL A   1      45.886  30.892  31.832  1.00  0.00     0.029 A 
ATOM     57  N   UNL A   1      44.732  29.320  30.763  1.00  0.00    -0.354 N 
ATOM     58  N   UNL A   1      44.317  26.670  29.591  1.00  0.00    -0.248 NA
ATOM     59  C   UNL A   1      45.136  24.574  28.962  1.00  0.00     0.031 C 
ATOM     60  C   UNL A   1      46.728  29.798  31.614  1.00  0.00     0.029 A 
ATOM     61  C   UNL A   1      46.000  28.803  30.979  1.00  0.00     0.049 A 
ATOM     62  H   UNL A   1      43.996  28.841  30.319  1.00  0.00     0.167 HD
ATOM     63  C   UNL A   1      45.649  26.565  29.978  1.00  0.00     0.074 A 
ATOM     64  C   UNL A   1      46.091  25.239  29.597  1.00  0.00     0.031 C 
ATOM     65  C   UNL A   1      46.433  27.482  30.596  1.00  0.00     0.031 A 
BRANCH  52  66
ATOM     66  C   UNL A   1      43.605  32.870  31.704  1.00  0.00    -0.014 A 
ATOM     67  C   UNL A   1      43.304  33.175  33.044  1.00  0.00     0.010 A 
ATOM     68  C   UNL A   1      44.063  33.897  30.859  1.00  0.00     0.010 A 
ATOM     69  C   UNL A   1      43.418  34.486  33.517  1.00  0.00     0.020 A 
ATOM     70  C   UNL A   1      44.209  35.204  31.335  1.00  0.00     0.020 A 
ATOM     71  C   UNL A   1      43.869  35.492  32.659  1.00  0.00     0.054 A 
BRANCH  71  72
ATOM     72  S   UNL A   1      44.030  37.179  33.307  1.00  0.00     0.124 S 
ATOM     73  O   UNL A   1      42.852  37.287  34.164  1.00  0.00    -0.237 OA
ATOM     74  O   UNL A   1      45.312  37.131  34.005  1.00  0.00    -0.237 OA
ATOM     75  O   UNL A   1      44.007  38.017  32.110  1.00  0.00    -0.744 OA
ENDBRANCH  71  72
ENDBRANCH  52  66
BRANCH  53  76
ATOM     76  C   UNL A   1      42.560  23.708  27.862  1.00  0.00    -0.014 A 
ATOM     77  C   UNL A   1      42.855  23.483  26.506  1.00  0.00     0.010 A 
ATOM     78  C   UNL A   1      42.129  22.627  28.653  1.00  0.00     0.010 A 
ATOM     79  C   UNL A   1      42.703  22.209  25.947  1.00  0.00     0.020 A 
ATOM     80  C   UNL A   1      42.007  21.346  28.107  1.00  0.00     0.020 A 
ATOM     81  C   UNL A   1      42.284  21.147  26.754  1.00  0.00     0.054 A 
BRANCH  81  82
ATOM     82  S   UNL A   1      42.140  19.495  26.018  1.00  0.00     0.124 S 
ATOM     83  O   UNL A   1      42.937  19.630  24.804  1.00  0.00    -0.237 OA
ATOM     84  O   UNL A   1      42.708  18.638  27.057  1.00  0.00    -0.237 OA
ATOM     85  O   UNL A   1      40.702  19.337  25.809  1.00  0.00    -0.744 OA
ENDBRANCH  81  82
ENDBRANCH  53  76
BRANCH  65  86
ATOM     86  C   UNL A   1      47.845  27.078  30.939  1.00  0.00    -0.014 A 
ATOM     87  C   UNL A   1      48.149  26.422  32.145  1.00  0.00     0.010 A 
ATOM     88  C   UNL A   1      48.875  27.309  30.009  1.00  0.00     0.010 A 
ATOM     89  C   UNL A   1      49.464  26.036  32.428  1.00  0.00     0.020 A 
ATOM     90  C   UNL A   1      50.184  26.896  30.273  1.00  0.00     0.020 A 
ATOM     91  C   UNL A   1      50.472  26.274  31.489  1.00  0.00     0.054 A 
BRANCH  91  92
ATOM     92  S   UNL A   1      52.159  25.723  31.863  1.00  0.00     0.124 S 
ATOM     93  O   UNL A   1      52.860  26.020  30.617  1.00  0.00    -0.237 OA
ATOM     94  O   UNL A   1      52.522  26.559  33.003  1.00  0.00    -0.237 OA
ATOM     95  O   UNL A   1      52.003  24.302  32.165  1.00  0.00    -0.744 OA
ENDBRANCH  91  92
ENDBRANCH  65  86
ENDBRANCH  39  40
ENDBRANCH  31  34
ENDBRANCH  29  30
ENDBRANCH  28  29
ENDBRANCH   1  28
TORSDOF 18
ENDMDL
MODEL 3
REMARK VINA RESULT:     -11.7      3.619      4.654
REMARK SMILES CCS(=O)(=O)Nc1ccc(N2CC[NH+](C)CC2)cc1C(=O)NCCCCNC(=O)c1ccc(-c2c3nc(c(-c4ccc(S(=O)(=O)[O-])cc4)c4ccc([nH]4)c(-c4ccc(S(=O)(=O)[O-])cc4)c4nc(c(-c5ccc(S(=O)(=O)[O-])cc5)c5ccc2[nH]5)C=C4)C=C3)cc1
REMARK SMILES IDX 24 1 23 2 22 3 20 4 21 5 19 7 7 8 8 9 9 10 18 11 10 12 6 13
REMARK SMILES IDX 3 15 4 16 5 17 2 18 1 19 11 20 12 21 17 22 13 23 16 24 14 25
REMARK SMILES IDX 15 26 25 28 26 29 27 30 28 31 29 33 30 34 31 35 89 36 32 37
REMARK SMILES IDX 88 38 33 39 34 40 35 41 82 42 36 43 87 44 81 45 83 46 37 47
REMARK SMILES IDX 86 48 80 49 79 50 38 52 68 53 49 54 67 55 50 56 53 57 66 58
REMARK SMILES IDX 84 59 51 60 52 61 65 63 85 64 54 65 39 66 40 67 48 68 41 69
REMARK SMILES IDX 47 70 42 71 43 72 44 73 45 74 46 75 69 76 70 77 78 78 71 79
REMARK SMILES IDX 77 80 72 81 73 82 74 83 75 84 76 85 55 86 56 87 64 88 57 89
REMARK SMILES IDX 63 90 58 91 59 92 60 93 61 94 62 95
REMARK H PARENT 22 6 6 14 14 27 27 32 83 51 53 62
REMARK Flexibility Score: inf
ROOT
ATOM      1  C   UNL A   1      35.000  23.220  23.525  1.00  0.00     0.023 C 
ENDROOT
BRANCH   1   2
ATOM      2  C   UNL A   1      33.863  24.242  23.549  1.00  0.00     0.116 C 
BRANCH   2   3
ATOM      3  N   UNL A   1      34.165  25.447  24.303  1.00  0.00    -0.352 N 
ATOM      4  C   UNL A   1      33.341  26.413  24.827  1.00  0.00     0.253 C 
ATOM      5  O   UNL A   1      33.859  27.380  25.390  1.00  0.00    -0.269 OA
ATOM      6  H   UNL A   1      35.125  25.595  24.468  1.00  0.00     0.163 HD
BRANCH   4   7
ATOM      7  C   UNL A   1      31.855  26.386  24.707  1.00  0.00     0.066 A 
ATOM      8  C   UNL A   1      30.986  25.628  25.492  1.00  0.00     0.061 A 
ATOM      9  C   UNL A   1      29.636  25.572  25.133  1.00  0.00     0.030 A 
ATOM     10  C   UNL A   1      29.113  26.436  24.177  1.00  0.00     0.028 A 
ATOM     11  C   UNL A   1      31.288  27.310  23.785  1.00  0.00     0.042 A 
ATOM     12  C   UNL A   1      29.903  27.416  23.571  1.00  0.00     0.038 A 
BRANCH   8  13
ATOM     13  N   UNL A   1      31.299  24.924  26.691  1.00  0.00    -0.283 N 
ATOM     14  H   UNL A   1      31.475  25.452  27.505  1.00  0.00     0.180 HD
BRANCH  13  15
ATOM     15  S   UNL A   1      31.386  23.256  26.803  1.00  0.00     0.232 S 
ATOM     16  O   UNL A   1      31.429  22.694  25.477  1.00  0.00    -0.207 OA
ATOM     17  O   UNL A   1      30.269  22.943  27.679  1.00  0.00    -0.207 OA
BRANCH  15  18
ATOM     18  C   UNL A   1      32.879  22.789  27.678  1.00  0.00     0.156 C 
ATOM     19  C   UNL A   1      33.489  21.474  27.236  1.00  0.00     0.023 C 
ENDBRANCH  15  18
ENDBRANCH  13  15
ENDBRANCH   8  13
BRANCH  12  20
ATOM     20  N   UNL A   1      29.320  28.466  22.891  1.00  0.00    -0.360 N 
ATOM     21  C   UNL A   1      29.993  29.239  21.837  1.00  0.00     0.178 C 
ATOM     22  C   UNL A   1      27.876  28.744  23.028  1.00  0.00     0.178 C 
ATOM     23  C   UNL A   1      29.650  30.748  21.951  1.00  0.00     0.283 C 
ATOM     24  C   UNL A   1      27.606  30.261  23.119  1.00  0.00     0.283 C 
ATOM     25  N   UNL A   1      28.192  31.015  21.993  1.00  0.00    -0.334 N 
ATOM     26  C   UNL A   1      27.930  32.444  22.151  1.00  0.00     0.332 C 
ATOM     27  H   UNL A   1      27.768  30.716  21.114  1.00  0.00     0.347 HD
ENDBRANCH  12  20
ENDBRANCH   4   7
ENDBRANCH   2   3
ENDBRANCH   1   2
BRANCH   1  28
ATOM     28  C   UNL A   1      35.736  22.991  24.851  1.00  0.00     0.023 C 
BRANCH  28  29
ATOM     29  C   UNL A   1      37.126  23.605  25.002  1.00  0.00     0.116 C 
BRANCH  29  30
ATOM     30  N   UNL A   1      38.149  22.681  25.469  1.00  0.00    -0.352 N 
ATOM     31  C   UNL A   1      39.214  22.902  26.313  1.00  0.00     0.251 C 
ATOM     32  H   UNL A   1      38.068  21.760  25.131  1.00  0.00     0.163 HD
ATOM     33  O   UNL A   1      39.998  21.991  26.565  1.00  0.00    -0.269 OA
BRANCH  31  34
ATOM     34  C   UNL A   1      39.447  24.251  26.876  1.00  0.00     0.039 A 
ATOM     35  C   UNL A   1      38.945  24.539  28.148  1.00  0.00     0.014 A 
ATOM     36  C   UNL A   1      40.181  25.215  26.179  1.00  0.00     0.014 A 
ATOM     37  C   UNL A   1      39.259  25.755  28.758  1.00  0.00     0.010 A 
ATOM     38  C   UNL A   1      40.553  26.399  26.820  1.00  0.00     0.010 A 
ATOM     39  C   UNL A   1      40.109  26.676  28.123  1.00  0.00    -0.014 A 
BRANCH  39  40
ATOM     40  C   UNL A   1      40.565  27.907  28.827  1.00  0.00     0.031 A 
ATOM     41  C   UNL A   1      41.941  27.980  29.433  1.00  0.00     0.074 A 
ATOM     42  C   UNL A   1      39.720  28.950  28.961  1.00  0.00     0.049 A 
ATOM     43  N   UNL A   1      42.499  28.963  30.094  1.00  0.00    -0.248 NA
ATOM     44  C   UNL A   1      42.796  26.790  29.294  1.00  0.00     0.031 C 
ATOM     45  C   UNL A   1      38.345  28.997  28.456  1.00  0.00     0.029 A 
ATOM     46  N   UNL A   1      39.889  30.174  29.563  1.00  0.00    -0.354 N 
ATOM     47  C   UNL A   1      43.762  28.508  30.458  1.00  0.00     0.074 A 
ATOM     48  C   UNL A   1      43.868  27.145  29.988  1.00  0.00     0.031 C 
ATOM     49  C   UNL A   1      37.811  30.195  28.739  1.00  0.00     0.029 A 
ATOM     50  C   UNL A   1      38.781  30.988  29.487  1.00  0.00     0.049 A 
ATOM     51  H   UNL A   1      40.725  30.443  30.009  1.00  0.00     0.167 HD
ATOM     52  C   UNL A   1      44.751  29.171  31.107  1.00  0.00     0.031 A 
ATOM     53  C   UNL A   1      38.564  32.229  29.968  1.00  0.00     0.031 A 
ATOM     54  C   UNL A   1      44.642  30.528  31.578  1.00  0.00     0.049 A 
ATOM     55  C   UNL A   1      39.668  32.932  30.713  1.00  0.00     0.074 A 
ATOM     56  C   UNL A   1      45.607  31.300  32.202  1.00  0.00     0.029 A 
ATOM     57  N   UNL A   1      43.501  31.312  31.487  1.00  0.00    -0.354 N 
ATOM     58  N   UNL A   1      40.880  32.510  30.981  1.00  0.00    -0.248 NA
ATOM     59  C   UNL A   1      39.376  34.285  31.209  1.00  0.00     0.031 C 
ATOM     60  C   UNL A   1      45.031  32.526  32.547  1.00  0.00     0.029 A 
ATOM     61  C   UNL A   1      43.729  32.548  32.071  1.00  0.00     0.049 A 
ATOM     62  H   UNL A   1      42.655  31.032  31.069  1.00  0.00     0.167 HD
ATOM     63  C   UNL A   1      41.506  33.556  31.650  1.00  0.00     0.074 A 
ATOM     64  C   UNL A   1      40.543  34.637  31.730  1.00  0.00     0.031 C 
ATOM     65  C   UNL A   1      42.765  33.618  32.149  1.00  0.00     0.031 A 
BRANCH  52  66
ATOM     66  C   UNL A   1      46.039  28.430  31.358  1.00  0.00    -0.014 A 
ATOM     67  C   UNL A   1      46.220  27.656  32.519  1.00  0.00     0.010 A 
ATOM     68  C   UNL A   1      47.066  28.466  30.398  1.00  0.00     0.010 A 
ATOM     69  C   UNL A   1      47.418  26.968  32.735  1.00  0.00     0.020 A 
ATOM     70  C   UNL A   1      48.254  27.754  30.593  1.00  0.00     0.020 A 
ATOM     71  C   UNL A   1      48.428  27.023  31.770  1.00  0.00     0.054 A 
BRANCH  71  72
ATOM     72  S   UNL A   1      49.962  26.100  32.066  1.00  0.00     0.124 S 
ATOM     73  O   UNL A   1      50.665  26.975  33.001  1.00  0.00    -0.237 OA
ATOM     74  O   UNL A   1      49.474  24.843  32.628  1.00  0.00    -0.237 OA
ATOM     75  O   UNL A   1      50.566  25.993  30.740  1.00  0.00    -0.744 OA
ENDBRANCH  71  72
ENDBRANCH  52  66
BRANCH  53  76
ATOM     76  C   UNL A   1      37.246  32.891  29.754  1.00  0.00    -0.014 A 
ATOM     77  C   UNL A   1      36.350  33.070  30.823  1.00  0.00     0.010 A 
ATOM     78  C   UNL A   1      36.879  33.351  28.475  1.00  0.00     0.010 A 
ATOM     79  C   UNL A   1      35.106  33.676  30.614  1.00  0.00     0.020 A 
ATOM     80  C   UNL A   1      35.651  33.985  28.269  1.00  0.00     0.020 A 
ATOM     81  C   UNL A   1      34.767  34.134  29.339  1.00  0.00     0.054 A 
BRANCH  81  82
ATOM     82  S   UNL A   1      33.168  34.959  29.103  1.00  0.00     0.124 S 
ATOM     83  O   UNL A   1      32.583  34.880  30.437  1.00  0.00    -0.237 OA
ATOM     84  O   UNL A   1      33.566  36.295  28.664  1.00  0.00    -0.237 OA
ATOM     85  O   UNL A   1      32.511  34.146  28.082  1.00  0.00    -0.744 OA
ENDBRANCH  81  82
ENDBRANCH  53  76
BRANCH  65  86
ATOM     86  C   UNL A   1      43.198  34.909  32.797  1.00  0.00    -0.014 A 
ATOM     87  C   UNL A   1      43.836  35.923  32.061  1.00  0.00     0.010 A 
ATOM     88  C   UNL A   1      42.908  35.131  34.156  1.00  0.00     0.010 A 
ATOM     89  C   UNL A   1      44.206  37.121  32.681  1.00  0.00     0.020 A 
ATOM     90  C   UNL A   1      43.247  36.339  34.771  1.00  0.00     0.020 A 
ATOM     91  C   UNL A   1      43.907  37.322  34.031  1.00  0.00     0.054 A 
BRANCH  91  92
ATOM     92  S   UNL A   1      44.358  38.902  34.799  1.00  0.00     0.124 S 
ATOM     93  O   UNL A   1      44.102  38.639  36.212  1.00  0.00    -0.237 OA
ATOM     94  O   UNL A   1      45.763  39.046  34.431  1.00  0.00    -0.237 OA
ATOM     95  O   UNL A   1      43.454  39.864  34.173  1.00  0.00    -0.744 OA
ENDBRANCH  91  92
ENDBRANCH  65  86
ENDBRANCH  39  40
ENDBRANCH  31  34
ENDBRANCH  29  30
ENDBRANCH  28  29
ENDBRANCH   1  28
TORSDOF 18
ENDMDL
