MODEL 1
REMARK VINA RESULT:     -11.9      0.000      0.000
REMARK SMILES CC(C)(C)c1nnsc1C(=O)N[C@](C)(C(=O)NCCCCNC(=O)c1ccc(-c2c3nc(c(-c4ccc(S(=O)(=O)[O-])cc4)c4ccc([nH]4)c(-c4ccc(S(=O)(=O)[O-])cc4)c4nc(c(-c5ccc(S(=O)(=O)[O-])cc5)c5ccc2[nH]5)C=C4)C=C3)cc1)C(F)(F)F
REMARK SMILES IDX 19 1 18 2 17 3 15 4 16 5 13 7 14 8 12 9 10 10 11 11 9 13
REMARK SMILES IDX 5 14 6 15 7 16 8 17 2 18 1 19 3 20 4 21 85 22 86 23 87 24
REMARK SMILES IDX 88 25 20 26 21 27 22 28 23 29 24 31 25 32 26 33 84 34 27 35
REMARK SMILES IDX 83 36 28 37 29 38 30 39 77 40 31 41 82 42 76 43 78 44 32 45
REMARK SMILES IDX 81 46 75 47 74 48 33 50 63 51 44 52 62 53 45 54 48 55 61 56
REMARK SMILES IDX 79 57 46 58 47 59 60 61 80 62 49 63 34 64 35 65 43 66 36 67
REMARK SMILES IDX 42 68 37 69 38 70 39 71 40 72 41 73 64 74 65 75 73 76 66 77
REMARK SMILES IDX 72 78 67 79 68 80 69 81 70 82 71 83 50 84 51 85 59 86 52 87
REMARK SMILES IDX 58 88 53 89 54 90 55 91 56 92 57 93
REMARK H PARENT 17 6 12 12 22 30 78 49 48 60
REMARK Flexibility Score: inf
ROOT
ATOM      1  C   UNL A   1      33.147  29.148  27.503  1.00  0.00     0.023 C 
ENDROOT
BRANCH   1   2
ATOM      2  C   UNL A   1      31.879  28.021  27.641  1.00  0.00     0.116 C 
BRANCH   2   3
ATOM      3  N   UNL A   1      30.859  26.864  26.188  1.00  0.00    -0.354 N 
ATOM      4  C   UNL A   1      30.584  25.671  25.427  1.00  0.00     0.254 C 
ATOM      5  O   UNL A   1      29.809  25.850  24.477  1.00  0.00    -0.272 OA
ATOM      6  H   UNL A   1      30.198  27.502  25.832  1.00  0.00     0.163 HD
BRANCH   4   7
ATOM      7  C   UNL A   1      31.303  24.234  25.597  1.00  0.00     0.212 C 
ATOM      8  C   UNL A   1      31.390  23.289  24.375  1.00  0.00     0.056 C 
BRANCH   7   9
ATOM      9  N   UNL A   1      32.717  24.353  26.002  1.00  0.00    -0.330 N 
ATOM     10  C   UNL A   1      33.661  24.228  25.015  1.00  0.00     0.266 C 
ATOM     11  O   UNL A   1      34.800  23.844  25.236  1.00  0.00    -0.268 OA
ATOM     12  H   UNL A   1      32.971  24.514  26.941  1.00  0.00     0.165 HD
BRANCH  10  13
ATOM     13  C   UNL A   1      33.195  24.832  23.804  1.00  0.00     0.137 A 
ATOM     14  C   UNL A   1      33.020  26.391  22.958  1.00  0.00     0.094 A 
ATOM     15  N   UNL A   1      32.948  26.119  21.107  1.00  0.00    -0.142 NA
ATOM     16  N   UNL A   1      33.235  24.551  20.565  1.00  0.00    -0.090 NA
ATOM     17  S   UNL A   1      33.531  23.073  22.282  1.00  0.00    -0.006 S 
BRANCH  14  18
ATOM     18  C   UNL A   1      33.213  27.906  23.241  1.00  0.00     0.008 C 
ATOM     19  C   UNL A   1      34.058  28.111  24.525  1.00  0.00     0.018 C 
ATOM     20  C   UNL A   1      31.916  28.720  23.282  1.00  0.00     0.018 C 
ATOM     21  C   UNL A   1      34.117  28.550  22.146  1.00  0.00     0.018 C 
ENDBRANCH  14  18
ENDBRANCH  10  13
ENDBRANCH   7   9
BRANCH   7  22
ATOM     22  C   UNL A   1      30.413  23.457  26.596  1.00  0.00     0.420 C 
ATOM     23  F   UNL A   1      29.961  22.288  26.082  1.00  0.00    -0.168 F 
ATOM     24  F   UNL A   1      31.156  23.118  27.689  1.00  0.00    -0.168 F 
ATOM     25  F   UNL A   1      29.365  24.167  27.052  1.00  0.00    -0.168 F 
ENDBRANCH   7  22
ENDBRANCH   4   7
ENDBRANCH   2   3
ENDBRANCH   1   2
BRANCH   1  26
ATOM     26  C   UNL A   1      32.776  30.562  27.048  1.00  0.00     0.023 C 
BRANCH  26  27
ATOM     27  C   UNL A   1      33.690  31.673  27.547  1.00  0.00     0.116 C 
BRANCH  27  28
ATOM     28  N   UNL A   1      33.060  32.986  27.643  1.00  0.00    -0.352 N 
ATOM     29  C   UNL A   1      33.415  34.016  28.485  1.00  0.00     0.251 C 
ATOM     30  H   UNL A   1      32.299  33.153  27.040  1.00  0.00     0.163 HD
ATOM     31  O   UNL A   1      32.782  35.063  28.513  1.00  0.00    -0.269 OA
BRANCH  29  32
ATOM     32  C   UNL A   1      34.537  33.778  29.409  1.00  0.00     0.039 A 
ATOM     33  C   UNL A   1      34.340  32.912  30.486  1.00  0.00     0.014 A 
ATOM     34  C   UNL A   1      35.806  34.274  29.105  1.00  0.00     0.014 A 
ATOM     35  C   UNL A   1      35.444  32.467  31.210  1.00  0.00     0.010 A 
ATOM     36  C   UNL A   1      36.911  33.771  29.780  1.00  0.00     0.010 A 
ATOM     37  C   UNL A   1      36.739  32.854  30.829  1.00  0.00    -0.014 A 
BRANCH  37  38
ATOM     38  C   UNL A   1      37.931  32.292  31.507  1.00  0.00     0.031 A 
ATOM     39  C   UNL A   1      38.364  32.838  32.835  1.00  0.00     0.074 A 
ATOM     40  C   UNL A   1      38.649  31.326  30.900  1.00  0.00     0.049 A 
ATOM     41  N   UNL A   1      39.376  32.480  33.582  1.00  0.00    -0.248 NA
ATOM     42  C   UNL A   1      37.569  33.947  33.387  1.00  0.00     0.031 C 
ATOM     43  C   UNL A   1      38.354  30.746  29.586  1.00  0.00     0.029 A 
ATOM     44  N   UNL A   1      39.773  30.657  31.313  1.00  0.00    -0.354 N 
ATOM     45  C   UNL A   1      39.342  33.320  34.687  1.00  0.00     0.074 A 
ATOM     46  C   UNL A   1      38.248  34.245  34.484  1.00  0.00     0.031 C 
ATOM     47  C   UNL A   1      39.251  29.782  29.320  1.00  0.00     0.029 A 
ATOM     48  C   UNL A   1      40.200  29.696  30.427  1.00  0.00     0.049 A 
ATOM     49  H   UNL A   1      40.232  30.848  32.162  1.00  0.00     0.167 HD
ATOM     50  C   UNL A   1      40.134  33.309  35.786  1.00  0.00     0.031 A 
ATOM     51  C   UNL A   1      41.231  28.834  30.504  1.00  0.00     0.031 A 
ATOM     52  C   UNL A   1      41.222  32.392  35.984  1.00  0.00     0.049 A 
ATOM     53  C   UNL A   1      42.109  28.850  31.726  1.00  0.00     0.074 A 
ATOM     54  C   UNL A   1      42.058  32.271  37.078  1.00  0.00     0.029 A 
ATOM     55  N   UNL A   1      41.626  31.439  35.061  1.00  0.00    -0.354 N 
ATOM     56  N   UNL A   1      42.021  29.609  32.792  1.00  0.00    -0.248 NA
ATOM     57  C   UNL A   1      43.217  27.886  31.758  1.00  0.00     0.031 C 
ATOM     58  C   UNL A   1      42.995  31.268  36.802  1.00  0.00     0.029 A 
ATOM     59  C   UNL A   1      42.713  30.736  35.552  1.00  0.00     0.049 A 
ATOM     60  H   UNL A   1      41.204  31.286  34.185  1.00  0.00     0.167 HD
ATOM     61  C   UNL A   1      43.047  29.196  33.635  1.00  0.00     0.074 A 
ATOM     62  C   UNL A   1      43.735  28.116  32.957  1.00  0.00     0.031 C 
ATOM     63  C   UNL A   1      43.387  29.667  34.860  1.00  0.00     0.031 A 
BRANCH  50  64
ATOM     64  C   UNL A   1      39.832  34.331  36.848  1.00  0.00    -0.014 A 
ATOM     65  C   UNL A   1      40.332  35.642  36.746  1.00  0.00     0.010 A 
ATOM     66  C   UNL A   1      39.061  33.974  37.968  1.00  0.00     0.010 A 
ATOM     67  C   UNL A   1      40.118  36.562  37.775  1.00  0.00     0.020 A 
ATOM     68  C   UNL A   1      38.822  34.901  38.987  1.00  0.00     0.020 A 
ATOM     69  C   UNL A   1      39.374  36.181  38.895  1.00  0.00     0.054 A 
BRANCH  69  70
ATOM     70  S   UNL A   1      39.126  37.387  40.227  1.00  0.00     0.124 S 
ATOM     71  O   UNL A   1      40.492  37.842  40.477  1.00  0.00    -0.237 OA
ATOM     72  O   UNL A   1      38.239  38.371  39.612  1.00  0.00    -0.237 OA
ATOM     73  O   UNL A   1      38.526  36.598  41.300  1.00  0.00    -0.744 OA
ENDBRANCH  69  70
ENDBRANCH  50  64
BRANCH  51  74
ATOM     74  C   UNL A   1      41.462  27.851  29.412  1.00  0.00    -0.014 A 
ATOM     75  C   UNL A   1      42.470  28.081  28.458  1.00  0.00     0.010 A 
ATOM     76  C   UNL A   1      40.696  26.675  29.328  1.00  0.00     0.010 A 
ATOM     77  C   UNL A   1      42.701  27.158  27.435  1.00  0.00     0.020 A 
ATOM     78  C   UNL A   1      40.939  25.740  28.318  1.00  0.00     0.020 A 
ATOM     79  C   UNL A   1      41.934  25.992  27.372  1.00  0.00     0.054 A 
BRANCH  79  80
ATOM     80  S   UNL A   1      42.292  24.778  26.070  1.00  0.00     0.124 S 
ATOM     81  O   UNL A   1      42.276  25.607  24.869  1.00  0.00    -0.237 OA
ATOM     82  O   UNL A   1      43.599  24.263  26.468  1.00  0.00    -0.237 OA
ATOM     83  O   UNL A   1      41.194  23.821  26.186  1.00  0.00    -0.744 OA
ENDBRANCH  79  80
ENDBRANCH  51  74
BRANCH  63  84
ATOM     84  C   UNL A   1      44.539  29.000  35.558  1.00  0.00    -0.014 A 
ATOM     85  C   UNL A   1      44.342  27.860  36.355  1.00  0.00     0.010 A 
ATOM     86  C   UNL A   1      45.844  29.491  35.368  1.00  0.00     0.010 A 
ATOM     87  C   UNL A   1      45.429  27.235  36.972  1.00  0.00     0.020 A 
ATOM     88  C   UNL A   1      46.935  28.855  35.965  1.00  0.00     0.020 A 
ATOM     89  C   UNL A   1      46.719  27.738  36.774  1.00  0.00     0.054 A 
BRANCH  89  90
ATOM     90  S   UNL A   1      48.121  26.881  37.545  1.00  0.00     0.124 S 
ATOM     91  O   UNL A   1      47.783  26.961  38.962  1.00  0.00    -0.237 OA
ATOM     92  O   UNL A   1      48.047  25.546  36.954  1.00  0.00    -0.237 OA
ATOM     93  O   UNL A   1      49.278  27.674  37.133  1.00  0.00    -0.744 OA
ENDBRANCH  89  90
ENDBRANCH  63  84
ENDBRANCH  37  38
ENDBRANCH  29  32
ENDBRANCH  27  28
ENDBRANCH  26  27
ENDBRANCH   1  26
TORSDOF 18
ENDMDL
MODEL 2
REMARK VINA RESULT:     -11.5      3.721      9.163
REMARK SMILES CC(C)(C)c1nnsc1C(=O)N[C@](C)(C(=O)NCCCCNC(=O)c1ccc(-c2c3nc(c(-c4ccc(S(=O)(=O)[O-])cc4)c4ccc([nH]4)c(-c4ccc(S(=O)(=O)[O-])cc4)c4nc(c(-c5ccc(S(=O)(=O)[O-])cc5)c5ccc2[nH]5)C=C4)C=C3)cc1)C(F)(F)F
REMARK SMILES IDX 19 1 18 2 17 3 15 4 16 5 13 7 14 8 12 9 10 10 11 11 9 13
REMARK SMILES IDX 5 14 6 15 7 16 8 17 2 18 1 19 3 20 4 21 85 22 86 23 87 24
REMARK SMILES IDX 88 25 20 26 21 27 22 28 23 29 24 31 25 32 26 33 84 34 27 35
REMARK SMILES IDX 83 36 28 37 29 38 30 39 77 40 31 41 82 42 76 43 78 44 32 45
REMARK SMILES IDX 81 46 75 47 74 48 33 50 63 51 44 52 62 53 45 54 48 55 61 56
REMARK SMILES IDX 79 57 46 58 47 59 60 61 80 62 49 63 34 64 35 65 43 66 36 67
REMARK SMILES IDX 42 68 37 69 38 70 39 71 40 72 41 73 64 74 65 75 73 76 66 77
REMARK SMILES IDX 72 78 67 79 68 80 69 81 70 82 71 83 50 84 51 85 59 86 52 87
REMARK SMILES IDX 58 88 53 89 54 90 55 91 56 92 57 93
REMARK H PARENT 17 6 12 12 22 30 78 49 48 60
REMARK Flexibility Score: inf
ROOT
ATOM      1  C   UNL A   1      34.806  23.411  26.295  1.00  0.00     0.023 C 
ENDROOT
BRANCH   1   2
ATOM      2  C   UNL A   1      33.668  24.252  25.349  1.00  0.00     0.116 C 
BRANCH   2   3
ATOM      3  N   UNL A   1      33.901  25.707  23.827  1.00  0.00    -0.354 N 
ATOM      4  C   UNL A   1      33.501  26.446  22.656  1.00  0.00     0.254 C 
ATOM      5  O   UNL A   1      34.401  27.150  22.176  1.00  0.00    -0.272 OA
ATOM      6  H   UNL A   1      34.777  26.101  24.040  1.00  0.00     0.163 HD
BRANCH   4   7
ATOM      7  C   UNL A   1      32.102  26.305  21.858  1.00  0.00     0.212 C 
ATOM      8  C   UNL A   1      31.012  25.360  22.415  1.00  0.00     0.056 C 
BRANCH   7   9
ATOM      9  N   UNL A   1      31.380  27.587  21.752  1.00  0.00    -0.330 N 
ATOM     10  C   UNL A   1      30.347  27.795  22.629  1.00  0.00     0.266 C 
ATOM     11  O   UNL A   1      29.407  28.536  22.379  1.00  0.00    -0.268 OA
ATOM     12  H   UNL A   1      31.629  28.264  21.080  1.00  0.00     0.165 HD
BRANCH  10  13
ATOM     13  C   UNL A   1      30.664  27.239  23.910  1.00  0.00     0.137 A 
ATOM     14  C   UNL A   1      31.547  27.552  25.426  1.00  0.00     0.094 A 
ATOM     15  N   UNL A   1      30.805  26.554  26.826  1.00  0.00    -0.142 NA
ATOM     16  N   UNL A   1      29.386  25.716  26.482  1.00  0.00    -0.090 NA
ATOM     17  S   UNL A   1      28.763  25.912  24.292  1.00  0.00    -0.006 S 
BRANCH  14  18
ATOM     18  C   UNL A   1      32.525  28.605  26.017  1.00  0.00     0.008 C 
ATOM     19  C   UNL A   1      31.906  29.272  27.272  1.00  0.00     0.018 C 
ATOM     20  C   UNL A   1      33.027  29.647  25.012  1.00  0.00     0.018 C 
ATOM     21  C   UNL A   1      33.786  27.901  26.606  1.00  0.00     0.018 C 
ENDBRANCH  14  18
ENDBRANCH  10  13
ENDBRANCH   7   9
BRANCH   7  22
ATOM     22  C   UNL A   1      32.479  25.668  20.500  1.00  0.00     0.420 C 
ATOM     23  F   UNL A   1      31.427  25.607  19.650  1.00  0.00    -0.168 F 
ATOM     24  F   UNL A   1      33.412  26.448  19.881  1.00  0.00    -0.168 F 
ATOM     25  F   UNL A   1      33.022  24.441  20.610  1.00  0.00    -0.168 F 
ENDBRANCH   7  22
ENDBRANCH   4   7
ENDBRANCH   2   3
ENDBRANCH   1   2
BRANCH   1  26
ATOM     26  C   UNL A   1      35.924  22.678  25.551  1.00  0.00     0.023 C 
BRANCH  26  27
ATOM     27  C   UNL A   1      37.226  23.452  25.392  1.00  0.00     0.116 C 
BRANCH  27  28
ATOM     28  N   UNL A   1      38.437  22.653  25.555  1.00  0.00    -0.352 N 
ATOM     29  C   UNL A   1      39.587  23.020  26.216  1.00  0.00     0.251 C 
ATOM     30  H   UNL A   1      38.429  21.756  25.149  1.00  0.00     0.163 HD
ATOM     31  O   UNL A   1      40.565  22.282  26.250  1.00  0.00    -0.269 OA
BRANCH  29  32
ATOM     32  C   UNL A   1      39.627  24.367  26.811  1.00  0.00     0.039 A 
ATOM     33  C   UNL A   1      39.134  24.536  28.106  1.00  0.00     0.014 A 
ATOM     34  C   UNL A   1      40.302  25.398  26.155  1.00  0.00     0.014 A 
ATOM     35  C   UNL A   1      39.401  25.724  28.783  1.00  0.00     0.010 A 
ATOM     36  C   UNL A   1      40.630  26.549  26.859  1.00  0.00     0.010 A 
ATOM     37  C   UNL A   1      40.193  26.716  28.182  1.00  0.00    -0.014 A 
BRANCH  37  38
ATOM     38  C   UNL A   1      40.592  27.929  28.934  1.00  0.00     0.031 A 
ATOM     39  C   UNL A   1      41.951  28.005  29.565  1.00  0.00     0.074 A 
ATOM     40  C   UNL A   1      39.710  28.937  29.090  1.00  0.00     0.049 A 
ATOM     41  N   UNL A   1      42.482  28.977  30.260  1.00  0.00    -0.248 NA
ATOM     42  C   UNL A   1      42.819  26.826  29.412  1.00  0.00     0.031 C 
ATOM     43  C   UNL A   1      38.343  28.959  28.564  1.00  0.00     0.029 A 
ATOM     44  N   UNL A   1      39.837  30.141  29.734  1.00  0.00    -0.354 N 
ATOM     45  C   UNL A   1      43.742  28.526  30.631  1.00  0.00     0.074 A 
ATOM     46  C   UNL A   1      43.872  27.173  30.137  1.00  0.00     0.031 C 
ATOM     47  C   UNL A   1      37.772  30.135  28.872  1.00  0.00     0.029 A 
ATOM     48  C   UNL A   1      38.718  30.936  29.642  1.00  0.00     0.049 A 
ATOM     49  H   UNL A   1      40.651  30.411  30.217  1.00  0.00     0.167 HD
ATOM     50  C   UNL A   1      44.716  29.187  31.302  1.00  0.00     0.031 A 
ATOM     51  C   UNL A   1      38.488  32.176  30.114  1.00  0.00     0.031 A 
ATOM     52  C   UNL A   1      44.584  30.530  31.795  1.00  0.00     0.049 A 
ATOM     53  C   UNL A   1      39.577  32.885  30.871  1.00  0.00     0.074 A 
ATOM     54  C   UNL A   1      45.524  31.304  32.450  1.00  0.00     0.029 A 
ATOM     55  N   UNL A   1      43.434  31.298  31.688  1.00  0.00    -0.354 N 
ATOM     56  N   UNL A   1      40.788  32.468  31.156  1.00  0.00    -0.248 NA
ATOM     57  C   UNL A   1      39.272  34.236  31.360  1.00  0.00     0.031 C 
ATOM     58  C   UNL A   1      44.929  32.529  32.774  1.00  0.00     0.029 A 
ATOM     59  C   UNL A   1      43.633  32.533  32.281  1.00  0.00     0.049 A 
ATOM     60  H   UNL A   1      42.599  31.008  31.255  1.00  0.00     0.167 HD
ATOM     61  C   UNL A   1      41.398  33.516  31.836  1.00  0.00     0.074 A 
ATOM     62  C   UNL A   1      40.426  34.588  31.911  1.00  0.00     0.031 C 
ATOM     63  C   UNL A   1      42.651  33.585  32.349  1.00  0.00     0.031 A 
BRANCH  50  64
ATOM     64  C   UNL A   1      46.004  28.445  31.530  1.00  0.00    -0.014 A 
ATOM     65  C   UNL A   1      46.200  27.687  32.700  1.00  0.00     0.010 A 
ATOM     66  C   UNL A   1      47.037  28.520  30.580  1.00  0.00     0.010 A 
ATOM     67  C   UNL A   1      47.427  27.069  32.945  1.00  0.00     0.020 A 
ATOM     68  C   UNL A   1      48.258  27.878  30.809  1.00  0.00     0.020 A 
ATOM     69  C   UNL A   1      48.453  27.179  32.002  1.00  0.00     0.054 A 
BRANCH  69  70
ATOM     70  S   UNL A   1      50.045  26.383  32.350  1.00  0.00     0.124 S 
ATOM     71  O   UNL A   1      49.624  25.058  32.803  1.00  0.00    -0.237 OA
ATOM     72  O   UNL A   1      50.717  26.417  31.053  1.00  0.00    -0.237 OA
ATOM     73  O   UNL A   1      50.640  27.233  33.379  1.00  0.00    -0.744 OA
ENDBRANCH  69  70
ENDBRANCH  50  64
BRANCH  51  74
ATOM     74  C   UNL A   1      37.187  32.844  29.844  1.00  0.00    -0.014 A 
ATOM     75  C   UNL A   1      36.270  33.052  30.890  1.00  0.00     0.010 A 
ATOM     76  C   UNL A   1      36.864  33.294  28.551  1.00  0.00     0.010 A 
ATOM     77  C   UNL A   1      35.050  33.688  30.647  1.00  0.00     0.020 A 
ATOM     78  C   UNL A   1      35.653  33.950  28.309  1.00  0.00     0.020 A 
ATOM     79  C   UNL A   1      34.750  34.134  29.358  1.00  0.00     0.054 A 
BRANCH  79  80
ATOM     80  S   UNL A   1      33.186  35.013  29.078  1.00  0.00     0.124 S 
ATOM     81  O   UNL A   1      32.562  34.951  30.396  1.00  0.00    -0.237 OA
ATOM     82  O   UNL A   1      33.636  36.334  28.651  1.00  0.00    -0.237 OA
ATOM     83  O   UNL A   1      32.533  34.221  28.038  1.00  0.00    -0.744 OA
ENDBRANCH  79  80
ENDBRANCH  51  74
BRANCH  63  84
ATOM     84  C   UNL A   1      43.051  34.872  33.015  1.00  0.00    -0.014 A 
ATOM     85  C   UNL A   1      42.873  35.060  34.396  1.00  0.00     0.010 A 
ATOM     86  C   UNL A   1      43.666  35.885  32.256  1.00  0.00     0.010 A 
ATOM     87  C   UNL A   1      43.280  36.250  35.004  1.00  0.00     0.020 A 
ATOM     88  C   UNL A   1      44.094  37.067  32.864  1.00  0.00     0.020 A 
ATOM     89  C   UNL A   1      43.887  37.247  34.233  1.00  0.00     0.054 A 
BRANCH  89  90
ATOM     90  S   UNL A   1      44.452  38.765  35.052  1.00  0.00     0.124 S 
ATOM     91  O   UNL A   1      45.873  38.778  34.720  1.00  0.00    -0.237 OA
ATOM     92  O   UNL A   1      43.646  39.799  34.407  1.00  0.00    -0.237 OA
ATOM     93  O   UNL A   1      44.142  38.532  36.461  1.00  0.00    -0.744 OA
ENDBRANCH  89  90
ENDBRANCH  63  84
ENDBRANCH  37  38
ENDBRANCH  29  32
ENDBRANCH  27  28
ENDBRANCH  26  27
ENDBRANCH   1  26
TORSDOF 18
ENDMDL
MODEL 3
REMARK VINA RESULT:     -11.5      3.786      9.104
REMARK SMILES CC(C)(C)c1nnsc1C(=O)N[C@](C)(C(=O)NCCCCNC(=O)c1ccc(-c2c3nc(c(-c4ccc(S(=O)(=O)[O-])cc4)c4ccc([nH]4)c(-c4ccc(S(=O)(=O)[O-])cc4)c4nc(c(-c5ccc(S(=O)(=O)[O-])cc5)c5ccc2[nH]5)C=C4)C=C3)cc1)C(F)(F)F
REMARK SMILES IDX 19 1 18 2 17 3 15 4 16 5 13 7 14 8 12 9 10 10 11 11 9 13
REMARK SMILES IDX 5 14 6 15 7 16 8 17 2 18 1 19 3 20 4 21 85 22 86 23 87 24
REMARK SMILES IDX 88 25 20 26 21 27 22 28 23 29 24 31 25 32 26 33 84 34 27 35
REMARK SMILES IDX 83 36 28 37 29 38 30 39 77 40 31 41 82 42 76 43 78 44 32 45
REMARK SMILES IDX 81 46 75 47 74 48 33 50 63 51 44 52 62 53 45 54 48 55 61 56
REMARK SMILES IDX 79 57 46 58 47 59 60 61 80 62 49 63 34 64 35 65 43 66 36 67
REMARK SMILES IDX 42 68 37 69 38 70 39 71 40 72 41 73 64 74 65 75 73 76 66 77
REMARK SMILES IDX 72 78 67 79 68 80 69 81 70 82 71 83 50 84 51 85 59 86 52 87
REMARK SMILES IDX 58 88 53 89 54 90 55 91 56 92 57 93
REMARK H PARENT 17 6 12 12 22 30 78 49 48 60
REMARK Flexibility Score: inf
ROOT
ATOM      1  C   UNL A   1      35.886  22.589  23.489  1.00  0.00     0.023 C 
ENDROOT
BRANCH   1   2
ATOM      2  C   UNL A   1      34.437  23.010  22.702  1.00  0.00     0.116 C 
BRANCH   2   3
ATOM      3  N   UNL A   1      32.587  23.726  23.447  1.00  0.00    -0.354 N 
ATOM      4  C   UNL A   1      31.692  24.218  24.464  1.00  0.00     0.254 C 
ATOM      5  O   UNL A   1      30.508  24.277  24.104  1.00  0.00    -0.272 OA
ATOM      6  H   UNL A   1      32.017  23.721  22.644  1.00  0.00     0.163 HD
BRANCH   4   7
ATOM      7  C   UNL A   1      32.060  24.516  26.009  1.00  0.00     0.212 C 
ATOM      8  C   UNL A   1      33.401  25.212  26.341  1.00  0.00     0.056 C 
BRANCH   7   9
ATOM      9  N   UNL A   1      31.078  25.402  26.664  1.00  0.00    -0.330 N 
ATOM     10  C   UNL A   1      31.407  26.728  26.767  1.00  0.00     0.266 C 
ATOM     11  O   UNL A   1      30.960  27.453  27.644  1.00  0.00    -0.268 OA
ATOM     12  H   UNL A   1      30.225  25.053  27.013  1.00  0.00     0.165 HD
BRANCH  10  13
ATOM     13  C   UNL A   1      32.110  27.157  25.597  1.00  0.00     0.137 A 
ATOM     14  C   UNL A   1      31.895  27.645  23.896  1.00  0.00     0.094 A 
ATOM     15  N   UNL A   1      33.320  28.726  23.345  1.00  0.00    -0.142 NA
ATOM     16  N   UNL A   1      34.415  29.191  24.537  1.00  0.00    -0.090 NA
ATOM     17  S   UNL A   1      33.944  28.261  26.570  1.00  0.00    -0.006 S 
BRANCH  14  18
ATOM     18  C   UNL A   1      30.766  27.712  22.830  1.00  0.00     0.008 C 
ATOM     19  C   UNL A   1      31.015  26.665  21.714  1.00  0.00     0.018 C 
ATOM     20  C   UNL A   1      30.515  29.108  22.251  1.00  0.00     0.018 C 
ATOM     21  C   UNL A   1      29.416  27.227  23.441  1.00  0.00     0.018 C 
ENDBRANCH  14  18
ENDBRANCH  10  13
ENDBRANCH   7   9
BRANCH   7  22
ATOM     22  C   UNL A   1      32.202  23.121  26.663  1.00  0.00     0.420 C 
ATOM     23  F   UNL A   1      32.140  23.177  28.015  1.00  0.00    -0.168 F 
ATOM     24  F   UNL A   1      31.157  22.336  26.275  1.00  0.00    -0.168 F 
ATOM     25  F   UNL A   1      33.323  22.467  26.306  1.00  0.00    -0.168 F 
ENDBRANCH   7  22
ENDBRANCH   4   7
ENDBRANCH   2   3
ENDBRANCH   1   2
BRANCH   1  26
ATOM     26  C   UNL A   1      36.560  23.671  24.335  1.00  0.00     0.023 C 
BRANCH  26  27
ATOM     27  C   UNL A   1      36.958  23.250  25.744  1.00  0.00     0.116 C 
BRANCH  27  28
ATOM     28  N   UNL A   1      38.189  22.470  25.823  1.00  0.00    -0.352 N 
ATOM     29  C   UNL A   1      39.392  22.874  26.358  1.00  0.00     0.251 C 
ATOM     30  H   UNL A   1      38.156  21.557  25.454  1.00  0.00     0.163 HD
ATOM     31  O   UNL A   1      40.378  22.148  26.328  1.00  0.00    -0.269 OA
BRANCH  29  32
ATOM     32  C   UNL A   1      39.469  24.243  26.895  1.00  0.00     0.039 A 
ATOM     33  C   UNL A   1      39.055  24.466  28.209  1.00  0.00     0.014 A 
ATOM     34  C   UNL A   1      40.106  25.244  26.159  1.00  0.00     0.014 A 
ATOM     35  C   UNL A   1      39.363  25.680  28.821  1.00  0.00     0.010 A 
ATOM     36  C   UNL A   1      40.477  26.422  26.795  1.00  0.00     0.010 A 
ATOM     37  C   UNL A   1      40.119  26.643  28.134  1.00  0.00    -0.014 A 
BRANCH  37  38
ATOM     38  C   UNL A   1      40.565  27.884  28.812  1.00  0.00     0.031 A 
ATOM     39  C   UNL A   1      41.957  27.978  29.361  1.00  0.00     0.074 A 
ATOM     40  C   UNL A   1      39.697  28.902  28.975  1.00  0.00     0.049 A 
ATOM     41  N   UNL A   1      42.530  28.974  29.985  1.00  0.00    -0.248 NA
ATOM     42  C   UNL A   1      42.812  26.789  29.209  1.00  0.00     0.031 C 
ATOM     43  C   UNL A   1      38.301  28.910  28.526  1.00  0.00     0.029 A 
ATOM     44  N   UNL A   1      39.863  30.131  29.561  1.00  0.00    -0.354 N 
ATOM     45  C   UNL A   1      43.807  28.532  30.303  1.00  0.00     0.074 A 
ATOM     46  C   UNL A   1      43.905  27.159  29.859  1.00  0.00     0.031 C 
ATOM     47  C   UNL A   1      37.753  30.101  28.818  1.00  0.00     0.029 A 
ATOM     48  C   UNL A   1      38.744  30.928  29.499  1.00  0.00     0.049 A 
ATOM     49  H   UNL A   1      40.704  30.416  29.986  1.00  0.00     0.167 HD
ATOM     50  C   UNL A   1      44.820  29.214  30.890  1.00  0.00     0.031 A 
ATOM     51  C   UNL A   1      38.545  32.187  29.932  1.00  0.00     0.031 A 
ATOM     52  C   UNL A   1      44.720  30.577  31.333  1.00  0.00     0.049 A 
ATOM     53  C   UNL A   1      39.677  32.921  30.597  1.00  0.00     0.074 A 
ATOM     54  C   UNL A   1      45.699  31.372  31.902  1.00  0.00     0.029 A 
ATOM     55  N   UNL A   1      43.569  31.347  31.259  1.00  0.00    -0.354 N 
ATOM     56  N   UNL A   1      40.901  32.509  30.830  1.00  0.00    -0.248 NA
ATOM     57  C   UNL A   1      39.405  34.293  31.046  1.00  0.00     0.031 C 
ATOM     58  C   UNL A   1      45.128  32.613  32.208  1.00  0.00     0.029 A 
ATOM     59  C   UNL A   1      43.806  32.604  31.789  1.00  0.00     0.049 A 
ATOM     60  H   UNL A   1      42.710  31.044  30.887  1.00  0.00     0.167 HD
ATOM     61  C   UNL A   1      41.552  33.580  31.430  1.00  0.00     0.074 A 
ATOM     62  C   UNL A   1      40.590  34.660  31.515  1.00  0.00     0.031 C 
ATOM     63  C   UNL A   1      42.832  33.664  31.869  1.00  0.00     0.031 A 
BRANCH  50  64
ATOM     64  C   UNL A   1      46.117  28.475  31.076  1.00  0.00    -0.014 A 
ATOM     65  C   UNL A   1      47.034  28.353  30.015  1.00  0.00     0.010 A 
ATOM     66  C   UNL A   1      46.415  27.879  32.313  1.00  0.00     0.010 A 
ATOM     67  C   UNL A   1      48.197  27.597  30.170  1.00  0.00     0.020 A 
ATOM     68  C   UNL A   1      47.592  27.143  32.480  1.00  0.00     0.020 A 
ATOM     69  C   UNL A   1      48.462  26.986  31.399  1.00  0.00     0.054 A 
BRANCH  69  70
ATOM     70  S   UNL A   1      49.970  25.992  31.570  1.00  0.00     0.124 S 
ATOM     71  O   UNL A   1      49.455  24.772  32.189  1.00  0.00    -0.237 OA
ATOM     72  O   UNL A   1      50.424  25.851  30.189  1.00  0.00    -0.237 OA
ATOM     73  O   UNL A   1      50.828  26.810  32.424  1.00  0.00    -0.744 OA
ENDBRANCH  69  70
ENDBRANCH  50  64
BRANCH  51  74
ATOM     74  C   UNL A   1      37.233  32.852  29.708  1.00  0.00    -0.014 A 
ATOM     75  C   UNL A   1      36.964  33.485  28.481  1.00  0.00     0.010 A 
ATOM     76  C   UNL A   1      36.242  32.839  30.704  1.00  0.00     0.010 A 
ATOM     77  C   UNL A   1      35.730  34.103  28.259  1.00  0.00     0.020 A 
ATOM     78  C   UNL A   1      34.999  33.438  30.477  1.00  0.00     0.020 A 
ATOM     79  C   UNL A   1      34.755  34.074  29.258  1.00  0.00     0.054 A 
BRANCH  79  80
ATOM     80  S   UNL A   1      33.138  34.830  28.925  1.00  0.00     0.124 S 
ATOM     81  O   UNL A   1      32.536  34.859  30.254  1.00  0.00    -0.237 OA
ATOM     82  O   UNL A   1      33.503  36.128  28.365  1.00  0.00    -0.237 OA
ATOM     83  O   UNL A   1      32.519  33.905  27.977  1.00  0.00    -0.744 OA
ENDBRANCH  79  80
ENDBRANCH  51  74
BRANCH  63  84
ATOM     84  C   UNL A   1      43.274  34.974  32.458  1.00  0.00    -0.014 A 
ATOM     85  C   UNL A   1      43.141  35.233  33.832  1.00  0.00     0.010 A 
ATOM     86  C   UNL A   1      43.882  35.937  31.631  1.00  0.00     0.010 A 
ATOM     87  C   UNL A   1      43.586  36.445  34.368  1.00  0.00     0.020 A 
ATOM     88  C   UNL A   1      44.348  37.140  32.166  1.00  0.00     0.020 A 
ATOM     89  C   UNL A   1      44.186  37.391  33.530  1.00  0.00     0.054 A 
BRANCH  89  90
ATOM     90  S   UNL A   1      44.800  38.937  34.255  1.00  0.00     0.124 S 
ATOM     91  O   UNL A   1      45.819  39.340  33.290  1.00  0.00    -0.237 OA
ATOM     92  O   UNL A   1      43.603  39.775  34.292  1.00  0.00    -0.237 OA
ATOM     93  O   UNL A   1      45.306  38.527  35.563  1.00  0.00    -0.744 OA
ENDBRANCH  89  90
ENDBRANCH  63  84
ENDBRANCH  37  38
ENDBRANCH  29  32
ENDBRANCH  27  28
ENDBRANCH  26  27
ENDBRANCH   1  26
TORSDOF 18
ENDMDL
