MODEL 1
REMARK VINA RESULT:     -10.0      0.000      0.000
REMARK SMILES CNC(=O)[C@H]1CCCCN1C(=O)NCCOCC(=O)NCCCCNC(=O)c1ccc(-c2c3nc(c(-c4ccc(S(=O)(=O)[O-])cc4)c4ccc([nH]4)c(-c4ccc(S(=O)(=O)[O-])cc4)c4nc(c(-c5ccc(S(=O)(=O)[O-])cc5)c5ccc2[nH]5)C=C4)C=C3)cc1
REMARK SMILES IDX 21 1 20 2 18 3 19 4 17 6 16 7 15 8 14 9 13 10 11 11 12 12
REMARK SMILES IDX 10 14 5 15 6 16 7 17 9 18 8 19 3 20 1 21 2 22 4 24 22 25
REMARK SMILES IDX 23 26 24 27 25 28 26 29 27 31 28 32 29 33 87 34 30 35 86 36
REMARK SMILES IDX 31 37 32 38 33 39 80 40 34 41 85 42 79 43 81 44 35 45 84 46
REMARK SMILES IDX 78 47 77 48 36 50 66 51 47 52 65 53 48 54 51 55 64 56 82 57
REMARK SMILES IDX 49 58 50 59 63 61 83 62 52 63 37 64 38 65 46 66 39 67 45 68
REMARK SMILES IDX 40 69 41 70 42 71 43 72 44 73 67 74 68 75 76 76 69 77 75 78
REMARK SMILES IDX 70 79 71 80 72 81 73 82 74 83 53 84 54 85 62 86 55 87 61 88
REMARK SMILES IDX 56 89 57 90 58 91 59 92 60 93
REMARK H PARENT 20 5 13 13 2 23 25 30 81 49 51 60
REMARK Flexibility Score: inf
ROOT
ATOM      1  C   UNL A   1      31.706  29.777  25.242  1.00  0.00     0.116 C 
ENDROOT
BRANCH   1   2
ATOM      2  N   UNL A   1      30.663  30.383  24.439  1.00  0.00    -0.354 N 
ATOM      3  C   UNL A   1      29.850  29.777  23.525  1.00  0.00     0.245 C 
ATOM      4  O   UNL A   1      29.023  30.455  22.915  1.00  0.00    -0.272 OA
ATOM      5  H   UNL A   1      30.525  31.350  24.568  1.00  0.00     0.163 HD
BRANCH   3   6
ATOM      6  C   UNL A   1      29.986  28.269  23.303  1.00  0.00     0.260 C 
BRANCH   6   7
ATOM      7  O   UNL A   1      28.773  27.535  23.234  1.00  0.00    -0.370 OA
BRANCH   7   8
ATOM      8  C   UNL A   1      28.734  26.362  24.059  1.00  0.00     0.182 C 
BRANCH   8   9
ATOM      9  C   UNL A   1      30.100  26.032  24.674  1.00  0.00     0.146 C 
BRANCH   9  10
ATOM     10  N   UNL A   1      30.168  24.683  25.212  1.00  0.00    -0.336 N 
ATOM     11  C   UNL A   1      31.085  23.717  25.363  1.00  0.00     0.318 C 
ATOM     12  O   UNL A   1      30.649  22.686  25.886  1.00  0.00    -0.249 OA
ATOM     13  H   UNL A   1      29.294  24.400  25.566  1.00  0.00     0.165 HD
BRANCH  11  14
ATOM     14  N   UNL A   1      32.403  23.853  25.034  1.00  0.00    -0.313 N 
ATOM     15  C   UNL A   1      33.276  24.479  26.053  1.00  0.00     0.176 C 
ATOM     16  C   UNL A   1      33.504  25.950  25.642  1.00  0.00     0.035 C 
ATOM     17  C   UNL A   1      33.941  26.121  24.178  1.00  0.00     0.004 C 
ATOM     18  C   UNL A   1      33.017  23.828  23.712  1.00  0.00     0.122 C 
ATOM     19  C   UNL A   1      33.122  25.264  23.206  1.00  0.00     0.022 C 
BRANCH  15  20
ATOM     20  C   UNL A   1      34.605  23.715  26.267  1.00  0.00     0.242 C 
ATOM     21  C   UNL A   1      33.551  22.007  27.821  1.00  0.00     0.142 C 
ATOM     22  N   UNL A   1      34.627  22.604  27.062  1.00  0.00    -0.357 N 
ATOM     23  H   UNL A   1      35.496  22.147  27.126  1.00  0.00     0.163 HD
ATOM     24  O   UNL A   1      35.658  24.051  25.719  1.00  0.00    -0.273 OA
ENDBRANCH  15  20
ENDBRANCH  11  14
ENDBRANCH   9  10
ENDBRANCH   8   9
ENDBRANCH   7   8
ENDBRANCH   6   7
ENDBRANCH   3   6
ENDBRANCH   1   2
BRANCH   1  25
ATOM     25  C   UNL A   1      31.761  30.369  26.649  1.00  0.00     0.023 C 
BRANCH  25  26
ATOM     26  C   UNL A   1      31.740  31.899  26.704  1.00  0.00     0.023 C 
BRANCH  26  27
ATOM     27  C   UNL A   1      33.009  32.555  27.238  1.00  0.00     0.116 C 
BRANCH  27  28
ATOM     28  N   UNL A   1      32.781  33.878  27.796  1.00  0.00    -0.352 N 
ATOM     29  C   UNL A   1      33.440  34.506  28.828  1.00  0.00     0.251 C 
ATOM     30  H   UNL A   1      32.055  34.396  27.377  1.00  0.00     0.163 HD
ATOM     31  O   UNL A   1      33.040  35.585  29.243  1.00  0.00    -0.269 OA
BRANCH  29  32
ATOM     32  C   UNL A   1      34.606  33.847  29.456  1.00  0.00     0.039 A 
ATOM     33  C   UNL A   1      35.890  34.247  29.076  1.00  0.00     0.014 A 
ATOM     34  C   UNL A   1      34.436  32.863  30.433  1.00  0.00     0.014 A 
ATOM     35  C   UNL A   1      37.002  33.713  29.731  1.00  0.00     0.010 A 
ATOM     36  C   UNL A   1      35.541  32.382  31.130  1.00  0.00     0.010 A 
ATOM     37  C   UNL A   1      36.836  32.805  30.791  1.00  0.00    -0.014 A 
BRANCH  37  38
ATOM     38  C   UNL A   1      37.999  32.293  31.559  1.00  0.00     0.031 A 
ATOM     39  C   UNL A   1      38.873  31.214  30.976  1.00  0.00     0.074 A 
ATOM     40  C   UNL A   1      38.239  32.756  32.802  1.00  0.00     0.049 A 
ATOM     41  N   UNL A   1      39.879  30.583  31.523  1.00  0.00    -0.248 NA
ATOM     42  C   UNL A   1      38.562  30.775  29.605  1.00  0.00     0.031 C 
ATOM     43  C   UNL A   1      37.453  33.783  33.493  1.00  0.00     0.029 A 
ATOM     44  N   UNL A   1      39.211  32.420  33.712  1.00  0.00    -0.354 N 
ATOM     45  C   UNL A   1      40.318  29.672  30.568  1.00  0.00     0.074 A 
ATOM     46  C   UNL A   1      39.435  29.794  29.430  1.00  0.00     0.031 C 
ATOM     47  C   UNL A   1      37.990  34.009  34.703  1.00  0.00     0.029 A 
ATOM     48  C   UNL A   1      39.128  33.117  34.895  1.00  0.00     0.049 A 
ATOM     49  H   UNL A   1      39.902  31.743  33.533  1.00  0.00     0.167 HD
ATOM     50  C   UNL A   1      41.378  28.829  30.622  1.00  0.00     0.031 A 
ATOM     51  C   UNL A   1      39.879  33.041  36.012  1.00  0.00     0.031 A 
ATOM     52  C   UNL A   1      42.261  28.712  31.752  1.00  0.00     0.049 A 
ATOM     53  C   UNL A   1      41.024  32.063  36.061  1.00  0.00     0.074 A 
ATOM     54  C   UNL A   1      43.372  27.898  31.894  1.00  0.00     0.029 A 
ATOM     55  N   UNL A   1      42.141  29.435  32.929  1.00  0.00    -0.354 N 
ATOM     56  N   UNL A   1      41.442  31.236  35.132  1.00  0.00    -0.248 NA
ATOM     57  C   UNL A   1      41.803  32.017  37.306  1.00  0.00     0.031 C 
ATOM     58  C   UNL A   1      43.902  28.102  33.173  1.00  0.00     0.029 A 
ATOM     59  C   UNL A   1      43.152  29.081  33.805  1.00  0.00     0.049 A 
ATOM     60  H   UNL A   1      41.441  30.103  33.113  1.00  0.00     0.167 HD
ATOM     61  C   UNL A   1      42.555  30.598  35.670  1.00  0.00     0.074 A 
ATOM     62  C   UNL A   1      42.752  31.144  36.997  1.00  0.00     0.031 C 
ATOM     63  C   UNL A   1      43.345  29.646  35.115  1.00  0.00     0.031 A 
BRANCH  50  64
ATOM     64  C   UNL A   1      41.650  27.976  29.413  1.00  0.00    -0.014 A 
ATOM     65  C   UNL A   1      42.576  28.389  28.438  1.00  0.00     0.010 A 
ATOM     66  C   UNL A   1      41.021  26.725  29.274  1.00  0.00     0.010 A 
ATOM     67  C   UNL A   1      42.846  27.582  27.331  1.00  0.00     0.020 A 
ATOM     68  C   UNL A   1      41.310  25.902  28.181  1.00  0.00     0.020 A 
ATOM     69  C   UNL A   1      42.211  26.343  27.210  1.00  0.00     0.054 A 
BRANCH  69  70
ATOM     70  S   UNL A   1      42.612  25.301  25.780  1.00  0.00     0.124 S 
ATOM     71  O   UNL A   1      41.660  24.204  25.931  1.00  0.00    -0.237 OA
ATOM     72  O   UNL A   1      42.366  26.196  24.652  1.00  0.00    -0.237 OA
ATOM     73  O   UNL A   1      44.012  24.943  25.993  1.00  0.00    -0.744 OA
ENDBRANCH  69  70
ENDBRANCH  50  64
BRANCH  51  74
ATOM     74  C   UNL A   1      39.583  33.911  37.184  1.00  0.00    -0.014 A 
ATOM     75  C   UNL A   1      40.124  35.208  37.261  1.00  0.00     0.010 A 
ATOM     76  C   UNL A   1      38.793  33.436  38.245  1.00  0.00     0.010 A 
ATOM     77  C   UNL A   1      39.916  35.995  38.397  1.00  0.00     0.020 A 
ATOM     78  C   UNL A   1      38.557  34.232  39.370  1.00  0.00     0.020 A 
ATOM     79  C   UNL A   1      39.139  35.499  39.448  1.00  0.00     0.054 A 
BRANCH  79  80
ATOM     80  S   UNL A   1      38.877  36.538  40.912  1.00  0.00     0.124 S 
ATOM     81  O   UNL A   1      37.868  35.778  41.643  1.00  0.00    -0.237 OA
ATOM     82  O   UNL A   1      40.206  36.574  41.518  1.00  0.00    -0.237 OA
ATOM     83  O   UNL A   1      38.423  37.808  40.351  1.00  0.00    -0.744 OA
ENDBRANCH  79  80
ENDBRANCH  51  74
BRANCH  63  84
ATOM     84  C   UNL A   1      44.527  29.171  35.916  1.00  0.00    -0.014 A 
ATOM     85  C   UNL A   1      44.429  28.062  36.774  1.00  0.00     0.010 A 
ATOM     86  C   UNL A   1      45.770  29.815  35.763  1.00  0.00     0.010 A 
ATOM     87  C   UNL A   1      45.548  27.622  37.488  1.00  0.00     0.020 A 
ATOM     88  C   UNL A   1      46.895  29.361  36.454  1.00  0.00     0.020 A 
ATOM     89  C   UNL A   1      46.774  28.275  37.323  1.00  0.00     0.054 A 
BRANCH  89  90
ATOM     90  S   UNL A   1      48.222  27.654  38.222  1.00  0.00     0.124 S 
ATOM     91  O   UNL A   1      49.320  28.316  37.523  1.00  0.00    -0.237 OA
ATOM     92  O   UNL A   1      47.974  28.116  39.585  1.00  0.00    -0.237 OA
ATOM     93  O   UNL A   1      48.148  26.206  38.038  1.00  0.00    -0.744 OA
ENDBRANCH  89  90
ENDBRANCH  63  84
ENDBRANCH  37  38
ENDBRANCH  29  32
ENDBRANCH  27  28
ENDBRANCH  26  27
ENDBRANCH  25  26
ENDBRANCH   1  25
TORSDOF 20
ENDMDL
MODEL 2
REMARK VINA RESULT:      -9.7      1.382      8.295
REMARK SMILES CNC(=O)[C@H]1CCCCN1C(=O)NCCOCC(=O)NCCCCNC(=O)c1ccc(-c2c3nc(c(-c4ccc(S(=O)(=O)[O-])cc4)c4ccc([nH]4)c(-c4ccc(S(=O)(=O)[O-])cc4)c4nc(c(-c5ccc(S(=O)(=O)[O-])cc5)c5ccc2[nH]5)C=C4)C=C3)cc1
REMARK SMILES IDX 21 1 20 2 18 3 19 4 17 6 16 7 15 8 14 9 13 10 11 11 12 12
REMARK SMILES IDX 10 14 5 15 6 16 7 17 9 18 8 19 3 20 1 21 2 22 4 24 22 25
REMARK SMILES IDX 23 26 24 27 25 28 26 29 27 31 28 32 29 33 87 34 30 35 86 36
REMARK SMILES IDX 31 37 32 38 33 39 80 40 34 41 85 42 79 43 81 44 35 45 84 46
REMARK SMILES IDX 78 47 77 48 36 50 66 51 47 52 65 53 48 54 51 55 64 56 82 57
REMARK SMILES IDX 49 58 50 59 63 61 83 62 52 63 37 64 38 65 46 66 39 67 45 68
REMARK SMILES IDX 40 69 41 70 42 71 43 72 44 73 67 74 68 75 76 76 69 77 75 78
REMARK SMILES IDX 70 79 71 80 72 81 73 82 74 83 53 84 54 85 62 86 55 87 61 88
REMARK SMILES IDX 56 89 57 90 58 91 59 92 60 93
REMARK H PARENT 20 5 13 13 2 23 25 30 81 49 51 60
REMARK Flexibility Score: inf
ROOT
ATOM      1  C   UNL A   1      32.096  29.652  25.734  1.00  0.00     0.116 C 
ENDROOT
BRANCH   1   2
ATOM      2  N   UNL A   1      31.699  28.503  26.523  1.00  0.00    -0.354 N 
ATOM      3  C   UNL A   1      31.376  27.253  26.081  1.00  0.00     0.245 C 
ATOM      4  O   UNL A   1      31.041  26.395  26.898  1.00  0.00    -0.272 OA
ATOM      5  H   UNL A   1      31.656  28.643  27.497  1.00  0.00     0.163 HD
BRANCH   3   6
ATOM      6  C   UNL A   1      31.460  26.958  24.581  1.00  0.00     0.260 C 
BRANCH   6   7
ATOM      7  O   UNL A   1      30.271  26.480  23.970  1.00  0.00    -0.370 OA
BRANCH   7   8
ATOM      8  C   UNL A   1      30.291  25.087  23.627  1.00  0.00     0.182 C 
BRANCH   8   9
ATOM      9  C   UNL A   1      31.639  24.648  23.039  1.00  0.00     0.146 C 
BRANCH   9  10
ATOM     10  N   UNL A   1      31.698  23.222  22.763  1.00  0.00    -0.336 N 
ATOM     11  C   UNL A   1      32.403  22.158  23.172  1.00  0.00     0.318 C 
ATOM     12  O   UNL A   1      32.092  21.102  22.611  1.00  0.00    -0.249 OA
ATOM     13  H   UNL A   1      31.032  22.966  22.085  1.00  0.00     0.165 HD
BRANCH  11  14
ATOM     14  N   UNL A   1      33.345  22.195  24.158  1.00  0.00    -0.313 N 
ATOM     15  C   UNL A   1      32.843  22.150  25.551  1.00  0.00     0.176 C 
ATOM     16  C   UNL A   1      32.871  23.589  26.112  1.00  0.00     0.035 C 
ATOM     17  C   UNL A   1      34.214  24.307  25.899  1.00  0.00     0.004 C 
ATOM     18  C   UNL A   1      34.728  22.648  24.079  1.00  0.00     0.122 C 
ATOM     19  C   UNL A   1      34.774  24.119  24.484  1.00  0.00     0.022 C 
BRANCH  15  20
ATOM     20  C   UNL A   1      33.620  21.154  26.445  1.00  0.00     0.242 C 
ATOM     21  C   UNL A   1      32.631  19.117  25.299  1.00  0.00     0.142 C 
ATOM     22  N   UNL A   1      33.477  19.810  26.244  1.00  0.00    -0.357 N 
ATOM     23  H   UNL A   1      34.025  19.235  26.824  1.00  0.00     0.163 HD
ATOM     24  O   UNL A   1      34.400  21.524  27.326  1.00  0.00    -0.273 OA
ENDBRANCH  15  20
ENDBRANCH  11  14
ENDBRANCH   9  10
ENDBRANCH   8   9
ENDBRANCH   7   8
ENDBRANCH   6   7
ENDBRANCH   3   6
ENDBRANCH   1   2
BRANCH   1  25
ATOM     25  C   UNL A   1      32.064  30.943  26.548  1.00  0.00     0.023 C 
BRANCH  25  26
ATOM     26  C   UNL A   1      33.197  31.089  27.567  1.00  0.00     0.023 C 
BRANCH  26  27
ATOM     27  C   UNL A   1      33.982  32.396  27.498  1.00  0.00     0.116 C 
BRANCH  27  28
ATOM     28  N   UNL A   1      33.302  33.508  28.141  1.00  0.00    -0.352 N 
ATOM     29  C   UNL A   1      33.568  34.097  29.357  1.00  0.00     0.251 C 
ATOM     30  H   UNL A   1      32.549  33.894  27.637  1.00  0.00     0.163 HD
ATOM     31  O   UNL A   1      32.820  34.958  29.797  1.00  0.00    -0.269 OA
BRANCH  29  32
ATOM     32  C   UNL A   1      34.739  33.649  30.143  1.00  0.00     0.039 A 
ATOM     33  C   UNL A   1      34.570  32.621  31.074  1.00  0.00     0.014 A 
ATOM     34  C   UNL A   1      35.999  34.217  29.941  1.00  0.00     0.014 A 
ATOM     35  C   UNL A   1      35.682  32.113  31.751  1.00  0.00     0.010 A 
ATOM     36  C   UNL A   1      37.114  33.664  30.566  1.00  0.00     0.010 A 
ATOM     37  C   UNL A   1      36.969  32.603  31.473  1.00  0.00    -0.014 A 
BRANCH  37  38
ATOM     38  C   UNL A   1      38.174  32.016  32.114  1.00  0.00     0.031 A 
ATOM     39  C   UNL A   1      38.561  32.427  33.510  1.00  0.00     0.074 A 
ATOM     40  C   UNL A   1      38.951  31.158  31.423  1.00  0.00     0.049 A 
ATOM     41  N   UNL A   1      39.617  32.091  34.205  1.00  0.00    -0.248 NA
ATOM     42  C   UNL A   1      37.651  33.350  34.209  1.00  0.00     0.031 C 
ATOM     43  C   UNL A   1      38.702  30.699  30.053  1.00  0.00     0.029 A 
ATOM     44  N   UNL A   1      40.115  30.522  31.775  1.00  0.00    -0.354 N 
ATOM     45  C   UNL A   1      39.501  32.762  35.417  1.00  0.00     0.074 A 
ATOM     46  C   UNL A   1      38.302  33.567  35.342  1.00  0.00     0.031 C 
ATOM     47  C   UNL A   1      39.667  29.837  29.695  1.00  0.00     0.029 A 
ATOM     48  C   UNL A   1      40.627  29.714  30.786  1.00  0.00     0.049 A 
ATOM     49  H   UNL A   1      40.544  30.634  32.654  1.00  0.00     0.167 HD
ATOM     50  C   UNL A   1      40.304  32.694  36.506  1.00  0.00     0.031 A 
ATOM     51  C   UNL A   1      41.748  28.965  30.758  1.00  0.00     0.031 A 
ATOM     52  C   UNL A   1      41.494  31.889  36.584  1.00  0.00     0.049 A 
ATOM     53  C   UNL A   1      42.646  28.943  31.967  1.00  0.00     0.074 A 
ATOM     54  C   UNL A   1      42.364  31.741  37.651  1.00  0.00     0.029 A 
ATOM     55  N   UNL A   1      41.975  31.087  35.561  1.00  0.00    -0.354 N 
ATOM     56  N   UNL A   1      42.498  29.559  33.116  1.00  0.00    -0.248 NA
ATOM     57  C   UNL A   1      43.857  28.116  31.877  1.00  0.00     0.031 C 
ATOM     58  C   UNL A   1      43.394  30.879  37.259  1.00  0.00     0.029 A 
ATOM     59  C   UNL A   1      43.135  30.449  35.967  1.00  0.00     0.049 A 
ATOM     60  H   UNL A   1      41.555  30.985  34.677  1.00  0.00     0.167 HD
ATOM     61  C   UNL A   1      43.579  29.164  33.896  1.00  0.00     0.074 A 
ATOM     62  C   UNL A   1      44.364  28.248  33.095  1.00  0.00     0.031 C 
ATOM     63  C   UNL A   1      43.894  29.526  35.164  1.00  0.00     0.031 A 
BRANCH  50  64
ATOM     64  C   UNL A   1      39.912  33.505  37.711  1.00  0.00    -0.014 A 
ATOM     65  C   UNL A   1      39.123  32.938  38.730  1.00  0.00     0.010 A 
ATOM     66  C   UNL A   1      40.380  34.822  37.861  1.00  0.00     0.010 A 
ATOM     67  C   UNL A   1      38.783  33.685  39.860  1.00  0.00     0.020 A 
ATOM     68  C   UNL A   1      40.064  35.564  39.004  1.00  0.00     0.020 A 
ATOM     69  C   UNL A   1      39.257  34.994  39.990  1.00  0.00     0.054 A 
BRANCH  69  70
ATOM     70  S   UNL A   1      38.830  35.924  41.488  1.00  0.00     0.124 S 
ATOM     71  O   UNL A   1      37.519  35.372  41.821  1.00  0.00    -0.237 OA
ATOM     72  O   UNL A   1      39.912  35.570  42.403  1.00  0.00    -0.237 OA
ATOM     73  O   UNL A   1      38.824  37.315  41.042  1.00  0.00    -0.744 OA
ENDBRANCH  69  70
ENDBRANCH  50  64
BRANCH  51  74
ATOM     74  C   UNL A   1      42.095  28.169  29.548  1.00  0.00    -0.014 A 
ATOM     75  C   UNL A   1      42.991  28.681  28.592  1.00  0.00     0.010 A 
ATOM     76  C   UNL A   1      41.504  26.912  29.326  1.00  0.00     0.010 A 
ATOM     77  C   UNL A   1      43.255  27.971  27.417  1.00  0.00     0.020 A 
ATOM     78  C   UNL A   1      41.789  26.186  28.166  1.00  0.00     0.020 A 
ATOM     79  C   UNL A   1      42.646  26.731  27.208  1.00  0.00     0.054 A 
BRANCH  79  80
ATOM     80  S   UNL A   1      43.005  25.824  25.679  1.00  0.00     0.124 S 
ATOM     81  O   UNL A   1      43.210  24.466  26.175  1.00  0.00    -0.237 OA
ATOM     82  O   UNL A   1      41.791  26.034  24.893  1.00  0.00    -0.237 OA
ATOM     83  O   UNL A   1      44.197  26.490  25.160  1.00  0.00    -0.744 OA
ENDBRANCH  79  80
ENDBRANCH  51  74
BRANCH  63  84
ATOM     84  C   UNL A   1      45.109  28.892  35.786  1.00  0.00    -0.014 A 
ATOM     85  C   UNL A   1      45.024  27.667  36.469  1.00  0.00     0.010 A 
ATOM     86  C   UNL A   1      46.366  29.509  35.633  1.00  0.00     0.010 A 
ATOM     87  C   UNL A   1      46.171  27.084  37.016  1.00  0.00     0.020 A 
ATOM     88  C   UNL A   1      47.517  28.915  36.154  1.00  0.00     0.020 A 
ATOM     89  C   UNL A   1      47.411  27.712  36.855  1.00  0.00     0.054 A 
BRANCH  89  90
ATOM     90  S   UNL A   1      48.890  26.910  37.530  1.00  0.00     0.124 S 
ATOM     91  O   UNL A   1      49.922  27.333  36.588  1.00  0.00    -0.237 OA
ATOM     92  O   UNL A   1      48.985  27.487  38.868  1.00  0.00    -0.237 OA
ATOM     93  O   UNL A   1      48.559  25.486  37.495  1.00  0.00    -0.744 OA
ENDBRANCH  89  90
ENDBRANCH  63  84
ENDBRANCH  37  38
ENDBRANCH  29  32
ENDBRANCH  27  28
ENDBRANCH  26  27
ENDBRANCH  25  26
ENDBRANCH   1  25
TORSDOF 20
ENDMDL
MODEL 3
REMARK VINA RESULT:      -9.5      5.911     10.469
REMARK SMILES CNC(=O)[C@H]1CCCCN1C(=O)NCCOCC(=O)NCCCCNC(=O)c1ccc(-c2c3nc(c(-c4ccc(S(=O)(=O)[O-])cc4)c4ccc([nH]4)c(-c4ccc(S(=O)(=O)[O-])cc4)c4nc(c(-c5ccc(S(=O)(=O)[O-])cc5)c5ccc2[nH]5)C=C4)C=C3)cc1
REMARK SMILES IDX 21 1 20 2 18 3 19 4 17 6 16 7 15 8 14 9 13 10 11 11 12 12
REMARK SMILES IDX 10 14 5 15 6 16 7 17 9 18 8 19 3 20 1 21 2 22 4 24 22 25
REMARK SMILES IDX 23 26 24 27 25 28 26 29 27 31 28 32 29 33 87 34 30 35 86 36
REMARK SMILES IDX 31 37 32 38 33 39 80 40 34 41 85 42 79 43 81 44 35 45 84 46
REMARK SMILES IDX 78 47 77 48 36 50 66 51 47 52 65 53 48 54 51 55 64 56 82 57
REMARK SMILES IDX 49 58 50 59 63 61 83 62 52 63 37 64 38 65 46 66 39 67 45 68
REMARK SMILES IDX 40 69 41 70 42 71 43 72 44 73 67 74 68 75 76 76 69 77 75 78
REMARK SMILES IDX 70 79 71 80 72 81 73 82 74 83 53 84 54 85 62 86 55 87 61 88
REMARK SMILES IDX 56 89 57 90 58 91 59 92 60 93
REMARK H PARENT 20 5 13 13 2 23 25 30 81 49 51 60
REMARK Flexibility Score: inf
ROOT
ATOM      1  C   UNL A   1      34.410  33.747  29.050  1.00  0.00     0.116 C 
ENDROOT
BRANCH   1   2
ATOM      2  N   UNL A   1      33.438  34.698  28.548  1.00  0.00    -0.354 N 
ATOM      3  C   UNL A   1      32.915  35.782  29.192  1.00  0.00     0.245 C 
ATOM      4  O   UNL A   1      32.079  36.478  28.616  1.00  0.00    -0.272 OA
ATOM      5  H   UNL A   1      33.116  34.543  27.630  1.00  0.00     0.163 HD
BRANCH   3   6
ATOM      6  C   UNL A   1      33.402  36.103  30.608  1.00  0.00     0.260 C 
BRANCH   6   7
ATOM      7  O   UNL A   1      32.732  35.436  31.667  1.00  0.00    -0.370 OA
BRANCH   7   8
ATOM      8  C   UNL A   1      33.237  35.732  32.976  1.00  0.00     0.182 C 
BRANCH   8   9
ATOM      9  C   UNL A   1      34.724  35.383  33.123  1.00  0.00     0.146 C 
BRANCH   9  10
ATOM     10  N   UNL A   1      35.044  34.802  34.417  1.00  0.00    -0.336 N 
ATOM     11  C   UNL A   1      35.867  33.867  34.912  1.00  0.00     0.318 C 
ATOM     12  O   UNL A   1      35.766  33.703  36.133  1.00  0.00    -0.249 OA
ATOM     13  H   UNL A   1      34.505  35.213  35.131  1.00  0.00     0.165 HD
BRANCH  11  14
ATOM     14  N   UNL A   1      36.785  33.183  34.170  1.00  0.00    -0.313 N 
ATOM     15  C   UNL A   1      38.105  33.831  33.995  1.00  0.00     0.176 C 
ATOM     16  C   UNL A   1      38.137  34.471  32.590  1.00  0.00     0.035 C 
ATOM     17  C   UNL A   1      37.697  33.517  31.467  1.00  0.00     0.004 C 
ATOM     18  C   UNL A   1      36.562  32.106  33.214  1.00  0.00     0.122 C 
ATOM     19  C   UNL A   1      36.436  32.720  31.822  1.00  0.00     0.022 C 
BRANCH  15  20
ATOM     20  C   UNL A   1      39.292  32.865  34.228  1.00  0.00     0.242 C 
ATOM     21  C   UNL A   1      39.179  33.092  36.754  1.00  0.00     0.142 C 
ATOM     22  N   UNL A   1      39.690  32.577  35.503  1.00  0.00    -0.357 N 
ATOM     23  H   UNL A   1      40.427  31.929  35.580  1.00  0.00     0.163 HD
ATOM     24  O   UNL A   1      39.886  32.309  33.301  1.00  0.00    -0.273 OA
ENDBRANCH  15  20
ENDBRANCH  11  14
ENDBRANCH   9  10
ENDBRANCH   8   9
ENDBRANCH   7   8
ENDBRANCH   6   7
ENDBRANCH   3   6
ENDBRANCH   1   2
BRANCH   1  25
ATOM     25  C   UNL A   1      34.164  32.340  28.510  1.00  0.00     0.023 C 
BRANCH  25  26
ATOM     26  C   UNL A   1      35.296  31.774  27.650  1.00  0.00     0.023 C 
BRANCH  26  27
ATOM     27  C   UNL A   1      35.709  30.339  27.965  1.00  0.00     0.116 C 
BRANCH  27  28
ATOM     28  N   UNL A   1      35.594  30.005  29.375  1.00  0.00    -0.352 N 
ATOM     29  C   UNL A   1      36.572  29.580  30.245  1.00  0.00     0.251 C 
ATOM     30  H   UNL A   1      34.692  30.095  29.760  1.00  0.00     0.163 HD
ATOM     31  O   UNL A   1      36.274  29.234  31.380  1.00  0.00    -0.269 OA
BRANCH  29  32
ATOM     32  C   UNL A   1      37.976  29.505  29.783  1.00  0.00     0.039 A 
ATOM     33  C   UNL A   1      38.990  29.381  30.735  1.00  0.00     0.014 A 
ATOM     34  C   UNL A   1      38.287  29.528  28.421  1.00  0.00     0.014 A 
ATOM     35  C   UNL A   1      40.312  29.205  30.318  1.00  0.00     0.010 A 
ATOM     36  C   UNL A   1      39.593  29.285  28.007  1.00  0.00     0.010 A 
ATOM     37  C   UNL A   1      40.619  29.115  28.949  1.00  0.00    -0.014 A 
BRANCH  37  38
ATOM     38  C   UNL A   1      42.003  28.838  28.485  1.00  0.00     0.031 A 
ATOM     39  C   UNL A   1      42.404  27.439  28.101  1.00  0.00     0.074 A 
ATOM     40  C   UNL A   1      42.914  29.832  28.463  1.00  0.00     0.049 A 
ATOM     41  N   UNL A   1      43.581  26.986  27.752  1.00  0.00    -0.248 NA
ATOM     42  C   UNL A   1      41.349  26.412  28.129  1.00  0.00     0.031 C 
ATOM     43  C   UNL A   1      42.661  31.227  28.836  1.00  0.00     0.029 A 
ATOM     44  N   UNL A   1      44.242  29.822  28.116  1.00  0.00    -0.354 N 
ATOM     45  C   UNL A   1      43.409  25.625  27.524  1.00  0.00     0.074 A 
ATOM     46  C   UNL A   1      42.029  25.316  27.828  1.00  0.00     0.031 C 
ATOM     47  C   UNL A   1      43.788  31.939  28.672  1.00  0.00     0.029 A 
ATOM     48  C   UNL A   1      44.854  31.049  28.227  1.00  0.00     0.049 A 
ATOM     49  H   UNL A   1      44.713  29.011  27.817  1.00  0.00     0.167 HD
ATOM     50  C   UNL A   1      44.310  24.718  27.077  1.00  0.00     0.031 A 
ATOM     51  C   UNL A   1      46.132  31.415  28.004  1.00  0.00     0.031 A 
ATOM     52  C   UNL A   1      45.682  25.026  26.769  1.00  0.00     0.049 A 
ATOM     53  C   UNL A   1      47.124  30.377  27.549  1.00  0.00     0.074 A 
ATOM     54  C   UNL A   1      46.667  24.177  26.293  1.00  0.00     0.029 A 
ATOM     55  N   UNL A   1      46.259  26.279  26.894  1.00  0.00    -0.354 N 
ATOM     56  N   UNL A   1      46.931  29.102  27.307  1.00  0.00    -0.248 NA
ATOM     57  C   UNL A   1      48.504  30.830  27.328  1.00  0.00     0.031 C 
ATOM     58  C   UNL A   1      47.852  24.911  26.167  1.00  0.00     0.029 A 
ATOM     59  C   UNL A   1      47.589  26.227  26.514  1.00  0.00     0.049 A 
ATOM     60  H   UNL A   1      45.793  27.088  27.207  1.00  0.00     0.167 HD
ATOM     61  C   UNL A   1      48.157  28.611  26.871  1.00  0.00     0.074 A 
ATOM     62  C   UNL A   1      49.080  29.727  26.870  1.00  0.00     0.031 C 
ATOM     63  C   UNL A   1      48.490  27.350  26.503  1.00  0.00     0.031 A 
BRANCH  50  64
ATOM     64  C   UNL A   1      43.834  23.304  26.877  1.00  0.00    -0.014 A 
ATOM     65  C   UNL A   1      43.236  22.594  27.934  1.00  0.00     0.010 A 
ATOM     66  C   UNL A   1      43.930  22.698  25.612  1.00  0.00     0.010 A 
ATOM     67  C   UNL A   1      42.771  21.292  27.738  1.00  0.00     0.020 A 
ATOM     68  C   UNL A   1      43.440  21.404  25.404  1.00  0.00     0.020 A 
ATOM     69  C   UNL A   1      42.876  20.705  26.473  1.00  0.00     0.054 A 
BRANCH  69  70
ATOM     70  S   UNL A   1      42.227  19.027  26.241  1.00  0.00     0.124 S 
ATOM     71  O   UNL A   1      40.854  19.291  25.820  1.00  0.00    -0.237 OA
ATOM     72  O   UNL A   1      43.108  18.484  25.210  1.00  0.00    -0.237 OA
ATOM     73  O   UNL A   1      42.367  18.416  27.560  1.00  0.00    -0.744 OA
ENDBRANCH  69  70
ENDBRANCH  50  64
BRANCH  51  74
ATOM     74  C   UNL A   1      46.561  32.827  28.202  1.00  0.00    -0.014 A 
ATOM     75  C   UNL A   1      46.512  33.743  27.135  1.00  0.00     0.010 A 
ATOM     76  C   UNL A   1      47.057  33.256  29.446  1.00  0.00     0.010 A 
ATOM     77  C   UNL A   1      46.990  35.046  27.297  1.00  0.00     0.020 A 
ATOM     78  C   UNL A   1      47.508  34.567  29.621  1.00  0.00     0.020 A 
ATOM     79  C   UNL A   1      47.492  35.448  28.537  1.00  0.00     0.054 A 
BRANCH  79  80
ATOM     80  S   UNL A   1      48.105  37.145  28.728  1.00  0.00     0.124 S 
ATOM     81  O   UNL A   1      47.015  37.925  28.151  1.00  0.00    -0.237 OA
ATOM     82  O   UNL A   1      48.271  37.261  30.174  1.00  0.00    -0.237 OA
ATOM     83  O   UNL A   1      49.350  37.144  27.964  1.00  0.00    -0.744 OA
ENDBRANCH  79  80
ENDBRANCH  51  74
BRANCH  63  84
ATOM     84  C   UNL A   1      49.895  27.116  26.016  1.00  0.00    -0.014 A 
ATOM     85  C   UNL A   1      50.883  26.590  26.865  1.00  0.00     0.010 A 
ATOM     86  C   UNL A   1      50.213  27.378  24.670  1.00  0.00     0.010 A 
ATOM     87  C   UNL A   1      52.175  26.356  26.384  1.00  0.00     0.020 A 
ATOM     88  C   UNL A   1      51.494  27.120  24.179  1.00  0.00     0.020 A 
ATOM     89  C   UNL A   1      52.472  26.623  25.043  1.00  0.00     0.054 A 
BRANCH  89  90
ATOM     90  S   UNL A   1      54.141  26.265  24.431  1.00  0.00     0.124 S 
ATOM     91  O   UNL A   1      54.553  25.165  25.298  1.00  0.00    -0.237 OA
ATOM     92  O   UNL A   1      53.900  25.909  23.035  1.00  0.00    -0.237 OA
ATOM     93  O   UNL A   1      54.860  27.521  24.632  1.00  0.00    -0.744 OA
ENDBRANCH  89  90
ENDBRANCH  63  84
ENDBRANCH  37  38
ENDBRANCH  29  32
ENDBRANCH  27  28
ENDBRANCH  26  27
ENDBRANCH  25  26
ENDBRANCH   1  25
TORSDOF 20
ENDMDL
