MODEL 1
REMARK VINA RESULT:     -10.4      0.000      0.000
REMARK SMILES CC(C)c1ccc(C[N@@H+](CC(=O)NCCCCNC(=O)c2ccc(-c3c4nc(c(-c5ccc(S(=O)(=O)[O-])cc5)c5ccc([nH]5)c(-c5ccc(S(=O)(=O)[O-])cc5)c5nc(c(-c6ccc(S(=O)(=O)[O-])cc6)c6ccc3[nH]6)C=C5)C=C4)cc2)CC(F)(F)F)cc1
REMARK SMILES IDX 15 1 14 2 13 3 11 4 12 5 10 7 9 8 8 10 7 11 4 12 5 13 87 14
REMARK SMILES IDX 6 15 86 16 2 17 1 18 3 19 81 20 82 21 83 22 84 23 85 24
REMARK SMILES IDX 16 25 17 26 18 27 19 28 20 30 21 31 22 32 80 33 23 34 79 35
REMARK SMILES IDX 24 36 25 37 26 38 73 39 27 40 78 41 72 42 74 43 28 44 77 45
REMARK SMILES IDX 71 46 70 47 29 49 59 50 40 51 58 52 41 53 44 54 57 55 75 56
REMARK SMILES IDX 42 57 43 58 56 60 76 61 45 62 30 63 31 64 39 65 32 66 38 67
REMARK SMILES IDX 33 68 34 69 35 70 36 71 37 72 60 73 61 74 69 75 62 76 68 77
REMARK SMILES IDX 63 78 64 79 65 80 66 81 67 82 46 83 47 84 55 85 48 86 54 87
REMARK SMILES IDX 49 88 50 89 51 90 52 91 53 92
REMARK H PARENT 13 6 9 9 18 29 74 48 44 59
REMARK Flexibility Score: inf
ROOT
ATOM      1  C   UNL A   1      37.595  22.197  24.768  1.00  0.00     0.023 C 
ENDROOT
BRANCH   1   2
ATOM      2  C   UNL A   1      37.420  23.353  25.761  1.00  0.00     0.116 C 
BRANCH   2   3
ATOM      3  N   UNL A   1      36.279  24.185  25.425  1.00  0.00    -0.351 N 
ATOM      4  C   UNL A   1      34.985  24.166  25.849  1.00  0.00     0.275 C 
ATOM      5  O   UNL A   1      34.249  25.070  25.438  1.00  0.00    -0.269 OA
ATOM      6  H   UNL A   1      36.478  24.895  24.772  1.00  0.00     0.163 HD
BRANCH   4   7
ATOM      7  C   UNL A   1      34.431  23.129  26.836  1.00  0.00     0.364 C 
BRANCH   7   8
ATOM      8  N   UNL A   1      33.158  22.448  26.482  1.00  0.00    -0.316 N 
ATOM      9  H   UNL A   1      33.129  21.569  26.997  1.00  0.00     0.349 HD
BRANCH   8  10
ATOM     10  C   UNL A   1      33.151  22.032  25.088  1.00  0.00     0.299 C 
BRANCH  10  11
ATOM     11  C   UNL A   1      33.403  20.603  24.681  1.00  0.00     0.006 A 
ATOM     12  C   UNL A   1      33.873  17.812  24.512  1.00  0.00    -0.045 A 
ATOM     13  C   UNL A   1      32.575  18.342  24.395  1.00  0.00     0.004 A 
ATOM     14  C   UNL A   1      34.936  18.707  24.654  1.00  0.00     0.004 A 
ATOM     15  C   UNL A   1      32.341  19.720  24.474  1.00  0.00     0.010 A 
ATOM     16  C   UNL A   1      34.704  20.082  24.727  1.00  0.00     0.010 A 
BRANCH  12  17
ATOM     17  C   UNL A   1      34.067  16.304  24.538  1.00  0.00     0.013 C 
ATOM     18  C   UNL A   1      35.306  15.826  25.307  1.00  0.00     0.012 C 
ATOM     19  C   UNL A   1      32.821  15.615  25.108  1.00  0.00     0.012 C 
ENDBRANCH  12  17
ENDBRANCH  10  11
ENDBRANCH   8  10
BRANCH   8  20
ATOM     20  C   UNL A   1      31.926  23.035  27.054  1.00  0.00     0.380 C 
BRANCH  20  21
ATOM     21  C   UNL A   1      30.556  23.102  26.335  1.00  0.00     0.438 C 
ATOM     22  F   UNL A   1      30.082  21.886  26.002  1.00  0.00    -0.165 F 
ATOM     23  F   UNL A   1      29.635  23.684  27.142  1.00  0.00    -0.165 F 
ATOM     24  F   UNL A   1      30.611  23.850  25.215  1.00  0.00    -0.165 F 
ENDBRANCH  20  21
ENDBRANCH   8  20
ENDBRANCH   7   8
ENDBRANCH   4   7
ENDBRANCH   2   3
ENDBRANCH   1   2
BRANCH   1  25
ATOM     25  C   UNL A   1      38.125  20.893  25.332  1.00  0.00     0.023 C 
BRANCH  25  26
ATOM     26  C   UNL A   1      39.444  21.013  26.065  1.00  0.00     0.116 C 
BRANCH  26  27
ATOM     27  N   UNL A   1      40.249  19.797  26.030  1.00  0.00    -0.352 N 
ATOM     28  C   UNL A   1      41.615  19.667  26.146  1.00  0.00     0.251 C 
ATOM     29  H   UNL A   1      39.749  18.958  25.907  1.00  0.00     0.163 HD
ATOM     30  O   UNL A   1      42.149  18.574  26.010  1.00  0.00    -0.269 OA
BRANCH  28  31
ATOM     31  C   UNL A   1      42.425  20.880  26.389  1.00  0.00     0.039 A 
ATOM     32  C   UNL A   1      42.851  21.643  25.300  1.00  0.00     0.014 A 
ATOM     33  C   UNL A   1      42.671  21.307  27.694  1.00  0.00     0.014 A 
ATOM     34  C   UNL A   1      43.445  22.886  25.527  1.00  0.00     0.010 A 
ATOM     35  C   UNL A   1      43.153  22.588  27.913  1.00  0.00     0.010 A 
ATOM     36  C   UNL A   1      43.554  23.389  26.833  1.00  0.00    -0.014 A 
BRANCH  36  37
ATOM     37  C   UNL A   1      44.108  24.737  27.110  1.00  0.00     0.031 A 
ATOM     38  C   UNL A   1      43.191  25.829  27.594  1.00  0.00     0.074 A 
ATOM     39  C   UNL A   1      45.403  25.004  26.845  1.00  0.00     0.049 A 
ATOM     40  N   UNL A   1      43.446  27.096  27.787  1.00  0.00    -0.248 NA
ATOM     41  C   UNL A   1      41.789  25.453  27.855  1.00  0.00     0.031 C 
ATOM     42  C   UNL A   1      46.380  24.048  26.314  1.00  0.00     0.029 A 
ATOM     43  N   UNL A   1      46.121  26.165  26.980  1.00  0.00    -0.354 N 
ATOM     44  C   UNL A   1      42.234  27.671  28.155  1.00  0.00     0.074 A 
ATOM     45  C   UNL A   1      41.234  26.629  28.101  1.00  0.00     0.031 C 
ATOM     46  C   UNL A   1      47.574  24.653  26.204  1.00  0.00     0.029 A 
ATOM     47  C   UNL A   1      47.442  26.046  26.617  1.00  0.00     0.049 A 
ATOM     48  H   UNL A   1      45.726  27.006  27.307  1.00  0.00     0.167 HD
ATOM     49  C   UNL A   1      41.980  28.945  28.534  1.00  0.00     0.031 A 
ATOM     50  C   UNL A   1      48.434  26.958  26.619  1.00  0.00     0.031 A 
ATOM     51  C   UNL A   1      42.986  29.965  28.633  1.00  0.00     0.049 A 
ATOM     52  C   UNL A   1      48.136  28.358  27.082  1.00  0.00     0.074 A 
ATOM     53  C   UNL A   1      42.848  31.269  29.074  1.00  0.00     0.029 A 
ATOM     54  N   UNL A   1      44.320  29.791  28.297  1.00  0.00    -0.354 N 
ATOM     55  N   UNL A   1      46.995  28.867  27.483  1.00  0.00    -0.248 NA
ATOM     56  C   UNL A   1      49.261  29.302  27.103  1.00  0.00     0.031 C 
ATOM     57  C   UNL A   1      44.096  31.894  28.977  1.00  0.00     0.029 A 
ATOM     58  C   UNL A   1      45.017  30.966  28.514  1.00  0.00     0.049 A 
ATOM     59  H   UNL A   1      44.712  28.955  27.956  1.00  0.00     0.167 HD
ATOM     60  C   UNL A   1      47.271  30.185  27.827  1.00  0.00     0.074 A 
ATOM     61  C   UNL A   1      48.687  30.390  27.601  1.00  0.00     0.031 C 
ATOM     62  C   UNL A   1      46.428  31.142  28.287  1.00  0.00     0.031 A 
BRANCH  49  63
ATOM     63  C   UNL A   1      40.558  29.292  28.883  1.00  0.00    -0.014 A 
ATOM     64  C   UNL A   1      39.605  29.536  27.877  1.00  0.00     0.010 A 
ATOM     65  C   UNL A   1      40.164  29.361  30.231  1.00  0.00     0.010 A 
ATOM     66  C   UNL A   1      38.296  29.889  28.212  1.00  0.00     0.020 A 
ATOM     67  C   UNL A   1      38.847  29.686  30.570  1.00  0.00     0.020 A 
ATOM     68  C   UNL A   1      37.926  29.967  29.557  1.00  0.00     0.054 A 
BRANCH  68  69
ATOM     69  S   UNL A   1      36.216  30.412  29.965  1.00  0.00     0.124 S 
ATOM     70  O   UNL A   1      36.008  29.687  31.217  1.00  0.00    -0.237 OA
ATOM     71  O   UNL A   1      36.283  31.866  30.086  1.00  0.00    -0.237 OA
ATOM     72  O   UNL A   1      35.449  29.920  28.824  1.00  0.00    -0.744 OA
ENDBRANCH  68  69
ENDBRANCH  49  63
BRANCH  50  73
ATOM     73  C   UNL A   1      49.808  26.570  26.198  1.00  0.00    -0.014 A 
ATOM     74  C   UNL A   1      50.295  26.948  24.934  1.00  0.00     0.010 A 
ATOM     75  C   UNL A   1      50.639  25.829  27.058  1.00  0.00     0.010 A 
ATOM     76  C   UNL A   1      51.579  26.572  24.527  1.00  0.00     0.020 A 
ATOM     77  C   UNL A   1      51.932  25.473  26.664  1.00  0.00     0.020 A 
ATOM     78  C   UNL A   1      52.389  25.836  25.395  1.00  0.00     0.054 A 
BRANCH  78  79
ATOM     79  S   UNL A   1      54.069  25.399  24.865  1.00  0.00     0.124 S 
ATOM     80  O   UNL A   1      54.048  23.943  24.964  1.00  0.00    -0.237 OA
ATOM     81  O   UNL A   1      54.126  25.941  23.510  1.00  0.00    -0.237 OA
ATOM     82  O   UNL A   1      54.921  26.082  25.836  1.00  0.00    -0.744 OA
ENDBRANCH  78  79
ENDBRANCH  50  73
BRANCH  62  83
ATOM     83  C   UNL A   1      47.020  32.486  28.607  1.00  0.00    -0.014 A 
ATOM     84  C   UNL A   1      47.032  33.518  27.653  1.00  0.00     0.010 A 
ATOM     85  C   UNL A   1      47.513  32.736  29.901  1.00  0.00     0.010 A 
ATOM     86  C   UNL A   1      47.554  34.772  27.981  1.00  0.00     0.020 A 
ATOM     87  C   UNL A   1      48.013  33.994  30.238  1.00  0.00     0.020 A 
ATOM     88  C   UNL A   1      48.042  35.001  29.271  1.00  0.00     0.054 A 
BRANCH  88  89
ATOM     89  S   UNL A   1      48.668  36.652  29.688  1.00  0.00     0.124 S 
ATOM     90  O   UNL A   1      48.043  37.481  28.661  1.00  0.00    -0.237 OA
ATOM     91  O   UNL A   1      48.170  36.852  31.046  1.00  0.00    -0.237 OA
ATOM     92  O   UNL A   1      50.118  36.510  29.578  1.00  0.00    -0.744 OA
ENDBRANCH  88  89
ENDBRANCH  62  83
ENDBRANCH  36  37
ENDBRANCH  28  31
ENDBRANCH  26  27
ENDBRANCH  25  26
ENDBRANCH   1  25
TORSDOF 20
ENDMDL
MODEL 2
REMARK VINA RESULT:     -10.3      6.303     11.146
REMARK SMILES CC(C)c1ccc(C[N@@H+](CC(=O)NCCCCNC(=O)c2ccc(-c3c4nc(c(-c5ccc(S(=O)(=O)[O-])cc5)c5ccc([nH]5)c(-c5ccc(S(=O)(=O)[O-])cc5)c5nc(c(-c6ccc(S(=O)(=O)[O-])cc6)c6ccc3[nH]6)C=C5)C=C4)cc2)CC(F)(F)F)cc1
REMARK SMILES IDX 15 1 14 2 13 3 11 4 12 5 10 7 9 8 8 10 7 11 4 12 5 13 87 14
REMARK SMILES IDX 6 15 86 16 2 17 1 18 3 19 81 20 82 21 83 22 84 23 85 24
REMARK SMILES IDX 16 25 17 26 18 27 19 28 20 30 21 31 22 32 80 33 23 34 79 35
REMARK SMILES IDX 24 36 25 37 26 38 73 39 27 40 78 41 72 42 74 43 28 44 77 45
REMARK SMILES IDX 71 46 70 47 29 49 59 50 40 51 58 52 41 53 44 54 57 55 75 56
REMARK SMILES IDX 42 57 43 58 56 60 76 61 45 62 30 63 31 64 39 65 32 66 38 67
REMARK SMILES IDX 33 68 34 69 35 70 36 71 37 72 60 73 61 74 69 75 62 76 68 77
REMARK SMILES IDX 63 78 64 79 65 80 66 81 67 82 46 83 47 84 55 85 48 86 54 87
REMARK SMILES IDX 49 88 50 89 51 90 52 91 53 92
REMARK H PARENT 13 6 9 9 18 29 74 48 44 59
REMARK Flexibility Score: inf
ROOT
ATOM      1  C   UNL A   1      39.610  21.444  26.031  1.00  0.00     0.023 C 
ENDROOT
BRANCH   1   2
ATOM      2  C   UNL A   1      38.253  22.158  26.053  1.00  0.00     0.116 C 
BRANCH   2   3
ATOM      3  N   UNL A   1      37.764  22.429  24.714  1.00  0.00    -0.351 N 
ATOM      4  C   UNL A   1      36.608  22.994  24.266  1.00  0.00     0.275 C 
ATOM      5  O   UNL A   1      36.507  23.168  23.047  1.00  0.00    -0.269 OA
ATOM      6  H   UNL A   1      38.381  22.154  23.997  1.00  0.00     0.163 HD
BRANCH   4   7
ATOM      7  C   UNL A   1      35.479  23.466  25.193  1.00  0.00     0.364 C 
BRANCH   7   8
ATOM      8  N   UNL A   1      34.131  22.870  25.001  1.00  0.00    -0.316 N 
ATOM      9  H   UNL A   1      33.775  23.204  24.107  1.00  0.00     0.349 HD
BRANCH   8  10
ATOM     10  C   UNL A   1      33.180  23.390  25.970  1.00  0.00     0.299 C 
BRANCH  10  11
ATOM     11  C   UNL A   1      32.307  24.583  25.669  1.00  0.00     0.006 A 
ATOM     12  C   UNL A   1      31.016  26.875  24.612  1.00  0.00    -0.045 A 
ATOM     13  C   UNL A   1      30.522  25.581  24.366  1.00  0.00     0.004 A 
ATOM     14  C   UNL A   1      32.131  27.004  25.446  1.00  0.00     0.004 A 
ATOM     15  C   UNL A   1      31.155  24.447  24.891  1.00  0.00     0.010 A 
ATOM     16  C   UNL A   1      32.759  25.875  25.972  1.00  0.00     0.010 A 
BRANCH  12  17
ATOM     17  C   UNL A   1      30.367  28.067  23.928  1.00  0.00     0.013 C 
ATOM     18  C   UNL A   1      30.922  29.434  24.349  1.00  0.00     0.012 C 
ATOM     19  C   UNL A   1      30.468  27.928  22.404  1.00  0.00     0.012 C 
ENDBRANCH  12  17
ENDBRANCH  10  11
ENDBRANCH   8  10
BRANCH   8  20
ATOM     20  C   UNL A   1      34.099  21.425  24.680  1.00  0.00     0.380 C 
BRANCH  20  21
ATOM     21  C   UNL A   1      32.881  20.673  24.089  1.00  0.00     0.438 C 
ATOM     22  F   UNL A   1      32.469  21.190  22.915  1.00  0.00    -0.165 F 
ATOM     23  F   UNL A   1      33.201  19.375  23.864  1.00  0.00    -0.165 F 
ATOM     24  F   UNL A   1      31.832  20.669  24.935  1.00  0.00    -0.165 F 
ENDBRANCH  20  21
ENDBRANCH   8  20
ENDBRANCH   7   8
ENDBRANCH   4   7
ENDBRANCH   2   3
ENDBRANCH   1   2
BRANCH   1  25
ATOM     25  C   UNL A   1      40.456  21.554  27.285  1.00  0.00     0.023 C 
BRANCH  25  26
ATOM     26  C   UNL A   1      41.034  22.931  27.536  1.00  0.00     0.116 C 
BRANCH  26  27
ATOM     27  N   UNL A   1      41.123  23.758  26.338  1.00  0.00    -0.352 N 
ATOM     28  C   UNL A   1      41.155  25.132  26.242  1.00  0.00     0.251 C 
ATOM     29  H   UNL A   1      41.166  23.269  25.484  1.00  0.00     0.163 HD
ATOM     30  O   UNL A   1      41.145  25.679  25.147  1.00  0.00    -0.269 OA
BRANCH  28  31
ATOM     31  C   UNL A   1      41.149  25.930  27.486  1.00  0.00     0.039 A 
ATOM     32  C   UNL A   1      42.214  26.794  27.745  1.00  0.00     0.014 A 
ATOM     33  C   UNL A   1      40.043  25.891  28.337  1.00  0.00     0.014 A 
ATOM     34  C   UNL A   1      42.124  27.689  28.813  1.00  0.00     0.010 A 
ATOM     35  C   UNL A   1      39.907  26.857  29.322  1.00  0.00     0.010 A 
ATOM     36  C   UNL A   1      40.948  27.762  29.578  1.00  0.00    -0.014 A 
BRANCH  36  37
ATOM     37  C   UNL A   1      40.784  28.751  30.671  1.00  0.00     0.031 A 
ATOM     38  C   UNL A   1      41.645  28.643  31.901  1.00  0.00     0.074 A 
ATOM     39  C   UNL A   1      39.812  29.683  30.599  1.00  0.00     0.049 A 
ATOM     40  N   UNL A   1      41.587  29.330  33.012  1.00  0.00    -0.248 NA
ATOM     41  C   UNL A   1      42.681  27.594  31.899  1.00  0.00     0.031 C 
ATOM     42  C   UNL A   1      38.872  29.852  29.487  1.00  0.00     0.029 A 
ATOM     43  N   UNL A   1      39.448  30.663  31.488  1.00  0.00    -0.354 N 
ATOM     44  C   UNL A   1      42.549  28.774  33.847  1.00  0.00     0.074 A 
ATOM     45  C   UNL A   1      43.134  27.658  33.141  1.00  0.00     0.031 C 
ATOM     46  C   UNL A   1      38.065  30.895  29.746  1.00  0.00     0.029 A 
ATOM     47  C   UNL A   1      38.402  31.443  31.055  1.00  0.00     0.049 A 
ATOM     48  H   UNL A   1      39.895  30.795  32.355  1.00  0.00     0.167 HD
ATOM     49  C   UNL A   1      42.935  29.174  35.081  1.00  0.00     0.031 A 
ATOM     50  C   UNL A   1      37.786  32.485  31.646  1.00  0.00     0.031 A 
ATOM     51  C   UNL A   1      42.384  30.314  35.761  1.00  0.00     0.049 A 
ATOM     52  C   UNL A   1      38.258  32.937  33.002  1.00  0.00     0.074 A 
ATOM     53  C   UNL A   1      42.753  30.848  36.982  1.00  0.00     0.029 A 
ATOM     54  N   UNL A   1      41.357  31.103  35.268  1.00  0.00    -0.354 N 
ATOM     55  N   UNL A   1      39.211  32.434  33.751  1.00  0.00    -0.248 NA
ATOM     56  C   UNL A   1      37.581  34.102  33.586  1.00  0.00     0.031 C 
ATOM     57  C   UNL A   1      41.925  31.945  37.243  1.00  0.00     0.029 A 
ATOM     58  C   UNL A   1      41.071  32.117  36.164  1.00  0.00     0.049 A 
ATOM     59  H   UNL A   1      40.899  30.963  34.408  1.00  0.00     0.167 HD
ATOM     60  C   UNL A   1      39.263  33.237  34.884  1.00  0.00     0.074 A 
ATOM     61  C   UNL A   1      38.257  34.266  34.716  1.00  0.00     0.031 C 
ATOM     62  C   UNL A   1      40.068  33.132  35.970  1.00  0.00     0.031 A 
BRANCH  49  63
ATOM     63  C   UNL A   1      44.014  28.377  35.761  1.00  0.00    -0.014 A 
ATOM     64  C   UNL A   1      43.726  27.143  36.374  1.00  0.00     0.010 A 
ATOM     65  C   UNL A   1      45.337  28.856  35.776  1.00  0.00     0.010 A 
ATOM     66  C   UNL A   1      44.729  26.427  37.030  1.00  0.00     0.020 A 
ATOM     67  C   UNL A   1      46.349  28.127  36.408  1.00  0.00     0.020 A 
ATOM     68  C   UNL A   1      46.034  26.926  37.047  1.00  0.00     0.054 A 
BRANCH  68  69
ATOM     69  S   UNL A   1      47.321  25.968  37.892  1.00  0.00     0.124 S 
ATOM     70  O   UNL A   1      48.433  26.915  37.915  1.00  0.00    -0.237 OA
ATOM     71  O   UNL A   1      46.711  25.684  39.189  1.00  0.00    -0.237 OA
ATOM     72  O   UNL A   1      47.509  24.805  37.029  1.00  0.00    -0.744 OA
ENDBRANCH  68  69
ENDBRANCH  49  63
BRANCH  50  73
ATOM     73  C   UNL A   1      36.678  33.193  30.950  1.00  0.00    -0.014 A 
ATOM     74  C   UNL A   1      35.350  33.033  31.387  1.00  0.00     0.010 A 
ATOM     75  C   UNL A   1      36.941  34.036  29.855  1.00  0.00     0.010 A 
ATOM     76  C   UNL A   1      34.303  33.684  30.727  1.00  0.00     0.020 A 
ATOM     77  C   UNL A   1      35.899  34.706  29.208  1.00  0.00     0.020 A 
ATOM     78  C   UNL A   1      34.584  34.515  29.640  1.00  0.00     0.054 A 
BRANCH  78  79
ATOM     79  S   UNL A   1      33.215  35.386  28.827  1.00  0.00     0.124 S 
ATOM     80  O   UNL A   1      33.923  36.279  27.916  1.00  0.00    -0.237 OA
ATOM     81  O   UNL A   1      32.474  34.296  28.198  1.00  0.00    -0.237 OA
ATOM     82  O   UNL A   1      32.523  36.041  29.935  1.00  0.00    -0.744 OA
ENDBRANCH  78  79
ENDBRANCH  50  73
BRANCH  62  83
ATOM     83  C   UNL A   1      39.918  34.174  37.043  1.00  0.00    -0.014 A 
ATOM     84  C   UNL A   1      40.544  35.428  36.927  1.00  0.00     0.010 A 
ATOM     85  C   UNL A   1      39.088  33.917  38.149  1.00  0.00     0.010 A 
ATOM     86  C   UNL A   1      40.363  36.397  37.916  1.00  0.00     0.020 A 
ATOM     87  C   UNL A   1      38.886  34.892  39.127  1.00  0.00     0.020 A 
ATOM     88  C   UNL A   1      39.536  36.122  39.010  1.00  0.00     0.054 A 
BRANCH  88  89
ATOM     89  S   UNL A   1      39.277  37.414  40.256  1.00  0.00     0.124 S 
ATOM     90  O   UNL A   1      40.640  37.875  40.504  1.00  0.00    -0.237 OA
ATOM     91  O   UNL A   1      38.410  38.363  39.562  1.00  0.00    -0.237 OA
ATOM     92  O   UNL A   1      38.648  36.703  41.367  1.00  0.00    -0.744 OA
ENDBRANCH  88  89
ENDBRANCH  62  83
ENDBRANCH  36  37
ENDBRANCH  28  31
ENDBRANCH  26  27
ENDBRANCH  25  26
ENDBRANCH   1  25
TORSDOF 20
ENDMDL
MODEL 3
REMARK VINA RESULT:     -10.0      5.356      8.348
REMARK SMILES CC(C)c1ccc(C[N@@H+](CC(=O)NCCCCNC(=O)c2ccc(-c3c4nc(c(-c5ccc(S(=O)(=O)[O-])cc5)c5ccc([nH]5)c(-c5ccc(S(=O)(=O)[O-])cc5)c5nc(c(-c6ccc(S(=O)(=O)[O-])cc6)c6ccc3[nH]6)C=C5)C=C4)cc2)CC(F)(F)F)cc1
REMARK SMILES IDX 15 1 14 2 13 3 11 4 12 5 10 7 9 8 8 10 7 11 4 12 5 13 87 14
REMARK SMILES IDX 6 15 86 16 2 17 1 18 3 19 81 20 82 21 83 22 84 23 85 24
REMARK SMILES IDX 16 25 17 26 18 27 19 28 20 30 21 31 22 32 80 33 23 34 79 35
REMARK SMILES IDX 24 36 25 37 26 38 73 39 27 40 78 41 72 42 74 43 28 44 77 45
REMARK SMILES IDX 71 46 70 47 29 49 59 50 40 51 58 52 41 53 44 54 57 55 75 56
REMARK SMILES IDX 42 57 43 58 56 60 76 61 45 62 30 63 31 64 39 65 32 66 38 67
REMARK SMILES IDX 33 68 34 69 35 70 36 71 37 72 60 73 61 74 69 75 62 76 68 77
REMARK SMILES IDX 63 78 64 79 65 80 66 81 67 82 46 83 47 84 55 85 48 86 54 87
REMARK SMILES IDX 49 88 50 89 51 90 52 91 53 92
REMARK H PARENT 13 6 9 9 18 29 74 48 44 59
REMARK Flexibility Score: inf
ROOT
ATOM      1  C   UNL A   1      33.593  26.738  25.564  1.00  0.00     0.023 C 
ENDROOT
BRANCH   1   2
ATOM      2  C   UNL A   1      32.914  25.395  25.861  1.00  0.00     0.116 C 
BRANCH   2   3
ATOM      3  N   UNL A   1      32.319  24.816  24.671  1.00  0.00    -0.351 N 
ATOM      4  C   UNL A   1      31.868  23.559  24.400  1.00  0.00     0.275 C 
ATOM      5  O   UNL A   1      31.328  23.383  23.303  1.00  0.00    -0.269 OA
ATOM      6  H   UNL A   1      32.222  25.447  23.922  1.00  0.00     0.163 HD
BRANCH   4   7
ATOM      7  C   UNL A   1      31.949  22.395  25.399  1.00  0.00     0.364 C 
BRANCH   7   8
ATOM      8  N   UNL A   1      33.056  21.418  25.234  1.00  0.00    -0.316 N 
ATOM      9  H   UNL A   1      33.587  21.408  26.104  1.00  0.00     0.349 HD
BRANCH   8  10
ATOM     10  C   UNL A   1      34.020  21.874  24.245  1.00  0.00     0.299 C 
BRANCH  10  11
ATOM     11  C   UNL A   1      35.448  22.194  24.611  1.00  0.00     0.006 A 
ATOM     12  C   UNL A   1      37.932  22.728  25.868  1.00  0.00    -0.045 A 
ATOM     13  C   UNL A   1      37.615  21.441  25.396  1.00  0.00     0.004 A 
ATOM     14  C   UNL A   1      37.010  23.754  25.645  1.00  0.00     0.004 A 
ATOM     15  C   UNL A   1      36.391  21.176  24.771  1.00  0.00     0.010 A 
ATOM     16  C   UNL A   1      35.791  23.491  25.018  1.00  0.00     0.010 A 
BRANCH  12  17
ATOM     17  C   UNL A   1      39.222  22.944  26.644  1.00  0.00     0.013 C 
ATOM     18  C   UNL A   1      40.367  21.995  26.269  1.00  0.00     0.012 C 
ATOM     19  C   UNL A   1      39.698  24.395  26.494  1.00  0.00     0.012 C 
ENDBRANCH  12  17
ENDBRANCH  10  11
ENDBRANCH   8  10
BRANCH   8  20
ATOM     20  C   UNL A   1      32.670  19.989  25.242  1.00  0.00     0.380 C 
BRANCH  20  21
ATOM     21  C   UNL A   1      32.705  19.052  24.011  1.00  0.00     0.438 C 
ATOM     22  F   UNL A   1      31.899  17.981  24.148  1.00  0.00    -0.165 F 
ATOM     23  F   UNL A   1      32.297  19.721  22.905  1.00  0.00    -0.165 F 
ATOM     24  F   UNL A   1      33.951  18.606  23.752  1.00  0.00    -0.165 F 
ENDBRANCH  20  21
ENDBRANCH   8  20
ENDBRANCH   7   8
ENDBRANCH   4   7
ENDBRANCH   2   3
ENDBRANCH   1   2
BRANCH   1  25
ATOM     25  C   UNL A   1      33.419  27.831  26.601  1.00  0.00     0.023 C 
BRANCH  25  26
ATOM     26  C   UNL A   1      34.526  28.864  26.619  1.00  0.00     0.116 C 
BRANCH  26  27
ATOM     27  N   UNL A   1      34.047  30.237  26.727  1.00  0.00    -0.352 N 
ATOM     28  C   UNL A   1      34.501  31.245  27.548  1.00  0.00     0.251 C 
ATOM     29  H   UNL A   1      33.299  30.476  26.132  1.00  0.00     0.163 HD
ATOM     30  O   UNL A   1      33.932  32.327  27.578  1.00  0.00    -0.269 OA
BRANCH  28  31
ATOM     31  C   UNL A   1      35.658  30.974  28.428  1.00  0.00     0.039 A 
ATOM     32  C   UNL A   1      35.629  29.858  29.267  1.00  0.00     0.014 A 
ATOM     33  C   UNL A   1      36.802  31.770  28.344  1.00  0.00     0.014 A 
ATOM     34  C   UNL A   1      36.788  29.488  29.952  1.00  0.00     0.010 A 
ATOM     35  C   UNL A   1      37.979  31.334  28.932  1.00  0.00     0.010 A 
ATOM     36  C   UNL A   1      37.985  30.194  29.750  1.00  0.00    -0.014 A 
BRANCH  36  37
ATOM     37  C   UNL A   1      39.255  29.787  30.399  1.00  0.00     0.031 A 
ATOM     38  C   UNL A   1      39.668  30.442  31.691  1.00  0.00     0.074 A 
ATOM     39  C   UNL A   1      40.072  28.902  29.793  1.00  0.00     0.049 A 
ATOM     40  N   UNL A   1      40.784  30.315  32.361  1.00  0.00    -0.248 NA
ATOM     41  C   UNL A   1      38.718  31.400  32.285  1.00  0.00     0.031 C 
ATOM     42  C   UNL A   1      39.813  28.244  28.508  1.00  0.00     0.029 A 
ATOM     43  N   UNL A   1      41.294  28.410  30.174  1.00  0.00    -0.354 N 
ATOM     44  C   UNL A   1      40.682  31.199  33.429  1.00  0.00     0.074 A 
ATOM     45  C   UNL A   1      39.426  31.899  33.286  1.00  0.00     0.031 C 
ATOM     46  C   UNL A   1      40.828  27.409  28.229  1.00  0.00     0.029 A 
ATOM     47  C   UNL A   1      41.826  27.501  29.290  1.00  0.00     0.049 A 
ATOM     48  H   UNL A   1      41.749  28.682  31.003  1.00  0.00     0.167 HD
ATOM     49  C   UNL A   1      41.543  31.392  34.455  1.00  0.00     0.031 A 
ATOM     50  C   UNL A   1      42.986  26.816  29.331  1.00  0.00     0.031 A 
ATOM     51  C   UNL A   1      42.768  30.660  34.619  1.00  0.00     0.049 A 
ATOM     52  C   UNL A   1      43.909  27.018  30.502  1.00  0.00     0.074 A 
ATOM     53  C   UNL A   1      43.677  30.727  35.659  1.00  0.00     0.029 A 
ATOM     54  N   UNL A   1      43.248  29.717  33.724  1.00  0.00    -0.354 N 
ATOM     55  N   UNL A   1      43.767  27.816  31.534  1.00  0.00    -0.248 NA
ATOM     56  C   UNL A   1      45.141  26.219  30.520  1.00  0.00     0.031 C 
ATOM     57  C   UNL A   1      44.725  29.844  35.377  1.00  0.00     0.029 A 
ATOM     58  C   UNL A   1      44.445  29.198  34.182  1.00  0.00     0.049 A 
ATOM     59  H   UNL A   1      42.801  29.455  32.886  1.00  0.00     0.167 HD
ATOM     60  C   UNL A   1      44.880  27.597  32.336  1.00  0.00     0.074 A 
ATOM     61  C   UNL A   1      45.679  26.583  31.678  1.00  0.00     0.031 C 
ATOM     62  C   UNL A   1      45.216  28.185  33.511  1.00  0.00     0.031 A 
BRANCH  49  63
ATOM     63  C   UNL A   1      41.173  32.426  35.483  1.00  0.00    -0.014 A 
ATOM     64  C   UNL A   1      41.709  33.726  35.428  1.00  0.00     0.010 A 
ATOM     65  C   UNL A   1      40.267  32.102  36.510  1.00  0.00     0.010 A 
ATOM     66  C   UNL A   1      41.384  34.668  36.406  1.00  0.00     0.020 A 
ATOM     67  C   UNL A   1      39.917  33.052  37.474  1.00  0.00     0.020 A 
ATOM     68  C   UNL A   1      40.494  34.324  37.426  1.00  0.00     0.054 A 
BRANCH  68  69
ATOM     69  S   UNL A   1      40.076  35.571  38.674  1.00  0.00     0.124 S 
ATOM     70  O   UNL A   1      39.595  36.675  37.846  1.00  0.00    -0.237 OA
ATOM     71  O   UNL A   1      39.057  34.896  39.474  1.00  0.00    -0.237 OA
ATOM     72  O   UNL A   1      41.342  35.811  39.360  1.00  0.00    -0.744 OA
ENDBRANCH  68  69
ENDBRANCH  49  63
BRANCH  50  73
ATOM     73  C   UNL A   1      43.327  25.855  28.248  1.00  0.00    -0.014 A 
ATOM     74  C   UNL A   1      44.003  26.296  27.096  1.00  0.00     0.010 A 
ATOM     75  C   UNL A   1      42.988  24.495  28.363  1.00  0.00     0.010 A 
ATOM     76  C   UNL A   1      44.312  25.400  26.068  1.00  0.00     0.020 A 
ATOM     77  C   UNL A   1      43.317  23.592  27.348  1.00  0.00     0.020 A 
ATOM     78  C   UNL A   1      43.966  24.053  26.200  1.00  0.00     0.054 A 
BRANCH  78  79
ATOM     79  S   UNL A   1      44.418  22.899  24.875  1.00  0.00     0.124 S 
ATOM     80  O   UNL A   1      45.375  23.686  24.103  1.00  0.00    -0.237 OA
ATOM     81  O   UNL A   1      44.976  21.769  25.613  1.00  0.00    -0.237 OA
ATOM     82  O   UNL A   1      43.145  22.630  24.208  1.00  0.00    -0.744 OA
ENDBRANCH  78  79
ENDBRANCH  50  73
BRANCH  62  83
ATOM     83  C   UNL A   1      46.482  27.721  34.176  1.00  0.00    -0.014 A 
ATOM     84  C   UNL A   1      47.705  28.372  33.939  1.00  0.00     0.010 A 
ATOM     85  C   UNL A   1      46.433  26.660  35.098  1.00  0.00     0.010 A 
ATOM     86  C   UNL A   1      48.864  27.951  34.594  1.00  0.00     0.020 A 
ATOM     87  C   UNL A   1      47.585  26.252  35.772  1.00  0.00     0.020 A 
ATOM     88  C   UNL A   1      48.797  26.892  35.505  1.00  0.00     0.054 A 
BRANCH  88  89
ATOM     89  S   UNL A   1      50.305  26.395  36.381  1.00  0.00     0.124 S 
ATOM     90  O   UNL A   1      50.949  25.522  35.404  1.00  0.00    -0.237 OA
ATOM     91  O   UNL A   1      50.975  27.671  36.620  1.00  0.00    -0.237 OA
ATOM     92  O   UNL A   1      49.805  25.728  37.580  1.00  0.00    -0.744 OA
ENDBRANCH  88  89
ENDBRANCH  62  83
ENDBRANCH  36  37
ENDBRANCH  28  31
ENDBRANCH  26  27
ENDBRANCH  25  26
ENDBRANCH   1  25
TORSDOF 20
ENDMDL
