MODEL 1
REMARK VINA RESULT:     -10.9      0.000      0.000
REMARK SMILES CCc1cccc(-c2ccc([C@@H](C)C(=O)NCCCCNC(=O)c3ccc(-c4c5nc(c(-c6ccc(S(=O)(=O)[O-])cc6)c6ccc([nH]6)c(-c6ccc(S(=O)(=O)[O-])cc6)c6nc(c(-c7ccc(S(=O)(=O)[O-])cc7)c7ccc4[nH]7)C=C6)C=C5)cc3)cc2)c1
REMARK SMILES IDX 18 1 17 2 16 3 14 4 15 5 12 7 13 8 11 9 8 10 9 11 85 12
REMARK SMILES IDX 10 13 84 14 7 15 3 16 4 17 86 18 5 19 6 20 2 21 1 22 19 23
REMARK SMILES IDX 20 24 21 25 22 26 23 28 24 29 25 30 83 31 26 32 82 33 27 34
REMARK SMILES IDX 28 35 29 36 76 37 30 38 81 39 75 40 77 41 31 42 80 43 74 44
REMARK SMILES IDX 73 45 32 47 62 48 43 49 61 50 44 51 47 52 60 53 78 54 45 55
REMARK SMILES IDX 46 56 59 58 79 59 48 60 33 61 34 62 42 63 35 64 41 65 36 66
REMARK SMILES IDX 37 67 38 68 39 69 40 70 63 71 64 72 72 73 65 74 71 75 66 76
REMARK SMILES IDX 67 77 68 78 69 79 70 80 49 81 50 82 58 83 51 84 57 85 52 86
REMARK SMILES IDX 53 87 54 88 55 89 56 90
REMARK H PARENT 16 6 21 27 77 46 47 57
REMARK Flexibility Score: inf
ROOT
ATOM      1  C   UNL A   1      35.500  21.906  26.149  1.00  0.00     0.023 C 
ENDROOT
BRANCH   1   2
ATOM      2  C   UNL A   1      35.088  20.934  25.044  1.00  0.00     0.116 C 
BRANCH   2   3
ATOM      3  N   UNL A   1      34.128  19.951  25.503  1.00  0.00    -0.356 N 
ATOM      4  C   UNL A   1      32.857  19.678  25.099  1.00  0.00     0.227 C 
ATOM      5  O   UNL A   1      32.251  18.800  25.725  1.00  0.00    -0.274 OA
ATOM      6  H   UNL A   1      34.452  19.379  26.236  1.00  0.00     0.163 HD
BRANCH   4   7
ATOM      7  C   UNL A   1      32.167  20.385  23.921  1.00  0.00     0.105 C 
ATOM      8  C   UNL A   1      32.387  19.696  22.574  1.00  0.00     0.023 C 
BRANCH   7   9
ATOM      9  C   UNL A   1      32.332  21.896  23.947  1.00  0.00    -0.036 A 
ATOM     10  C   UNL A   1      32.819  24.707  24.212  1.00  0.00    -0.018 A 
ATOM     11  C   UNL A   1      33.238  23.984  23.083  1.00  0.00     0.009 A 
ATOM     12  C   UNL A   1      32.095  23.992  25.179  1.00  0.00     0.009 A 
ATOM     13  C   UNL A   1      32.972  22.615  22.936  1.00  0.00     0.005 A 
ATOM     14  C   UNL A   1      31.875  22.613  25.062  1.00  0.00     0.005 A 
BRANCH  10  15
ATOM     15  C   UNL A   1      33.158  26.143  24.385  1.00  0.00    -0.018 A 
ATOM     16  C   UNL A   1      33.751  28.047  25.836  1.00  0.00    -0.048 A 
ATOM     17  C   UNL A   1      33.892  28.863  24.711  1.00  0.00     0.004 A 
ATOM     18  C   UNL A   1      33.401  26.695  25.658  1.00  0.00     0.012 A 
ATOM     19  C   UNL A   1      33.658  28.346  23.440  1.00  0.00     0.001 A 
ATOM     20  C   UNL A   1      33.284  27.008  23.283  1.00  0.00     0.009 A 
BRANCH  16  21
ATOM     21  C   UNL A   1      33.987  28.601  27.219  1.00  0.00     0.032 C 
ATOM     22  C   UNL A   1      34.281  30.092  27.207  1.00  0.00     0.009 C 
ENDBRANCH  16  21
ENDBRANCH  10  15
ENDBRANCH   7   9
ENDBRANCH   4   7
ENDBRANCH   2   3
ENDBRANCH   1   2
BRANCH   1  23
ATOM     23  C   UNL A   1      35.712  23.350  25.698  1.00  0.00     0.023 C 
BRANCH  23  24
ATOM     24  C   UNL A   1      37.039  23.631  24.999  1.00  0.00     0.116 C 
BRANCH  24  25
ATOM     25  N   UNL A   1      38.093  22.680  25.318  1.00  0.00    -0.352 N 
ATOM     26  C   UNL A   1      39.210  22.877  26.103  1.00  0.00     0.251 C 
ATOM     27  H   UNL A   1      37.996  21.782  24.925  1.00  0.00     0.163 HD
ATOM     28  O   UNL A   1      40.047  21.998  26.224  1.00  0.00    -0.269 OA
BRANCH  26  29
ATOM     29  C   UNL A   1      39.398  24.193  26.755  1.00  0.00     0.039 A 
ATOM     30  C   UNL A   1      38.932  24.372  28.059  1.00  0.00     0.014 A 
ATOM     31  C   UNL A   1      40.096  25.214  26.105  1.00  0.00     0.014 A 
ATOM     32  C   UNL A   1      39.244  25.548  28.745  1.00  0.00     0.010 A 
ATOM     33  C   UNL A   1      40.465  26.352  26.813  1.00  0.00     0.010 A 
ATOM     34  C   UNL A   1      40.052  26.526  28.144  1.00  0.00    -0.014 A 
BRANCH  34  35
ATOM     35  C   UNL A   1      40.497  27.731  28.889  1.00  0.00     0.031 A 
ATOM     36  C   UNL A   1      41.836  27.742  29.571  1.00  0.00     0.074 A 
ATOM     37  C   UNL A   1      39.659  28.779  29.024  1.00  0.00     0.049 A 
ATOM     38  N   UNL A   1      42.359  28.657  30.346  1.00  0.00    -0.248 NA
ATOM     39  C   UNL A   1      42.688  26.556  29.379  1.00  0.00     0.031 C 
ATOM     40  C   UNL A   1      38.314  28.872  28.452  1.00  0.00     0.029 A 
ATOM     41  N   UNL A   1      39.814  29.965  29.699  1.00  0.00    -0.354 N 
ATOM     42  C   UNL A   1      43.586  28.149  30.754  1.00  0.00     0.074 A 
ATOM     43  C   UNL A   1      43.711  26.827  30.177  1.00  0.00     0.031 C 
ATOM     44  C   UNL A   1      37.778  30.060  28.779  1.00  0.00     0.029 A 
ATOM     45  C   UNL A   1      38.722  30.796  29.613  1.00  0.00     0.049 A 
ATOM     46  H   UNL A   1      40.631  30.199  30.196  1.00  0.00     0.167 HD
ATOM     47  C   UNL A   1      44.533  28.734  31.525  1.00  0.00     0.031 A 
ATOM     48  C   UNL A   1      38.502  32.013  30.148  1.00  0.00     0.031 A 
ATOM     49  C   UNL A   1      44.418  30.056  32.080  1.00  0.00     0.049 A 
ATOM     50  C   UNL A   1      39.575  32.650  30.987  1.00  0.00     0.074 A 
ATOM     51  C   UNL A   1      45.347  30.760  32.827  1.00  0.00     0.029 A 
ATOM     52  N   UNL A   1      43.309  30.876  31.943  1.00  0.00    -0.354 N 
ATOM     53  N   UNL A   1      40.752  32.174  31.317  1.00  0.00    -0.248 NA
ATOM     54  C   UNL A   1      39.293  33.992  31.517  1.00  0.00     0.031 C 
ATOM     55  C   UNL A   1      44.785  31.994  33.171  1.00  0.00     0.029 A 
ATOM     56  C   UNL A   1      43.523  32.074  32.602  1.00  0.00     0.049 A 
ATOM     57  H   UNL A   1      42.490  30.640  31.452  1.00  0.00     0.167 HD
ATOM     58  C   UNL A   1      41.360  33.168  32.075  1.00  0.00     0.074 A 
ATOM     59  C   UNL A   1      40.427  34.274  32.144  1.00  0.00     0.031 C 
ATOM     60  C   UNL A   1      42.584  33.165  32.660  1.00  0.00     0.031 A 
BRANCH  47  61
ATOM     61  C   UNL A   1      45.780  27.940  31.808  1.00  0.00    -0.014 A 
ATOM     62  C   UNL A   1      45.890  27.160  32.973  1.00  0.00     0.010 A 
ATOM     63  C   UNL A   1      46.847  27.959  30.892  1.00  0.00     0.010 A 
ATOM     64  C   UNL A   1      47.063  26.452  33.242  1.00  0.00     0.020 A 
ATOM     65  C   UNL A   1      48.013  27.230  31.145  1.00  0.00     0.020 A 
ATOM     66  C   UNL A   1      48.121  26.498  32.330  1.00  0.00     0.054 A 
BRANCH  66  67
ATOM     67  S   UNL A   1      49.632  25.565  32.698  1.00  0.00     0.124 S 
ATOM     68  O   UNL A   1      50.419  26.551  33.436  1.00  0.00    -0.237 OA
ATOM     69  O   UNL A   1      49.133  24.442  33.489  1.00  0.00    -0.237 OA
ATOM     70  O   UNL A   1      50.152  25.212  31.380  1.00  0.00    -0.744 OA
ENDBRANCH  66  67
ENDBRANCH  47  61
BRANCH  48  71
ATOM     71  C   UNL A   1      37.220  32.719  29.883  1.00  0.00    -0.014 A 
ATOM     72  C   UNL A   1      37.095  33.567  28.769  1.00  0.00     0.010 A 
ATOM     73  C   UNL A   1      36.112  32.533  30.730  1.00  0.00     0.010 A 
ATOM     74  C   UNL A   1      35.891  34.227  28.513  1.00  0.00     0.020 A 
ATOM     75  C   UNL A   1      34.900  33.174  30.464  1.00  0.00     0.020 A 
ATOM     76  C   UNL A   1      34.799  34.026  29.362  1.00  0.00     0.054 A 
BRANCH  76  77
ATOM     77  S   UNL A   1      33.227  34.847  28.977  1.00  0.00     0.124 S 
ATOM     78  O   UNL A   1      32.596  34.924  30.290  1.00  0.00    -0.237 OA
ATOM     79  O   UNL A   1      33.664  36.118  28.407  1.00  0.00    -0.237 OA
ATOM     80  O   UNL A   1      32.591  33.935  28.028  1.00  0.00    -0.744 OA
ENDBRANCH  76  77
ENDBRANCH  48  71
BRANCH  60  81
ATOM     81  C   UNL A   1      42.999  34.405  33.401  1.00  0.00    -0.014 A 
ATOM     82  C   UNL A   1      42.743  34.547  34.776  1.00  0.00     0.010 A 
ATOM     83  C   UNL A   1      43.711  35.412  32.724  1.00  0.00     0.010 A 
ATOM     84  C   UNL A   1      43.173  35.689  35.458  1.00  0.00     0.020 A 
ATOM     85  C   UNL A   1      44.161  36.544  33.408  1.00  0.00     0.020 A 
ATOM     86  C   UNL A   1      43.879  36.680  34.768  1.00  0.00     0.054 A 
BRANCH  86  87
ATOM     87  S   UNL A   1      44.475  38.128  35.685  1.00  0.00     0.124 S 
ATOM     88  O   UNL A   1      43.935  39.231  34.895  1.00  0.00    -0.237 OA
ATOM     89  O   UNL A   1      43.873  37.945  37.004  1.00  0.00    -0.237 OA
ATOM     90  O   UNL A   1      45.929  37.986  35.647  1.00  0.00    -0.744 OA
ENDBRANCH  86  87
ENDBRANCH  60  81
ENDBRANCH  34  35
ENDBRANCH  26  29
ENDBRANCH  24  25
ENDBRANCH  23  24
ENDBRANCH   1  23
TORSDOF 17
ENDMDL
MODEL 2
REMARK VINA RESULT:     -10.4      3.118      4.144
REMARK SMILES CCc1cccc(-c2ccc([C@@H](C)C(=O)NCCCCNC(=O)c3ccc(-c4c5nc(c(-c6ccc(S(=O)(=O)[O-])cc6)c6ccc([nH]6)c(-c6ccc(S(=O)(=O)[O-])cc6)c6nc(c(-c7ccc(S(=O)(=O)[O-])cc7)c7ccc4[nH]7)C=C6)C=C5)cc3)cc2)c1
REMARK SMILES IDX 18 1 17 2 16 3 14 4 15 5 12 7 13 8 11 9 8 10 9 11 85 12
REMARK SMILES IDX 10 13 84 14 7 15 3 16 4 17 86 18 5 19 6 20 2 21 1 22 19 23
REMARK SMILES IDX 20 24 21 25 22 26 23 28 24 29 25 30 83 31 26 32 82 33 27 34
REMARK SMILES IDX 28 35 29 36 76 37 30 38 81 39 75 40 77 41 31 42 80 43 74 44
REMARK SMILES IDX 73 45 32 47 62 48 43 49 61 50 44 51 47 52 60 53 78 54 45 55
REMARK SMILES IDX 46 56 59 58 79 59 48 60 33 61 34 62 42 63 35 64 41 65 36 66
REMARK SMILES IDX 37 67 38 68 39 69 40 70 63 71 64 72 72 73 65 74 71 75 66 76
REMARK SMILES IDX 67 77 68 78 69 79 70 80 49 81 50 82 58 83 51 84 57 85 52 86
REMARK SMILES IDX 53 87 54 88 55 89 56 90
REMARK H PARENT 16 6 21 27 77 46 47 57
REMARK Flexibility Score: inf
ROOT
ATOM      1  C   UNL A   1      39.293  21.893  26.028  1.00  0.00     0.023 C 
ENDROOT
BRANCH   1   2
ATOM      2  C   UNL A   1      37.969  22.650  25.925  1.00  0.00     0.116 C 
BRANCH   2   3
ATOM      3  N   UNL A   1      36.936  21.873  25.272  1.00  0.00    -0.356 N 
ATOM      4  C   UNL A   1      35.603  21.757  25.524  1.00  0.00     0.227 C 
ATOM      5  O   UNL A   1      34.972  20.959  24.818  1.00  0.00    -0.274 OA
ATOM      6  H   UNL A   1      37.254  21.332  24.512  1.00  0.00     0.163 HD
BRANCH   4   7
ATOM      7  C   UNL A   1      34.867  22.562  26.606  1.00  0.00     0.105 C 
ATOM      8  C   UNL A   1      34.098  21.695  27.604  1.00  0.00     0.023 C 
BRANCH   7   9
ATOM      9  C   UNL A   1      34.137  23.778  26.057  1.00  0.00    -0.036 A 
ATOM     10  C   UNL A   1      32.741  26.157  25.287  1.00  0.00    -0.018 A 
ATOM     11  C   UNL A   1      34.081  25.934  24.929  1.00  0.00     0.009 A 
ATOM     12  C   UNL A   1      32.102  25.126  25.992  1.00  0.00     0.009 A 
ATOM     13  C   UNL A   1      34.756  24.755  25.276  1.00  0.00     0.005 A 
ATOM     14  C   UNL A   1      32.789  23.971  26.389  1.00  0.00     0.005 A 
BRANCH  10  15
ATOM     15  C   UNL A   1      32.053  27.434  24.965  1.00  0.00    -0.018 A 
ATOM     16  C   UNL A   1      30.385  28.702  23.665  1.00  0.00    -0.048 A 
ATOM     17  C   UNL A   1      30.674  29.849  24.408  1.00  0.00     0.004 A 
ATOM     18  C   UNL A   1      31.066  27.507  23.962  1.00  0.00     0.012 A 
ATOM     19  C   UNL A   1      31.644  29.808  25.405  1.00  0.00     0.001 A 
ATOM     20  C   UNL A   1      32.332  28.620  25.668  1.00  0.00     0.009 A 
BRANCH  16  21
ATOM     21  C   UNL A   1      29.346  28.739  22.571  1.00  0.00     0.032 C 
ATOM     22  C   UNL A   1      27.937  28.515  23.097  1.00  0.00     0.009 C 
ENDBRANCH  16  21
ENDBRANCH  10  15
ENDBRANCH   7   9
ENDBRANCH   4   7
ENDBRANCH   2   3
ENDBRANCH   1   2
BRANCH   1  23
ATOM     23  C   UNL A   1      40.037  22.065  27.350  1.00  0.00     0.023 C 
BRANCH  23  24
ATOM     24  C   UNL A   1      41.308  22.905  27.284  1.00  0.00     0.116 C 
BRANCH  24  25
ATOM     25  N   UNL A   1      41.392  23.766  26.114  1.00  0.00    -0.352 N 
ATOM     26  C   UNL A   1      41.398  25.145  26.069  1.00  0.00     0.251 C 
ATOM     27  H   UNL A   1      41.454  23.307  25.245  1.00  0.00     0.163 HD
ATOM     28  O   UNL A   1      41.404  25.731  24.998  1.00  0.00    -0.269 OA
BRANCH  26  29
ATOM     29  C   UNL A   1      41.344  25.899  27.342  1.00  0.00     0.039 A 
ATOM     30  C   UNL A   1      42.448  26.667  27.716  1.00  0.00     0.014 A 
ATOM     31  C   UNL A   1      40.182  25.902  28.117  1.00  0.00     0.014 A 
ATOM     32  C   UNL A   1      42.354  27.510  28.826  1.00  0.00     0.010 A 
ATOM     33  C   UNL A   1      40.067  26.793  29.178  1.00  0.00     0.010 A 
ATOM     34  C   UNL A   1      41.148  27.614  29.536  1.00  0.00    -0.014 A 
BRANCH  34  35
ATOM     35  C   UNL A   1      40.982  28.586  30.646  1.00  0.00     0.031 A 
ATOM     36  C   UNL A   1      41.842  28.481  31.875  1.00  0.00     0.074 A 
ATOM     37  C   UNL A   1      39.999  29.508  30.586  1.00  0.00     0.049 A 
ATOM     38  N   UNL A   1      41.784  29.171  32.985  1.00  0.00    -0.248 NA
ATOM     39  C   UNL A   1      42.887  27.444  31.865  1.00  0.00     0.031 C 
ATOM     40  C   UNL A   1      39.066  29.682  29.470  1.00  0.00     0.029 A 
ATOM     41  N   UNL A   1      39.616  30.466  31.491  1.00  0.00    -0.354 N 
ATOM     42  C   UNL A   1      42.763  28.637  33.812  1.00  0.00     0.074 A 
ATOM     43  C   UNL A   1      43.372  27.538  33.095  1.00  0.00     0.031 C 
ATOM     44  C   UNL A   1      38.234  30.701  29.747  1.00  0.00     0.029 A 
ATOM     45  C   UNL A   1      38.550  31.227  31.072  1.00  0.00     0.049 A 
ATOM     46  H   UNL A   1      40.062  30.596  32.359  1.00  0.00     0.167 HD
ATOM     47  C   UNL A   1      43.137  29.036  35.051  1.00  0.00     0.031 A 
ATOM     48  C   UNL A   1      37.895  32.232  31.685  1.00  0.00     0.031 A 
ATOM     49  C   UNL A   1      42.546  30.143  35.755  1.00  0.00     0.049 A 
ATOM     50  C   UNL A   1      38.339  32.669  33.053  1.00  0.00     0.074 A 
ATOM     51  C   UNL A   1      42.893  30.660  36.991  1.00  0.00     0.029 A 
ATOM     52  N   UNL A   1      41.490  30.906  35.282  1.00  0.00    -0.354 N 
ATOM     53  N   UNL A   1      39.304  32.185  33.799  1.00  0.00    -0.248 NA
ATOM     54  C   UNL A   1      37.610  33.792  33.660  1.00  0.00     0.031 C 
ATOM     55  C   UNL A   1      42.023  31.717  37.281  1.00  0.00     0.029 A 
ATOM     56  C   UNL A   1      41.163  31.883  36.206  1.00  0.00     0.049 A 
ATOM     57  H   UNL A   1      41.039  30.772  34.418  1.00  0.00     0.167 HD
ATOM     58  C   UNL A   1      39.314  32.961  34.952  1.00  0.00     0.074 A 
ATOM     59  C   UNL A   1      38.267  33.951  34.802  1.00  0.00     0.031 C 
ATOM     60  C   UNL A   1      40.119  32.862  36.039  1.00  0.00     0.031 A 
BRANCH  47  61
ATOM     61  C   UNL A   1      44.242  28.264  35.721  1.00  0.00    -0.014 A 
ATOM     62  C   UNL A   1      45.587  28.641  35.559  1.00  0.00     0.010 A 
ATOM     63  C   UNL A   1      43.932  27.159  36.533  1.00  0.00     0.010 A 
ATOM     64  C   UNL A   1      46.606  27.899  36.160  1.00  0.00     0.020 A 
ATOM     65  C   UNL A   1      44.948  26.429  37.157  1.00  0.00     0.020 A 
ATOM     66  C   UNL A   1      46.281  26.792  36.948  1.00  0.00     0.054 A 
BRANCH  66  67
ATOM     67  S   UNL A   1      47.622  25.847  37.721  1.00  0.00     0.124 S 
ATOM     68  O   UNL A   1      47.410  24.514  37.160  1.00  0.00    -0.237 OA
ATOM     69  O   UNL A   1      48.819  26.542  37.251  1.00  0.00    -0.237 OA
ATOM     70  O   UNL A   1      47.354  25.971  39.152  1.00  0.00    -0.744 OA
ENDBRANCH  66  67
ENDBRANCH  47  61
BRANCH  48  71
ATOM     71  C   UNL A   1      36.767  32.913  30.995  1.00  0.00    -0.014 A 
ATOM     72  C   UNL A   1      35.471  32.860  31.536  1.00  0.00     0.010 A 
ATOM     73  C   UNL A   1      36.984  33.633  29.807  1.00  0.00     0.010 A 
ATOM     74  C   UNL A   1      34.409  33.503  30.895  1.00  0.00     0.020 A 
ATOM     75  C   UNL A   1      35.929  34.297  29.175  1.00  0.00     0.020 A 
ATOM     76  C   UNL A   1      34.644  34.219  29.719  1.00  0.00     0.054 A 
BRANCH  76  77
ATOM     77  S   UNL A   1      33.262  35.097  28.935  1.00  0.00     0.124 S 
ATOM     78  O   UNL A   1      32.755  34.094  28.005  1.00  0.00    -0.237 OA
ATOM     79  O   UNL A   1      32.397  35.405  30.070  1.00  0.00    -0.237 OA
ATOM     80  O   UNL A   1      33.903  36.257  28.318  1.00  0.00    -0.744 OA
ENDBRANCH  76  77
ENDBRANCH  48  71
BRANCH  60  81
ATOM     81  C   UNL A   1      39.923  33.868  37.139  1.00  0.00    -0.014 A 
ATOM     82  C   UNL A   1      40.585  35.108  37.115  1.00  0.00     0.010 A 
ATOM     83  C   UNL A   1      39.015  33.590  38.177  1.00  0.00     0.010 A 
ATOM     84  C   UNL A   1      40.359  36.046  38.125  1.00  0.00     0.020 A 
ATOM     85  C   UNL A   1      38.771  34.536  39.177  1.00  0.00     0.020 A 
ATOM     86  C   UNL A   1      39.453  35.753  39.150  1.00  0.00     0.054 A 
BRANCH  86  87
ATOM     87  S   UNL A   1      39.135  37.008  40.421  1.00  0.00     0.124 S 
ATOM     88  O   UNL A   1      38.261  36.291  41.345  1.00  0.00    -0.237 OA
ATOM     89  O   UNL A   1      40.475  37.305  40.924  1.00  0.00    -0.237 OA
ATOM     90  O   UNL A   1      38.501  38.097  39.680  1.00  0.00    -0.744 OA
ENDBRANCH  86  87
ENDBRANCH  60  81
ENDBRANCH  34  35
ENDBRANCH  26  29
ENDBRANCH  24  25
ENDBRANCH  23  24
ENDBRANCH   1  23
TORSDOF 17
ENDMDL
MODEL 3
REMARK VINA RESULT:     -10.3      0.972      8.269
REMARK SMILES CCc1cccc(-c2ccc([C@@H](C)C(=O)NCCCCNC(=O)c3ccc(-c4c5nc(c(-c6ccc(S(=O)(=O)[O-])cc6)c6ccc([nH]6)c(-c6ccc(S(=O)(=O)[O-])cc6)c6nc(c(-c7ccc(S(=O)(=O)[O-])cc7)c7ccc4[nH]7)C=C6)C=C5)cc3)cc2)c1
REMARK SMILES IDX 18 1 17 2 16 3 14 4 15 5 12 7 13 8 11 9 8 10 9 11 85 12
REMARK SMILES IDX 10 13 84 14 7 15 3 16 4 17 86 18 5 19 6 20 2 21 1 22 19 23
REMARK SMILES IDX 20 24 21 25 22 26 23 28 24 29 25 30 83 31 26 32 82 33 27 34
REMARK SMILES IDX 28 35 29 36 76 37 30 38 81 39 75 40 77 41 31 42 80 43 74 44
REMARK SMILES IDX 73 45 32 47 62 48 43 49 61 50 44 51 47 52 60 53 78 54 45 55
REMARK SMILES IDX 46 56 59 58 79 59 48 60 33 61 34 62 42 63 35 64 41 65 36 66
REMARK SMILES IDX 37 67 38 68 39 69 40 70 63 71 64 72 72 73 65 74 71 75 66 76
REMARK SMILES IDX 67 77 68 78 69 79 70 80 49 81 50 82 58 83 51 84 57 85 52 86
REMARK SMILES IDX 53 87 54 88 55 89 56 90
REMARK H PARENT 16 6 21 27 77 46 47 57
REMARK Flexibility Score: inf
ROOT
ATOM      1  C   UNL A   1      35.719  21.730  25.872  1.00  0.00     0.023 C 
ENDROOT
BRANCH   1   2
ATOM      2  C   UNL A   1      35.287  20.762  24.771  1.00  0.00     0.116 C 
BRANCH   2   3
ATOM      3  N   UNL A   1      34.196  19.904  25.186  1.00  0.00    -0.356 N 
ATOM      4  C   UNL A   1      32.850  20.018  25.021  1.00  0.00     0.227 C 
ATOM      5  O   UNL A   1      32.150  19.140  25.541  1.00  0.00    -0.274 OA
ATOM      6  H   UNL A   1      34.478  19.096  25.673  1.00  0.00     0.163 HD
BRANCH   4   7
ATOM      7  C   UNL A   1      32.181  21.151  24.226  1.00  0.00     0.105 C 
ATOM      8  C   UNL A   1      32.368  21.037  22.713  1.00  0.00     0.023 C 
BRANCH   7   9
ATOM      9  C   UNL A   1      32.404  22.526  24.837  1.00  0.00    -0.036 A 
ATOM     10  C   UNL A   1      32.595  25.198  25.850  1.00  0.00    -0.018 A 
ATOM     11  C   UNL A   1      32.312  24.106  26.687  1.00  0.00     0.009 A 
ATOM     12  C   UNL A   1      32.839  24.905  24.500  1.00  0.00     0.009 A 
ATOM     13  C   UNL A   1      32.251  22.793  26.199  1.00  0.00     0.005 A 
ATOM     14  C   UNL A   1      32.724  23.602  23.998  1.00  0.00     0.005 A 
BRANCH  10  15
ATOM     15  C   UNL A   1      32.600  26.592  26.366  1.00  0.00    -0.018 A 
ATOM     16  C   UNL A   1      33.810  28.665  26.930  1.00  0.00    -0.048 A 
ATOM     17  C   UNL A   1      32.602  29.281  27.265  1.00  0.00     0.004 A 
ATOM     18  C   UNL A   1      33.793  27.335  26.471  1.00  0.00     0.012 A 
ATOM     19  C   UNL A   1      31.408  28.572  27.173  1.00  0.00     0.001 A 
ATOM     20  C   UNL A   1      31.411  27.243  26.742  1.00  0.00     0.009 A 
BRANCH  16  21
ATOM     21  C   UNL A   1      35.112  29.419  27.042  1.00  0.00     0.032 C 
ATOM     22  C   UNL A   1      34.941  30.786  27.685  1.00  0.00     0.009 C 
ENDBRANCH  16  21
ENDBRANCH  10  15
ENDBRANCH   7   9
ENDBRANCH   4   7
ENDBRANCH   2   3
ENDBRANCH   1   2
BRANCH   1  23
ATOM     23  C   UNL A   1      35.857  23.188  25.437  1.00  0.00     0.023 C 
BRANCH  23  24
ATOM     24  C   UNL A   1      37.116  23.901  25.922  1.00  0.00     0.116 C 
BRANCH  24  25
ATOM     25  N   UNL A   1      38.324  23.095  25.842  1.00  0.00    -0.352 N 
ATOM     26  C   UNL A   1      39.575  23.380  26.351  1.00  0.00     0.251 C 
ATOM     27  H   UNL A   1      38.239  22.236  25.366  1.00  0.00     0.163 HD
ATOM     28  O   UNL A   1      40.515  22.631  26.143  1.00  0.00    -0.269 OA
BRANCH  26  29
ATOM     29  C   UNL A   1      39.765  24.638  27.109  1.00  0.00     0.039 A 
ATOM     30  C   UNL A   1      39.218  24.741  28.390  1.00  0.00     0.014 A 
ATOM     31  C   UNL A   1      40.540  25.675  26.583  1.00  0.00     0.014 A 
ATOM     32  C   UNL A   1      39.523  25.851  29.180  1.00  0.00     0.010 A 
ATOM     33  C   UNL A   1      40.899  26.743  27.396  1.00  0.00     0.010 A 
ATOM     34  C   UNL A   1      40.403  26.837  28.706  1.00  0.00    -0.014 A 
BRANCH  34  35
ATOM     35  C   UNL A   1      40.839  27.967  29.565  1.00  0.00     0.031 A 
ATOM     36  C   UNL A   1      39.948  29.166  29.741  1.00  0.00     0.074 A 
ATOM     37  C   UNL A   1      42.070  27.953  30.115  1.00  0.00     0.049 A 
ATOM     38  N   UNL A   1      40.189  30.288  30.369  1.00  0.00    -0.248 NA
ATOM     39  C   UNL A   1      38.622  29.106  29.103  1.00  0.00     0.031 C 
ATOM     40  C   UNL A   1      43.048  26.871  29.980  1.00  0.00     0.029 A 
ATOM     41  N   UNL A   1      42.713  28.885  30.891  1.00  0.00    -0.354 N 
ATOM     42  C   UNL A   1      39.060  31.075  30.181  1.00  0.00     0.074 A 
ATOM     43  C   UNL A   1      38.152  30.321  29.344  1.00  0.00     0.031 C 
ATOM     44  C   UNL A   1      44.156  27.191  30.669  1.00  0.00     0.029 A 
ATOM     45  C   UNL A   1      43.983  28.512  31.264  1.00  0.00     0.049 A 
ATOM     46  H   UNL A   1      42.303  29.740  31.156  1.00  0.00     0.167 HD
ATOM     47  C   UNL A   1      38.794  32.308  30.675  1.00  0.00     0.031 A 
ATOM     48  C   UNL A   1      44.908  29.162  31.997  1.00  0.00     0.031 A 
ATOM     49  C   UNL A   1      39.688  33.048  31.524  1.00  0.00     0.049 A 
ATOM     50  C   UNL A   1      44.583  30.523  32.548  1.00  0.00     0.074 A 
ATOM     51  C   UNL A   1      39.486  34.280  32.121  1.00  0.00     0.029 A 
ATOM     52  N   UNL A   1      40.952  32.621  31.902  1.00  0.00    -0.354 N 
ATOM     53  N   UNL A   1      43.487  31.229  32.403  1.00  0.00    -0.248 NA
ATOM     54  C   UNL A   1      45.617  31.170  33.368  1.00  0.00     0.031 C 
ATOM     55  C   UNL A   1      40.643  34.614  32.833  1.00  0.00     0.029 A 
ATOM     56  C   UNL A   1      41.547  33.570  32.714  1.00  0.00     0.049 A 
ATOM     57  H   UNL A   1      41.365  31.770  31.632  1.00  0.00     0.167 HD
ATOM     58  C   UNL A   1      43.690  32.394  33.134  1.00  0.00     0.074 A 
ATOM     59  C   UNL A   1      45.008  32.293  33.728  1.00  0.00     0.031 C 
ATOM     60  C   UNL A   1      42.859  33.452  33.299  1.00  0.00     0.031 A 
BRANCH  47  61
ATOM     61  C   UNL A   1      37.474  32.929  30.303  1.00  0.00    -0.014 A 
ATOM     62  C   UNL A   1      36.374  32.864  31.176  1.00  0.00     0.010 A 
ATOM     63  C   UNL A   1      37.337  33.600  29.075  1.00  0.00     0.010 A 
ATOM     64  C   UNL A   1      35.145  33.416  30.808  1.00  0.00     0.020 A 
ATOM     65  C   UNL A   1      36.116  34.177  28.714  1.00  0.00     0.020 A 
ATOM     66  C   UNL A   1      35.021  34.063  29.575  1.00  0.00     0.054 A 
BRANCH  66  67
ATOM     67  S   UNL A   1      33.417  34.777  29.122  1.00  0.00     0.124 S 
ATOM     68  O   UNL A   1      33.811  36.074  28.577  1.00  0.00    -0.237 OA
ATOM     69  O   UNL A   1      32.901  33.818  28.147  1.00  0.00    -0.237 OA
ATOM     70  O   UNL A   1      32.689  34.826  30.387  1.00  0.00    -0.744 OA
ENDBRANCH  66  67
ENDBRANCH  47  61
BRANCH  48  71
ATOM     71  C   UNL A   1      46.220  28.520  32.274  1.00  0.00    -0.014 A 
ATOM     72  C   UNL A   1      47.309  28.731  31.410  1.00  0.00     0.010 A 
ATOM     73  C   UNL A   1      46.395  27.711  33.411  1.00  0.00     0.010 A 
ATOM     74  C   UNL A   1      48.546  28.135  31.670  1.00  0.00     0.020 A 
ATOM     75  C   UNL A   1      47.637  27.131  33.686  1.00  0.00     0.020 A 
ATOM     76  C   UNL A   1      48.703  27.340  32.808  1.00  0.00     0.054 A 
BRANCH  76  77
ATOM     77  S   UNL A   1      50.333  26.623  33.159  1.00  0.00     0.124 S 
ATOM     78  O   UNL A   1      50.271  26.421  34.602  1.00  0.00    -0.237 OA
ATOM     79  O   UNL A   1      50.328  25.410  32.347  1.00  0.00    -0.237 OA
ATOM     80  O   UNL A   1      51.262  27.659  32.709  1.00  0.00    -0.744 OA
ENDBRANCH  76  77
ENDBRANCH  48  71
BRANCH  60  81
ATOM     81  C   UNL A   1      43.334  34.574  34.180  1.00  0.00    -0.014 A 
ATOM     82  C   UNL A   1      43.976  35.701  33.636  1.00  0.00     0.010 A 
ATOM     83  C   UNL A   1      43.077  34.526  35.561  1.00  0.00     0.010 A 
ATOM     84  C   UNL A   1      44.373  36.753  34.465  1.00  0.00     0.020 A 
ATOM     85  C   UNL A   1      43.454  35.586  36.390  1.00  0.00     0.020 A 
ATOM     86  C   UNL A   1      44.110  36.688  35.837  1.00  0.00     0.054 A 
BRANCH  86  87
ATOM     87  S   UNL A   1      44.587  38.090  36.887  1.00  0.00     0.124 S 
ATOM     88  O   UNL A   1      43.494  38.131  37.854  1.00  0.00    -0.237 OA
ATOM     89  O   UNL A   1      45.882  37.669  37.418  1.00  0.00    -0.237 OA
ATOM     90  O   UNL A   1      44.640  39.215  35.956  1.00  0.00    -0.744 OA
ENDBRANCH  86  87
ENDBRANCH  60  81
ENDBRANCH  34  35
ENDBRANCH  26  29
ENDBRANCH  24  25
ENDBRANCH  23  24
ENDBRANCH   1  23
TORSDOF 17
ENDMDL
