MODEL 1
REMARK VINA RESULT:     -10.8      0.000      0.000
REMARK SMILES C[C@@H](CC1CC1)NC(=O)c1cccn1CC(=O)NCCCCNC(=O)c1ccc(-c2c3nc(c(-c4ccc(S(=O)(=O)[O-])cc4)c4ccc([nH]4)c(-c4ccc(S(=O)(=O)[O-])cc4)c4nc(c(-c5ccc(S(=O)(=O)[O-])cc5)c5ccc2[nH]5)C=C4)C=C3)cc1
REMARK SMILES IDX 19 1 18 2 16 3 17 4 15 6 14 7 10 8 11 9 12 10 13 11 8 12
REMARK SMILES IDX 7 13 9 15 2 16 1 17 3 18 4 19 5 20 6 21 20 22 21 23 22 24
REMARK SMILES IDX 23 25 24 26 25 28 26 29 27 30 85 31 28 32 84 33 29 34 30 35
REMARK SMILES IDX 31 36 78 37 32 38 83 39 77 40 79 41 33 42 82 43 76 44 75 45
REMARK SMILES IDX 34 47 64 48 45 49 63 50 46 51 49 52 62 53 80 54 47 55 48 56
REMARK SMILES IDX 61 58 81 59 50 60 35 61 36 62 44 63 37 64 43 65 38 66 39 67
REMARK SMILES IDX 40 68 41 69 42 70 65 71 66 72 74 73 67 74 73 75 68 76 69 77
REMARK SMILES IDX 70 78 71 79 72 80 51 81 52 82 60 83 53 84 59 85 54 86 55 87
REMARK SMILES IDX 56 88 57 89 58 90
REMARK H PARENT 18 5 7 14 23 27 79 46 49 57
REMARK Flexibility Score: inf
ROOT
ATOM      1  C   UNL A   1      36.765  21.972  25.483  1.00  0.00     0.116 C 
ENDROOT
BRANCH   1   2
ATOM      2  N   UNL A   1      35.796  21.785  26.541  1.00  0.00    -0.355 N 
ATOM      3  C   UNL A   1      34.718  22.570  26.849  1.00  0.00     0.239 C 
ATOM      4  O   UNL A   1      34.098  22.331  27.887  1.00  0.00    -0.273 OA
ATOM      5  H   UNL A   1      35.929  20.995  27.113  1.00  0.00     0.163 HD
BRANCH   3   6
ATOM      6  C   UNL A   1      34.272  23.669  25.901  1.00  0.00     0.222 C 
BRANCH   6   7
ATOM      7  N   UNL A   1      33.208  23.263  24.986  1.00  0.00    -0.334 N 
ATOM      8  C   UNL A   1      31.845  23.477  25.155  1.00  0.00     0.107 A 
ATOM      9  C   UNL A   1      31.230  22.947  24.029  1.00  0.00     0.033 A 
ATOM     10  C   UNL A   1      32.220  22.384  23.193  1.00  0.00     0.020 A 
ATOM     11  C   UNL A   1      33.432  22.605  23.799  1.00  0.00     0.087 A 
BRANCH   8  12
ATOM     12  C   UNL A   1      31.262  24.203  26.268  1.00  0.00     0.268 C 
ATOM     13  N   UNL A   1      30.815  25.491  26.103  1.00  0.00    -0.348 N 
ATOM     14  H   UNL A   1      30.459  25.899  26.926  1.00  0.00     0.164 HD
ATOM     15  O   UNL A   1      31.105  23.692  27.373  1.00  0.00    -0.268 OA
BRANCH  13  16
ATOM     16  C   UNL A   1      30.769  26.371  24.937  1.00  0.00     0.079 C 
ATOM     17  C   UNL A   1      29.399  26.381  24.256  1.00  0.00     0.031 C 
BRANCH  16  18
ATOM     18  C   UNL A   1      31.255  27.784  25.294  1.00  0.00     0.028 C 
BRANCH  18  19
ATOM     19  C   UNL A   1      31.631  28.071  26.730  1.00  0.00    -0.009 C 
ATOM     20  C   UNL A   1      33.064  28.428  27.055  1.00  0.00     0.004 C 
ATOM     21  C   UNL A   1      31.972  29.418  27.333  1.00  0.00     0.004 C 
ENDBRANCH  18  19
ENDBRANCH  16  18
ENDBRANCH  13  16
ENDBRANCH   8  12
ENDBRANCH   6   7
ENDBRANCH   3   6
ENDBRANCH   1   2
BRANCH   1  22
ATOM     22  C   UNL A   1      36.825  20.748  24.566  1.00  0.00     0.023 C 
BRANCH  22  23
ATOM     23  C   UNL A   1      37.836  19.673  24.984  1.00  0.00     0.023 C 
BRANCH  23  24
ATOM     24  C   UNL A   1      39.068  20.178  25.741  1.00  0.00     0.116 C 
BRANCH  24  25
ATOM     25  N   UNL A   1      40.073  19.143  25.928  1.00  0.00    -0.352 N 
ATOM     26  C   UNL A   1      41.434  19.283  26.076  1.00  0.00     0.251 C 
ATOM     27  H   UNL A   1      39.734  18.218  25.951  1.00  0.00     0.163 HD
ATOM     28  O   UNL A   1      42.162  18.320  25.847  1.00  0.00    -0.269 OA
BRANCH  26  29
ATOM     29  C   UNL A   1      42.034  20.571  26.489  1.00  0.00     0.039 A 
ATOM     30  C   UNL A   1      42.599  21.393  25.505  1.00  0.00     0.014 A 
ATOM     31  C   UNL A   1      42.108  20.940  27.837  1.00  0.00     0.014 A 
ATOM     32  C   UNL A   1      43.164  22.616  25.864  1.00  0.00     0.010 A 
ATOM     33  C   UNL A   1      42.655  22.169  28.197  1.00  0.00     0.010 A 
ATOM     34  C   UNL A   1      43.160  23.020  27.208  1.00  0.00    -0.014 A 
BRANCH  34  35
ATOM     35  C   UNL A   1      43.501  24.428  27.532  1.00  0.00     0.031 A 
ATOM     36  C   UNL A   1      42.217  25.285  27.692  1.00  0.00     0.074 A 
ATOM     37  C   UNL A   1      44.831  24.752  27.592  1.00  0.00     0.049 A 
ATOM     38  N   UNL A   1      42.003  26.542  27.441  1.00  0.00    -0.248 NA
ATOM     39  C   UNL A   1      40.951  24.613  28.110  1.00  0.00     0.031 C 
ATOM     40  C   UNL A   1      45.948  23.783  27.463  1.00  0.00     0.029 A 
ATOM     41  N   UNL A   1      45.529  25.928  27.768  1.00  0.00    -0.354 N 
ATOM     42  C   UNL A   1      40.661  26.840  27.798  1.00  0.00     0.074 A 
ATOM     43  C   UNL A   1      40.042  25.590  28.114  1.00  0.00     0.031 C 
ATOM     44  C   UNL A   1      47.147  24.411  27.475  1.00  0.00     0.029 A 
ATOM     45  C   UNL A   1      46.941  25.838  27.610  1.00  0.00     0.049 A 
ATOM     46  H   UNL A   1      45.080  26.776  27.991  1.00  0.00     0.167 HD
ATOM     47  C   UNL A   1      40.167  28.111  27.918  1.00  0.00     0.031 A 
ATOM     48  C   UNL A   1      47.864  26.849  27.521  1.00  0.00     0.031 A 
ATOM     49  C   UNL A   1      41.170  29.056  27.570  1.00  0.00     0.049 A 
ATOM     50  C   UNL A   1      47.093  28.087  27.713  1.00  0.00     0.074 A 
ATOM     51  C   UNL A   1      41.702  29.458  26.374  1.00  0.00     0.029 A 
ATOM     52  N   UNL A   1      41.993  29.464  28.590  1.00  0.00    -0.354 N 
ATOM     53  N   UNL A   1      46.593  28.495  28.837  1.00  0.00    -0.248 NA
ATOM     54  C   UNL A   1      46.762  28.890  26.528  1.00  0.00     0.031 C 
ATOM     55  C   UNL A   1      43.072  29.615  26.677  1.00  0.00     0.029 A 
ATOM     56  C   UNL A   1      43.259  29.521  28.060  1.00  0.00     0.049 A 
ATOM     57  H   UNL A   1      41.730  29.673  29.515  1.00  0.00     0.167 HD
ATOM     58  C   UNL A   1      45.611  29.362  28.428  1.00  0.00     0.074 A 
ATOM     59  C   UNL A   1      45.967  29.793  27.094  1.00  0.00     0.031 C 
ATOM     60  C   UNL A   1      44.365  29.283  28.955  1.00  0.00     0.031 A 
BRANCH  47  61
ATOM     61  C   UNL A   1      38.910  28.666  28.544  1.00  0.00    -0.014 A 
ATOM     62  C   UNL A   1      38.343  29.820  27.938  1.00  0.00     0.010 A 
ATOM     63  C   UNL A   1      38.473  28.341  29.836  1.00  0.00     0.010 A 
ATOM     64  C   UNL A   1      37.495  30.686  28.633  1.00  0.00     0.020 A 
ATOM     65  C   UNL A   1      37.587  29.188  30.530  1.00  0.00     0.020 A 
ATOM     66  C   UNL A   1      37.147  30.379  29.943  1.00  0.00     0.054 A 
BRANCH  66  67
ATOM     67  S   UNL A   1      36.178  31.598  30.876  1.00  0.00     0.124 S 
ATOM     68  O   UNL A   1      35.943  30.905  32.139  1.00  0.00    -0.237 OA
ATOM     69  O   UNL A   1      37.090  32.737  30.950  1.00  0.00    -0.237 OA
ATOM     70  O   UNL A   1      34.998  31.809  30.043  1.00  0.00    -0.744 OA
ENDBRANCH  66  67
ENDBRANCH  47  61
BRANCH  48  71
ATOM     71  C   UNL A   1      49.317  27.033  27.114  1.00  0.00    -0.014 A 
ATOM     72  C   UNL A   1      49.977  26.407  26.050  1.00  0.00     0.010 A 
ATOM     73  C   UNL A   1      50.078  28.025  27.801  1.00  0.00     0.010 A 
ATOM     74  C   UNL A   1      51.241  26.873  25.598  1.00  0.00     0.020 A 
ATOM     75  C   UNL A   1      51.295  28.530  27.336  1.00  0.00     0.020 A 
ATOM     76  C   UNL A   1      51.860  27.972  26.206  1.00  0.00     0.054 A 
BRANCH  76  77
ATOM     77  S   UNL A   1      53.308  28.777  25.456  1.00  0.00     0.124 S 
ATOM     78  O   UNL A   1      54.102  27.642  25.002  1.00  0.00    -0.237 OA
ATOM     79  O   UNL A   1      52.713  29.596  24.402  1.00  0.00    -0.237 OA
ATOM     80  O   UNL A   1      53.885  29.539  26.564  1.00  0.00    -0.744 OA
ENDBRANCH  76  77
ENDBRANCH  48  71
BRANCH  60  81
ATOM     81  C   UNL A   1      44.265  28.594  30.310  1.00  0.00    -0.014 A 
ATOM     82  C   UNL A   1      44.574  29.318  31.474  1.00  0.00     0.010 A 
ATOM     83  C   UNL A   1      43.938  27.231  30.465  1.00  0.00     0.010 A 
ATOM     84  C   UNL A   1      44.553  28.714  32.740  1.00  0.00     0.020 A 
ATOM     85  C   UNL A   1      43.913  26.614  31.730  1.00  0.00     0.020 A 
ATOM     86  C   UNL A   1      44.218  27.365  32.864  1.00  0.00     0.054 A 
BRANCH  86  87
ATOM     87  S   UNL A   1      44.193  26.621  34.524  1.00  0.00     0.124 S 
ATOM     88  O   UNL A   1      44.026  27.782  35.395  1.00  0.00    -0.237 OA
ATOM     89  O   UNL A   1      43.040  25.726  34.448  1.00  0.00    -0.237 OA
ATOM     90  O   UNL A   1      45.490  25.954  34.630  1.00  0.00    -0.744 OA
ENDBRANCH  86  87
ENDBRANCH  60  81
ENDBRANCH  34  35
ENDBRANCH  26  29
ENDBRANCH  24  25
ENDBRANCH  23  24
ENDBRANCH  22  23
ENDBRANCH   1  22
TORSDOF 19
ENDMDL
MODEL 2
REMARK VINA RESULT:     -10.6      1.532      3.260
REMARK SMILES C[C@@H](CC1CC1)NC(=O)c1cccn1CC(=O)NCCCCNC(=O)c1ccc(-c2c3nc(c(-c4ccc(S(=O)(=O)[O-])cc4)c4ccc([nH]4)c(-c4ccc(S(=O)(=O)[O-])cc4)c4nc(c(-c5ccc(S(=O)(=O)[O-])cc5)c5ccc2[nH]5)C=C4)C=C3)cc1
REMARK SMILES IDX 19 1 18 2 16 3 17 4 15 6 14 7 10 8 11 9 12 10 13 11 8 12
REMARK SMILES IDX 7 13 9 15 2 16 1 17 3 18 4 19 5 20 6 21 20 22 21 23 22 24
REMARK SMILES IDX 23 25 24 26 25 28 26 29 27 30 85 31 28 32 84 33 29 34 30 35
REMARK SMILES IDX 31 36 78 37 32 38 83 39 77 40 79 41 33 42 82 43 76 44 75 45
REMARK SMILES IDX 34 47 64 48 45 49 63 50 46 51 49 52 62 53 80 54 47 55 48 56
REMARK SMILES IDX 61 58 81 59 50 60 35 61 36 62 44 63 37 64 43 65 38 66 39 67
REMARK SMILES IDX 40 68 41 69 42 70 65 71 66 72 74 73 67 74 73 75 68 76 69 77
REMARK SMILES IDX 70 78 71 79 72 80 51 81 52 82 60 83 53 84 59 85 54 86 55 87
REMARK SMILES IDX 56 88 57 89 58 90
REMARK H PARENT 18 5 7 14 23 27 79 46 49 57
REMARK Flexibility Score: inf
ROOT
ATOM      1  C   UNL A   1      36.264  22.667  24.886  1.00  0.00     0.116 C 
ENDROOT
BRANCH   1   2
ATOM      2  N   UNL A   1      35.546  23.566  24.009  1.00  0.00    -0.355 N 
ATOM      3  C   UNL A   1      34.496  24.389  24.316  1.00  0.00     0.239 C 
ATOM      4  O   UNL A   1      33.915  24.965  23.394  1.00  0.00    -0.273 OA
ATOM      5  H   UNL A   1      35.849  23.588  23.072  1.00  0.00     0.163 HD
BRANCH   3   6
ATOM      6  C   UNL A   1      34.102  24.622  25.764  1.00  0.00     0.222 C 
BRANCH   6   7
ATOM      7  N   UNL A   1      32.747  24.178  26.084  1.00  0.00    -0.334 N 
ATOM      8  C   UNL A   1      32.386  22.958  26.643  1.00  0.00     0.107 A 
ATOM      9  C   UNL A   1      31.006  22.995  26.790  1.00  0.00     0.033 A 
ATOM     10  C   UNL A   1      30.530  24.228  26.291  1.00  0.00     0.020 A 
ATOM     11  C   UNL A   1      31.624  24.945  25.875  1.00  0.00     0.087 A 
BRANCH   8  12
ATOM     12  C   UNL A   1      33.330  21.935  27.054  1.00  0.00     0.268 C 
ATOM     13  N   UNL A   1      33.379  20.729  26.399  1.00  0.00    -0.348 N 
ATOM     14  H   UNL A   1      34.038  20.099  26.771  1.00  0.00     0.164 HD
ATOM     15  O   UNL A   1      34.140  22.116  27.958  1.00  0.00    -0.268 OA
BRANCH  13  16
ATOM     16  C   UNL A   1      32.638  20.204  25.254  1.00  0.00     0.079 C 
ATOM     17  C   UNL A   1      32.981  20.921  23.946  1.00  0.00     0.031 C 
BRANCH  16  18
ATOM     18  C   UNL A   1      32.800  18.681  25.145  1.00  0.00     0.028 C 
BRANCH  18  19
ATOM     19  C   UNL A   1      33.634  18.128  24.011  1.00  0.00    -0.009 C 
ATOM     20  C   UNL A   1      34.915  17.392  24.335  1.00  0.00     0.004 C 
ATOM     21  C   UNL A   1      33.804  16.672  23.628  1.00  0.00     0.004 C 
ENDBRANCH  18  19
ENDBRANCH  16  18
ENDBRANCH  13  16
ENDBRANCH   8  12
ENDBRANCH   6   7
ENDBRANCH   3   6
ENDBRANCH   1   2
BRANCH   1  22
ATOM     22  C   UNL A   1      37.030  21.610  24.086  1.00  0.00     0.023 C 
BRANCH  22  23
ATOM     23  C   UNL A   1      37.545  20.422  24.908  1.00  0.00     0.023 C 
BRANCH  23  24
ATOM     24  C   UNL A   1      38.727  20.718  25.837  1.00  0.00     0.116 C 
BRANCH  24  25
ATOM     25  N   UNL A   1      39.657  19.604  25.931  1.00  0.00    -0.352 N 
ATOM     26  C   UNL A   1      41.031  19.636  26.008  1.00  0.00     0.251 C 
ATOM     27  H   UNL A   1      39.250  18.707  25.939  1.00  0.00     0.163 HD
ATOM     28  O   UNL A   1      41.670  18.631  25.705  1.00  0.00    -0.269 OA
BRANCH  26  29
ATOM     29  C   UNL A   1      41.749  20.858  26.433  1.00  0.00     0.039 A 
ATOM     30  C   UNL A   1      42.148  21.776  25.452  1.00  0.00     0.014 A 
ATOM     31  C   UNL A   1      42.093  21.070  27.773  1.00  0.00     0.014 A 
ATOM     32  C   UNL A   1      42.818  22.940  25.825  1.00  0.00     0.010 A 
ATOM     33  C   UNL A   1      42.747  22.241  28.150  1.00  0.00     0.010 A 
ATOM     34  C   UNL A   1      43.087  23.189  27.179  1.00  0.00    -0.014 A 
BRANCH  34  35
ATOM     35  C   UNL A   1      43.539  24.545  27.580  1.00  0.00     0.031 A 
ATOM     36  C   UNL A   1      42.326  25.471  27.863  1.00  0.00     0.074 A 
ATOM     37  C   UNL A   1      44.889  24.775  27.595  1.00  0.00     0.049 A 
ATOM     38  N   UNL A   1      42.188  26.753  27.710  1.00  0.00    -0.248 NA
ATOM     39  C   UNL A   1      41.038  24.855  28.298  1.00  0.00     0.031 C 
ATOM     40  C   UNL A   1      45.930  23.747  27.343  1.00  0.00     0.029 A 
ATOM     41  N   UNL A   1      45.674  25.888  27.815  1.00  0.00    -0.354 N 
ATOM     42  C   UNL A   1      40.888  27.113  28.154  1.00  0.00     0.074 A 
ATOM     43  C   UNL A   1      40.199  25.887  28.415  1.00  0.00     0.031 C 
ATOM     44  C   UNL A   1      47.169  24.293  27.337  1.00  0.00     0.029 A 
ATOM     45  C   UNL A   1      47.068  25.717  27.580  1.00  0.00     0.049 A 
ATOM     46  H   UNL A   1      45.295  26.746  28.117  1.00  0.00     0.167 HD
ATOM     47  C   UNL A   1      40.488  28.402  28.384  1.00  0.00     0.031 A 
ATOM     48  C   UNL A   1      48.054  26.669  27.513  1.00  0.00     0.031 A 
ATOM     49  C   UNL A   1      41.537  29.301  28.051  1.00  0.00     0.049 A 
ATOM     50  C   UNL A   1      47.380  27.938  27.828  1.00  0.00     0.074 A 
ATOM     51  C   UNL A   1      42.040  29.752  26.860  1.00  0.00     0.029 A 
ATOM     52  N   UNL A   1      42.432  29.580  29.054  1.00  0.00    -0.354 N 
ATOM     53  N   UNL A   1      46.961  28.297  29.001  1.00  0.00    -0.248 NA
ATOM     54  C   UNL A   1      47.050  28.844  26.718  1.00  0.00     0.031 C 
ATOM     55  C   UNL A   1      43.430  29.796  27.103  1.00  0.00     0.029 A 
ATOM     56  C   UNL A   1      43.673  29.592  28.465  1.00  0.00     0.049 A 
ATOM     57  H   UNL A   1      42.227  29.740  30.003  1.00  0.00     0.167 HD
ATOM     58  C   UNL A   1      46.023  29.253  28.702  1.00  0.00     0.074 A 
ATOM     59  C   UNL A   1      46.347  29.754  27.384  1.00  0.00     0.031 C 
ATOM     60  C   UNL A   1      44.800  29.219  29.285  1.00  0.00     0.031 A 
BRANCH  47  61
ATOM     61  C   UNL A   1      39.303  28.992  29.110  1.00  0.00    -0.014 A 
ATOM     62  C   UNL A   1      38.747  30.185  28.573  1.00  0.00     0.010 A 
ATOM     63  C   UNL A   1      38.941  28.651  30.420  1.00  0.00     0.010 A 
ATOM     64  C   UNL A   1      37.987  31.066  29.346  1.00  0.00     0.020 A 
ATOM     65  C   UNL A   1      38.143  29.515  31.195  1.00  0.00     0.020 A 
ATOM     66  C   UNL A   1      37.717  30.739  30.669  1.00  0.00     0.054 A 
BRANCH  66  67
ATOM     67  S   UNL A   1      36.868  31.971  31.696  1.00  0.00     0.124 S 
ATOM     68  O   UNL A   1      35.463  31.636  31.484  1.00  0.00    -0.237 OA
ATOM     69  O   UNL A   1      37.384  31.677  33.033  1.00  0.00    -0.237 OA
ATOM     70  O   UNL A   1      37.304  33.246  31.136  1.00  0.00    -0.744 OA
ENDBRANCH  66  67
ENDBRANCH  47  61
BRANCH  48  71
ATOM     71  C   UNL A   1      49.495  26.786  27.046  1.00  0.00    -0.014 A 
ATOM     72  C   UNL A   1      50.620  27.027  27.844  1.00  0.00     0.010 A 
ATOM     73  C   UNL A   1      49.773  26.514  25.674  1.00  0.00     0.010 A 
ATOM     74  C   UNL A   1      51.933  26.830  27.338  1.00  0.00     0.020 A 
ATOM     75  C   UNL A   1      51.055  26.263  25.175  1.00  0.00     0.020 A 
ATOM     76  C   UNL A   1      52.136  26.388  26.025  1.00  0.00     0.054 A 
BRANCH  76  77
ATOM     77  S   UNL A   1      53.771  25.829  25.457  1.00  0.00     0.124 S 
ATOM     78  O   UNL A   1      54.565  27.050  25.529  1.00  0.00    -0.237 OA
ATOM     79  O   UNL A   1      54.113  24.792  26.427  1.00  0.00    -0.237 OA
ATOM     80  O   UNL A   1      53.509  25.333  24.105  1.00  0.00    -0.744 OA
ENDBRANCH  76  77
ENDBRANCH  48  71
BRANCH  60  81
ATOM     81  C   UNL A   1      44.715  28.443  30.593  1.00  0.00    -0.014 A 
ATOM     82  C   UNL A   1      44.236  27.122  30.579  1.00  0.00     0.010 A 
ATOM     83  C   UNL A   1      45.032  29.002  31.849  1.00  0.00     0.010 A 
ATOM     84  C   UNL A   1      44.085  26.386  31.763  1.00  0.00     0.020 A 
ATOM     85  C   UNL A   1      44.886  28.272  33.044  1.00  0.00     0.020 A 
ATOM     86  C   UNL A   1      44.414  26.961  32.991  1.00  0.00     0.054 A 
BRANCH  86  87
ATOM     87  S   UNL A   1      44.213  25.969  34.502  1.00  0.00     0.124 S 
ATOM     88  O   UNL A   1      43.934  24.635  33.977  1.00  0.00    -0.237 OA
ATOM     89  O   UNL A   1      45.511  26.125  35.154  1.00  0.00    -0.237 OA
ATOM     90  O   UNL A   1      43.092  26.605  35.193  1.00  0.00    -0.744 OA
ENDBRANCH  86  87
ENDBRANCH  60  81
ENDBRANCH  34  35
ENDBRANCH  26  29
ENDBRANCH  24  25
ENDBRANCH  23  24
ENDBRANCH  22  23
ENDBRANCH   1  22
TORSDOF 19
ENDMDL
MODEL 3
REMARK VINA RESULT:     -10.6      3.743      7.693
REMARK SMILES C[C@@H](CC1CC1)NC(=O)c1cccn1CC(=O)NCCCCNC(=O)c1ccc(-c2c3nc(c(-c4ccc(S(=O)(=O)[O-])cc4)c4ccc([nH]4)c(-c4ccc(S(=O)(=O)[O-])cc4)c4nc(c(-c5ccc(S(=O)(=O)[O-])cc5)c5ccc2[nH]5)C=C4)C=C3)cc1
REMARK SMILES IDX 19 1 18 2 16 3 17 4 15 6 14 7 10 8 11 9 12 10 13 11 8 12
REMARK SMILES IDX 7 13 9 15 2 16 1 17 3 18 4 19 5 20 6 21 20 22 21 23 22 24
REMARK SMILES IDX 23 25 24 26 25 28 26 29 27 30 85 31 28 32 84 33 29 34 30 35
REMARK SMILES IDX 31 36 78 37 32 38 83 39 77 40 79 41 33 42 82 43 76 44 75 45
REMARK SMILES IDX 34 47 64 48 45 49 63 50 46 51 49 52 62 53 80 54 47 55 48 56
REMARK SMILES IDX 61 58 81 59 50 60 35 61 36 62 44 63 37 64 43 65 38 66 39 67
REMARK SMILES IDX 40 68 41 69 42 70 65 71 66 72 74 73 67 74 73 75 68 76 69 77
REMARK SMILES IDX 70 78 71 79 72 80 51 81 52 82 60 83 53 84 59 85 54 86 55 87
REMARK SMILES IDX 56 88 57 89 58 90
REMARK H PARENT 18 5 7 14 23 27 79 46 49 57
REMARK Flexibility Score: inf
ROOT
ATOM      1  C   UNL A   1      33.345  27.163  25.530  1.00  0.00     0.116 C 
ENDROOT
BRANCH   1   2
ATOM      2  N   UNL A   1      33.517  26.968  24.106  1.00  0.00    -0.355 N 
ATOM      3  C   UNL A   1      33.464  25.797  23.400  1.00  0.00     0.239 C 
ATOM      4  O   UNL A   1      33.792  25.814  22.212  1.00  0.00    -0.273 OA
ATOM      5  H   UNL A   1      33.696  27.780  23.578  1.00  0.00     0.163 HD
BRANCH   3   6
ATOM      6  C   UNL A   1      32.959  24.526  24.060  1.00  0.00     0.222 C 
BRANCH   6   7
ATOM      7  N   UNL A   1      33.942  23.882  24.928  1.00  0.00    -0.334 N 
ATOM      8  C   UNL A   1      33.672  23.047  26.007  1.00  0.00     0.107 A 
ATOM      9  C   UNL A   1      34.907  22.656  26.507  1.00  0.00     0.033 A 
ATOM     10  C   UNL A   1      35.923  23.279  25.749  1.00  0.00     0.020 A 
ATOM     11  C   UNL A   1      35.302  24.018  24.772  1.00  0.00     0.087 A 
BRANCH   8  12
ATOM     12  C   UNL A   1      32.341  22.636  26.411  1.00  0.00     0.268 C 
ATOM     13  N   UNL A   1      31.740  21.547  25.829  1.00  0.00    -0.348 N 
ATOM     14  H   UNL A   1      30.830  21.368  26.159  1.00  0.00     0.164 HD
ATOM     15  O   UNL A   1      31.723  23.206  27.306  1.00  0.00    -0.268 OA
BRANCH  13  16
ATOM     16  C   UNL A   1      32.197  20.603  24.811  1.00  0.00     0.079 C 
ATOM     17  C   UNL A   1      32.427  21.264  23.450  1.00  0.00     0.031 C 
BRANCH  16  18
ATOM     18  C   UNL A   1      33.427  19.822  25.297  1.00  0.00     0.028 C 
BRANCH  18  19
ATOM     19  C   UNL A   1      33.479  18.333  25.040  1.00  0.00    -0.009 C 
ATOM     20  C   UNL A   1      32.531  17.730  24.028  1.00  0.00     0.004 C 
ATOM     21  C   UNL A   1      34.011  17.637  23.804  1.00  0.00     0.004 C 
ENDBRANCH  18  19
ENDBRANCH  16  18
ENDBRANCH  13  16
ENDBRANCH   8  12
ENDBRANCH   6   7
ENDBRANCH   3   6
ENDBRANCH   1   2
BRANCH   1  22
ATOM     22  C   UNL A   1      31.982  27.788  25.841  1.00  0.00     0.023 C 
BRANCH  22  23
ATOM     23  C   UNL A   1      32.012  28.934  26.859  1.00  0.00     0.023 C 
BRANCH  23  24
ATOM     24  C   UNL A   1      33.403  29.369  27.332  1.00  0.00     0.116 C 
BRANCH  24  25
ATOM     25  N   UNL A   1      33.456  30.778  27.691  1.00  0.00    -0.352 N 
ATOM     26  C   UNL A   1      34.381  31.430  28.475  1.00  0.00     0.251 C 
ATOM     27  H   UNL A   1      32.734  31.339  27.327  1.00  0.00     0.163 HD
ATOM     28  O   UNL A   1      34.080  32.509  28.980  1.00  0.00    -0.269 OA
BRANCH  26  29
ATOM     29  C   UNL A   1      35.717  30.849  28.731  1.00  0.00     0.039 A 
ATOM     30  C   UNL A   1      36.637  30.793  27.675  1.00  0.00     0.014 A 
ATOM     31  C   UNL A   1      36.044  30.298  29.975  1.00  0.00     0.014 A 
ATOM     32  C   UNL A   1      37.907  30.259  27.890  1.00  0.00     0.010 A 
ATOM     33  C   UNL A   1      37.318  29.779  30.198  1.00  0.00     0.010 A 
ATOM     34  C   UNL A   1      38.259  29.783  29.162  1.00  0.00    -0.014 A 
BRANCH  34  35
ATOM     35  C   UNL A   1      39.686  29.486  29.444  1.00  0.00     0.031 A 
ATOM     36  C   UNL A   1      40.421  30.749  29.968  1.00  0.00     0.074 A 
ATOM     37  C   UNL A   1      40.126  28.218  29.169  1.00  0.00     0.049 A 
ATOM     38  N   UNL A   1      41.657  31.124  29.833  1.00  0.00    -0.248 NA
ATOM     39  C   UNL A   1      39.630  31.800  30.672  1.00  0.00     0.031 C 
ATOM     40  C   UNL A   1      39.265  27.098  28.714  1.00  0.00     0.029 A 
ATOM     41  N   UNL A   1      41.358  27.598  29.206  1.00  0.00    -0.354 N 
ATOM     42  C   UNL A   1      41.827  32.344  30.539  1.00  0.00     0.074 A 
ATOM     43  C   UNL A   1      40.521  32.754  30.953  1.00  0.00     0.031 C 
ATOM     44  C   UNL A   1      39.998  25.995  28.440  1.00  0.00     0.029 A 
ATOM     45  C   UNL A   1      41.399  26.274  28.682  1.00  0.00     0.049 A 
ATOM     46  H   UNL A   1      42.158  28.040  29.572  1.00  0.00     0.167 HD
ATOM     47  C   UNL A   1      43.046  32.892  30.835  1.00  0.00     0.031 A 
ATOM     48  C   UNL A   1      42.489  25.493  28.397  1.00  0.00     0.031 A 
ATOM     49  C   UNL A   1      44.084  32.097  30.277  1.00  0.00     0.049 A 
ATOM     50  C   UNL A   1      43.649  26.286  28.835  1.00  0.00     0.074 A 
ATOM     51  C   UNL A   1      44.553  31.933  29.002  1.00  0.00     0.029 A 
ATOM     52  N   UNL A   1      44.545  31.071  31.064  1.00  0.00    -0.354 N 
ATOM     53  N   UNL A   1      43.990  26.505  30.066  1.00  0.00    -0.248 NA
ATOM     54  C   UNL A   1      44.441  26.981  27.811  1.00  0.00     0.031 C 
ATOM     55  C   UNL A   1      44.827  30.549  28.944  1.00  0.00     0.029 A 
ATOM     56  C   UNL A   1      44.725  29.998  30.226  1.00  0.00     0.049 A 
ATOM     57  H   UNL A   1      44.713  31.098  32.033  1.00  0.00     0.167 HD
ATOM     58  C   UNL A   1      44.772  27.627  29.963  1.00  0.00     0.074 A 
ATOM     59  C   UNL A   1      45.258  27.671  28.600  1.00  0.00     0.031 C 
ATOM     60  C   UNL A   1      44.572  28.680  30.792  1.00  0.00     0.031 A 
BRANCH  47  61
ATOM     61  C   UNL A   1      43.474  33.981  31.789  1.00  0.00    -0.014 A 
ATOM     62  C   UNL A   1      43.093  33.832  33.151  1.00  0.00     0.010 A 
ATOM     63  C   UNL A   1      43.905  35.251  31.381  1.00  0.00     0.010 A 
ATOM     64  C   UNL A   1      43.009  34.919  34.024  1.00  0.00     0.020 A 
ATOM     65  C   UNL A   1      43.861  36.346  32.267  1.00  0.00     0.020 A 
ATOM     66  C   UNL A   1      43.364  36.181  33.564  1.00  0.00     0.054 A 
BRANCH  66  67
ATOM     67  S   UNL A   1      43.094  37.598  34.665  1.00  0.00     0.124 S 
ATOM     68  O   UNL A   1      42.866  38.686  33.719  1.00  0.00    -0.237 OA
ATOM     69  O   UNL A   1      41.920  37.183  35.432  1.00  0.00    -0.237 OA
ATOM     70  O   UNL A   1      44.332  37.679  35.434  1.00  0.00    -0.744 OA
ENDBRANCH  66  67
ENDBRANCH  47  61
BRANCH  48  71
ATOM     71  C   UNL A   1      42.811  24.219  27.635  1.00  0.00    -0.014 A 
ATOM     72  C   UNL A   1      42.090  23.675  26.566  1.00  0.00     0.010 A 
ATOM     73  C   UNL A   1      44.031  23.548  27.947  1.00  0.00     0.010 A 
ATOM     74  C   UNL A   1      42.644  22.646  25.757  1.00  0.00     0.020 A 
ATOM     75  C   UNL A   1      44.613  22.575  27.130  1.00  0.00     0.020 A 
ATOM     76  C   UNL A   1      43.929  22.150  26.009  1.00  0.00     0.054 A 
BRANCH  76  77
ATOM     77  S   UNL A   1      44.778  21.073  24.815  1.00  0.00     0.124 S 
ATOM     78  O   UNL A   1      46.124  20.986  25.368  1.00  0.00    -0.237 OA
ATOM     79  O   UNL A   1      43.990  19.844  24.868  1.00  0.00    -0.237 OA
ATOM     80  O   UNL A   1      44.668  21.810  23.555  1.00  0.00    -0.744 OA
ENDBRANCH  76  77
ENDBRANCH  48  71
BRANCH  60  81
ATOM     81  C   UNL A   1      43.852  28.364  32.097  1.00  0.00    -0.014 A 
ATOM     82  C   UNL A   1      44.578  27.812  33.166  1.00  0.00     0.010 A 
ATOM     83  C   UNL A   1      42.464  28.533  32.278  1.00  0.00     0.010 A 
ATOM     84  C   UNL A   1      43.951  27.450  34.367  1.00  0.00     0.020 A 
ATOM     85  C   UNL A   1      41.823  28.174  33.479  1.00  0.00     0.020 A 
ATOM     86  C   UNL A   1      42.577  27.636  34.522  1.00  0.00     0.054 A 
BRANCH  86  87
ATOM     87  S   UNL A   1      41.803  27.163  36.098  1.00  0.00     0.124 S 
ATOM     88  O   UNL A   1      40.922  28.294  36.377  1.00  0.00    -0.237 OA
ATOM     89  O   UNL A   1      41.126  25.915  35.752  1.00  0.00    -0.237 OA
ATOM     90  O   UNL A   1      42.933  27.022  37.016  1.00  0.00    -0.744 OA
ENDBRANCH  86  87
ENDBRANCH  60  81
ENDBRANCH  34  35
ENDBRANCH  26  29
ENDBRANCH  24  25
ENDBRANCH  23  24
ENDBRANCH  22  23
ENDBRANCH   1  22
TORSDOF 19
ENDMDL
