MODEL 1
REMARK VINA RESULT:     -11.1      0.000      0.000
REMARK SMILES CC[C@@H]1CCCN1C(=O)N1CC[C@@H](C(=O)NCCCCNC(=O)c2ccc(-c3c4nc(c(-c5ccc(S(=O)(=O)[O-])cc5)c5ccc([nH]5)c(-c5ccc(S(=O)(=O)[O-])cc5)c5nc(c(-c6ccc(S(=O)(=O)[O-])cc6)c6ccc3[nH]6)C=C5)C=C4)cc2)[C@@H]1C
REMARK SMILES IDX 18 1 17 2 16 3 14 4 15 5 13 7 10 8 11 9 84 10 12 11 85 12
REMARK SMILES IDX 8 13 9 14 7 15 3 16 4 17 5 18 6 19 2 20 1 21 19 22 20 23
REMARK SMILES IDX 21 24 22 25 23 27 24 28 25 29 83 30 26 31 82 32 27 33 28 34
REMARK SMILES IDX 29 35 76 36 30 37 81 38 75 39 77 40 31 41 80 42 74 43 73 44
REMARK SMILES IDX 32 46 62 47 43 48 61 49 44 50 47 51 60 52 78 53 45 54 46 55
REMARK SMILES IDX 59 57 79 58 48 59 33 60 34 61 42 62 35 63 41 64 36 65 37 66
REMARK SMILES IDX 38 67 39 68 40 69 63 70 64 71 72 72 65 73 71 74 66 75 67 76
REMARK SMILES IDX 68 77 69 78 70 79 49 80 50 81 58 82 51 83 57 84 52 85 53 86
REMARK SMILES IDX 54 87 55 88 56 89
REMARK H PARENT 16 6 21 26 77 45 47 56
REMARK Flexibility Score: inf
ROOT
ATOM      1  C   UNL A   1      40.656  21.290  25.921  1.00  0.00     0.023 C 
ENDROOT
BRANCH   1   2
ATOM      2  C   UNL A   1      39.141  21.102  25.929  1.00  0.00     0.116 C 
BRANCH   2   3
ATOM      3  N   UNL A   1      38.424  22.311  26.278  1.00  0.00    -0.356 N 
ATOM      4  C   UNL A   1      37.293  22.850  25.747  1.00  0.00     0.225 C 
ATOM      5  O   UNL A   1      36.868  23.899  26.233  1.00  0.00    -0.275 OA
ATOM      6  H   UNL A   1      38.818  22.827  27.019  1.00  0.00     0.163 HD
BRANCH   4   7
ATOM      7  C   UNL A   1      36.581  22.149  24.605  1.00  0.00     0.102 C 
ATOM      8  N   UNL A   1      34.394  22.471  23.729  1.00  0.00    -0.321 N 
ATOM      9  C   UNL A   1      35.198  23.567  23.229  1.00  0.00     0.122 C 
ATOM     10  C   UNL A   1      35.077  21.980  24.926  1.00  0.00     0.096 C 
ATOM     11  C   UNL A   1      36.611  23.030  23.336  1.00  0.00     0.037 C 
ATOM     12  C   UNL A   1      34.676  20.553  25.281  1.00  0.00     0.032 C 
BRANCH   8  13
ATOM     13  C   UNL A   1      33.029  22.604  23.727  1.00  0.00     0.320 C 
ATOM     14  O   UNL A   1      32.377  22.368  22.708  1.00  0.00    -0.248 OA
BRANCH  13  15
ATOM     15  N   UNL A   1      32.424  23.027  24.891  1.00  0.00    -0.322 N 
ATOM     16  C   UNL A   1      32.320  24.357  25.526  1.00  0.00     0.086 C 
ATOM     17  C   UNL A   1      31.672  24.007  26.877  1.00  0.00     0.027 C 
ATOM     18  C   UNL A   1      30.666  22.938  26.505  1.00  0.00     0.024 C 
ATOM     19  C   UNL A   1      31.389  22.147  25.428  1.00  0.00     0.122 C 
BRANCH  16  20
ATOM     20  C   UNL A   1      33.554  25.227  25.781  1.00  0.00     0.022 C 
ATOM     21  C   UNL A   1      33.658  26.401  24.816  1.00  0.00     0.006 C 
ENDBRANCH  16  20
ENDBRANCH  13  15
ENDBRANCH   8  13
ENDBRANCH   4   7
ENDBRANCH   2   3
ENDBRANCH   1   2
BRANCH   1  22
ATOM     22  C   UNL A   1      41.285  21.648  27.270  1.00  0.00     0.023 C 
BRANCH  22  23
ATOM     23  C   UNL A   1      41.456  23.136  27.557  1.00  0.00     0.116 C 
BRANCH  23  24
ATOM     24  N   UNL A   1      41.438  23.961  26.361  1.00  0.00    -0.352 N 
ATOM     25  C   UNL A   1      41.301  25.326  26.258  1.00  0.00     0.251 C 
ATOM     26  H   UNL A   1      41.537  23.479  25.509  1.00  0.00     0.163 HD
ATOM     27  O   UNL A   1      41.212  25.848  25.149  1.00  0.00    -0.269 OA
BRANCH  25  28
ATOM     28  C   UNL A   1      41.218  26.157  27.481  1.00  0.00     0.039 A 
ATOM     29  C   UNL A   1      42.212  27.111  27.713  1.00  0.00     0.014 A 
ATOM     30  C   UNL A   1      40.159  26.015  28.381  1.00  0.00     0.014 A 
ATOM     31  C   UNL A   1      42.105  27.972  28.809  1.00  0.00     0.010 A 
ATOM     32  C   UNL A   1      40.019  26.917  29.435  1.00  0.00     0.010 A 
ATOM     33  C   UNL A   1      40.988  27.907  29.658  1.00  0.00    -0.014 A 
BRANCH  33  34
ATOM     34  C   UNL A   1      40.808  28.876  30.771  1.00  0.00     0.031 A 
ATOM     35  C   UNL A   1      41.654  28.771  32.012  1.00  0.00     0.074 A 
ATOM     36  C   UNL A   1      39.840  29.810  30.692  1.00  0.00     0.049 A 
ATOM     37  N   UNL A   1      41.602  29.487  33.106  1.00  0.00    -0.248 NA
ATOM     38  C   UNL A   1      42.673  27.710  32.035  1.00  0.00     0.031 C 
ATOM     39  C   UNL A   1      38.925  29.991  29.562  1.00  0.00     0.029 A 
ATOM     40  N   UNL A   1      39.457  30.781  31.586  1.00  0.00    -0.354 N 
ATOM     41  C   UNL A   1      42.567  28.954  33.954  1.00  0.00     0.074 A 
ATOM     42  C   UNL A   1      43.157  27.826  33.264  1.00  0.00     0.031 C 
ATOM     43  C   UNL A   1      38.106  31.023  29.821  1.00  0.00     0.029 A 
ATOM     44  C   UNL A   1      38.407  31.553  31.147  1.00  0.00     0.049 A 
ATOM     45  H   UNL A   1      39.893  30.911  32.459  1.00  0.00     0.167 HD
ATOM     46  C   UNL A   1      42.942  29.375  35.186  1.00  0.00     0.031 A 
ATOM     47  C   UNL A   1      37.753  32.568  31.745  1.00  0.00     0.031 A 
ATOM     48  C   UNL A   1      42.361  30.501  35.867  1.00  0.00     0.049 A 
ATOM     49  C   UNL A   1      38.183  33.013  33.116  1.00  0.00     0.074 A 
ATOM     50  C   UNL A   1      42.712  31.039  37.093  1.00  0.00     0.029 A 
ATOM     51  N   UNL A   1      41.309  31.263  35.383  1.00  0.00    -0.354 N 
ATOM     52  N   UNL A   1      39.142  32.536  33.873  1.00  0.00    -0.248 NA
ATOM     53  C   UNL A   1      37.450  34.140  33.708  1.00  0.00     0.031 C 
ATOM     54  C   UNL A   1      41.839  32.096  37.372  1.00  0.00     0.029 A 
ATOM     55  C   UNL A   1      40.983  32.253  36.294  1.00  0.00     0.049 A 
ATOM     56  H   UNL A   1      40.860  31.122  34.517  1.00  0.00     0.167 HD
ATOM     57  C   UNL A   1      39.144  33.323  35.020  1.00  0.00     0.074 A 
ATOM     58  C   UNL A   1      38.102  34.314  34.850  1.00  0.00     0.031 C 
ATOM     59  C   UNL A   1      39.941  33.232  36.114  1.00  0.00     0.031 A 
BRANCH  46  60
ATOM     60  C   UNL A   1      44.033  28.602  35.881  1.00  0.00    -0.014 A 
ATOM     61  C   UNL A   1      43.730  27.513  36.717  1.00  0.00     0.010 A 
ATOM     62  C   UNL A   1      45.380  28.948  35.669  1.00  0.00     0.010 A 
ATOM     63  C   UNL A   1      44.751  26.811  37.364  1.00  0.00     0.020 A 
ATOM     64  C   UNL A   1      46.406  28.231  36.291  1.00  0.00     0.020 A 
ATOM     65  C   UNL A   1      46.084  27.177  37.150  1.00  0.00     0.054 A 
BRANCH  65  66
ATOM     66  S   UNL A   1      47.389  26.237  37.987  1.00  0.00     0.124 S 
ATOM     67  O   UNL A   1      46.785  24.911  38.091  1.00  0.00    -0.237 OA
ATOM     68  O   UNL A   1      48.509  26.344  37.056  1.00  0.00    -0.237 OA
ATOM     69  O   UNL A   1      47.565  26.942  39.255  1.00  0.00    -0.744 OA
ENDBRANCH  65  66
ENDBRANCH  46  60
BRANCH  47  70
ATOM     70  C   UNL A   1      36.631  33.246  31.040  1.00  0.00    -0.014 A 
ATOM     71  C   UNL A   1      35.324  33.185  31.556  1.00  0.00     0.010 A 
ATOM     72  C   UNL A   1      36.865  33.968  29.855  1.00  0.00     0.010 A 
ATOM     73  C   UNL A   1      34.270  33.822  30.893  1.00  0.00     0.020 A 
ATOM     74  C   UNL A   1      35.818  34.627  29.205  1.00  0.00     0.020 A 
ATOM     75  C   UNL A   1      34.525  34.541  29.722  1.00  0.00     0.054 A 
BRANCH  75  76
ATOM     76  S   UNL A   1      33.152  35.406  28.910  1.00  0.00     0.124 S 
ATOM     77  O   UNL A   1      32.398  35.916  30.050  1.00  0.00    -0.237 OA
ATOM     78  O   UNL A   1      33.843  36.411  28.106  1.00  0.00    -0.237 OA
ATOM     79  O   UNL A   1      32.492  34.353  28.142  1.00  0.00    -0.744 OA
ENDBRANCH  75  76
ENDBRANCH  47  70
BRANCH  59  80
ATOM     80  C   UNL A   1      39.740  34.252  37.203  1.00  0.00    -0.014 A 
ATOM     81  C   UNL A   1      39.030  33.938  38.375  1.00  0.00     0.010 A 
ATOM     82  C   UNL A   1      40.320  35.527  37.073  1.00  0.00     0.010 A 
ATOM     83  C   UNL A   1      38.879  34.892  39.386  1.00  0.00     0.020 A 
ATOM     84  C   UNL A   1      40.194  36.475  38.092  1.00  0.00     0.020 A 
ATOM     85  C   UNL A   1      39.462  36.155  39.237  1.00  0.00     0.054 A 
BRANCH  85  86
ATOM     86  S   UNL A   1      39.289  37.360  40.582  1.00  0.00     0.124 S 
ATOM     87  O   UNL A   1      38.327  38.305  40.021  1.00  0.00    -0.237 OA
ATOM     88  O   UNL A   1      38.795  36.542  41.686  1.00  0.00    -0.237 OA
ATOM     89  O   UNL A   1      40.644  37.880  40.757  1.00  0.00    -0.744 OA
ENDBRANCH  85  86
ENDBRANCH  59  80
ENDBRANCH  33  34
ENDBRANCH  25  28
ENDBRANCH  23  24
ENDBRANCH  22  23
ENDBRANCH   1  22
TORSDOF 17
ENDMDL
MODEL 2
REMARK VINA RESULT:     -10.8      6.170      8.585
REMARK SMILES CC[C@@H]1CCCN1C(=O)N1CC[C@@H](C(=O)NCCCCNC(=O)c2ccc(-c3c4nc(c(-c5ccc(S(=O)(=O)[O-])cc5)c5ccc([nH]5)c(-c5ccc(S(=O)(=O)[O-])cc5)c5nc(c(-c6ccc(S(=O)(=O)[O-])cc6)c6ccc3[nH]6)C=C5)C=C4)cc2)[C@@H]1C
REMARK SMILES IDX 18 1 17 2 16 3 14 4 15 5 13 7 10 8 11 9 84 10 12 11 85 12
REMARK SMILES IDX 8 13 9 14 7 15 3 16 4 17 5 18 6 19 2 20 1 21 19 22 20 23
REMARK SMILES IDX 21 24 22 25 23 27 24 28 25 29 83 30 26 31 82 32 27 33 28 34
REMARK SMILES IDX 29 35 76 36 30 37 81 38 75 39 77 40 31 41 80 42 74 43 73 44
REMARK SMILES IDX 32 46 62 47 43 48 61 49 44 50 47 51 60 52 78 53 45 54 46 55
REMARK SMILES IDX 59 57 79 58 48 59 33 60 34 61 42 62 35 63 41 64 36 65 37 66
REMARK SMILES IDX 38 67 39 68 40 69 63 70 64 71 72 72 65 73 71 74 66 75 67 76
REMARK SMILES IDX 68 77 69 78 70 79 49 80 50 81 58 82 51 83 57 84 52 85 53 86
REMARK SMILES IDX 54 87 55 88 56 89
REMARK H PARENT 16 6 21 26 77 45 47 56
REMARK Flexibility Score: inf
ROOT
ATOM      1  C   UNL A   1      36.995  21.166  25.111  1.00  0.00     0.023 C 
ENDROOT
BRANCH   1   2
ATOM      2  C   UNL A   1      35.624  20.508  24.968  1.00  0.00     0.116 C 
BRANCH   2   3
ATOM      3  N   UNL A   1      34.711  20.869  26.034  1.00  0.00    -0.356 N 
ATOM      4  C   UNL A   1      34.019  22.020  26.251  1.00  0.00     0.225 C 
ATOM      5  O   UNL A   1      33.287  22.077  27.240  1.00  0.00    -0.275 OA
ATOM      6  H   UNL A   1      34.569  20.167  26.711  1.00  0.00     0.163 HD
BRANCH   4   7
ATOM      7  C   UNL A   1      34.143  23.176  25.276  1.00  0.00     0.102 C 
ATOM      8  N   UNL A   1      32.472  24.595  24.355  1.00  0.00    -0.321 N 
ATOM      9  C   UNL A   1      32.689  25.051  25.713  1.00  0.00     0.122 C 
ATOM     10  C   UNL A   1      32.931  23.206  24.314  1.00  0.00     0.096 C 
ATOM     11  C   UNL A   1      34.073  24.521  26.033  1.00  0.00     0.037 C 
ATOM     12  C   UNL A   1      33.252  22.741  22.899  1.00  0.00     0.032 C 
BRANCH   8  13
ATOM     13  C   UNL A   1      31.308  24.949  23.722  1.00  0.00     0.320 C 
ATOM     14  O   UNL A   1      30.442  24.105  23.486  1.00  0.00    -0.248 OA
BRANCH  13  15
ATOM     15  N   UNL A   1      31.157  26.267  23.346  1.00  0.00    -0.322 N 
ATOM     16  C   UNL A   1      31.925  27.127  22.423  1.00  0.00     0.086 C 
ATOM     17  C   UNL A   1      31.277  28.501  22.668  1.00  0.00     0.027 C 
ATOM     18  C   UNL A   1      29.808  28.163  22.814  1.00  0.00     0.024 C 
ATOM     19  C   UNL A   1      29.832  26.843  23.564  1.00  0.00     0.122 C 
BRANCH  16  20
ATOM     20  C   UNL A   1      33.445  27.271  22.534  1.00  0.00     0.022 C 
ATOM     21  C   UNL A   1      33.875  28.051  23.770  1.00  0.00     0.006 C 
ENDBRANCH  16  20
ENDBRANCH  13  15
ENDBRANCH   8  13
ENDBRANCH   4   7
ENDBRANCH   2   3
ENDBRANCH   1   2
BRANCH   1  22
ATOM     22  C   UNL A   1      38.193  20.215  25.042  1.00  0.00     0.023 C 
BRANCH  22  23
ATOM     23  C   UNL A   1      39.378  20.564  25.937  1.00  0.00     0.116 C 
BRANCH  23  24
ATOM     24  N   UNL A   1      40.325  19.473  26.095  1.00  0.00    -0.352 N 
ATOM     25  C   UNL A   1      41.676  19.533  26.344  1.00  0.00     0.251 C 
ATOM     26  H   UNL A   1      39.948  18.567  26.013  1.00  0.00     0.163 HD
ATOM     27  O   UNL A   1      42.342  18.500  26.353  1.00  0.00    -0.269 OA
BRANCH  25  28
ATOM     28  C   UNL A   1      42.332  20.843  26.558  1.00  0.00     0.039 A 
ATOM     29  C   UNL A   1      42.707  21.596  25.442  1.00  0.00     0.014 A 
ATOM     30  C   UNL A   1      42.558  21.338  27.845  1.00  0.00     0.014 A 
ATOM     31  C   UNL A   1      43.241  22.876  25.616  1.00  0.00     0.010 A 
ATOM     32  C   UNL A   1      43.027  22.640  28.015  1.00  0.00     0.010 A 
ATOM     33  C   UNL A   1      43.370  23.424  26.902  1.00  0.00    -0.014 A 
BRANCH  33  34
ATOM     34  C   UNL A   1      43.845  24.818  27.103  1.00  0.00     0.031 A 
ATOM     35  C   UNL A   1      45.295  25.164  26.893  1.00  0.00     0.074 A 
ATOM     36  C   UNL A   1      42.984  25.761  27.537  1.00  0.00     0.049 A 
ATOM     37  N   UNL A   1      45.903  26.308  27.074  1.00  0.00    -0.248 NA
ATOM     38  C   UNL A   1      46.180  24.078  26.443  1.00  0.00     0.031 C 
ATOM     39  C   UNL A   1      41.562  25.545  27.818  1.00  0.00     0.029 A 
ATOM     40  N   UNL A   1      43.180  27.089  27.826  1.00  0.00    -0.354 N 
ATOM     41  C   UNL A   1      47.242  26.077  26.779  1.00  0.00     0.074 A 
ATOM     42  C   UNL A   1      47.364  24.673  26.450  1.00  0.00     0.031 C 
ATOM     43  C   UNL A   1      41.012  26.705  28.215  1.00  0.00     0.029 A 
ATOM     44  C   UNL A   1      42.045  27.734  28.256  1.00  0.00     0.049 A 
ATOM     45  H   UNL A   1      44.052  27.536  27.735  1.00  0.00     0.167 HD
ATOM     46  C   UNL A   1      48.273  26.956  26.763  1.00  0.00     0.031 A 
ATOM     47  C   UNL A   1      41.855  29.010  28.646  1.00  0.00     0.031 A 
ATOM     48  C   UNL A   1      48.149  28.354  27.080  1.00  0.00     0.049 A 
ATOM     49  C   UNL A   1      43.016  29.966  28.627  1.00  0.00     0.074 A 
ATOM     50  C   UNL A   1      49.123  29.335  27.039  1.00  0.00     0.029 A 
ATOM     51  N   UNL A   1      46.979  28.970  27.499  1.00  0.00    -0.354 N 
ATOM     52  N   UNL A   1      44.261  29.741  28.281  1.00  0.00    -0.248 NA
ATOM     53  C   UNL A   1      42.744  31.349  29.040  1.00  0.00     0.031 C 
ATOM     54  C   UNL A   1      48.555  30.534  27.479  1.00  0.00     0.029 A 
ATOM     55  C   UNL A   1      47.213  30.313  27.740  1.00  0.00     0.049 A 
ATOM     56  H   UNL A   1      46.110  28.520  27.608  1.00  0.00     0.167 HD
ATOM     57  C   UNL A   1      44.915  30.962  28.410  1.00  0.00     0.074 A 
ATOM     58  C   UNL A   1      43.925  31.923  28.851  1.00  0.00     0.031 C 
ATOM     59  C   UNL A   1      46.218  31.259  28.181  1.00  0.00     0.031 A 
BRANCH  46  60
ATOM     60  C   UNL A   1      49.634  26.424  26.395  1.00  0.00    -0.014 A 
ATOM     61  C   UNL A   1      50.150  26.590  25.098  1.00  0.00     0.010 A 
ATOM     62  C   UNL A   1      50.421  25.781  27.367  1.00  0.00     0.010 A 
ATOM     63  C   UNL A   1      51.410  26.083  24.766  1.00  0.00     0.020 A 
ATOM     64  C   UNL A   1      51.693  25.298  27.048  1.00  0.00     0.020 A 
ATOM     65  C   UNL A   1      52.173  25.437  25.744  1.00  0.00     0.054 A 
BRANCH  65  66
ATOM     66  S   UNL A   1      53.811  24.805  25.291  1.00  0.00     0.124 S 
ATOM     67  O   UNL A   1      54.589  25.102  26.491  1.00  0.00    -0.237 OA
ATOM     68  O   UNL A   1      53.553  23.388  25.047  1.00  0.00    -0.237 OA
ATOM     69  O   UNL A   1      54.169  25.584  24.108  1.00  0.00    -0.744 OA
ENDBRANCH  65  66
ENDBRANCH  46  60
BRANCH  47  70
ATOM     70  C   UNL A   1      40.502  29.462  29.073  1.00  0.00    -0.014 A 
ATOM     71  C   UNL A   1      39.490  29.680  28.121  1.00  0.00     0.010 A 
ATOM     72  C   UNL A   1      40.213  29.662  30.436  1.00  0.00     0.010 A 
ATOM     73  C   UNL A   1      38.220  30.104  28.522  1.00  0.00     0.020 A 
ATOM     74  C   UNL A   1      38.937  30.060  30.842  1.00  0.00     0.020 A 
ATOM     75  C   UNL A   1      37.950  30.289  29.881  1.00  0.00     0.054 A 
BRANCH  75  76
ATOM     76  S   UNL A   1      36.278  30.786  30.383  1.00  0.00     0.124 S 
ATOM     77  O   UNL A   1      36.502  32.135  30.890  1.00  0.00    -0.237 OA
ATOM     78  O   UNL A   1      35.533  30.696  29.129  1.00  0.00    -0.237 OA
ATOM     79  O   UNL A   1      35.914  29.790  31.387  1.00  0.00    -0.744 OA
ENDBRANCH  75  76
ENDBRANCH  47  70
BRANCH  59  80
ATOM     80  C   UNL A   1      46.647  32.690  28.370  1.00  0.00    -0.014 A 
ATOM     81  C   UNL A   1      46.574  33.619  27.317  1.00  0.00     0.010 A 
ATOM     82  C   UNL A   1      47.077  33.122  29.638  1.00  0.00     0.010 A 
ATOM     83  C   UNL A   1      46.952  34.949  27.522  1.00  0.00     0.020 A 
ATOM     84  C   UNL A   1      47.430  34.457  29.853  1.00  0.00     0.020 A 
ATOM     85  C   UNL A   1      47.378  35.359  28.789  1.00  0.00     0.054 A 
BRANCH  85  86
ATOM     86  S   UNL A   1      47.821  37.100  29.040  1.00  0.00     0.124 S 
ATOM     87  O   UNL A   1      47.699  37.643  27.690  1.00  0.00    -0.237 OA
ATOM     88  O   UNL A   1      46.812  37.555  29.994  1.00  0.00    -0.237 OA
ATOM     89  O   UNL A   1      49.184  37.039  29.566  1.00  0.00    -0.744 OA
ENDBRANCH  85  86
ENDBRANCH  59  80
ENDBRANCH  33  34
ENDBRANCH  25  28
ENDBRANCH  23  24
ENDBRANCH  22  23
ENDBRANCH   1  22
TORSDOF 17
ENDMDL
MODEL 3
REMARK VINA RESULT:     -10.7      1.307      8.445
REMARK SMILES CC[C@@H]1CCCN1C(=O)N1CC[C@@H](C(=O)NCCCCNC(=O)c2ccc(-c3c4nc(c(-c5ccc(S(=O)(=O)[O-])cc5)c5ccc([nH]5)c(-c5ccc(S(=O)(=O)[O-])cc5)c5nc(c(-c6ccc(S(=O)(=O)[O-])cc6)c6ccc3[nH]6)C=C5)C=C4)cc2)[C@@H]1C
REMARK SMILES IDX 18 1 17 2 16 3 14 4 15 5 13 7 10 8 11 9 84 10 12 11 85 12
REMARK SMILES IDX 8 13 9 14 7 15 3 16 4 17 5 18 6 19 2 20 1 21 19 22 20 23
REMARK SMILES IDX 21 24 22 25 23 27 24 28 25 29 83 30 26 31 82 32 27 33 28 34
REMARK SMILES IDX 29 35 76 36 30 37 81 38 75 39 77 40 31 41 80 42 74 43 73 44
REMARK SMILES IDX 32 46 62 47 43 48 61 49 44 50 47 51 60 52 78 53 45 54 46 55
REMARK SMILES IDX 59 57 79 58 48 59 33 60 34 61 42 62 35 63 41 64 36 65 37 66
REMARK SMILES IDX 38 67 39 68 40 69 63 70 64 71 72 72 65 73 71 74 66 75 67 76
REMARK SMILES IDX 68 77 69 78 70 79 49 80 50 81 58 82 51 83 57 84 52 85 53 86
REMARK SMILES IDX 54 87 55 88 56 89
REMARK H PARENT 16 6 21 26 77 45 47 56
REMARK Flexibility Score: inf
ROOT
ATOM      1  C   UNL A   1      38.065  22.326  25.546  1.00  0.00     0.023 C 
ENDROOT
BRANCH   1   2
ATOM      2  C   UNL A   1      37.065  21.641  24.618  1.00  0.00     0.116 C 
BRANCH   2   3
ATOM      3  N   UNL A   1      36.469  22.549  23.659  1.00  0.00    -0.356 N 
ATOM      4  C   UNL A   1      35.168  22.890  23.458  1.00  0.00     0.225 C 
ATOM      5  O   UNL A   1      34.914  23.708  22.572  1.00  0.00    -0.275 OA
ATOM      6  H   UNL A   1      37.111  22.991  23.056  1.00  0.00     0.163 HD
BRANCH   4   7
ATOM      7  C   UNL A   1      34.081  22.286  24.327  1.00  0.00     0.102 C 
ATOM      8  N   UNL A   1      32.293  23.329  25.499  1.00  0.00    -0.321 N 
ATOM      9  C   UNL A   1      31.903  23.299  24.104  1.00  0.00     0.122 C 
ATOM     10  C   UNL A   1      33.753  23.223  25.514  1.00  0.00     0.096 C 
ATOM     11  C   UNL A   1      32.759  22.185  23.535  1.00  0.00     0.037 C 
ATOM     12  C   UNL A   1      34.287  22.733  26.856  1.00  0.00     0.032 C 
BRANCH   8  13
ATOM     13  C   UNL A   1      31.664  24.211  26.338  1.00  0.00     0.320 C 
ATOM     14  O   UNL A   1      31.064  23.808  27.336  1.00  0.00    -0.248 OA
BRANCH  13  15
ATOM     15  N   UNL A   1      31.710  25.551  26.013  1.00  0.00    -0.322 N 
ATOM     16  C   UNL A   1      30.650  26.530  25.700  1.00  0.00     0.086 C 
ATOM     17  C   UNL A   1      31.476  27.751  25.258  1.00  0.00     0.027 C 
ATOM     18  C   UNL A   1      32.644  27.738  26.222  1.00  0.00     0.024 C 
ATOM     19  C   UNL A   1      32.932  26.256  26.392  1.00  0.00     0.122 C 
BRANCH  16  20
ATOM     20  C   UNL A   1      29.581  26.249  24.641  1.00  0.00     0.022 C 
ATOM     21  C   UNL A   1      29.893  26.900  23.299  1.00  0.00     0.006 C 
ENDBRANCH  16  20
ENDBRANCH  13  15
ENDBRANCH   8  13
ENDBRANCH   4   7
ENDBRANCH   2   3
ENDBRANCH   1   2
BRANCH   1  22
ATOM     22  C   UNL A   1      37.688  23.741  25.993  1.00  0.00     0.023 C 
BRANCH  22  23
ATOM     23  C   UNL A   1      38.784  24.536  26.696  1.00  0.00     0.116 C 
BRANCH  23  24
ATOM     24  N   UNL A   1      39.912  24.850  25.835  1.00  0.00    -0.352 N 
ATOM     25  C   UNL A   1      40.903  25.786  26.021  1.00  0.00     0.251 C 
ATOM     26  H   UNL A   1      39.978  24.321  25.008  1.00  0.00     0.163 HD
ATOM     27  O   UNL A   1      41.732  25.981  25.135  1.00  0.00    -0.269 OA
BRANCH  25  28
ATOM     28  C   UNL A   1      40.942  26.587  27.266  1.00  0.00     0.039 A 
ATOM     29  C   UNL A   1      41.151  27.965  27.172  1.00  0.00     0.014 A 
ATOM     30  C   UNL A   1      40.754  25.991  28.515  1.00  0.00     0.014 A 
ATOM     31  C   UNL A   1      41.098  28.756  28.323  1.00  0.00     0.010 A 
ATOM     32  C   UNL A   1      40.634  26.787  29.653  1.00  0.00     0.010 A 
ATOM     33  C   UNL A   1      40.801  28.179  29.569  1.00  0.00    -0.014 A 
BRANCH  33  34
ATOM     34  C   UNL A   1      40.644  29.014  30.788  1.00  0.00     0.031 A 
ATOM     35  C   UNL A   1      39.584  30.081  30.846  1.00  0.00     0.074 A 
ATOM     36  C   UNL A   1      41.498  28.855  31.820  1.00  0.00     0.049 A 
ATOM     37  N   UNL A   1      39.335  30.944  31.799  1.00  0.00    -0.248 NA
ATOM     38  C   UNL A   1      38.706  30.212  29.673  1.00  0.00     0.031 C 
ATOM     39  C   UNL A   1      42.594  27.885  31.872  1.00  0.00     0.029 A 
ATOM     40  N   UNL A   1      41.583  29.514  33.022  1.00  0.00    -0.354 N 
ATOM     41  C   UNL A   1      38.286  31.729  31.335  1.00  0.00     0.074 A 
ATOM     42  C   UNL A   1      37.977  31.270  29.997  1.00  0.00     0.031 C 
ATOM     43  C   UNL A   1      43.224  27.996  33.053  1.00  0.00     0.029 A 
ATOM     44  C   UNL A   1      42.606  29.069  33.825  1.00  0.00     0.049 A 
ATOM     45  H   UNL A   1      40.968  30.238  33.283  1.00  0.00     0.167 HD
ATOM     46  C   UNL A   1      37.627  32.728  31.969  1.00  0.00     0.031 A 
ATOM     47  C   UNL A   1      43.008  29.481  35.044  1.00  0.00     0.031 A 
ATOM     48  C   UNL A   1      37.929  33.177  33.302  1.00  0.00     0.049 A 
ATOM     49  C   UNL A   1      42.265  30.596  35.725  1.00  0.00     0.074 A 
ATOM     50  C   UNL A   1      37.283  34.144  34.051  1.00  0.00     0.029 A 
ATOM     51  N   UNL A   1      38.965  32.692  34.085  1.00  0.00    -0.354 N 
ATOM     52  N   UNL A   1      41.234  31.282  35.294  1.00  0.00    -0.248 NA
ATOM     53  C   UNL A   1      42.734  30.986  37.062  1.00  0.00     0.031 C 
ATOM     54  C   UNL A   1      37.958  34.278  35.268  1.00  0.00     0.029 A 
ATOM     55  C   UNL A   1      38.989  33.354  35.301  1.00  0.00     0.049 A 
ATOM     56  H   UNL A   1      39.592  31.980  33.818  1.00  0.00     0.167 HD
ATOM     57  C   UNL A   1      40.914  32.167  36.318  1.00  0.00     0.074 A 
ATOM     58  C   UNL A   1      41.851  31.919  37.394  1.00  0.00     0.031 C 
ATOM     59  C   UNL A   1      39.930  33.099  36.363  1.00  0.00     0.031 A 
BRANCH  46  60
ATOM     60  C   UNL A   1      36.513  33.411  31.219  1.00  0.00    -0.014 A 
ATOM     61  C   UNL A   1      35.227  33.527  31.778  1.00  0.00     0.010 A 
ATOM     62  C   UNL A   1      36.762  33.975  29.955  1.00  0.00     0.010 A 
ATOM     63  C   UNL A   1      34.200  34.154  31.068  1.00  0.00     0.020 A 
ATOM     64  C   UNL A   1      35.745  34.629  29.253  1.00  0.00     0.020 A 
ATOM     65  C   UNL A   1      34.464  34.698  29.808  1.00  0.00     0.054 A 
BRANCH  65  66
ATOM     66  S   UNL A   1      33.116  35.522  28.917  1.00  0.00     0.124 S 
ATOM     67  O   UNL A   1      33.844  36.500  28.110  1.00  0.00    -0.237 OA
ATOM     68  O   UNL A   1      32.507  34.424  28.171  1.00  0.00    -0.237 OA
ATOM     69  O   UNL A   1      32.290  36.085  29.981  1.00  0.00    -0.744 OA
ENDBRANCH  65  66
ENDBRANCH  46  60
BRANCH  47  70
ATOM     70  C   UNL A   1      44.166  28.818  35.705  1.00  0.00    -0.014 A 
ATOM     71  C   UNL A   1      43.971  27.691  36.524  1.00  0.00     0.010 A 
ATOM     72  C   UNL A   1      45.473  29.303  35.510  1.00  0.00     0.010 A 
ATOM     73  C   UNL A   1      45.058  27.069  37.145  1.00  0.00     0.020 A 
ATOM     74  C   UNL A   1      46.564  28.667  36.108  1.00  0.00     0.020 A 
ATOM     75  C   UNL A   1      46.349  27.560  36.931  1.00  0.00     0.054 A 
BRANCH  75  76
ATOM     76  S   UNL A   1      47.750  26.703  37.703  1.00  0.00     0.124 S 
ATOM     77  O   UNL A   1      48.848  27.631  37.451  1.00  0.00    -0.237 OA
ATOM     78  O   UNL A   1      47.323  26.590  39.095  1.00  0.00    -0.237 OA
ATOM     79  O   UNL A   1      47.818  25.438  36.976  1.00  0.00    -0.744 OA
ENDBRANCH  75  76
ENDBRANCH  47  70
BRANCH  59  80
ATOM     80  C   UNL A   1      39.792  33.901  37.630  1.00  0.00    -0.014 A 
ATOM     81  C   UNL A   1      40.416  35.153  37.772  1.00  0.00     0.010 A 
ATOM     82  C   UNL A   1      38.979  33.417  38.671  1.00  0.00     0.010 A 
ATOM     83  C   UNL A   1      40.253  35.893  38.947  1.00  0.00     0.020 A 
ATOM     84  C   UNL A   1      38.792  34.166  39.836  1.00  0.00     0.020 A 
ATOM     85  C   UNL A   1      39.443  35.394  39.971  1.00  0.00     0.054 A 
BRANCH  85  86
ATOM     86  S   UNL A   1      39.211  36.394  41.467  1.00  0.00     0.124 S 
ATOM     87  O   UNL A   1      38.040  35.767  42.073  1.00  0.00    -0.237 OA
ATOM     88  O   UNL A   1      40.470  36.199  42.183  1.00  0.00    -0.237 OA
ATOM     89  O   UNL A   1      38.997  37.745  40.951  1.00  0.00    -0.744 OA
ENDBRANCH  85  86
ENDBRANCH  59  80
ENDBRANCH  33  34
ENDBRANCH  25  28
ENDBRANCH  23  24
ENDBRANCH  22  23
ENDBRANCH   1  22
TORSDOF 17
ENDMDL
