MODEL 1
REMARK VINA RESULT:     -11.8      0.000      0.000
REMARK SMILES COC(=O)c1c(NC(=O)[C@@H]2[C@@H](C(=O)NCCCCNC(=O)c3ccc(-c4c5nc(c(-c6ccc(S(=O)(=O)[O-])cc6)c6ccc([nH]6)c(-c6ccc(S(=O)(=O)[O-])cc6)c6nc(c(-c7ccc(S(=O)(=O)[O-])cc7)c7ccc4[nH]7)C=C6)C=C5)cc3)[C@H]3C=C[C@@H]2CC3)sc(C)c1C
REMARK SMILES IDX 16 1 15 2 14 3 12 4 13 5 11 7 10 8 85 9 82 10 84 11 86 12
REMARK SMILES IDX 83 13 87 14 8 15 7 16 9 18 6 19 5 20 91 21 88 22 89 23 92 24
REMARK SMILES IDX 90 25 3 26 4 27 2 28 1 29 17 30 18 31 19 32 20 33 21 35
REMARK SMILES IDX 22 36 23 37 81 38 24 39 80 40 25 41 26 42 27 43 74 44 28 45
REMARK SMILES IDX 79 46 73 47 75 48 29 49 78 50 72 51 71 52 30 54 60 55 41 56
REMARK SMILES IDX 59 57 42 58 45 59 58 60 76 61 43 62 44 63 57 65 77 66 46 67
REMARK SMILES IDX 31 68 32 69 40 70 33 71 39 72 34 73 35 74 36 75 37 76 38 77
REMARK SMILES IDX 61 78 62 79 70 80 63 81 69 82 64 83 65 84 66 85 67 86 68 87
REMARK SMILES IDX 47 88 48 89 56 90 49 91 55 92 50 93 51 94 52 95 53 96 54 97
REMARK H PARENT 14 6 7 17 19 34 75 53 45 64
REMARK Flexibility Score: inf
ROOT
ATOM      1  C   UNL A   1      34.283  30.175  27.639  1.00  0.00     0.023 C 
ENDROOT
BRANCH   1   2
ATOM      2  C   UNL A   1      33.328  29.862  26.493  1.00  0.00     0.116 C 
BRANCH   2   3
ATOM      3  N   UNL A   1      33.952  29.204  25.363  1.00  0.00    -0.356 N 
ATOM      4  C   UNL A   1      33.482  28.346  24.423  1.00  0.00     0.224 C 
ATOM      5  O   UNL A   1      34.210  28.193  23.433  1.00  0.00    -0.275 OA
ATOM      6  H   UNL A   1      34.906  29.423  25.256  1.00  0.00     0.163 HD
BRANCH   4   7
ATOM      7  C   UNL A   1      32.210  27.501  24.539  1.00  0.00     0.098 C 
ATOM      8  C   UNL A   1      32.350  25.955  24.697  1.00  0.00     0.099 C 
ATOM      9  C   UNL A   1      31.318  25.271  23.739  1.00  0.00     0.025 C 
ATOM     10  C   UNL A   1      31.230  27.840  23.376  1.00  0.00     0.025 C 
ATOM     11  C   UNL A   1      31.637  25.713  22.325  1.00  0.00    -0.027 C 
ATOM     12  C   UNL A   1      29.893  25.804  24.044  1.00  0.00     0.009 C 
ATOM     13  C   UNL A   1      31.592  27.041  22.139  1.00  0.00    -0.027 C 
ATOM     14  C   UNL A   1      29.834  27.331  23.805  1.00  0.00     0.009 C 
BRANCH   8  15
ATOM     15  C   UNL A   1      32.148  25.435  26.129  1.00  0.00     0.229 C 
ATOM     16  N   UNL A   1      32.685  24.231  26.518  1.00  0.00    -0.317 N 
ATOM     17  H   UNL A   1      32.390  23.893  27.395  1.00  0.00     0.170 HD
ATOM     18  O   UNL A   1      31.410  26.014  26.931  1.00  0.00    -0.274 OA
BRANCH  16  19
ATOM     19  C   UNL A   1      33.579  23.434  25.840  1.00  0.00     0.110 A 
ATOM     20  C   UNL A   1      33.533  22.182  25.254  1.00  0.00     0.098 A 
ATOM     21  C   UNL A   1      34.882  21.659  25.128  1.00  0.00    -0.021 A 
ATOM     22  S   UNL A   1      35.097  24.170  25.637  1.00  0.00    -0.122 S 
ATOM     23  C   UNL A   1      35.818  22.683  25.198  1.00  0.00     0.007 A 
ATOM     24  C   UNL A   1      35.205  20.213  24.890  1.00  0.00     0.046 C 
ATOM     25  C   UNL A   1      37.289  22.621  24.948  1.00  0.00     0.057 C 
BRANCH  20  26
ATOM     26  C   UNL A   1      32.310  21.496  24.839  1.00  0.00     0.341 C 
ATOM     27  O   UNL A   1      31.302  21.428  25.539  1.00  0.00    -0.246 OA
BRANCH  26  28
ATOM     28  O   UNL A   1      32.426  20.932  23.604  1.00  0.00    -0.465 OA
ATOM     29  C   UNL A   1      32.017  21.736  22.495  1.00  0.00     0.282 C 
ENDBRANCH  26  28
ENDBRANCH  20  26
ENDBRANCH  16  19
ENDBRANCH   8  15
ENDBRANCH   4   7
ENDBRANCH   2   3
ENDBRANCH   1   2
BRANCH   1  30
ATOM     30  C   UNL A   1      34.824  31.605  27.634  1.00  0.00     0.023 C 
BRANCH  30  31
ATOM     31  C   UNL A   1      35.773  31.967  28.777  1.00  0.00     0.116 C 
BRANCH  31  32
ATOM     32  N   UNL A   1      35.533  31.227  30.009  1.00  0.00    -0.352 N 
ATOM     33  C   UNL A   1      36.408  30.431  30.714  1.00  0.00     0.251 C 
ATOM     34  H   UNL A   1      34.627  31.306  30.386  1.00  0.00     0.163 HD
ATOM     35  O   UNL A   1      36.034  29.820  31.710  1.00  0.00    -0.269 OA
BRANCH  33  36
ATOM     36  C   UNL A   1      37.800  30.289  30.229  1.00  0.00     0.039 A 
ATOM     37  C   UNL A   1      38.852  30.382  31.143  1.00  0.00     0.014 A 
ATOM     38  C   UNL A   1      38.054  29.994  28.887  1.00  0.00     0.014 A 
ATOM     39  C   UNL A   1      40.154  30.085  30.728  1.00  0.00     0.010 A 
ATOM     40  C   UNL A   1      39.340  29.630  28.495  1.00  0.00     0.010 A 
ATOM     41  C   UNL A   1      40.401  29.659  29.413  1.00  0.00    -0.014 A 
BRANCH  41  42
ATOM     42  C   UNL A   1      41.753  29.219  28.978  1.00  0.00     0.031 A 
ATOM     43  C   UNL A   1      42.885  30.208  28.907  1.00  0.00     0.074 A 
ATOM     44  C   UNL A   1      41.948  27.948  28.568  1.00  0.00     0.049 A 
ATOM     45  N   UNL A   1      44.106  30.038  28.468  1.00  0.00    -0.248 NA
ATOM     46  C   UNL A   1      42.597  31.578  29.365  1.00  0.00     0.031 C 
ATOM     47  C   UNL A   1      40.928  26.897  28.545  1.00  0.00     0.029 A 
ATOM     48  N   UNL A   1      43.072  27.327  28.081  1.00  0.00    -0.354 N 
ATOM     49  C   UNL A   1      44.723  31.278  28.573  1.00  0.00     0.074 A 
ATOM     50  C   UNL A   1      43.728  32.202  29.075  1.00  0.00     0.031 C 
ATOM     51  C   UNL A   1      41.480  25.758  28.096  1.00  0.00     0.029 A 
ATOM     52  C   UNL A   1      42.879  26.004  27.760  1.00  0.00     0.049 A 
ATOM     53  H   UNL A   1      43.936  27.787  27.972  1.00  0.00     0.167 HD
ATOM     54  C   UNL A   1      46.004  31.617  28.295  1.00  0.00     0.031 A 
ATOM     55  C   UNL A   1      43.727  25.091  27.248  1.00  0.00     0.031 A 
ATOM     56  C   UNL A   1      46.999  30.696  27.814  1.00  0.00     0.049 A 
ATOM     57  C   UNL A   1      45.147  25.489  26.950  1.00  0.00     0.074 A 
ATOM     58  C   UNL A   1      48.338  30.934  27.555  1.00  0.00     0.029 A 
ATOM     59  N   UNL A   1      46.766  29.361  27.523  1.00  0.00    -0.354 N 
ATOM     60  N   UNL A   1      45.725  26.655  27.108  1.00  0.00    -0.248 NA
ATOM     61  C   UNL A   1      46.030  24.444  26.414  1.00  0.00     0.031 C 
ATOM     62  C   UNL A   1      48.906  29.751  27.071  1.00  0.00     0.029 A 
ATOM     63  C   UNL A   1      47.932  28.765  27.073  1.00  0.00     0.049 A 
ATOM     64  H   UNL A   1      45.899  28.905  27.621  1.00  0.00     0.167 HD
ATOM     65  C   UNL A   1      47.048  26.477  26.716  1.00  0.00     0.074 A 
ATOM     66  C   UNL A   1      47.186  25.090  26.323  1.00  0.00     0.031 C 
ATOM     67  C   UNL A   1      48.056  27.382  26.689  1.00  0.00     0.031 A 
BRANCH  54  68
ATOM     68  C   UNL A   1      46.397  33.055  28.507  1.00  0.00    -0.014 A 
ATOM     69  C   UNL A   1      46.200  34.015  27.498  1.00  0.00     0.010 A 
ATOM     70  C   UNL A   1      46.958  33.455  29.733  1.00  0.00     0.010 A 
ATOM     71  C   UNL A   1      46.607  35.338  27.691  1.00  0.00     0.020 A 
ATOM     72  C   UNL A   1      47.341  34.783  29.941  1.00  0.00     0.020 A 
ATOM     73  C   UNL A   1      47.183  35.711  28.909  1.00  0.00     0.054 A 
BRANCH  73  74
ATOM     74  S   UNL A   1      47.704  37.433  29.134  1.00  0.00     0.124 S 
ATOM     75  O   UNL A   1      46.882  37.848  30.269  1.00  0.00    -0.237 OA
ATOM     76  O   UNL A   1      49.132  37.306  29.408  1.00  0.00    -0.237 OA
ATOM     77  O   UNL A   1      47.372  38.065  27.860  1.00  0.00    -0.744 OA
ENDBRANCH  73  74
ENDBRANCH  54  68
BRANCH  55  78
ATOM     78  C   UNL A   1      43.264  23.698  27.008  1.00  0.00    -0.014 A 
ATOM     79  C   UNL A   1      42.918  23.280  25.710  1.00  0.00     0.010 A 
ATOM     80  C   UNL A   1      43.175  22.779  28.069  1.00  0.00     0.010 A 
ATOM     81  C   UNL A   1      42.477  21.974  25.481  1.00  0.00     0.020 A 
ATOM     82  C   UNL A   1      42.758  21.465  27.839  1.00  0.00     0.020 A 
ATOM     83  C   UNL A   1      42.401  21.074  26.546  1.00  0.00     0.054 A 
BRANCH  83  84
ATOM     84  S   UNL A   1      41.880  19.366  26.217  1.00  0.00     0.124 S 
ATOM     85  O   UNL A   1      42.219  18.699  27.470  1.00  0.00    -0.237 OA
ATOM     86  O   UNL A   1      40.452  19.518  25.945  1.00  0.00    -0.237 OA
ATOM     87  O   UNL A   1      42.688  18.982  25.061  1.00  0.00    -0.744 OA
ENDBRANCH  83  84
ENDBRANCH  55  78
BRANCH  67  88
ATOM     88  C   UNL A   1      49.412  26.897  26.256  1.00  0.00    -0.014 A 
ATOM     89  C   UNL A   1      50.250  26.193  27.137  1.00  0.00     0.010 A 
ATOM     90  C   UNL A   1      49.826  27.095  24.926  1.00  0.00     0.010 A 
ATOM     91  C   UNL A   1      51.489  25.714  26.702  1.00  0.00     0.020 A 
ATOM     92  C   UNL A   1      51.053  26.598  24.480  1.00  0.00     0.020 A 
ATOM     93  C   UNL A   1      51.883  25.920  25.376  1.00  0.00     0.054 A 
BRANCH  93  94
ATOM     94  S   UNL A   1      53.471  25.242  24.818  1.00  0.00     0.124 S 
ATOM     95  O   UNL A   1      54.426  26.034  25.588  1.00  0.00    -0.237 OA
ATOM     96  O   UNL A   1      53.371  23.835  25.197  1.00  0.00    -0.237 OA
ATOM     97  O   UNL A   1      53.467  25.495  23.379  1.00  0.00    -0.744 OA
ENDBRANCH  93  94
ENDBRANCH  67  88
ENDBRANCH  41  42
ENDBRANCH  33  36
ENDBRANCH  31  32
ENDBRANCH  30  31
ENDBRANCH   1  30
TORSDOF 18
ENDMDL
MODEL 2
REMARK VINA RESULT:     -11.6      0.814      7.959
REMARK SMILES COC(=O)c1c(NC(=O)[C@@H]2[C@@H](C(=O)NCCCCNC(=O)c3ccc(-c4c5nc(c(-c6ccc(S(=O)(=O)[O-])cc6)c6ccc([nH]6)c(-c6ccc(S(=O)(=O)[O-])cc6)c6nc(c(-c7ccc(S(=O)(=O)[O-])cc7)c7ccc4[nH]7)C=C6)C=C5)cc3)[C@H]3C=C[C@@H]2CC3)sc(C)c1C
REMARK SMILES IDX 16 1 15 2 14 3 12 4 13 5 11 7 10 8 85 9 82 10 84 11 86 12
REMARK SMILES IDX 83 13 87 14 8 15 7 16 9 18 6 19 5 20 91 21 88 22 89 23 92 24
REMARK SMILES IDX 90 25 3 26 4 27 2 28 1 29 17 30 18 31 19 32 20 33 21 35
REMARK SMILES IDX 22 36 23 37 81 38 24 39 80 40 25 41 26 42 27 43 74 44 28 45
REMARK SMILES IDX 79 46 73 47 75 48 29 49 78 50 72 51 71 52 30 54 60 55 41 56
REMARK SMILES IDX 59 57 42 58 45 59 58 60 76 61 43 62 44 63 57 65 77 66 46 67
REMARK SMILES IDX 31 68 32 69 40 70 33 71 39 72 34 73 35 74 36 75 37 76 38 77
REMARK SMILES IDX 61 78 62 79 70 80 63 81 69 82 64 83 65 84 66 85 67 86 68 87
REMARK SMILES IDX 47 88 48 89 56 90 49 91 55 92 50 93 51 94 52 95 53 96 54 97
REMARK H PARENT 14 6 7 17 19 34 75 53 45 64
REMARK Flexibility Score: inf
ROOT
ATOM      1  C   UNL A   1      33.157  30.668  27.345  1.00  0.00     0.023 C 
ENDROOT
BRANCH   1   2
ATOM      2  C   UNL A   1      32.268  30.402  26.136  1.00  0.00     0.116 C 
BRANCH   2   3
ATOM      3  N   UNL A   1      32.972  29.860  24.991  1.00  0.00    -0.356 N 
ATOM      4  C   UNL A   1      32.666  28.882  24.101  1.00  0.00     0.224 C 
ATOM      5  O   UNL A   1      33.361  28.860  23.077  1.00  0.00    -0.275 OA
ATOM      6  H   UNL A   1      33.844  30.285  24.826  1.00  0.00     0.163 HD
BRANCH   4   7
ATOM      7  C   UNL A   1      31.627  27.775  24.310  1.00  0.00     0.098 C 
ATOM      8  C   UNL A   1      32.128  26.325  24.599  1.00  0.00     0.099 C 
ATOM      9  C   UNL A   1      31.290  25.336  23.721  1.00  0.00     0.025 C 
ATOM     10  C   UNL A   1      30.601  27.771  23.138  1.00  0.00     0.025 C 
ATOM     11  C   UNL A   1      31.504  25.715  22.269  1.00  0.00    -0.027 C 
ATOM     12  C   UNL A   1      29.779  25.544  24.001  1.00  0.00     0.009 C 
ATOM     13  C   UNL A   1      31.149  26.974  21.969  1.00  0.00    -0.027 C 
ATOM     14  C   UNL A   1      29.362  26.987  23.631  1.00  0.00     0.009 C 
BRANCH   8  15
ATOM     15  C   UNL A   1      32.046  25.900  26.074  1.00  0.00     0.229 C 
ATOM     16  N   UNL A   1      32.631  24.731  26.498  1.00  0.00    -0.317 N 
ATOM     17  H   UNL A   1      32.411  24.450  27.416  1.00  0.00     0.170 HD
ATOM     18  O   UNL A   1      31.363  26.523  26.891  1.00  0.00    -0.274 OA
BRANCH  16  19
ATOM     19  C   UNL A   1      33.483  23.901  25.806  1.00  0.00     0.110 A 
ATOM     20  C   UNL A   1      33.410  22.613  25.306  1.00  0.00     0.098 A 
ATOM     21  C   UNL A   1      34.753  22.095  25.110  1.00  0.00    -0.021 A 
ATOM     22  S   UNL A   1      34.970  24.636  25.442  1.00  0.00    -0.122 S 
ATOM     23  C   UNL A   1      35.677  23.129  25.044  1.00  0.00     0.007 A 
ATOM     24  C   UNL A   1      35.077  20.639  24.940  1.00  0.00     0.046 C 
ATOM     25  C   UNL A   1      37.126  23.065  24.687  1.00  0.00     0.057 C 
BRANCH  20  26
ATOM     26  C   UNL A   1      32.169  21.890  25.029  1.00  0.00     0.341 C 
ATOM     27  O   UNL A   1      31.193  21.913  25.775  1.00  0.00    -0.246 OA
BRANCH  26  28
ATOM     28  O   UNL A   1      32.229  21.184  23.866  1.00  0.00    -0.465 OA
ATOM     29  C   UNL A   1      32.238  21.945  22.657  1.00  0.00     0.282 C 
ENDBRANCH  26  28
ENDBRANCH  20  26
ENDBRANCH  16  19
ENDBRANCH   8  15
ENDBRANCH   4   7
ENDBRANCH   2   3
ENDBRANCH   1   2
BRANCH   1  30
ATOM     30  C   UNL A   1      34.423  29.814  27.395  1.00  0.00     0.023 C 
BRANCH  30  31
ATOM     31  C   UNL A   1      35.627  30.439  28.102  1.00  0.00     0.116 C 
BRANCH  31  32
ATOM     32  N   UNL A   1      35.573  30.358  29.556  1.00  0.00    -0.352 N 
ATOM     33  C   UNL A   1      36.521  29.860  30.421  1.00  0.00     0.251 C 
ATOM     34  H   UNL A   1      34.752  30.705  29.974  1.00  0.00     0.163 HD
ATOM     35  O   UNL A   1      36.300  29.804  31.627  1.00  0.00    -0.269 OA
BRANCH  33  36
ATOM     36  C   UNL A   1      37.799  29.352  29.872  1.00  0.00     0.039 A 
ATOM     37  C   UNL A   1      38.089  29.557  28.521  1.00  0.00     0.014 A 
ATOM     38  C   UNL A   1      38.735  28.740  30.710  1.00  0.00     0.014 A 
ATOM     39  C   UNL A   1      39.358  29.233  28.032  1.00  0.00     0.010 A 
ATOM     40  C   UNL A   1      40.019  28.485  30.237  1.00  0.00     0.010 A 
ATOM     41  C   UNL A   1      40.349  28.739  28.896  1.00  0.00    -0.014 A 
BRANCH  41  42
ATOM     42  C   UNL A   1      41.741  28.502  28.430  1.00  0.00     0.031 A 
ATOM     43  C   UNL A   1      42.166  27.130  27.983  1.00  0.00     0.074 A 
ATOM     44  C   UNL A   1      42.648  29.500  28.485  1.00  0.00     0.049 A 
ATOM     45  N   UNL A   1      43.353  26.707  27.631  1.00  0.00    -0.248 NA
ATOM     46  C   UNL A   1      41.124  26.090  27.955  1.00  0.00     0.031 C 
ATOM     47  C   UNL A   1      42.380  30.867  28.938  1.00  0.00     0.029 A 
ATOM     48  N   UNL A   1      43.983  29.514  28.167  1.00  0.00    -0.354 N 
ATOM     49  C   UNL A   1      43.207  25.351  27.363  1.00  0.00     0.074 A 
ATOM     50  C   UNL A   1      41.826  25.014  27.637  1.00  0.00     0.031 C 
ATOM     51  C   UNL A   1      43.508  31.591  28.842  1.00  0.00     0.029 A 
ATOM     52  C   UNL A   1      44.587  30.734  28.361  1.00  0.00     0.049 A 
ATOM     53  H   UNL A   1      44.464  28.723  27.830  1.00  0.00     0.167 HD
ATOM     54  C   UNL A   1      44.131  24.469  26.913  1.00  0.00     0.031 A 
ATOM     55  C   UNL A   1      45.865  31.121  28.178  1.00  0.00     0.031 A 
ATOM     56  C   UNL A   1      45.498  24.806  26.621  1.00  0.00     0.049 A 
ATOM     57  C   UNL A   1      46.873  30.126  27.674  1.00  0.00     0.074 A 
ATOM     58  C   UNL A   1      46.495  23.993  26.111  1.00  0.00     0.029 A 
ATOM     59  N   UNL A   1      46.062  26.058  26.812  1.00  0.00    -0.354 N 
ATOM     60  N   UNL A   1      46.701  28.860  27.376  1.00  0.00    -0.248 NA
ATOM     61  C   UNL A   1      48.245  30.613  27.475  1.00  0.00     0.031 C 
ATOM     62  C   UNL A   1      47.672  24.744  26.027  1.00  0.00     0.029 A 
ATOM     63  C   UNL A   1      47.396  26.037  26.443  1.00  0.00     0.049 A 
ATOM     64  H   UNL A   1      45.584  26.846  27.160  1.00  0.00     0.167 HD
ATOM     65  C   UNL A   1      47.937  28.407  26.926  1.00  0.00     0.074 A 
ATOM     66  C   UNL A   1      48.843  29.535  26.984  1.00  0.00     0.031 C 
ATOM     67  C   UNL A   1      48.286  27.168  26.501  1.00  0.00     0.031 A 
BRANCH  54  68
ATOM     68  C   UNL A   1      43.682  23.045  26.710  1.00  0.00    -0.014 A 
ATOM     69  C   UNL A   1      42.897  22.390  27.676  1.00  0.00     0.010 A 
ATOM     70  C   UNL A   1      44.037  22.360  25.535  1.00  0.00     0.010 A 
ATOM     71  C   UNL A   1      42.522  21.056  27.496  1.00  0.00     0.020 A 
ATOM     72  C   UNL A   1      43.639  21.034  25.338  1.00  0.00     0.020 A 
ATOM     73  C   UNL A   1      42.903  20.384  26.332  1.00  0.00     0.054 A 
BRANCH  73  74
ATOM     74  S   UNL A   1      42.405  18.653  26.122  1.00  0.00     0.124 S 
ATOM     75  O   UNL A   1      43.306  18.209  25.062  1.00  0.00    -0.237 OA
ATOM     76  O   UNL A   1      42.658  18.082  27.441  1.00  0.00    -0.237 OA
ATOM     77  O   UNL A   1      40.996  18.742  25.745  1.00  0.00    -0.744 OA
ENDBRANCH  73  74
ENDBRANCH  54  68
BRANCH  55  78
ATOM     78  C   UNL A   1      46.260  32.530  28.449  1.00  0.00    -0.014 A 
ATOM     79  C   UNL A   1      46.750  32.897  29.715  1.00  0.00     0.010 A 
ATOM     80  C   UNL A   1      46.160  33.508  27.444  1.00  0.00     0.010 A 
ATOM     81  C   UNL A   1      47.118  34.220  29.976  1.00  0.00     0.020 A 
ATOM     82  C   UNL A   1      46.550  34.828  27.694  1.00  0.00     0.020 A 
ATOM     83  C   UNL A   1      47.017  35.177  28.963  1.00  0.00     0.054 A 
BRANCH  83  84
ATOM     84  S   UNL A   1      47.554  36.877  29.306  1.00  0.00     0.124 S 
ATOM     85  O   UNL A   1      48.400  37.166  28.153  1.00  0.00    -0.237 OA
ATOM     86  O   UNL A   1      46.287  37.603  29.362  1.00  0.00    -0.237 OA
ATOM     87  O   UNL A   1      48.252  36.761  30.585  1.00  0.00    -0.744 OA
ENDBRANCH  83  84
ENDBRANCH  55  78
BRANCH  67  88
ATOM     88  C   UNL A   1      49.699  26.971  26.026  1.00  0.00    -0.014 A 
ATOM     89  C   UNL A   1      50.719  26.590  26.914  1.00  0.00     0.010 A 
ATOM     90  C   UNL A   1      49.995  27.110  24.657  1.00  0.00     0.010 A 
ATOM     91  C   UNL A   1      52.017  26.371  26.444  1.00  0.00     0.020 A 
ATOM     92  C   UNL A   1      51.286  26.870  24.181  1.00  0.00     0.020 A 
ATOM     93  C   UNL A   1      52.293  26.513  25.081  1.00  0.00     0.054 A 
BRANCH  93  94
ATOM     94  S   UNL A   1      53.973  26.171  24.486  1.00  0.00     0.124 S 
ATOM     95  O   UNL A   1      54.769  27.114  25.266  1.00  0.00    -0.237 OA
ATOM     96  O   UNL A   1      54.154  24.762  24.827  1.00  0.00    -0.237 OA
ATOM     97  O   UNL A   1      53.896  26.454  23.054  1.00  0.00    -0.744 OA
ENDBRANCH  93  94
ENDBRANCH  67  88
ENDBRANCH  41  42
ENDBRANCH  33  36
ENDBRANCH  31  32
ENDBRANCH  30  31
ENDBRANCH   1  30
TORSDOF 18
ENDMDL
MODEL 3
REMARK VINA RESULT:     -11.4      2.121      8.642
REMARK SMILES COC(=O)c1c(NC(=O)[C@@H]2[C@@H](C(=O)NCCCCNC(=O)c3ccc(-c4c5nc(c(-c6ccc(S(=O)(=O)[O-])cc6)c6ccc([nH]6)c(-c6ccc(S(=O)(=O)[O-])cc6)c6nc(c(-c7ccc(S(=O)(=O)[O-])cc7)c7ccc4[nH]7)C=C6)C=C5)cc3)[C@H]3C=C[C@@H]2CC3)sc(C)c1C
REMARK SMILES IDX 16 1 15 2 14 3 12 4 13 5 11 7 10 8 85 9 82 10 84 11 86 12
REMARK SMILES IDX 83 13 87 14 8 15 7 16 9 18 6 19 5 20 91 21 88 22 89 23 92 24
REMARK SMILES IDX 90 25 3 26 4 27 2 28 1 29 17 30 18 31 19 32 20 33 21 35
REMARK SMILES IDX 22 36 23 37 81 38 24 39 80 40 25 41 26 42 27 43 74 44 28 45
REMARK SMILES IDX 79 46 73 47 75 48 29 49 78 50 72 51 71 52 30 54 60 55 41 56
REMARK SMILES IDX 59 57 42 58 45 59 58 60 76 61 43 62 44 63 57 65 77 66 46 67
REMARK SMILES IDX 31 68 32 69 40 70 33 71 39 72 34 73 35 74 36 75 37 76 38 77
REMARK SMILES IDX 61 78 62 79 70 80 63 81 69 82 64 83 65 84 66 85 67 86 68 87
REMARK SMILES IDX 47 88 48 89 56 90 49 91 55 92 50 93 51 94 52 95 53 96 54 97
REMARK H PARENT 14 6 7 17 19 34 75 53 45 64
REMARK Flexibility Score: inf
ROOT
ATOM      1  C   UNL A   1      37.515  21.665  25.360  1.00  0.00     0.023 C 
ENDROOT
BRANCH   1   2
ATOM      2  C   UNL A   1      36.888  22.999  25.749  1.00  0.00     0.116 C 
BRANCH   2   3
ATOM      3  N   UNL A   1      35.763  22.884  26.654  1.00  0.00    -0.356 N 
ATOM      4  C   UNL A   1      34.451  22.593  26.459  1.00  0.00     0.224 C 
ATOM      5  O   UNL A   1      33.816  22.300  27.480  1.00  0.00    -0.275 OA
ATOM      6  H   UNL A   1      35.995  23.047  27.596  1.00  0.00     0.163 HD
BRANCH   4   7
ATOM      7  C   UNL A   1      33.700  22.700  25.129  1.00  0.00     0.098 C 
ATOM      8  C   UNL A   1      33.103  24.082  24.716  1.00  0.00     0.099 C 
ATOM      9  C   UNL A   1      31.652  23.846  24.179  1.00  0.00     0.025 C 
ATOM     10  C   UNL A   1      32.610  21.590  25.035  1.00  0.00     0.025 C 
ATOM     11  C   UNL A   1      30.846  23.208  25.292  1.00  0.00    -0.027 C 
ATOM     12  C   UNL A   1      31.686  22.810  23.025  1.00  0.00     0.009 C 
ATOM     13  C   UNL A   1      31.344  22.043  25.735  1.00  0.00    -0.027 C 
ATOM     14  C   UNL A   1      32.234  21.458  23.540  1.00  0.00     0.009 C 
BRANCH   8  15
ATOM     15  C   UNL A   1      33.923  24.847  23.665  1.00  0.00     0.229 C 
ATOM     16  N   UNL A   1      33.689  26.181  23.430  1.00  0.00    -0.317 N 
ATOM     17  H   UNL A   1      34.143  26.564  22.645  1.00  0.00     0.170 HD
ATOM     18  O   UNL A   1      34.726  24.272  22.924  1.00  0.00    -0.274 OA
BRANCH  16  19
ATOM     19  C   UNL A   1      32.901  27.050  24.148  1.00  0.00     0.110 A 
ATOM     20  C   UNL A   1      31.690  27.684  23.936  1.00  0.00     0.098 A 
ATOM     21  C   UNL A   1      31.593  28.843  24.806  1.00  0.00    -0.021 A 
ATOM     22  S   UNL A   1      33.541  27.409  25.681  1.00  0.00    -0.122 S 
ATOM     23  C   UNL A   1      32.479  28.738  25.870  1.00  0.00     0.007 A 
ATOM     24  C   UNL A   1      30.618  29.966  24.606  1.00  0.00     0.046 C 
ATOM     25  C   UNL A   1      32.593  29.607  27.079  1.00  0.00     0.057 C 
BRANCH  20  26
ATOM     26  C   UNL A   1      30.675  27.253  22.975  1.00  0.00     0.341 C 
ATOM     27  O   UNL A   1      30.678  27.589  21.792  1.00  0.00    -0.246 OA
BRANCH  26  28
ATOM     28  O   UNL A   1      29.728  26.456  23.544  1.00  0.00    -0.465 OA
ATOM     29  C   UNL A   1      28.421  27.018  23.682  1.00  0.00     0.282 C 
ENDBRANCH  26  28
ENDBRANCH  20  26
ENDBRANCH  16  19
ENDBRANCH   8  15
ENDBRANCH   4   7
ENDBRANCH   2   3
ENDBRANCH   1   2
BRANCH   1  30
ATOM     30  C   UNL A   1      39.040  21.635  25.458  1.00  0.00     0.023 C 
BRANCH  30  31
ATOM     31  C   UNL A   1      39.622  20.843  26.630  1.00  0.00     0.116 C 
BRANCH  31  32
ATOM     32  N   UNL A   1      40.454  19.715  26.234  1.00  0.00    -0.352 N 
ATOM     33  C   UNL A   1      41.821  19.678  26.065  1.00  0.00     0.251 C 
ATOM     34  H   UNL A   1      39.979  18.870  26.065  1.00  0.00     0.163 HD
ATOM     35  O   UNL A   1      42.374  18.658  25.665  1.00  0.00    -0.269 OA
BRANCH  33  36
ATOM     36  C   UNL A   1      42.611  20.900  26.335  1.00  0.00     0.039 A 
ATOM     37  C   UNL A   1      43.015  21.701  25.263  1.00  0.00     0.014 A 
ATOM     38  C   UNL A   1      42.889  21.287  27.649  1.00  0.00     0.014 A 
ATOM     39  C   UNL A   1      43.614  22.938  25.515  1.00  0.00     0.010 A 
ATOM     40  C   UNL A   1      43.420  22.549  27.896  1.00  0.00     0.010 A 
ATOM     41  C   UNL A   1      43.778  23.394  26.834  1.00  0.00    -0.014 A 
BRANCH  41  42
ATOM     42  C   UNL A   1      44.298  24.755  27.127  1.00  0.00     0.031 A 
ATOM     43  C   UNL A   1      43.364  25.839  27.592  1.00  0.00     0.074 A 
ATOM     44  C   UNL A   1      45.597  25.043  26.898  1.00  0.00     0.049 A 
ATOM     45  N   UNL A   1      43.611  27.106  27.810  1.00  0.00    -0.248 NA
ATOM     46  C   UNL A   1      41.960  25.453  27.815  1.00  0.00     0.031 C 
ATOM     47  C   UNL A   1      46.602  24.098  26.407  1.00  0.00     0.029 A 
ATOM     48  N   UNL A   1      46.291  26.220  27.039  1.00  0.00    -0.354 N 
ATOM     49  C   UNL A   1      42.394  27.672  28.171  1.00  0.00     0.074 A 
ATOM     50  C   UNL A   1      41.402  26.620  28.099  1.00  0.00     0.031 C 
ATOM     51  C   UNL A   1      47.787  24.725  26.314  1.00  0.00     0.029 A 
ATOM     52  C   UNL A   1      47.620  26.123  26.699  1.00  0.00     0.049 A 
ATOM     53  H   UNL A   1      45.876  27.055  27.354  1.00  0.00     0.167 HD
ATOM     54  C   UNL A   1      42.126  28.945  28.546  1.00  0.00     0.031 A 
ATOM     55  C   UNL A   1      48.595  27.053  26.691  1.00  0.00     0.031 A 
ATOM     56  C   UNL A   1      43.113  29.987  28.637  1.00  0.00     0.049 A 
ATOM     57  C   UNL A   1      48.276  28.461  27.115  1.00  0.00     0.074 A 
ATOM     58  C   UNL A   1      42.948  31.295  29.059  1.00  0.00     0.029 A 
ATOM     59  N   UNL A   1      44.451  29.840  28.304  1.00  0.00    -0.354 N 
ATOM     60  N   UNL A   1      47.128  28.962  27.504  1.00  0.00    -0.248 NA
ATOM     61  C   UNL A   1      49.384  29.424  27.106  1.00  0.00     0.031 C 
ATOM     62  C   UNL A   1      44.179  31.950  28.946  1.00  0.00     0.029 A 
ATOM     63  C   UNL A   1      45.120  31.037  28.497  1.00  0.00     0.049 A 
ATOM     64  H   UNL A   1      44.864  29.008  27.978  1.00  0.00     0.167 HD
ATOM     65  C   UNL A   1      47.383  30.294  27.814  1.00  0.00     0.074 A 
ATOM     66  C   UNL A   1      48.795  30.517  27.575  1.00  0.00     0.031 C 
ATOM     67  C   UNL A   1      46.526  31.244  28.260  1.00  0.00     0.031 A 
BRANCH  54  68
ATOM     68  C   UNL A   1      40.697  29.277  28.886  1.00  0.00    -0.014 A 
ATOM     69  C   UNL A   1      40.273  29.368  30.224  1.00  0.00     0.010 A 
ATOM     70  C   UNL A   1      39.769  29.513  27.855  1.00  0.00     0.010 A 
ATOM     71  C   UNL A   1      38.936  29.636  30.526  1.00  0.00     0.020 A 
ATOM     72  C   UNL A   1      38.436  29.809  28.154  1.00  0.00     0.020 A 
ATOM     73  C   UNL A   1      38.023  29.846  29.488  1.00  0.00     0.054 A 
BRANCH  73  74
ATOM     74  S   UNL A   1      36.293  30.190  29.905  1.00  0.00     0.124 S 
ATOM     75  O   UNL A   1      35.584  29.514  28.822  1.00  0.00    -0.237 OA
ATOM     76  O   UNL A   1      36.151  29.581  31.224  1.00  0.00    -0.237 OA
ATOM     77  O   UNL A   1      36.215  31.649  29.885  1.00  0.00    -0.744 OA
ENDBRANCH  73  74
ENDBRANCH  54  68
BRANCH  55  78
ATOM     78  C   UNL A   1      49.978  26.677  26.292  1.00  0.00    -0.014 A 
ATOM     79  C   UNL A   1      50.876  26.164  27.245  1.00  0.00     0.010 A 
ATOM     80  C   UNL A   1      50.402  26.818  24.959  1.00  0.00     0.010 A 
ATOM     81  C   UNL A   1      52.177  25.814  26.876  1.00  0.00     0.020 A 
ATOM     82  C   UNL A   1      51.696  26.446  24.581  1.00  0.00     0.020 A 
ATOM     83  C   UNL A   1      52.579  25.956  25.546  1.00  0.00     0.054 A 
BRANCH  83  84
ATOM     84  S   UNL A   1      54.256  25.442  25.076  1.00  0.00     0.124 S 
ATOM     85  O   UNL A   1      55.040  25.879  26.227  1.00  0.00    -0.237 OA
ATOM     86  O   UNL A   1      54.112  23.997  24.920  1.00  0.00    -0.237 OA
ATOM     87  O   UNL A   1      54.500  26.173  23.835  1.00  0.00    -0.744 OA
ENDBRANCH  83  84
ENDBRANCH  55  78
BRANCH  67  88
ATOM     88  C   UNL A   1      47.092  32.605  28.557  1.00  0.00    -0.014 A 
ATOM     89  C   UNL A   1      47.635  32.909  29.817  1.00  0.00     0.010 A 
ATOM     90  C   UNL A   1      47.136  33.574  27.538  1.00  0.00     0.010 A 
ATOM     91  C   UNL A   1      48.194  34.167  30.059  1.00  0.00     0.020 A 
ATOM     92  C   UNL A   1      47.714  34.825  27.769  1.00  0.00     0.020 A 
ATOM     93  C   UNL A   1      48.230  35.117  29.034  1.00  0.00     0.054 A 
BRANCH  93  94
ATOM     94  S   UNL A   1      49.009  36.724  29.355  1.00  0.00     0.124 S 
ATOM     95  O   UNL A   1      49.980  36.389  30.392  1.00  0.00    -0.237 OA
ATOM     96  O   UNL A   1      49.575  37.072  28.053  1.00  0.00    -0.237 OA
ATOM     97  O   UNL A   1      47.897  37.566  29.789  1.00  0.00    -0.744 OA
ENDBRANCH  93  94
ENDBRANCH  67  88
ENDBRANCH  41  42
ENDBRANCH  33  36
ENDBRANCH  31  32
ENDBRANCH  30  31
ENDBRANCH   1  30
TORSDOF 18
ENDMDL
