MODEL 1
REMARK VINA RESULT:     -11.6      0.000      0.000
REMARK SMILES C[C@@H](C1CC1)N(C)C(=O)N1Cc2nc[nH]c2C[C@H]1C(=O)NCCCCNC(=O)c1ccc(-c2c3nc(c(-c4ccc(S(=O)(=O)[O-])cc4)c4ccc([nH]4)c(-c4ccc(S(=O)(=O)[O-])cc4)c4nc(c(-c5ccc(S(=O)(=O)[O-])cc5)c5ccc2[nH]5)C=C4)C=C3)cc1
REMARK SMILES IDX 23 1 22 2 21 3 19 4 20 5 18 7 10 8 11 9 12 10 17 11 13 12
REMARK SMILES IDX 16 13 14 14 15 15 8 17 9 18 6 19 7 20 2 21 1 22 3 23 4 24
REMARK SMILES IDX 5 25 24 26 25 27 26 28 27 29 28 31 29 32 30 33 88 34 31 35
REMARK SMILES IDX 87 36 32 37 33 38 34 39 81 40 35 41 86 42 80 43 82 44 36 45
REMARK SMILES IDX 85 46 79 47 78 48 37 50 67 51 48 52 66 53 49 54 52 55 65 56
REMARK SMILES IDX 83 57 50 58 51 59 64 61 84 62 53 63 38 64 39 65 47 66 40 67
REMARK SMILES IDX 46 68 41 69 42 70 43 71 44 72 45 73 68 74 69 75 77 76 70 77
REMARK SMILES IDX 76 78 71 79 72 80 73 81 74 82 75 83 54 84 55 85 63 86 56 87
REMARK SMILES IDX 62 88 57 89 58 90 59 91 60 92 61 93
REMARK H PARENT 21 6 15 16 26 30 82 49 52 60
REMARK Flexibility Score: inf
ROOT
ATOM      1  C   UNL A   1      38.993  23.474  26.696  1.00  0.00     0.023 C 
ENDROOT
BRANCH   1   2
ATOM      2  C   UNL A   1      37.757  24.054  26.001  1.00  0.00     0.116 C 
BRANCH   2   3
ATOM      3  N   UNL A   1      37.411  23.370  24.767  1.00  0.00    -0.354 N 
ATOM      4  C   UNL A   1      36.250  23.149  24.098  1.00  0.00     0.243 C 
ATOM      5  O   UNL A   1      36.400  22.752  22.931  1.00  0.00    -0.273 OA
ATOM      6  H   UNL A   1      38.193  22.978  24.314  1.00  0.00     0.163 HD
BRANCH   4   7
ATOM      7  C   UNL A   1      34.800  23.376  24.626  1.00  0.00     0.182 C 
ATOM      8  N   UNL A   1      33.701  23.476  23.602  1.00  0.00    -0.306 N 
ATOM      9  C   UNL A   1      32.974  22.240  23.220  1.00  0.00     0.180 C 
ATOM     10  C   UNL A   1      33.046  21.188  24.264  1.00  0.00     0.081 A 
ATOM     11  C   UNL A   1      34.483  22.493  25.870  1.00  0.00     0.091 C 
ATOM     12  N   UNL A   1      32.565  19.914  24.119  1.00  0.00    -0.240 NA
ATOM     13  C   UNL A   1      33.710  21.311  25.457  1.00  0.00     0.042 A 
ATOM     14  C   UNL A   1      32.903  19.289  25.229  1.00  0.00     0.197 A 
ATOM     15  N   UNL A   1      33.584  20.110  26.090  1.00  0.00    -0.348 N 
ATOM     16  H   UNL A   1      33.916  19.878  26.987  1.00  0.00     0.167 HD
BRANCH   8  17
ATOM     17  C   UNL A   1      33.168  24.625  23.026  1.00  0.00     0.321 C 
ATOM     18  O   UNL A   1      33.653  25.053  21.973  1.00  0.00    -0.248 OA
BRANCH  17  19
ATOM     19  N   UNL A   1      32.064  25.257  23.566  1.00  0.00    -0.325 N 
ATOM     20  C   UNL A   1      30.685  24.885  23.289  1.00  0.00     0.149 C 
BRANCH  19  21
ATOM     21  C   UNL A   1      32.239  26.111  24.759  1.00  0.00     0.086 C 
ATOM     22  C   UNL A   1      31.988  25.362  26.077  1.00  0.00     0.031 C 
BRANCH  21  23
ATOM     23  C   UNL A   1      33.552  26.871  24.781  1.00  0.00     0.011 C 
ATOM     24  C   UNL A   1      33.783  28.242  24.176  1.00  0.00     0.006 C 
ATOM     25  C   UNL A   1      33.664  28.098  25.662  1.00  0.00     0.006 C 
ENDBRANCH  21  23
ENDBRANCH  19  21
ENDBRANCH  17  19
ENDBRANCH   8  17
ENDBRANCH   4   7
ENDBRANCH   2   3
ENDBRANCH   1   2
BRANCH   1  26
ATOM     26  C   UNL A   1      39.339  22.025  26.326  1.00  0.00     0.023 C 
BRANCH  26  27
ATOM     27  C   UNL A   1      40.346  21.349  27.253  1.00  0.00     0.116 C 
BRANCH  27  28
ATOM     28  N   UNL A   1      41.513  20.800  26.564  1.00  0.00    -0.352 N 
ATOM     29  C   UNL A   1      42.558  21.515  25.993  1.00  0.00     0.251 C 
ATOM     30  H   UNL A   1      41.564  19.820  26.498  1.00  0.00     0.163 HD
ATOM     31  O   UNL A   1      43.264  21.045  25.124  1.00  0.00    -0.269 OA
BRANCH  29  32
ATOM     32  C   UNL A   1      42.789  22.880  26.501  1.00  0.00     0.039 A 
ATOM     33  C   UNL A   1      42.434  24.012  25.761  1.00  0.00     0.014 A 
ATOM     34  C   UNL A   1      43.273  22.984  27.802  1.00  0.00     0.014 A 
ATOM     35  C   UNL A   1      42.470  25.259  26.385  1.00  0.00     0.010 A 
ATOM     36  C   UNL A   1      43.178  24.190  28.450  1.00  0.00     0.010 A 
ATOM     37  C   UNL A   1      42.819  25.337  27.739  1.00  0.00    -0.014 A 
BRANCH  37  38
ATOM     38  C   UNL A   1      42.724  26.594  28.477  1.00  0.00     0.031 A 
ATOM     39  C   UNL A   1      43.813  27.585  28.237  1.00  0.00     0.074 A 
ATOM     40  C   UNL A   1      41.580  26.963  29.092  1.00  0.00     0.049 A 
ATOM     41  N   UNL A   1      44.694  28.024  29.075  1.00  0.00    -0.248 NA
ATOM     42  C   UNL A   1      44.010  28.080  26.864  1.00  0.00     0.031 C 
ATOM     43  C   UNL A   1      40.298  26.244  29.110  1.00  0.00     0.029 A 
ATOM     44  N   UNL A   1      41.271  28.141  29.695  1.00  0.00    -0.354 N 
ATOM     45  C   UNL A   1      45.413  29.014  28.405  1.00  0.00     0.074 A 
ATOM     46  C   UNL A   1      45.081  28.862  27.010  1.00  0.00     0.031 C 
ATOM     47  C   UNL A   1      39.308  27.101  29.439  1.00  0.00     0.029 A 
ATOM     48  C   UNL A   1      39.906  28.360  29.840  1.00  0.00     0.049 A 
ATOM     49  H   UNL A   1      41.952  28.783  30.001  1.00  0.00     0.167 HD
ATOM     50  C   UNL A   1      46.026  30.037  29.070  1.00  0.00     0.031 A 
ATOM     51  C   UNL A   1      39.299  29.508  30.224  1.00  0.00     0.031 A 
ATOM     52  C   UNL A   1      46.054  29.796  30.492  1.00  0.00     0.049 A 
ATOM     53  C   UNL A   1      40.317  30.317  30.938  1.00  0.00     0.074 A 
ATOM     54  C   UNL A   1      46.569  28.812  31.311  1.00  0.00     0.029 A 
ATOM     55  N   UNL A   1      45.127  30.474  31.250  1.00  0.00    -0.354 N 
ATOM     56  N   UNL A   1      40.872  29.940  32.057  1.00  0.00    -0.248 NA
ATOM     57  C   UNL A   1      41.052  31.325  30.189  1.00  0.00     0.031 C 
ATOM     58  C   UNL A   1      45.592  28.645  32.338  1.00  0.00     0.029 A 
ATOM     59  C   UNL A   1      44.577  29.581  32.128  1.00  0.00     0.049 A 
ATOM     60  H   UNL A   1      44.902  31.430  31.174  1.00  0.00     0.167 HD
ATOM     61  C   UNL A   1      42.202  30.321  31.940  1.00  0.00     0.074 A 
ATOM     62  C   UNL A   1      42.224  31.269  30.828  1.00  0.00     0.031 C 
ATOM     63  C   UNL A   1      43.195  29.620  32.566  1.00  0.00     0.031 A 
BRANCH  50  64
ATOM     64  C   UNL A   1      46.207  31.441  28.522  1.00  0.00    -0.014 A 
ATOM     65  C   UNL A   1      45.051  32.186  28.190  1.00  0.00     0.010 A 
ATOM     66  C   UNL A   1      47.434  31.936  28.041  1.00  0.00     0.010 A 
ATOM     67  C   UNL A   1      45.108  33.276  27.311  1.00  0.00     0.020 A 
ATOM     68  C   UNL A   1      47.508  33.051  27.201  1.00  0.00     0.020 A 
ATOM     69  C   UNL A   1      46.339  33.681  26.799  1.00  0.00     0.054 A 
BRANCH  69  70
ATOM     70  S   UNL A   1      46.391  34.971  25.532  1.00  0.00     0.124 S 
ATOM     71  O   UNL A   1      47.748  34.824  25.016  1.00  0.00    -0.237 OA
ATOM     72  O   UNL A   1      45.319  34.563  24.628  1.00  0.00    -0.237 OA
ATOM     73  O   UNL A   1      46.134  36.197  26.285  1.00  0.00    -0.744 OA
ENDBRANCH  69  70
ENDBRANCH  50  64
BRANCH  51  74
ATOM     74  C   UNL A   1      37.999  30.038  29.750  1.00  0.00    -0.014 A 
ATOM     75  C   UNL A   1      36.978  30.394  30.648  1.00  0.00     0.010 A 
ATOM     76  C   UNL A   1      37.853  30.433  28.402  1.00  0.00     0.010 A 
ATOM     77  C   UNL A   1      35.877  31.159  30.223  1.00  0.00     0.020 A 
ATOM     78  C   UNL A   1      36.757  31.187  27.970  1.00  0.00     0.020 A 
ATOM     79  C   UNL A   1      35.782  31.565  28.889  1.00  0.00     0.054 A 
BRANCH  79  80
ATOM     80  S   UNL A   1      34.444  32.686  28.381  1.00  0.00     0.124 S 
ATOM     81  O   UNL A   1      33.567  31.798  27.625  1.00  0.00    -0.237 OA
ATOM     82  O   UNL A   1      33.919  33.155  29.661  1.00  0.00    -0.237 OA
ATOM     83  O   UNL A   1      35.131  33.702  27.586  1.00  0.00    -0.744 OA
ENDBRANCH  79  80
ENDBRANCH  51  74
BRANCH  63  84
ATOM     84  C   UNL A   1      42.819  28.614  33.628  1.00  0.00    -0.014 A 
ATOM     85  C   UNL A   1      42.856  27.220  33.431  1.00  0.00     0.010 A 
ATOM     86  C   UNL A   1      42.608  29.102  34.930  1.00  0.00     0.010 A 
ATOM     87  C   UNL A   1      42.677  26.339  34.509  1.00  0.00     0.020 A 
ATOM     88  C   UNL A   1      42.446  28.230  36.010  1.00  0.00     0.020 A 
ATOM     89  C   UNL A   1      42.477  26.853  35.794  1.00  0.00     0.054 A 
BRANCH  89  90
ATOM     90  S   UNL A   1      42.324  25.712  37.198  1.00  0.00     0.124 S 
ATOM     91  O   UNL A   1      43.190  26.327  38.200  1.00  0.00    -0.237 OA
ATOM     92  O   UNL A   1      40.893  25.750  37.495  1.00  0.00    -0.237 OA
ATOM     93  O   UNL A   1      42.803  24.438  36.665  1.00  0.00    -0.744 OA
ENDBRANCH  89  90
ENDBRANCH  63  84
ENDBRANCH  37  38
ENDBRANCH  29  32
ENDBRANCH  27  28
ENDBRANCH  26  27
ENDBRANCH   1  26
TORSDOF 18
ENDMDL
MODEL 2
REMARK VINA RESULT:     -11.5      2.109      3.422
REMARK SMILES C[C@@H](C1CC1)N(C)C(=O)N1Cc2nc[nH]c2C[C@H]1C(=O)NCCCCNC(=O)c1ccc(-c2c3nc(c(-c4ccc(S(=O)(=O)[O-])cc4)c4ccc([nH]4)c(-c4ccc(S(=O)(=O)[O-])cc4)c4nc(c(-c5ccc(S(=O)(=O)[O-])cc5)c5ccc2[nH]5)C=C4)C=C3)cc1
REMARK SMILES IDX 23 1 22 2 21 3 19 4 20 5 18 7 10 8 11 9 12 10 17 11 13 12
REMARK SMILES IDX 16 13 14 14 15 15 8 17 9 18 6 19 7 20 2 21 1 22 3 23 4 24
REMARK SMILES IDX 5 25 24 26 25 27 26 28 27 29 28 31 29 32 30 33 88 34 31 35
REMARK SMILES IDX 87 36 32 37 33 38 34 39 81 40 35 41 86 42 80 43 82 44 36 45
REMARK SMILES IDX 85 46 79 47 78 48 37 50 67 51 48 52 66 53 49 54 52 55 65 56
REMARK SMILES IDX 83 57 50 58 51 59 64 61 84 62 53 63 38 64 39 65 47 66 40 67
REMARK SMILES IDX 46 68 41 69 42 70 43 71 44 72 45 73 68 74 69 75 77 76 70 77
REMARK SMILES IDX 76 78 71 79 72 80 73 81 74 82 75 83 54 84 55 85 63 86 56 87
REMARK SMILES IDX 62 88 57 89 58 90 59 91 60 92 61 93
REMARK H PARENT 21 6 15 16 26 30 82 49 52 60
REMARK Flexibility Score: inf
ROOT
ATOM      1  C   UNL A   1      35.042  23.584  24.812  1.00  0.00     0.023 C 
ENDROOT
BRANCH   1   2
ATOM      2  C   UNL A   1      34.512  24.950  25.260  1.00  0.00     0.116 C 
BRANCH   2   3
ATOM      3  N   UNL A   1      33.435  24.865  26.231  1.00  0.00    -0.354 N 
ATOM      4  C   UNL A   1      32.112  25.172  26.210  1.00  0.00     0.243 C 
ATOM      5  O   UNL A   1      31.464  24.701  27.159  1.00  0.00    -0.273 OA
ATOM      6  H   UNL A   1      33.730  24.504  27.099  1.00  0.00     0.163 HD
BRANCH   4   7
ATOM      7  C   UNL A   1      31.353  25.998  25.127  1.00  0.00     0.182 C 
ATOM      8  N   UNL A   1      31.915  27.349  24.772  1.00  0.00    -0.306 N 
ATOM      9  C   UNL A   1      32.874  27.443  23.643  1.00  0.00     0.180 C 
ATOM     10  C   UNL A   1      32.742  26.317  22.685  1.00  0.00     0.081 A 
ATOM     11  C   UNL A   1      30.905  25.117  23.924  1.00  0.00     0.091 C 
ATOM     12  N   UNL A   1      33.578  26.096  21.623  1.00  0.00    -0.240 NA
ATOM     13  C   UNL A   1      31.847  25.285  22.806  1.00  0.00     0.042 A 
ATOM     14  C   UNL A   1      33.167  24.963  21.090  1.00  0.00     0.197 A 
ATOM     15  N   UNL A   1      32.094  24.441  21.763  1.00  0.00    -0.348 N 
ATOM     16  H   UNL A   1      31.599  23.620  21.539  1.00  0.00     0.167 HD
BRANCH   8  17
ATOM     17  C   UNL A   1      31.561  28.589  25.293  1.00  0.00     0.321 C 
ATOM     18  O   UNL A   1      30.815  29.328  24.641  1.00  0.00    -0.248 OA
BRANCH  17  19
ATOM     19  N   UNL A   1      31.967  28.984  26.554  1.00  0.00    -0.325 N 
ATOM     20  C   UNL A   1      31.658  28.265  27.781  1.00  0.00     0.149 C 
BRANCH  19  21
ATOM     21  C   UNL A   1      33.065  29.964  26.679  1.00  0.00     0.086 C 
ATOM     22  C   UNL A   1      32.569  31.393  26.952  1.00  0.00     0.031 C 
BRANCH  21  23
ATOM     23  C   UNL A   1      34.152  29.547  27.653  1.00  0.00     0.011 C 
ATOM     24  C   UNL A   1      35.606  29.312  27.297  1.00  0.00     0.006 C 
ATOM     25  C   UNL A   1      35.214  30.558  28.029  1.00  0.00     0.006 C 
ENDBRANCH  21  23
ENDBRANCH  19  21
ENDBRANCH  17  19
ENDBRANCH   8  17
ENDBRANCH   4   7
ENDBRANCH   2   3
ENDBRANCH   1   2
BRANCH   1  26
ATOM     26  C   UNL A   1      35.995  22.891  25.796  1.00  0.00     0.023 C 
BRANCH  26  27
ATOM     27  C   UNL A   1      37.462  22.893  25.375  1.00  0.00     0.116 C 
BRANCH  27  28
ATOM     28  N   UNL A   1      38.296  21.952  26.123  1.00  0.00    -0.352 N 
ATOM     29  C   UNL A   1      39.528  22.211  26.708  1.00  0.00     0.251 C 
ATOM     30  H   UNL A   1      37.946  21.037  26.223  1.00  0.00     0.163 HD
ATOM     31  O   UNL A   1      40.323  21.329  26.959  1.00  0.00    -0.269 OA
BRANCH  29  32
ATOM     32  C   UNL A   1      39.831  23.618  27.030  1.00  0.00     0.039 A 
ATOM     33  C   UNL A   1      38.821  24.568  27.209  1.00  0.00     0.014 A 
ATOM     34  C   UNL A   1      41.170  23.928  27.259  1.00  0.00     0.014 A 
ATOM     35  C   UNL A   1      39.160  25.816  27.728  1.00  0.00     0.010 A 
ATOM     36  C   UNL A   1      41.478  25.104  27.894  1.00  0.00     0.010 A 
ATOM     37  C   UNL A   1      40.488  26.069  28.093  1.00  0.00    -0.014 A 
BRANCH  37  38
ATOM     38  C   UNL A   1      40.866  27.301  28.782  1.00  0.00     0.031 A 
ATOM     39  C   UNL A   1      41.947  28.108  28.145  1.00  0.00     0.074 A 
ATOM     40  C   UNL A   1      40.089  27.831  29.750  1.00  0.00     0.049 A 
ATOM     41  N   UNL A   1      43.126  28.371  28.606  1.00  0.00    -0.248 NA
ATOM     42  C   UNL A   1      41.726  28.608  26.778  1.00  0.00     0.031 C 
ATOM     43  C   UNL A   1      38.796  27.331  30.239  1.00  0.00     0.029 A 
ATOM     44  N   UNL A   1      40.209  29.024  30.390  1.00  0.00    -0.354 N 
ATOM     45  C   UNL A   1      43.714  29.251  27.698  1.00  0.00     0.074 A 
ATOM     46  C   UNL A   1      42.892  29.200  26.515  1.00  0.00     0.031 C 
ATOM     47  C   UNL A   1      38.140  28.326  30.871  1.00  0.00     0.029 A 
ATOM     48  C   UNL A   1      39.038  29.458  31.000  1.00  0.00     0.049 A 
ATOM     49  H   UNL A   1      41.049  29.536  30.418  1.00  0.00     0.167 HD
ATOM     50  C   UNL A   1      44.681  30.140  28.076  1.00  0.00     0.031 A 
ATOM     51  C   UNL A   1      38.803  30.676  31.542  1.00  0.00     0.031 A 
ATOM     52  C   UNL A   1      45.168  29.852  29.402  1.00  0.00     0.049 A 
ATOM     53  C   UNL A   1      40.124  31.286  31.827  1.00  0.00     0.074 A 
ATOM     54  C   UNL A   1      45.771  28.772  30.015  1.00  0.00     0.029 A 
ATOM     55  N   UNL A   1      44.692  30.648  30.419  1.00  0.00    -0.354 N 
ATOM     56  N   UNL A   1      40.968  30.788  32.689  1.00  0.00    -0.248 NA
ATOM     57  C   UNL A   1      40.702  32.184  30.840  1.00  0.00     0.031 C 
ATOM     58  C   UNL A   1      45.205  28.733  31.324  1.00  0.00     0.029 A 
ATOM     59  C   UNL A   1      44.348  29.829  31.459  1.00  0.00     0.049 A 
ATOM     60  H   UNL A   1      44.614  31.629  30.401  1.00  0.00     0.167 HD
ATOM     61  C   UNL A   1      42.215  30.951  32.100  1.00  0.00     0.074 A 
ATOM     62  C   UNL A   1      41.998  31.918  31.026  1.00  0.00     0.031 C 
ATOM     63  C   UNL A   1      43.236  30.078  32.355  1.00  0.00     0.031 A 
BRANCH  50  64
ATOM     64  C   UNL A   1      44.884  31.512  27.460  1.00  0.00    -0.014 A 
ATOM     65  C   UNL A   1      46.199  31.908  27.123  1.00  0.00     0.010 A 
ATOM     66  C   UNL A   1      43.908  32.526  27.481  1.00  0.00     0.010 A 
ATOM     67  C   UNL A   1      46.540  33.258  26.961  1.00  0.00     0.020 A 
ATOM     68  C   UNL A   1      44.228  33.872  27.273  1.00  0.00     0.020 A 
ATOM     69  C   UNL A   1      45.551  34.233  27.067  1.00  0.00     0.054 A 
BRANCH  69  70
ATOM     70  S   UNL A   1      46.021  35.980  27.031  1.00  0.00     0.124 S 
ATOM     71  O   UNL A   1      44.718  36.637  27.059  1.00  0.00    -0.237 OA
ATOM     72  O   UNL A   1      46.825  36.111  28.243  1.00  0.00    -0.237 OA
ATOM     73  O   UNL A   1      46.762  36.107  25.778  1.00  0.00    -0.744 OA
ENDBRANCH  69  70
ENDBRANCH  50  64
BRANCH  51  74
ATOM     74  C   UNL A   1      37.523  31.426  31.542  1.00  0.00    -0.014 A 
ATOM     75  C   UNL A   1      36.618  31.334  32.612  1.00  0.00     0.010 A 
ATOM     76  C   UNL A   1      37.307  32.442  30.585  1.00  0.00     0.010 A 
ATOM     77  C   UNL A   1      35.562  32.255  32.746  1.00  0.00     0.020 A 
ATOM     78  C   UNL A   1      36.256  33.357  30.707  1.00  0.00     0.020 A 
ATOM     79  C   UNL A   1      35.399  33.272  31.800  1.00  0.00     0.054 A 
BRANCH  79  80
ATOM     80  S   UNL A   1      34.136  34.552  32.063  1.00  0.00     0.124 S 
ATOM     81  O   UNL A   1      33.604  34.743  30.718  1.00  0.00    -0.237 OA
ATOM     82  O   UNL A   1      33.232  33.916  33.018  1.00  0.00    -0.237 OA
ATOM     83  O   UNL A   1      34.898  35.682  32.593  1.00  0.00    -0.744 OA
ENDBRANCH  79  80
ENDBRANCH  51  74
BRANCH  63  84
ATOM     84  C   UNL A   1      43.099  29.114  33.510  1.00  0.00    -0.014 A 
ATOM     85  C   UNL A   1      43.431  29.438  34.840  1.00  0.00     0.010 A 
ATOM     86  C   UNL A   1      42.426  27.904  33.262  1.00  0.00     0.010 A 
ATOM     87  C   UNL A   1      43.107  28.567  35.892  1.00  0.00     0.020 A 
ATOM     88  C   UNL A   1      42.085  27.041  34.307  1.00  0.00     0.020 A 
ATOM     89  C   UNL A   1      42.430  27.374  35.616  1.00  0.00     0.054 A 
BRANCH  89  90
ATOM     90  S   UNL A   1      41.942  26.288  36.986  1.00  0.00     0.124 S 
ATOM     91  O   UNL A   1      40.691  26.891  37.437  1.00  0.00    -0.237 OA
ATOM     92  O   UNL A   1      41.814  24.984  36.339  1.00  0.00    -0.237 OA
ATOM     93  O   UNL A   1      43.055  26.394  37.928  1.00  0.00    -0.744 OA
ENDBRANCH  89  90
ENDBRANCH  63  84
ENDBRANCH  37  38
ENDBRANCH  29  32
ENDBRANCH  27  28
ENDBRANCH  26  27
ENDBRANCH   1  26
TORSDOF 18
ENDMDL
MODEL 3
REMARK VINA RESULT:     -11.3      2.295      9.041
REMARK SMILES C[C@@H](C1CC1)N(C)C(=O)N1Cc2nc[nH]c2C[C@H]1C(=O)NCCCCNC(=O)c1ccc(-c2c3nc(c(-c4ccc(S(=O)(=O)[O-])cc4)c4ccc([nH]4)c(-c4ccc(S(=O)(=O)[O-])cc4)c4nc(c(-c5ccc(S(=O)(=O)[O-])cc5)c5ccc2[nH]5)C=C4)C=C3)cc1
REMARK SMILES IDX 23 1 22 2 21 3 19 4 20 5 18 7 10 8 11 9 12 10 17 11 13 12
REMARK SMILES IDX 16 13 14 14 15 15 8 17 9 18 6 19 7 20 2 21 1 22 3 23 4 24
REMARK SMILES IDX 5 25 24 26 25 27 26 28 27 29 28 31 29 32 30 33 88 34 31 35
REMARK SMILES IDX 87 36 32 37 33 38 34 39 81 40 35 41 86 42 80 43 82 44 36 45
REMARK SMILES IDX 85 46 79 47 78 48 37 50 67 51 48 52 66 53 49 54 52 55 65 56
REMARK SMILES IDX 83 57 50 58 51 59 64 61 84 62 53 63 38 64 39 65 47 66 40 67
REMARK SMILES IDX 46 68 41 69 42 70 43 71 44 72 45 73 68 74 69 75 77 76 70 77
REMARK SMILES IDX 76 78 71 79 72 80 73 81 74 82 75 83 54 84 55 85 63 86 56 87
REMARK SMILES IDX 62 88 57 89 58 90 59 91 60 92 61 93
REMARK H PARENT 21 6 15 16 26 30 82 49 52 60
REMARK Flexibility Score: inf
ROOT
ATOM      1  C   UNL A   1      34.027  27.144  25.454  1.00  0.00     0.023 C 
ENDROOT
BRANCH   1   2
ATOM      2  C   UNL A   1      33.352  26.291  24.376  1.00  0.00     0.116 C 
BRANCH   2   3
ATOM      3  N   UNL A   1      34.224  25.278  23.806  1.00  0.00    -0.354 N 
ATOM      4  C   UNL A   1      34.097  23.950  23.552  1.00  0.00     0.243 C 
ATOM      5  O   UNL A   1      34.973  23.487  22.804  1.00  0.00    -0.273 OA
ATOM      6  H   UNL A   1      35.104  25.634  23.545  1.00  0.00     0.163 HD
BRANCH   4   7
ATOM      7  C   UNL A   1      32.974  22.996  24.063  1.00  0.00     0.182 C 
ATOM      8  N   UNL A   1      33.063  22.528  25.491  1.00  0.00    -0.306 N 
ATOM      9  C   UNL A   1      32.363  23.314  26.538  1.00  0.00     0.180 C 
ATOM     10  C   UNL A   1      31.244  24.122  25.995  1.00  0.00     0.081 A 
ATOM     11  C   UNL A   1      31.560  23.445  23.588  1.00  0.00     0.091 C 
ATOM     12  N   UNL A   1      30.511  25.024  26.719  1.00  0.00    -0.240 NA
ATOM     13  C   UNL A   1      30.877  24.166  24.674  1.00  0.00     0.042 A 
ATOM     14  C   UNL A   1      29.688  25.577  25.852  1.00  0.00     0.197 A 
ATOM     15  N   UNL A   1      29.856  25.066  24.591  1.00  0.00    -0.348 N 
ATOM     16  H   UNL A   1      29.342  25.303  23.785  1.00  0.00     0.167 HD
BRANCH   8  17
ATOM     17  C   UNL A   1      33.632  21.355  25.976  1.00  0.00     0.321 C 
ATOM     18  O   UNL A   1      33.479  21.056  27.165  1.00  0.00    -0.248 OA
BRANCH  17  19
ATOM     19  N   UNL A   1      34.303  20.480  25.141  1.00  0.00    -0.325 N 
ATOM     20  C   UNL A   1      35.732  20.530  24.874  1.00  0.00     0.149 C 
BRANCH  19  21
ATOM     21  C   UNL A   1      33.655  19.206  24.770  1.00  0.00     0.086 C 
ATOM     22  C   UNL A   1      32.527  19.381  23.740  1.00  0.00     0.031 C 
BRANCH  21  23
ATOM     23  C   UNL A   1      34.631  18.118  24.361  1.00  0.00     0.011 C 
ATOM     24  C   UNL A   1      34.557  16.667  24.791  1.00  0.00     0.006 C 
ATOM     25  C   UNL A   1      34.160  17.048  23.399  1.00  0.00     0.006 C 
ENDBRANCH  21  23
ENDBRANCH  19  21
ENDBRANCH  17  19
ENDBRANCH   8  17
ENDBRANCH   4   7
ENDBRANCH   2   3
ENDBRANCH   1   2
BRANCH   1  26
ATOM     26  C   UNL A   1      33.100  27.660  26.564  1.00  0.00     0.023 C 
BRANCH  26  27
ATOM     27  C   UNL A   1      33.757  28.619  27.553  1.00  0.00     0.116 C 
BRANCH  27  28
ATOM     28  N   UNL A   1      33.402  30.022  27.343  1.00  0.00    -0.352 N 
ATOM     29  C   UNL A   1      34.158  31.135  27.687  1.00  0.00     0.251 C 
ATOM     30  H   UNL A   1      32.534  30.197  26.912  1.00  0.00     0.163 HD
ATOM     31  O   UNL A   1      33.661  32.231  27.847  1.00  0.00    -0.269 OA
BRANCH  29  32
ATOM     32  C   UNL A   1      35.611  30.934  27.837  1.00  0.00     0.039 A 
ATOM     33  C   UNL A   1      36.430  31.891  28.444  1.00  0.00     0.014 A 
ATOM     34  C   UNL A   1      36.109  29.693  27.447  1.00  0.00     0.014 A 
ATOM     35  C   UNL A   1      37.745  31.547  28.755  1.00  0.00     0.010 A 
ATOM     36  C   UNL A   1      37.356  29.315  27.875  1.00  0.00     0.010 A 
ATOM     37  C   UNL A   1      38.194  30.247  28.491  1.00  0.00    -0.014 A 
BRANCH  37  38
ATOM     38  C   UNL A   1      39.509  29.792  28.936  1.00  0.00     0.031 A 
ATOM     39  C   UNL A   1      39.691  29.638  30.408  1.00  0.00     0.074 A 
ATOM     40  C   UNL A   1      40.396  29.253  28.072  1.00  0.00     0.049 A 
ATOM     41  N   UNL A   1      40.481  30.297  31.190  1.00  0.00    -0.248 NA
ATOM     42  C   UNL A   1      38.812  28.695  31.121  1.00  0.00     0.031 C 
ATOM     43  C   UNL A   1      40.212  29.007  26.634  1.00  0.00     0.029 A 
ATOM     44  N   UNL A   1      41.589  28.656  28.327  1.00  0.00    -0.354 N 
ATOM     45  C   UNL A   1      40.369  29.708  32.449  1.00  0.00     0.074 A 
ATOM     46  C   UNL A   1      39.197  28.871  32.386  1.00  0.00     0.031 C 
ATOM     47  C   UNL A   1      41.111  28.090  26.218  1.00  0.00     0.029 A 
ATOM     48  C   UNL A   1      42.043  27.837  27.300  1.00  0.00     0.049 A 
ATOM     49  H   UNL A   1      42.088  28.791  29.165  1.00  0.00     0.167 HD
ATOM     50  C   UNL A   1      41.385  29.755  33.362  1.00  0.00     0.031 A 
ATOM     51  C   UNL A   1      43.089  26.978  27.342  1.00  0.00     0.031 A 
ATOM     52  C   UNL A   1      42.409  30.687  32.960  1.00  0.00     0.049 A 
ATOM     53  C   UNL A   1      43.961  27.411  28.460  1.00  0.00     0.074 A 
ATOM     54  C   UNL A   1      42.453  32.038  32.681  1.00  0.00     0.029 A 
ATOM     55  N   UNL A   1      43.550  30.149  32.409  1.00  0.00    -0.354 N 
ATOM     56  N   UNL A   1      44.580  28.560  28.478  1.00  0.00    -0.248 NA
ATOM     57  C   UNL A   1      43.792  26.777  29.758  1.00  0.00     0.031 C 
ATOM     58  C   UNL A   1      43.353  32.154  31.579  1.00  0.00     0.029 A 
ATOM     59  C   UNL A   1      43.859  30.882  31.297  1.00  0.00     0.049 A 
ATOM     60  H   UNL A   1      44.053  29.376  32.755  1.00  0.00     0.167 HD
ATOM     61  C   UNL A   1      44.487  28.994  29.794  1.00  0.00     0.074 A 
ATOM     62  C   UNL A   1      44.100  27.806  30.553  1.00  0.00     0.031 C 
ATOM     63  C   UNL A   1      44.455  30.327  30.098  1.00  0.00     0.031 A 
BRANCH  50  64
ATOM     64  C   UNL A   1      41.686  28.669  34.379  1.00  0.00    -0.014 A 
ATOM     65  C   UNL A   1      41.944  29.054  35.715  1.00  0.00     0.010 A 
ATOM     66  C   UNL A   1      42.024  27.348  34.029  1.00  0.00     0.010 A 
ATOM     67  C   UNL A   1      42.630  28.213  36.601  1.00  0.00     0.020 A 
ATOM     68  C   UNL A   1      42.666  26.483  34.920  1.00  0.00     0.020 A 
ATOM     69  C   UNL A   1      43.012  26.941  36.184  1.00  0.00     0.054 A 
BRANCH  69  70
ATOM     70  S   UNL A   1      44.047  25.925  37.265  1.00  0.00     0.124 S 
ATOM     71  O   UNL A   1      43.710  24.578  36.818  1.00  0.00    -0.237 OA
ATOM     72  O   UNL A   1      45.392  26.388  36.933  1.00  0.00    -0.237 OA
ATOM     73  O   UNL A   1      43.585  26.277  38.607  1.00  0.00    -0.744 OA
ENDBRANCH  69  70
ENDBRANCH  50  64
BRANCH  51  74
ATOM     74  C   UNL A   1      43.199  25.665  26.663  1.00  0.00    -0.014 A 
ATOM     75  C   UNL A   1      43.905  25.517  25.457  1.00  0.00     0.010 A 
ATOM     76  C   UNL A   1      42.811  24.490  27.344  1.00  0.00     0.010 A 
ATOM     77  C   UNL A   1      44.253  24.242  24.976  1.00  0.00     0.020 A 
ATOM     78  C   UNL A   1      43.147  23.218  26.868  1.00  0.00     0.020 A 
ATOM     79  C   UNL A   1      43.886  23.100  25.694  1.00  0.00     0.054 A 
BRANCH  79  80
ATOM     80  S   UNL A   1      44.475  21.468  25.155  1.00  0.00     0.124 S 
ATOM     81  O   UNL A   1      43.486  20.571  25.745  1.00  0.00    -0.237 OA
ATOM     82  O   UNL A   1      44.438  21.581  23.699  1.00  0.00    -0.237 OA
ATOM     83  O   UNL A   1      45.815  21.377  25.733  1.00  0.00    -0.744 OA
ENDBRANCH  79  80
ENDBRANCH  51  74
BRANCH  63  84
ATOM     84  C   UNL A   1      44.825  31.327  29.029  1.00  0.00    -0.014 A 
ATOM     85  C   UNL A   1      43.952  31.728  27.998  1.00  0.00     0.010 A 
ATOM     86  C   UNL A   1      46.034  32.027  29.193  1.00  0.00     0.010 A 
ATOM     87  C   UNL A   1      44.286  32.794  27.150  1.00  0.00     0.020 A 
ATOM     88  C   UNL A   1      46.364  33.100  28.362  1.00  0.00     0.020 A 
ATOM     89  C   UNL A   1      45.491  33.477  27.343  1.00  0.00     0.054 A 
BRANCH  89  90
ATOM     90  S   UNL A   1      45.885  34.906  26.294  1.00  0.00     0.124 S 
ATOM     91  O   UNL A   1      44.955  34.746  25.180  1.00  0.00    -0.237 OA
ATOM     92  O   UNL A   1      45.621  36.041  27.177  1.00  0.00    -0.237 OA
ATOM     93  O   UNL A   1      47.294  34.711  25.956  1.00  0.00    -0.744 OA
ENDBRANCH  89  90
ENDBRANCH  63  84
ENDBRANCH  37  38
ENDBRANCH  29  32
ENDBRANCH  27  28
ENDBRANCH  26  27
ENDBRANCH   1  26
TORSDOF 18
ENDMDL
