MODEL 1
REMARK VINA RESULT:     -11.1      0.000      0.000
REMARK SMILES C[C@@H]([NH+]1CCC(CCC(=O)NCCCCNC(=O)c2ccc(-c3c4nc(c(-c5ccc(S(=O)(=O)[O-])cc5)c5ccc([nH]5)c(-c5ccc(S(=O)(=O)[O-])cc5)c5nc(c(-c6ccc(S(=O)(=O)[O-])cc6)c6ccc3[nH]6)C=C5)C=C4)cc2)CC1)C1(C)CC1
REMARK SMILES IDX 13 1 12 2 11 3 9 4 10 5 8 7 7 8 6 9 3 10 4 11 80 12 5 14
REMARK SMILES IDX 79 15 2 16 1 17 81 18 82 19 83 20 84 21 14 22 15 23 16 24
REMARK SMILES IDX 17 25 18 27 19 28 20 29 78 30 21 31 77 32 22 33 23 34 24 35
REMARK SMILES IDX 71 36 25 37 76 38 70 39 72 40 26 41 75 42 69 43 68 44 27 46
REMARK SMILES IDX 57 47 38 48 56 49 39 50 42 51 55 52 73 53 40 54 41 55 54 57
REMARK SMILES IDX 74 58 43 59 28 60 29 61 37 62 30 63 36 64 31 65 32 66 33 67
REMARK SMILES IDX 34 68 35 69 58 70 59 71 67 72 60 73 66 74 61 75 62 76 63 77
REMARK SMILES IDX 64 78 65 79 44 80 45 81 53 82 46 83 52 84 47 85 48 86 49 87
REMARK SMILES IDX 50 88 51 89
REMARK H PARENT 11 6 3 13 16 26 72 45 42 56
REMARK Flexibility Score: inf
ROOT
ATOM      1  C   UNL A   1      35.952  24.005  25.599  1.00  0.00     0.023 C 
ENDROOT
BRANCH   1   2
ATOM      2  C   UNL A   1      35.080  23.454  24.468  1.00  0.00     0.116 C 
BRANCH   2   3
ATOM      3  N   UNL A   1      35.217  22.016  24.360  1.00  0.00    -0.356 N 
ATOM      4  C   UNL A   1      34.538  21.019  24.991  1.00  0.00     0.220 C 
ATOM      5  O   UNL A   1      34.902  19.856  24.802  1.00  0.00    -0.275 OA
ATOM      6  H   UNL A   1      35.911  21.713  23.732  1.00  0.00     0.163 HD
BRANCH   4   7
ATOM      7  C   UNL A   1      33.338  21.317  25.878  1.00  0.00     0.100 C 
BRANCH   7   8
ATOM      8  C   UNL A   1      31.980  21.309  25.151  1.00  0.00     0.014 C 
BRANCH   8   9
ATOM      9  C   UNL A   1      31.345  22.695  24.997  1.00  0.00     0.000 C 
ATOM     10  N   UNL A   1      30.784  25.531  24.613  1.00  0.00    -0.332 N 
ATOM     11  C   UNL A   1      30.951  24.973  25.948  1.00  0.00     0.262 C 
ATOM     12  C   UNL A   1      30.628  24.587  23.507  1.00  0.00     0.262 C 
ATOM     13  H   UNL A   1      31.738  25.854  24.460  1.00  0.00     0.348 HD
ATOM     14  C   UNL A   1      31.848  23.733  25.997  1.00  0.00     0.065 C 
ATOM     15  C   UNL A   1      31.503  23.320  23.608  1.00  0.00     0.065 C 
BRANCH  10  16
ATOM     16  C   UNL A   1      30.042  26.808  24.492  1.00  0.00     0.186 C 
ATOM     17  C   UNL A   1      28.640  26.544  23.889  1.00  0.00     0.076 C 
BRANCH  16  18
ATOM     18  C   UNL A   1      30.636  28.068  23.813  1.00  0.00     0.019 C 
ATOM     19  C   UNL A   1      30.314  28.161  22.327  1.00  0.00     0.018 C 
ATOM     20  C   UNL A   1      30.908  29.399  24.506  1.00  0.00     0.013 C 
ATOM     21  C   UNL A   1      32.044  28.498  24.143  1.00  0.00     0.013 C 
ENDBRANCH  16  18
ENDBRANCH  10  16
ENDBRANCH   8   9
ENDBRANCH   7   8
ENDBRANCH   4   7
ENDBRANCH   2   3
ENDBRANCH   1   2
BRANCH   1  22
ATOM     22  C   UNL A   1      37.318  23.360  25.772  1.00  0.00     0.023 C 
BRANCH  22  23
ATOM     23  C   UNL A   1      38.327  24.179  26.561  1.00  0.00     0.116 C 
BRANCH  23  24
ATOM     24  N   UNL A   1      39.703  24.041  26.096  1.00  0.00    -0.352 N 
ATOM     25  C   UNL A   1      40.805  24.783  26.452  1.00  0.00     0.251 C 
ATOM     26  H   UNL A   1      39.864  23.324  25.441  1.00  0.00     0.163 HD
ATOM     27  O   UNL A   1      41.913  24.570  25.968  1.00  0.00    -0.269 OA
BRANCH  25  28
ATOM     28  C   UNL A   1      40.632  25.838  27.454  1.00  0.00     0.039 A 
ATOM     29  C   UNL A   1      39.723  25.684  28.504  1.00  0.00     0.014 A 
ATOM     30  C   UNL A   1      41.454  26.961  27.359  1.00  0.00     0.014 A 
ATOM     31  C   UNL A   1      39.670  26.658  29.502  1.00  0.00     0.010 A 
ATOM     32  C   UNL A   1      41.465  27.872  28.395  1.00  0.00     0.010 A 
ATOM     33  C   UNL A   1      40.556  27.744  29.459  1.00  0.00    -0.014 A 
BRANCH  33  34
ATOM     34  C   UNL A   1      40.536  28.846  30.442  1.00  0.00     0.031 A 
ATOM     35  C   UNL A   1      41.481  28.757  31.609  1.00  0.00     0.074 A 
ATOM     36  C   UNL A   1      39.590  29.800  30.375  1.00  0.00     0.049 A 
ATOM     37  N   UNL A   1      41.459  29.400  32.743  1.00  0.00    -0.248 NA
ATOM     38  C   UNL A   1      42.556  27.752  31.504  1.00  0.00     0.031 C 
ATOM     39  C   UNL A   1      38.611  29.957  29.297  1.00  0.00     0.029 A 
ATOM     40  N   UNL A   1      39.277  30.799  31.258  1.00  0.00    -0.354 N 
ATOM     41  C   UNL A   1      42.472  28.834  33.509  1.00  0.00     0.074 A 
ATOM     42  C   UNL A   1      43.061  27.771  32.728  1.00  0.00     0.031 C 
ATOM     43  C   UNL A   1      37.816  31.005  29.576  1.00  0.00     0.029 A 
ATOM     44  C   UNL A   1      38.195  31.554  30.874  1.00  0.00     0.049 A 
ATOM     45  H   UNL A   1      39.780  30.960  32.089  1.00  0.00     0.167 HD
ATOM     46  C   UNL A   1      42.878  29.182  34.752  1.00  0.00     0.031 A 
ATOM     47  C   UNL A   1      37.575  32.565  31.511  1.00  0.00     0.031 A 
ATOM     48  C   UNL A   1      42.308  30.280  35.484  1.00  0.00     0.049 A 
ATOM     49  C   UNL A   1      38.083  32.975  32.866  1.00  0.00     0.074 A 
ATOM     50  C   UNL A   1      42.679  30.779  36.718  1.00  0.00     0.029 A 
ATOM     51  N   UNL A   1      41.261  31.068  35.027  1.00  0.00    -0.354 N 
ATOM     52  N   UNL A   1      39.047  32.441  33.579  1.00  0.00    -0.248 NA
ATOM     53  C   UNL A   1      37.428  34.126  33.499  1.00  0.00     0.031 C 
ATOM     54  C   UNL A   1      41.836  31.853  37.019  1.00  0.00     0.029 A 
ATOM     55  C   UNL A   1      40.973  32.052  35.952  1.00  0.00     0.049 A 
ATOM     56  H   UNL A   1      40.792  30.943  34.170  1.00  0.00     0.167 HD
ATOM     57  C   UNL A   1      39.135  33.209  34.734  1.00  0.00     0.074 A 
ATOM     58  C   UNL A   1      38.130  34.249  34.617  1.00  0.00     0.031 C 
ATOM     59  C   UNL A   1      39.967  33.072  35.795  1.00  0.00     0.031 A 
BRANCH  46  60
ATOM     60  C   UNL A   1      43.983  28.376  35.381  1.00  0.00    -0.014 A 
ATOM     61  C   UNL A   1      45.332  28.738  35.216  1.00  0.00     0.010 A 
ATOM     62  C   UNL A   1      43.670  27.253  36.169  1.00  0.00     0.010 A 
ATOM     63  C   UNL A   1      46.349  27.972  35.793  1.00  0.00     0.020 A 
ATOM     64  C   UNL A   1      44.683  26.502  36.774  1.00  0.00     0.020 A 
ATOM     65  C   UNL A   1      46.017  26.858  36.569  1.00  0.00     0.054 A 
BRANCH  65  66
ATOM     66  S   UNL A   1      47.356  25.906  37.339  1.00  0.00     0.124 S 
ATOM     67  O   UNL A   1      47.483  24.772  36.425  1.00  0.00    -0.237 OA
ATOM     68  O   UNL A   1      48.470  26.851  37.324  1.00  0.00    -0.237 OA
ATOM     69  O   UNL A   1      46.834  25.583  38.664  1.00  0.00    -0.744 OA
ENDBRANCH  65  66
ENDBRANCH  46  60
BRANCH  47  70
ATOM     70  C   UNL A   1      36.451  33.281  30.851  1.00  0.00    -0.014 A 
ATOM     71  C   UNL A   1      35.217  33.403  31.512  1.00  0.00     0.010 A 
ATOM     72  C   UNL A   1      36.614  33.887  29.592  1.00  0.00     0.010 A 
ATOM     73  C   UNL A   1      34.164  34.113  30.928  1.00  0.00     0.020 A 
ATOM     74  C   UNL A   1      35.571  34.617  29.013  1.00  0.00     0.020 A 
ATOM     75  C   UNL A   1      34.350  34.721  29.683  1.00  0.00     0.054 A 
BRANCH  75  76
ATOM     76  S   UNL A   1      32.994  35.705  28.984  1.00  0.00     0.124 S 
ATOM     77  O   UNL A   1      32.213  36.035  30.172  1.00  0.00    -0.237 OA
ATOM     78  O   UNL A   1      33.702  36.821  28.362  1.00  0.00    -0.237 OA
ATOM     79  O   UNL A   1      32.353  34.786  28.047  1.00  0.00    -0.744 OA
ENDBRANCH  75  76
ENDBRANCH  47  70
BRANCH  59  80
ATOM     80  C   UNL A   1      39.854  34.094  36.891  1.00  0.00    -0.014 A 
ATOM     81  C   UNL A   1      40.501  35.337  36.792  1.00  0.00     0.010 A 
ATOM     82  C   UNL A   1      39.033  33.825  38.000  1.00  0.00     0.010 A 
ATOM     83  C   UNL A   1      40.350  36.287  37.804  1.00  0.00     0.020 A 
ATOM     84  C   UNL A   1      38.860  34.783  39.001  1.00  0.00     0.020 A 
ATOM     85  C   UNL A   1      39.531  36.003  38.903  1.00  0.00     0.054 A 
BRANCH  85  86
ATOM     86  S   UNL A   1      39.315  37.271  40.180  1.00  0.00     0.124 S 
ATOM     87  O   UNL A   1      40.694  37.667  40.449  1.00  0.00    -0.237 OA
ATOM     88  O   UNL A   1      38.493  38.272  39.504  1.00  0.00    -0.237 OA
ATOM     89  O   UNL A   1      38.648  36.557  41.266  1.00  0.00    -0.744 OA
ENDBRANCH  85  86
ENDBRANCH  59  80
ENDBRANCH  33  34
ENDBRANCH  25  28
ENDBRANCH  23  24
ENDBRANCH  22  23
ENDBRANCH   1  22
TORSDOF 18
ENDMDL
MODEL 2
REMARK VINA RESULT:     -10.9      4.666      7.677
REMARK SMILES C[C@@H]([NH+]1CCC(CCC(=O)NCCCCNC(=O)c2ccc(-c3c4nc(c(-c5ccc(S(=O)(=O)[O-])cc5)c5ccc([nH]5)c(-c5ccc(S(=O)(=O)[O-])cc5)c5nc(c(-c6ccc(S(=O)(=O)[O-])cc6)c6ccc3[nH]6)C=C5)C=C4)cc2)CC1)C1(C)CC1
REMARK SMILES IDX 13 1 12 2 11 3 9 4 10 5 8 7 7 8 6 9 3 10 4 11 80 12 5 14
REMARK SMILES IDX 79 15 2 16 1 17 81 18 82 19 83 20 84 21 14 22 15 23 16 24
REMARK SMILES IDX 17 25 18 27 19 28 20 29 78 30 21 31 77 32 22 33 23 34 24 35
REMARK SMILES IDX 71 36 25 37 76 38 70 39 72 40 26 41 75 42 69 43 68 44 27 46
REMARK SMILES IDX 57 47 38 48 56 49 39 50 42 51 55 52 73 53 40 54 41 55 54 57
REMARK SMILES IDX 74 58 43 59 28 60 29 61 37 62 30 63 36 64 31 65 32 66 33 67
REMARK SMILES IDX 34 68 35 69 58 70 59 71 67 72 60 73 66 74 61 75 62 76 63 77
REMARK SMILES IDX 64 78 65 79 44 80 45 81 53 82 46 83 52 84 47 85 48 86 49 87
REMARK SMILES IDX 50 88 51 89
REMARK H PARENT 11 6 3 13 16 26 72 45 42 56
REMARK Flexibility Score: inf
ROOT
ATOM      1  C   UNL A   1      42.898  23.708  25.456  1.00  0.00     0.023 C 
ENDROOT
BRANCH   1   2
ATOM      2  C   UNL A   1      44.400  23.884  25.225  1.00  0.00     0.116 C 
BRANCH   2   3
ATOM      3  N   UNL A   1      45.109  24.000  26.483  1.00  0.00    -0.356 N 
ATOM      4  C   UNL A   1      45.730  25.073  27.046  1.00  0.00     0.220 C 
ATOM      5  O   UNL A   1      46.353  24.900  28.096  1.00  0.00    -0.275 OA
ATOM      6  H   UNL A   1      45.147  23.173  27.014  1.00  0.00     0.163 HD
BRANCH   4   7
ATOM      7  C   UNL A   1      45.635  26.459  26.425  1.00  0.00     0.100 C 
BRANCH   7   8
ATOM      8  C   UNL A   1      46.456  27.546  27.143  1.00  0.00     0.014 C 
BRANCH   8   9
ATOM      9  C   UNL A   1      45.817  28.938  27.108  1.00  0.00     0.000 C 
ATOM     10  N   UNL A   1      44.574  31.471  26.369  1.00  0.00    -0.332 N 
ATOM     11  C   UNL A   1      46.019  31.358  26.513  1.00  0.00     0.262 C 
ATOM     12  C   UNL A   1      43.762  30.364  26.873  1.00  0.00     0.262 C 
ATOM     13  H   UNL A   1      44.508  31.319  25.363  1.00  0.00     0.348 HD
ATOM     14  C   UNL A   1      46.564  29.953  26.245  1.00  0.00     0.065 C 
ATOM     15  C   UNL A   1      44.360  28.962  26.639  1.00  0.00     0.065 C 
BRANCH  10  16
ATOM     16  C   UNL A   1      43.978  32.823  26.478  1.00  0.00     0.186 C 
ATOM     17  C   UNL A   1      44.088  33.555  25.117  1.00  0.00     0.076 C 
BRANCH  16  18
ATOM     18  C   UNL A   1      44.353  33.823  27.601  1.00  0.00     0.019 C 
ATOM     19  C   UNL A   1      45.341  34.893  27.151  1.00  0.00     0.018 C 
ATOM     20  C   UNL A   1      43.456  34.213  28.771  1.00  0.00     0.013 C 
ATOM     21  C   UNL A   1      44.627  33.311  28.993  1.00  0.00     0.013 C 
ENDBRANCH  16  18
ENDBRANCH  10  16
ENDBRANCH   8   9
ENDBRANCH   7   8
ENDBRANCH   4   7
ENDBRANCH   2   3
ENDBRANCH   1   2
BRANCH   1  22
ATOM     22  C   UNL A   1      42.401  22.279  25.600  1.00  0.00     0.023 C 
BRANCH  22  23
ATOM     23  C   UNL A   1      41.319  22.070  26.649  1.00  0.00     0.116 C 
BRANCH  23  24
ATOM     24  N   UNL A   1      39.967  22.006  26.106  1.00  0.00    -0.352 N 
ATOM     25  C   UNL A   1      38.976  22.959  26.164  1.00  0.00     0.251 C 
ATOM     26  H   UNL A   1      39.732  21.174  25.637  1.00  0.00     0.163 HD
ATOM     27  O   UNL A   1      37.866  22.769  25.676  1.00  0.00    -0.269 OA
BRANCH  25  28
ATOM     28  C   UNL A   1      39.283  24.235  26.815  1.00  0.00     0.039 A 
ATOM     29  C   UNL A   1      38.972  24.443  28.162  1.00  0.00     0.014 A 
ATOM     30  C   UNL A   1      39.955  25.199  26.065  1.00  0.00     0.014 A 
ATOM     31  C   UNL A   1      39.384  25.625  28.777  1.00  0.00     0.010 A 
ATOM     32  C   UNL A   1      40.442  26.323  26.700  1.00  0.00     0.010 A 
ATOM     33  C   UNL A   1      40.138  26.559  28.051  1.00  0.00    -0.014 A 
BRANCH  33  34
ATOM     34  C   UNL A   1      40.571  27.858  28.605  1.00  0.00     0.031 A 
ATOM     35  C   UNL A   1      41.945  27.935  29.210  1.00  0.00     0.074 A 
ATOM     36  C   UNL A   1      39.699  28.877  28.709  1.00  0.00     0.049 A 
ATOM     37  N   UNL A   1      42.446  28.828  30.018  1.00  0.00    -0.248 NA
ATOM     38  C   UNL A   1      42.853  26.809  28.916  1.00  0.00     0.031 C 
ATOM     39  C   UNL A   1      38.335  28.892  28.176  1.00  0.00     0.029 A 
ATOM     40  N   UNL A   1      39.826  30.089  29.334  1.00  0.00    -0.354 N 
ATOM     41  C   UNL A   1      43.698  28.341  30.379  1.00  0.00     0.074 A 
ATOM     42  C   UNL A   1      43.863  27.058  29.735  1.00  0.00     0.031 C 
ATOM     43  C   UNL A   1      37.756  30.065  28.485  1.00  0.00     0.029 A 
ATOM     44  C   UNL A   1      38.688  30.858  29.280  1.00  0.00     0.049 A 
ATOM     45  H   UNL A   1      40.654  30.381  29.780  1.00  0.00     0.167 HD
ATOM     46  C   UNL A   1      44.628  28.923  31.170  1.00  0.00     0.031 A 
ATOM     47  C   UNL A   1      38.430  32.060  29.827  1.00  0.00     0.031 A 
ATOM     48  C   UNL A   1      44.458  30.226  31.752  1.00  0.00     0.049 A 
ATOM     49  C   UNL A   1      39.502  32.717  30.652  1.00  0.00     0.074 A 
ATOM     50  C   UNL A   1      45.353  30.956  32.510  1.00  0.00     0.029 A 
ATOM     51  N   UNL A   1      43.317  31.005  31.611  1.00  0.00    -0.354 N 
ATOM     52  N   UNL A   1      40.686  32.254  30.980  1.00  0.00    -0.248 NA
ATOM     53  C   UNL A   1      39.210  34.058  31.174  1.00  0.00     0.031 C 
ATOM     54  C   UNL A   1      44.742  32.167  32.851  1.00  0.00     0.029 A 
ATOM     55  C   UNL A   1      43.485  32.210  32.265  1.00  0.00     0.049 A 
ATOM     56  H   UNL A   1      42.508  30.738  31.118  1.00  0.00     0.167 HD
ATOM     57  C   UNL A   1      41.293  33.259  31.724  1.00  0.00     0.074 A 
ATOM     58  C   UNL A   1      40.347  34.357  31.788  1.00  0.00     0.031 C 
ATOM     59  C   UNL A   1      42.519  33.279  32.301  1.00  0.00     0.031 A 
BRANCH  46  60
ATOM     60  C   UNL A   1      45.899  28.161  31.436  1.00  0.00    -0.014 A 
ATOM     61  C   UNL A   1      47.041  28.347  30.635  1.00  0.00     0.010 A 
ATOM     62  C   UNL A   1      45.964  27.263  32.517  1.00  0.00     0.010 A 
ATOM     63  C   UNL A   1      48.209  27.622  30.886  1.00  0.00     0.020 A 
ATOM     64  C   UNL A   1      47.140  26.559  32.790  1.00  0.00     0.020 A 
ATOM     65  C   UNL A   1      48.251  26.731  31.962  1.00  0.00     0.054 A 
BRANCH  65  66
ATOM     66  S   UNL A   1      49.794  25.833  32.287  1.00  0.00     0.124 S 
ATOM     67  O   UNL A   1      50.117  25.303  30.964  1.00  0.00    -0.237 OA
ATOM     68  O   UNL A   1      50.680  26.887  32.774  1.00  0.00    -0.237 OA
ATOM     69  O   UNL A   1      49.411  24.835  33.281  1.00  0.00    -0.744 OA
ENDBRANCH  65  66
ENDBRANCH  46  60
BRANCH  47  70
ATOM     70  C   UNL A   1      37.128  32.731  29.566  1.00  0.00    -0.014 A 
ATOM     71  C   UNL A   1      36.116  32.694  30.541  1.00  0.00     0.010 A 
ATOM     72  C   UNL A   1      36.905  33.448  28.377  1.00  0.00     0.010 A 
ATOM     73  C   UNL A   1      34.904  33.358  30.333  1.00  0.00     0.020 A 
ATOM     74  C   UNL A   1      35.702  34.133  28.174  1.00  0.00     0.020 A 
ATOM     75  C   UNL A   1      34.706  34.080  29.152  1.00  0.00     0.054 A 
BRANCH  75  76
ATOM     76  S   UNL A   1      33.155  35.000  28.942  1.00  0.00     0.124 S 
ATOM     77  O   UNL A   1      33.631  36.291  28.455  1.00  0.00    -0.237 OA
ATOM     78  O   UNL A   1      32.434  34.183  27.969  1.00  0.00    -0.237 OA
ATOM     79  O   UNL A   1      32.580  35.009  30.284  1.00  0.00    -0.744 OA
ENDBRANCH  75  76
ENDBRANCH  47  70
BRANCH  59  80
ATOM     80  C   UNL A   1      42.921  34.539  33.014  1.00  0.00    -0.014 A 
ATOM     81  C   UNL A   1      42.537  34.772  34.345  1.00  0.00     0.010 A 
ATOM     82  C   UNL A   1      43.748  35.467  32.358  1.00  0.00     0.010 A 
ATOM     83  C   UNL A   1      42.954  35.932  35.001  1.00  0.00     0.020 A 
ATOM     84  C   UNL A   1      44.187  36.615  33.019  1.00  0.00     0.020 A 
ATOM     85  C   UNL A   1      43.775  36.847  34.333  1.00  0.00     0.054 A 
BRANCH  85  86
ATOM     86  S   UNL A   1      44.341  38.322  35.222  1.00  0.00     0.124 S 
ATOM     87  O   UNL A   1      45.733  38.419  34.791  1.00  0.00    -0.237 OA
ATOM     88  O   UNL A   1      43.452  39.364  34.716  1.00  0.00    -0.237 OA
ATOM     89  O   UNL A   1      44.147  37.973  36.628  1.00  0.00    -0.744 OA
ENDBRANCH  85  86
ENDBRANCH  59  80
ENDBRANCH  33  34
ENDBRANCH  25  28
ENDBRANCH  23  24
ENDBRANCH  22  23
ENDBRANCH   1  22
TORSDOF 18
ENDMDL
MODEL 3
REMARK VINA RESULT:     -10.5      5.696     11.284
REMARK SMILES C[C@@H]([NH+]1CCC(CCC(=O)NCCCCNC(=O)c2ccc(-c3c4nc(c(-c5ccc(S(=O)(=O)[O-])cc5)c5ccc([nH]5)c(-c5ccc(S(=O)(=O)[O-])cc5)c5nc(c(-c6ccc(S(=O)(=O)[O-])cc6)c6ccc3[nH]6)C=C5)C=C4)cc2)CC1)C1(C)CC1
REMARK SMILES IDX 13 1 12 2 11 3 9 4 10 5 8 7 7 8 6 9 3 10 4 11 80 12 5 14
REMARK SMILES IDX 79 15 2 16 1 17 81 18 82 19 83 20 84 21 14 22 15 23 16 24
REMARK SMILES IDX 17 25 18 27 19 28 20 29 78 30 21 31 77 32 22 33 23 34 24 35
REMARK SMILES IDX 71 36 25 37 76 38 70 39 72 40 26 41 75 42 69 43 68 44 27 46
REMARK SMILES IDX 57 47 38 48 56 49 39 50 42 51 55 52 73 53 40 54 41 55 54 57
REMARK SMILES IDX 74 58 43 59 28 60 29 61 37 62 30 63 36 64 31 65 32 66 33 67
REMARK SMILES IDX 34 68 35 69 58 70 59 71 67 72 60 73 66 74 61 75 62 76 63 77
REMARK SMILES IDX 64 78 65 79 44 80 45 81 53 82 46 83 52 84 47 85 48 86 49 87
REMARK SMILES IDX 50 88 51 89
REMARK H PARENT 11 6 3 13 16 26 72 45 42 56
REMARK Flexibility Score: inf
ROOT
ATOM      1  C   UNL A   1      33.046  28.911  26.735  1.00  0.00     0.023 C 
ENDROOT
BRANCH   1   2
ATOM      2  C   UNL A   1      33.061  29.414  25.290  1.00  0.00     0.116 C 
BRANCH   2   3
ATOM      3  N   UNL A   1      31.750  29.883  24.891  1.00  0.00    -0.356 N 
ATOM      4  C   UNL A   1      30.802  29.288  24.115  1.00  0.00     0.220 C 
ATOM      5  O   UNL A   1      29.789  29.934  23.836  1.00  0.00    -0.275 OA
ATOM      6  H   UNL A   1      31.507  30.773  25.234  1.00  0.00     0.163 HD
BRANCH   4   7
ATOM      7  C   UNL A   1      30.962  27.855  23.631  1.00  0.00     0.100 C 
BRANCH   7   8
ATOM      8  C   UNL A   1      30.629  26.778  24.681  1.00  0.00     0.014 C 
BRANCH   8   9
ATOM      9  C   UNL A   1      31.735  25.736  24.880  1.00  0.00     0.000 C 
ATOM     10  N   UNL A   1      33.703  23.601  24.609  1.00  0.00    -0.332 N 
ATOM     11  C   UNL A   1      32.372  23.333  25.137  1.00  0.00     0.262 C 
ATOM     12  C   UNL A   1      34.105  25.002  24.487  1.00  0.00     0.262 C 
ATOM     13  H   UNL A   1      33.532  23.362  23.633  1.00  0.00     0.348 HD
ATOM     14  C   UNL A   1      31.295  24.296  24.631  1.00  0.00     0.065 C 
ATOM     15  C   UNL A   1      32.987  25.960  24.028  1.00  0.00     0.065 C 
BRANCH  10  16
ATOM     16  C   UNL A   1      34.779  22.638  24.940  1.00  0.00     0.186 C 
ATOM     17  C   UNL A   1      34.583  22.109  26.382  1.00  0.00     0.076 C 
BRANCH  16  18
ATOM     18  C   UNL A   1      36.284  22.950  24.735  1.00  0.00     0.019 C 
ATOM     19  C   UNL A   1      36.733  22.828  23.285  1.00  0.00     0.018 C 
ATOM     20  C   UNL A   1      37.115  23.893  25.599  1.00  0.00     0.013 C 
ATOM     21  C   UNL A   1      37.295  22.414  25.718  1.00  0.00     0.013 C 
ENDBRANCH  16  18
ENDBRANCH  10  16
ENDBRANCH   8   9
ENDBRANCH   7   8
ENDBRANCH   4   7
ENDBRANCH   2   3
ENDBRANCH   1   2
BRANCH   1  22
ATOM     22  C   UNL A   1      34.316  29.137  27.540  1.00  0.00     0.023 C 
BRANCH  22  23
ATOM     23  C   UNL A   1      34.812  30.574  27.579  1.00  0.00     0.116 C 
BRANCH  23  24
ATOM     24  N   UNL A   1      34.443  31.301  28.788  1.00  0.00    -0.352 N 
ATOM     25  C   UNL A   1      35.210  31.556  29.901  1.00  0.00     0.251 C 
ATOM     26  H   UNL A   1      33.525  31.656  28.811  1.00  0.00     0.163 HD
ATOM     27  O   UNL A   1      34.767  32.172  30.866  1.00  0.00    -0.269 OA
BRANCH  25  28
ATOM     28  C   UNL A   1      36.598  31.087  29.904  1.00  0.00     0.039 A 
ATOM     29  C   UNL A   1      37.071  30.262  30.929  1.00  0.00     0.014 A 
ATOM     30  C   UNL A   1      37.401  31.435  28.819  1.00  0.00     0.014 A 
ATOM     31  C   UNL A   1      38.362  29.742  30.837  1.00  0.00     0.010 A 
ATOM     32  C   UNL A   1      38.641  30.844  28.685  1.00  0.00     0.010 A 
ATOM     33  C   UNL A   1      39.142  30.016  29.704  1.00  0.00    -0.014 A 
BRANCH  33  34
ATOM     34  C   UNL A   1      40.536  29.551  29.547  1.00  0.00     0.031 A 
ATOM     35  C   UNL A   1      41.631  30.571  29.687  1.00  0.00     0.074 A 
ATOM     36  C   UNL A   1      40.791  28.298  29.127  1.00  0.00     0.049 A 
ATOM     37  N   UNL A   1      42.876  30.508  29.304  1.00  0.00    -0.248 NA
ATOM     38  C   UNL A   1      41.245  31.867  30.279  1.00  0.00     0.031 C 
ATOM     39  C   UNL A   1      39.794  27.242  28.937  1.00  0.00     0.029 A 
ATOM     40  N   UNL A   1      41.972  27.715  28.753  1.00  0.00    -0.354 N 
ATOM     41  C   UNL A   1      43.404  31.771  29.548  1.00  0.00     0.074 A 
ATOM     42  C   UNL A   1      42.335  32.590  30.074  1.00  0.00     0.031 C 
ATOM     43  C   UNL A   1      40.411  26.132  28.495  1.00  0.00     0.029 A 
ATOM     44  C   UNL A   1      41.831  26.417  28.321  1.00  0.00     0.049 A 
ATOM     45  H   UNL A   1      42.838  28.181  28.789  1.00  0.00     0.167 HD
ATOM     46  C   UNL A   1      44.672  32.201  29.359  1.00  0.00     0.031 A 
ATOM     47  C   UNL A   1      42.750  25.566  27.828  1.00  0.00     0.031 A 
ATOM     48  C   UNL A   1      45.727  31.347  28.886  1.00  0.00     0.049 A 
ATOM     49  C   UNL A   1      44.168  26.047  27.684  1.00  0.00     0.074 A 
ATOM     50  C   UNL A   1      47.067  31.642  28.721  1.00  0.00     0.029 A 
ATOM     51  N   UNL A   1      45.558  30.017  28.530  1.00  0.00    -0.354 N 
ATOM     52  N   UNL A   1      44.660  27.239  27.926  1.00  0.00    -0.248 NA
ATOM     53  C   UNL A   1      45.154  25.069  27.209  1.00  0.00     0.031 C 
ATOM     54  C   UNL A   1      47.704  30.494  28.239  1.00  0.00     0.029 A 
ATOM     55  C   UNL A   1      46.770  29.473  28.149  1.00  0.00     0.049 A 
ATOM     56  H   UNL A   1      44.702  29.531  28.546  1.00  0.00     0.167 HD
ATOM     57  C   UNL A   1      46.021  27.149  27.660  1.00  0.00     0.074 A 
ATOM     58  C   UNL A   1      46.273  25.781  27.248  1.00  0.00     0.031 C 
ATOM     59  C   UNL A   1      46.979  28.104  27.749  1.00  0.00     0.031 A 
BRANCH  46  60
ATOM     60  C   UNL A   1      44.978  33.642  29.669  1.00  0.00    -0.014 A 
ATOM     61  C   UNL A   1      45.335  34.047  30.969  1.00  0.00     0.010 A 
ATOM     62  C   UNL A   1      44.934  34.604  28.644  1.00  0.00     0.010 A 
ATOM     63  C   UNL A   1      45.602  35.390  31.245  1.00  0.00     0.020 A 
ATOM     64  C   UNL A   1      45.230  35.945  28.910  1.00  0.00     0.020 A 
ATOM     65  C   UNL A   1      45.548  36.331  30.214  1.00  0.00     0.054 A 
BRANCH  65  66
ATOM     66  S   UNL A   1      45.939  38.062  30.595  1.00  0.00     0.124 S 
ATOM     67  O   UNL A   1      47.392  38.017  30.736  1.00  0.00    -0.237 OA
ATOM     68  O   UNL A   1      45.444  38.769  29.416  1.00  0.00    -0.237 OA
ATOM     69  O   UNL A   1      45.201  38.320  31.829  1.00  0.00    -0.744 OA
ENDBRANCH  65  66
ENDBRANCH  46  60
BRANCH  47  70
ATOM     70  C   UNL A   1      42.363  24.170  27.489  1.00  0.00    -0.014 A 
ATOM     71  C   UNL A   1      42.341  23.758  26.146  1.00  0.00     0.010 A 
ATOM     72  C   UNL A   1      42.066  23.233  28.496  1.00  0.00     0.010 A 
ATOM     73  C   UNL A   1      42.025  22.438  25.812  1.00  0.00     0.020 A 
ATOM     74  C   UNL A   1      41.772  21.905  28.168  1.00  0.00     0.020 A 
ATOM     75  C   UNL A   1      41.748  21.517  26.826  1.00  0.00     0.054 A 
BRANCH  75  76
ATOM     76  S   UNL A   1      41.421  19.791  26.370  1.00  0.00     0.124 S 
ATOM     77  O   UNL A   1      42.201  19.647  25.144  1.00  0.00    -0.237 OA
ATOM     78  O   UNL A   1      41.923  19.058  27.530  1.00  0.00    -0.237 OA
ATOM     79  O   UNL A   1      39.971  19.752  26.199  1.00  0.00    -0.744 OA
ENDBRANCH  75  76
ENDBRANCH  47  70
BRANCH  59  80
ATOM     80  C   UNL A   1      48.388  27.692  27.434  1.00  0.00    -0.014 A 
ATOM     81  C   UNL A   1      49.221  27.144  28.423  1.00  0.00     0.010 A 
ATOM     82  C   UNL A   1      48.857  27.797  26.112  1.00  0.00     0.010 A 
ATOM     83  C   UNL A   1      50.515  26.731  28.099  1.00  0.00     0.020 A 
ATOM     84  C   UNL A   1      50.142  27.362  25.781  1.00  0.00     0.020 A 
ATOM     85  C   UNL A   1      50.967  26.844  26.780  1.00  0.00     0.054 A 
BRANCH  85  86
ATOM     86  S   UNL A   1      52.634  26.258  26.376  1.00  0.00     0.124 S 
ATOM     87  O   UNL A   1      52.875  26.897  25.085  1.00  0.00    -0.237 OA
ATOM     88  O   UNL A   1      53.433  26.767  27.488  1.00  0.00    -0.237 OA
ATOM     89  O   UNL A   1      52.489  24.805  26.334  1.00  0.00    -0.744 OA
ENDBRANCH  85  86
ENDBRANCH  59  80
ENDBRANCH  33  34
ENDBRANCH  25  28
ENDBRANCH  23  24
ENDBRANCH  22  23
ENDBRANCH   1  22
TORSDOF 18
ENDMDL
