MODEL 1
REMARK VINA RESULT:     -10.9      0.000      0.000
REMARK SMILES O=C(NCCCCNC(=O)[C@@]1([C@@H]2CCC[C@@H]2O)CCCc2ccccc21)c1ccc(-c2c3nc(c(-c4ccc(S(=O)(=O)[O-])cc4)c4ccc([nH]4)c(-c4ccc(S(=O)(=O)[O-])cc4)c4nc(c(-c5ccc(S(=O)(=O)[O-])cc5)c5ccc2[nH]5)C=C4)C=C3)cc1
REMARK SMILES IDX 5 1 4 2 3 3 1 4 2 5 27 7 28 8 86 9 29 10 85 11 30 12 31 13
REMARK SMILES IDX 32 14 79 15 33 16 84 17 78 18 80 19 34 20 83 21 77 22 76 23
REMARK SMILES IDX 35 25 65 26 46 27 64 28 47 29 50 30 63 31 81 32 48 33 49 34
REMARK SMILES IDX 62 36 82 37 51 38 36 39 37 40 45 41 38 42 44 43 39 44 40 45
REMARK SMILES IDX 41 46 42 47 43 48 66 49 67 50 75 51 68 52 74 53 69 54 70 55
REMARK SMILES IDX 71 56 72 57 73 58 52 59 53 60 61 61 54 62 60 63 55 64 56 65
REMARK SMILES IDX 57 66 58 67 59 68 6 69 7 70 8 71 9 72 10 74 11 75 18 76
REMARK SMILES IDX 26 77 19 78 21 79 25 80 20 81 22 82 24 83 23 84 12 85 13 86
REMARK SMILES IDX 16 87 14 88 15 89 17 90
REMARK H PARENT 3 6 80 24 50 35 8 73 17 91
REMARK Flexibility Score: inf
ROOT
ATOM      1  C   UNL A   1      33.749  28.581  25.076  1.00  0.00     0.023 C 
ENDROOT
BRANCH   1   2
ATOM      2  C   UNL A   1      34.163  28.646  26.536  1.00  0.00     0.116 C 
BRANCH   2   3
ATOM      3  N   UNL A   1      33.762  29.885  27.187  1.00  0.00    -0.352 N 
ATOM      4  O   UNL A   1      33.988  31.594  28.650  1.00  0.00    -0.269 OA
ATOM      5  C   UNL A   1      34.491  30.634  28.076  1.00  0.00     0.251 C 
ATOM      6  H   UNL A   1      32.864  30.223  26.964  1.00  0.00     0.163 HD
BRANCH   5   7
ATOM      7  C   UNL A   1      35.885  30.237  28.342  1.00  0.00     0.039 A 
ATOM      8  C   UNL A   1      36.861  30.435  27.360  1.00  0.00     0.014 A 
ATOM      9  C   UNL A   1      36.200  29.617  29.552  1.00  0.00     0.014 A 
ATOM     10  C   UNL A   1      38.134  29.919  27.546  1.00  0.00     0.010 A 
ATOM     11  C   UNL A   1      37.502  29.168  29.768  1.00  0.00     0.010 A 
ATOM     12  C   UNL A   1      38.473  29.309  28.764  1.00  0.00    -0.014 A 
BRANCH  12  13
ATOM     13  C   UNL A   1      39.886  28.952  29.022  1.00  0.00     0.031 A 
ATOM     14  C   UNL A   1      40.446  27.621  28.616  1.00  0.00     0.074 A 
ATOM     15  C   UNL A   1      40.651  29.863  29.654  1.00  0.00     0.049 A 
ATOM     16  N   UNL A   1      41.650  27.151  28.813  1.00  0.00    -0.248 NA
ATOM     17  C   UNL A   1      39.546  26.695  27.910  1.00  0.00     0.031 C 
ATOM     18  C   UNL A   1      40.190  31.183  30.105  1.00  0.00     0.029 A 
ATOM     19  N   UNL A   1      41.966  29.828  30.030  1.00  0.00    -0.354 N 
ATOM     20  C   UNL A   1      41.649  25.867  28.282  1.00  0.00     0.074 A 
ATOM     21  C   UNL A   1      40.323  25.628  27.756  1.00  0.00     0.031 C 
ATOM     22  C   UNL A   1      41.211  31.835  30.676  1.00  0.00     0.029 A 
ATOM     23  C   UNL A   1      42.375  30.960  30.693  1.00  0.00     0.049 A 
ATOM     24  H   UNL A   1      42.562  29.066  29.843  1.00  0.00     0.167 HD
ATOM     25  C   UNL A   1      42.666  24.975  28.250  1.00  0.00     0.031 A 
ATOM     26  C   UNL A   1      43.545  31.250  31.290  1.00  0.00     0.031 A 
ATOM     27  C   UNL A   1      43.985  25.238  28.767  1.00  0.00     0.049 A 
ATOM     28  C   UNL A   1      44.640  30.227  31.262  1.00  0.00     0.074 A 
ATOM     29  C   UNL A   1      45.107  24.430  28.709  1.00  0.00     0.029 A 
ATOM     30  N   UNL A   1      44.353  26.385  29.453  1.00  0.00    -0.354 N 
ATOM     31  N   UNL A   1      44.642  29.047  30.691  1.00  0.00    -0.248 NA
ATOM     32  C   UNL A   1      45.881  30.566  31.967  1.00  0.00     0.031 C 
ATOM     33  C   UNL A   1      46.139  25.064  29.408  1.00  0.00     0.029 A 
ATOM     34  C   UNL A   1      45.671  26.287  29.864  1.00  0.00     0.049 A 
ATOM     35  H   UNL A   1      43.764  27.156  29.623  1.00  0.00     0.167 HD
ATOM     36  C   UNL A   1      45.885  28.497  30.972  1.00  0.00     0.074 A 
ATOM     37  C   UNL A   1      46.618  29.487  31.736  1.00  0.00     0.031 C 
ATOM     38  C   UNL A   1      46.373  27.279  30.636  1.00  0.00     0.031 A 
BRANCH  25  39
ATOM     39  C   UNL A   1      42.406  23.614  27.661  1.00  0.00    -0.014 A 
ATOM     40  C   UNL A   1      42.593  23.363  26.292  1.00  0.00     0.010 A 
ATOM     41  C   UNL A   1      42.072  22.546  28.516  1.00  0.00     0.010 A 
ATOM     42  C   UNL A   1      42.442  22.068  25.784  1.00  0.00     0.020 A 
ATOM     43  C   UNL A   1      41.936  21.248  28.016  1.00  0.00     0.020 A 
ATOM     44  C   UNL A   1      42.116  21.018  26.651  1.00  0.00     0.054 A 
BRANCH  44  45
ATOM     45  S   UNL A   1      41.989  19.339  25.977  1.00  0.00     0.124 S 
ATOM     46  O   UNL A   1      42.855  19.418  24.804  1.00  0.00    -0.237 OA
ATOM     47  O   UNL A   1      42.493  18.513  27.073  1.00  0.00    -0.237 OA
ATOM     48  O   UNL A   1      40.565  19.186  25.692  1.00  0.00    -0.744 OA
ENDBRANCH  44  45
ENDBRANCH  25  39
BRANCH  26  49
ATOM     49  C   UNL A   1      43.702  32.536  32.017  1.00  0.00    -0.014 A 
ATOM     50  C   UNL A   1      44.164  33.685  31.356  1.00  0.00     0.010 A 
ATOM     51  C   UNL A   1      43.361  32.617  33.381  1.00  0.00     0.010 A 
ATOM     52  C   UNL A   1      44.299  34.890  32.051  1.00  0.00     0.020 A 
ATOM     53  C   UNL A   1      43.469  33.825  34.071  1.00  0.00     0.020 A 
ATOM     54  C   UNL A   1      43.952  34.952  33.404  1.00  0.00     0.054 A 
BRANCH  54  55
ATOM     55  S   UNL A   1      44.093  36.534  34.281  1.00  0.00     0.124 S 
ATOM     56  O   UNL A   1      43.091  36.386  35.331  1.00  0.00    -0.237 OA
ATOM     57  O   UNL A   1      45.484  36.531  34.725  1.00  0.00    -0.237 OA
ATOM     58  O   UNL A   1      43.781  37.521  33.250  1.00  0.00    -0.744 OA
ENDBRANCH  54  55
ENDBRANCH  26  49
BRANCH  38  59
ATOM     59  C   UNL A   1      47.762  26.952  31.104  1.00  0.00    -0.014 A 
ATOM     60  C   UNL A   1      47.963  26.176  32.258  1.00  0.00     0.010 A 
ATOM     61  C   UNL A   1      48.872  27.381  30.355  1.00  0.00     0.010 A 
ATOM     62  C   UNL A   1      49.256  25.849  32.669  1.00  0.00     0.020 A 
ATOM     63  C   UNL A   1      50.166  27.036  30.751  1.00  0.00     0.020 A 
ATOM     64  C   UNL A   1      50.349  26.281  31.913  1.00  0.00     0.054 A 
BRANCH  64  65
ATOM     65  S   UNL A   1      52.017  25.799  32.435  1.00  0.00     0.124 S 
ATOM     66  O   UNL A   1      52.756  25.853  31.177  1.00  0.00    -0.237 OA
ATOM     67  O   UNL A   1      52.361  26.831  33.410  1.00  0.00    -0.237 OA
ATOM     68  O   UNL A   1      51.833  24.461  32.992  1.00  0.00    -0.744 OA
ENDBRANCH  64  65
ENDBRANCH  38  59
ENDBRANCH  12  13
ENDBRANCH   5   7
ENDBRANCH   2   3
ENDBRANCH   1   2
BRANCH   1  69
ATOM     69  C   UNL A   1      33.209  27.226  24.634  1.00  0.00     0.023 C 
BRANCH  69  70
ATOM     70  C   UNL A   1      34.146  26.052  24.917  1.00  0.00     0.116 C 
BRANCH  70  71
ATOM     71  N   UNL A   1      34.358  25.252  23.729  1.00  0.00    -0.355 N 
ATOM     72  C   UNL A   1      34.508  23.907  23.568  1.00  0.00     0.231 C 
ATOM     73  H   UNL A   1      34.401  25.769  22.892  1.00  0.00     0.163 HD
ATOM     74  O   UNL A   1      34.608  23.529  22.390  1.00  0.00    -0.274 OA
BRANCH  72  75
ATOM     75  C   UNL A   1      34.485  22.873  24.765  1.00  0.00     0.080 C 
ATOM     76  C   UNL A   1      33.819  21.542  24.324  1.00  0.00     0.022 C 
ATOM     77  C   UNL A   1      35.963  22.674  25.208  1.00  0.00    -0.029 A 
ATOM     78  C   UNL A   1      34.301  20.299  25.062  1.00  0.00     0.006 C 
ATOM     79  C   UNL A   1      36.556  21.398  25.298  1.00  0.00    -0.044 A 
ATOM     80  C   UNL A   1      36.766  23.802  25.483  1.00  0.00     0.005 A 
ATOM     81  C   UNL A   1      35.806  20.137  24.957  1.00  0.00     0.036 C 
ATOM     82  C   UNL A   1      37.921  21.284  25.619  1.00  0.00     0.004 A 
ATOM     83  C   UNL A   1      38.117  23.674  25.807  1.00  0.00     0.000 A 
ATOM     84  C   UNL A   1      38.695  22.414  25.872  1.00  0.00     0.000 A 
BRANCH  75  85
ATOM     85  C   UNL A   1      33.679  23.553  25.959  1.00  0.00     0.038 C 
ATOM     86  C   UNL A   1      33.936  23.009  27.376  1.00  0.00     0.008 C 
ATOM     87  C   UNL A   1      32.133  23.578  25.902  1.00  0.00     0.119 C 
ATOM     88  C   UNL A   1      32.744  22.134  27.759  1.00  0.00     0.003 C 
ATOM     89  C   UNL A   1      31.639  22.421  26.758  1.00  0.00     0.032 C 
BRANCH  87  90
ATOM     90  O   UNL A   1      31.561  23.487  24.615  1.00  0.00    -0.393 OA
ATOM     91  H   UNL A   1      31.073  22.652  24.536  1.00  0.00     0.210 HD
ENDBRANCH  87  90
ENDBRANCH  75  85
ENDBRANCH  72  75
ENDBRANCH  70  71
ENDBRANCH  69  70
ENDBRANCH   1  69
TORSDOF 16
ENDMDL
MODEL 2
REMARK VINA RESULT:     -10.9      0.847      8.247
REMARK SMILES O=C(NCCCCNC(=O)[C@@]1([C@@H]2CCC[C@@H]2O)CCCc2ccccc21)c1ccc(-c2c3nc(c(-c4ccc(S(=O)(=O)[O-])cc4)c4ccc([nH]4)c(-c4ccc(S(=O)(=O)[O-])cc4)c4nc(c(-c5ccc(S(=O)(=O)[O-])cc5)c5ccc2[nH]5)C=C4)C=C3)cc1
REMARK SMILES IDX 5 1 4 2 3 3 1 4 2 5 27 7 28 8 86 9 29 10 85 11 30 12 31 13
REMARK SMILES IDX 32 14 79 15 33 16 84 17 78 18 80 19 34 20 83 21 77 22 76 23
REMARK SMILES IDX 35 25 65 26 46 27 64 28 47 29 50 30 63 31 81 32 48 33 49 34
REMARK SMILES IDX 62 36 82 37 51 38 36 39 37 40 45 41 38 42 44 43 39 44 40 45
REMARK SMILES IDX 41 46 42 47 43 48 66 49 67 50 75 51 68 52 74 53 69 54 70 55
REMARK SMILES IDX 71 56 72 57 73 58 52 59 53 60 61 61 54 62 60 63 55 64 56 65
REMARK SMILES IDX 57 66 58 67 59 68 6 69 7 70 8 71 9 72 10 74 11 75 18 76
REMARK SMILES IDX 26 77 19 78 21 79 25 80 20 81 22 82 24 83 23 84 12 85 13 86
REMARK SMILES IDX 16 87 14 88 15 89 17 90
REMARK H PARENT 3 6 80 24 50 35 8 73 17 91
REMARK Flexibility Score: inf
ROOT
ATOM      1  C   UNL A   1      33.292  27.518  25.853  1.00  0.00     0.023 C 
ENDROOT
BRANCH   1   2
ATOM      2  C   UNL A   1      34.377  28.264  26.610  1.00  0.00     0.116 C 
BRANCH   2   3
ATOM      3  N   UNL A   1      33.936  29.562  27.103  1.00  0.00    -0.352 N 
ATOM      4  O   UNL A   1      34.090  31.432  28.364  1.00  0.00    -0.269 OA
ATOM      5  C   UNL A   1      34.626  30.422  27.919  1.00  0.00     0.251 C 
ATOM      6  H   UNL A   1      33.040  29.854  26.818  1.00  0.00     0.163 HD
BRANCH   5   7
ATOM      7  C   UNL A   1      36.018  30.086  28.267  1.00  0.00     0.039 A 
ATOM      8  C   UNL A   1      37.019  30.195  27.297  1.00  0.00     0.014 A 
ATOM      9  C   UNL A   1      36.306  29.610  29.547  1.00  0.00     0.014 A 
ATOM     10  C   UNL A   1      38.295  29.729  27.576  1.00  0.00     0.010 A 
ATOM     11  C   UNL A   1      37.609  29.215  29.848  1.00  0.00     0.010 A 
ATOM     12  C   UNL A   1      38.608  29.264  28.863  1.00  0.00    -0.014 A 
BRANCH  12  13
ATOM     13  C   UNL A   1      40.018  28.968  29.199  1.00  0.00     0.031 A 
ATOM     14  C   UNL A   1      40.914  30.007  29.806  1.00  0.00     0.074 A 
ATOM     15  C   UNL A   1      40.476  27.732  28.923  1.00  0.00     0.049 A 
ATOM     16  N   UNL A   1      42.181  29.908  30.115  1.00  0.00    -0.248 NA
ATOM     17  C   UNL A   1      40.325  31.324  30.096  1.00  0.00     0.031 C 
ATOM     18  C   UNL A   1      39.682  26.656  28.316  1.00  0.00     0.029 A 
ATOM     19  N   UNL A   1      41.708  27.167  29.111  1.00  0.00    -0.354 N 
ATOM     20  C   UNL A   1      42.551  31.152  30.609  1.00  0.00     0.074 A 
ATOM     21  C   UNL A   1      41.375  31.994  30.558  1.00  0.00     0.031 C 
ATOM     22  C   UNL A   1      40.442  25.559  28.201  1.00  0.00     0.029 A 
ATOM     23  C   UNL A   1      41.788  25.870  28.661  1.00  0.00     0.049 A 
ATOM     24  H   UNL A   1      42.464  27.642  29.527  1.00  0.00     0.167 HD
ATOM     25  C   UNL A   1      43.766  31.547  31.055  1.00  0.00     0.031 A 
ATOM     26  C   UNL A   1      42.839  25.034  28.585  1.00  0.00     0.031 A 
ATOM     27  C   UNL A   1      44.921  30.689  31.112  1.00  0.00     0.049 A 
ATOM     28  C   UNL A   1      44.177  25.515  29.059  1.00  0.00     0.074 A 
ATOM     29  C   UNL A   1      46.176  30.970  31.624  1.00  0.00     0.029 A 
ATOM     30  N   UNL A   1      44.970  29.392  30.625  1.00  0.00    -0.354 N 
ATOM     31  N   UNL A   1      44.489  26.672  29.590  1.00  0.00    -0.248 NA
ATOM     32  C   UNL A   1      45.304  24.587  28.912  1.00  0.00     0.031 C 
ATOM     33  C   UNL A   1      46.999  29.863  31.395  1.00  0.00     0.029 A 
ATOM     34  C   UNL A   1      46.244  28.876  30.782  1.00  0.00     0.049 A 
ATOM     35  H   UNL A   1      44.210  28.909  30.226  1.00  0.00     0.167 HD
ATOM     36  C   UNL A   1      45.853  26.614  29.838  1.00  0.00     0.074 A 
ATOM     37  C   UNL A   1      46.298  25.297  29.428  1.00  0.00     0.031 C 
ATOM     38  C   UNL A   1      46.666  27.568  30.351  1.00  0.00     0.031 A 
BRANCH  25  39
ATOM     39  C   UNL A   1      43.936  32.976  31.498  1.00  0.00    -0.014 A 
ATOM     40  C   UNL A   1      44.312  33.981  30.592  1.00  0.00     0.010 A 
ATOM     41  C   UNL A   1      43.608  33.331  32.821  1.00  0.00     0.010 A 
ATOM     42  C   UNL A   1      44.367  35.318  31.003  1.00  0.00     0.020 A 
ATOM     43  C   UNL A   1      43.645  34.667  33.231  1.00  0.00     0.020 A 
ATOM     44  C   UNL A   1      44.031  35.652  32.320  1.00  0.00     0.054 A 
BRANCH  44  45
ATOM     45  S   UNL A   1      44.049  37.399  32.808  1.00  0.00     0.124 S 
ATOM     46  O   UNL A   1      43.828  38.071  31.531  1.00  0.00    -0.237 OA
ATOM     47  O   UNL A   1      42.941  37.479  33.758  1.00  0.00    -0.237 OA
ATOM     48  O   UNL A   1      45.376  37.584  33.389  1.00  0.00    -0.744 OA
ENDBRANCH  44  45
ENDBRANCH  25  39
BRANCH  26  49
ATOM     49  C   UNL A   1      42.668  23.691  27.973  1.00  0.00    -0.014 A 
ATOM     50  C   UNL A   1      42.295  22.586  28.756  1.00  0.00     0.010 A 
ATOM     51  C   UNL A   1      42.855  23.521  26.588  1.00  0.00     0.010 A 
ATOM     52  C   UNL A   1      42.131  21.329  28.166  1.00  0.00     0.020 A 
ATOM     53  C   UNL A   1      42.664  22.274  25.992  1.00  0.00     0.020 A 
ATOM     54  C   UNL A   1      42.318  21.181  26.788  1.00  0.00     0.054 A 
BRANCH  54  55
ATOM     55  S   UNL A   1      42.058  19.554  26.032  1.00  0.00     0.124 S 
ATOM     56  O   UNL A   1      42.550  18.656  27.072  1.00  0.00    -0.237 OA
ATOM     57  O   UNL A   1      40.615  19.532  25.806  1.00  0.00    -0.237 OA
ATOM     58  O   UNL A   1      42.868  19.611  24.817  1.00  0.00    -0.744 OA
ENDBRANCH  54  55
ENDBRANCH  26  49
BRANCH  38  59
ATOM     59  C   UNL A   1      48.120  27.220  30.486  1.00  0.00    -0.014 A 
ATOM     60  C   UNL A   1      49.035  27.568  29.477  1.00  0.00     0.010 A 
ATOM     61  C   UNL A   1      48.583  26.585  31.652  1.00  0.00     0.010 A 
ATOM     62  C   UNL A   1      50.391  27.269  29.623  1.00  0.00     0.020 A 
ATOM     63  C   UNL A   1      49.943  26.305  31.811  1.00  0.00     0.020 A 
ATOM     64  C   UNL A   1      50.836  26.640  30.789  1.00  0.00     0.054 A 
BRANCH  64  65
ATOM     65  S   UNL A   1      52.608  26.310  30.982  1.00  0.00     0.124 S 
ATOM     66  O   UNL A   1      52.604  25.080  31.770  1.00  0.00    -0.237 OA
ATOM     67  O   UNL A   1      53.061  26.169  29.600  1.00  0.00    -0.237 OA
ATOM     68  O   UNL A   1      53.107  27.494  31.677  1.00  0.00    -0.744 OA
ENDBRANCH  64  65
ENDBRANCH  38  59
ENDBRANCH  12  13
ENDBRANCH   5   7
ENDBRANCH   2   3
ENDBRANCH   1   2
BRANCH   1  69
ATOM     69  C   UNL A   1      33.740  26.942  24.514  1.00  0.00     0.023 C 
BRANCH  69  70
ATOM     70  C   UNL A   1      32.656  26.161  23.771  1.00  0.00     0.116 C 
BRANCH  70  71
ATOM     71  N   UNL A   1      33.232  25.286  22.771  1.00  0.00    -0.355 N 
ATOM     72  C   UNL A   1      33.571  23.967  22.820  1.00  0.00     0.231 C 
ATOM     73  H   UNL A   1      33.409  25.719  21.905  1.00  0.00     0.163 HD
ATOM     74  O   UNL A   1      33.988  23.494  21.752  1.00  0.00    -0.274 OA
BRANCH  72  75
ATOM     75  C   UNL A   1      33.388  23.063  24.106  1.00  0.00     0.080 C 
ATOM     76  C   UNL A   1      32.672  21.735  23.741  1.00  0.00     0.022 C 
ATOM     77  C   UNL A   1      34.812  22.824  24.686  1.00  0.00    -0.029 A 
ATOM     78  C   UNL A   1      33.012  20.548  24.633  1.00  0.00     0.006 C 
ATOM     79  C   UNL A   1      35.311  21.531  24.947  1.00  0.00    -0.044 A 
ATOM     80  C   UNL A   1      35.664  23.926  24.917  1.00  0.00     0.005 A 
ATOM     81  C   UNL A   1      34.507  20.288  24.669  1.00  0.00     0.036 C 
ATOM     82  C   UNL A   1      36.637  21.372  25.389  1.00  0.00     0.004 A 
ATOM     83  C   UNL A   1      36.975  23.753  25.362  1.00  0.00     0.000 A 
ATOM     84  C   UNL A   1      37.462  22.474  25.595  1.00  0.00     0.000 A 
BRANCH  75  85
ATOM     85  C   UNL A   1      32.541  23.906  25.158  1.00  0.00     0.038 C 
ATOM     86  C   UNL A   1      32.802  23.631  26.650  1.00  0.00     0.008 C 
ATOM     87  C   UNL A   1      30.995  23.854  25.090  1.00  0.00     0.119 C 
ATOM     88  C   UNL A   1      31.643  22.786  27.175  1.00  0.00     0.003 C 
ATOM     89  C   UNL A   1      30.539  22.845  26.134  1.00  0.00     0.032 C 
BRANCH  87  90
ATOM     90  O   UNL A   1      30.444  23.515  23.836  1.00  0.00    -0.393 OA
ATOM     91  H   UNL A   1      30.500  24.278  23.241  1.00  0.00     0.210 HD
ENDBRANCH  87  90
ENDBRANCH  75  85
ENDBRANCH  72  75
ENDBRANCH  70  71
ENDBRANCH  69  70
ENDBRANCH   1  69
TORSDOF 16
ENDMDL
MODEL 3
REMARK VINA RESULT:     -10.8      2.596      8.282
REMARK SMILES O=C(NCCCCNC(=O)[C@@]1([C@@H]2CCC[C@@H]2O)CCCc2ccccc21)c1ccc(-c2c3nc(c(-c4ccc(S(=O)(=O)[O-])cc4)c4ccc([nH]4)c(-c4ccc(S(=O)(=O)[O-])cc4)c4nc(c(-c5ccc(S(=O)(=O)[O-])cc5)c5ccc2[nH]5)C=C4)C=C3)cc1
REMARK SMILES IDX 5 1 4 2 3 3 1 4 2 5 27 7 28 8 86 9 29 10 85 11 30 12 31 13
REMARK SMILES IDX 32 14 79 15 33 16 84 17 78 18 80 19 34 20 83 21 77 22 76 23
REMARK SMILES IDX 35 25 65 26 46 27 64 28 47 29 50 30 63 31 81 32 48 33 49 34
REMARK SMILES IDX 62 36 82 37 51 38 36 39 37 40 45 41 38 42 44 43 39 44 40 45
REMARK SMILES IDX 41 46 42 47 43 48 66 49 67 50 75 51 68 52 74 53 69 54 70 55
REMARK SMILES IDX 71 56 72 57 73 58 52 59 53 60 61 61 54 62 60 63 55 64 56 65
REMARK SMILES IDX 57 66 58 67 59 68 6 69 7 70 8 71 9 72 10 74 11 75 18 76
REMARK SMILES IDX 26 77 19 78 21 79 25 80 20 81 22 82 24 83 23 84 12 85 13 86
REMARK SMILES IDX 16 87 14 88 15 89 17 90
REMARK H PARENT 3 6 80 24 50 35 8 73 17 91
REMARK Flexibility Score: inf
ROOT
ATOM      1  C   UNL A   1      35.241  23.650  25.416  1.00  0.00     0.023 C 
ENDROOT
BRANCH   1   2
ATOM      2  C   UNL A   1      36.551  23.968  26.116  1.00  0.00     0.116 C 
BRANCH   2   3
ATOM      3  N   UNL A   1      37.537  22.905  25.987  1.00  0.00    -0.352 N 
ATOM      4  O   UNL A   1      39.624  22.034  26.016  1.00  0.00    -0.269 OA
ATOM      5  C   UNL A   1      38.874  22.965  26.289  1.00  0.00     0.251 C 
ATOM      6  H   UNL A   1      37.206  22.043  25.642  1.00  0.00     0.163 HD
BRANCH   5   7
ATOM      7  C   UNL A   1      39.388  24.191  26.926  1.00  0.00     0.039 A 
ATOM      8  C   UNL A   1      39.124  24.432  28.278  1.00  0.00     0.014 A 
ATOM      9  C   UNL A   1      40.086  25.121  26.154  1.00  0.00     0.014 A 
ATOM     10  C   UNL A   1      39.469  25.654  28.835  1.00  0.00     0.010 A 
ATOM     11  C   UNL A   1      40.500  26.318  26.738  1.00  0.00     0.010 A 
ATOM     12  C   UNL A   1      40.186  26.594  28.078  1.00  0.00    -0.014 A 
BRANCH  12  13
ATOM     13  C   UNL A   1      40.724  27.799  28.748  1.00  0.00     0.031 A 
ATOM     14  C   UNL A   1      42.116  27.830  29.306  1.00  0.00     0.074 A 
ATOM     15  C   UNL A   1      39.908  28.865  28.856  1.00  0.00     0.049 A 
ATOM     16  N   UNL A   1      42.710  28.798  29.956  1.00  0.00    -0.248 NA
ATOM     17  C   UNL A   1      42.946  26.630  29.124  1.00  0.00     0.031 C 
ATOM     18  C   UNL A   1      38.528  28.924  28.358  1.00  0.00     0.029 A 
ATOM     19  N   UNL A   1      40.110  30.099  29.413  1.00  0.00    -0.354 N 
ATOM     20  C   UNL A   1      43.971  28.317  30.286  1.00  0.00     0.074 A 
ATOM     21  C   UNL A   1      44.059  26.969  29.767  1.00  0.00     0.031 C 
ATOM     22  C   UNL A   1      38.017  30.135  28.615  1.00  0.00     0.029 A 
ATOM     23  C   UNL A   1      39.004  30.913  29.352  1.00  0.00     0.049 A 
ATOM     24  H   UNL A   1      40.964  30.376  29.819  1.00  0.00     0.167 HD
ATOM     25  C   UNL A   1      44.955  28.949  30.966  1.00  0.00     0.031 A 
ATOM     26  C   UNL A   1      38.788  32.136  29.868  1.00  0.00     0.031 A 
ATOM     27  C   UNL A   1      44.853  30.298  31.463  1.00  0.00     0.049 A 
ATOM     28  C   UNL A   1      39.889  32.794  30.643  1.00  0.00     0.074 A 
ATOM     29  C   UNL A   1      45.824  31.056  32.093  1.00  0.00     0.029 A 
ATOM     30  N   UNL A   1      43.710  31.081  31.403  1.00  0.00    -0.354 N 
ATOM     31  N   UNL A   1      41.100  32.351  30.881  1.00  0.00    -0.248 NA
ATOM     32  C   UNL A   1      39.594  34.106  31.229  1.00  0.00     0.031 C 
ATOM     33  C   UNL A   1      45.252  32.277  32.464  1.00  0.00     0.029 A 
ATOM     34  C   UNL A   1      43.937  32.295  32.025  1.00  0.00     0.049 A 
ATOM     35  H   UNL A   1      42.863  30.811  30.980  1.00  0.00     0.167 HD
ATOM     36  C   UNL A   1      41.712  33.331  31.651  1.00  0.00     0.074 A 
ATOM     37  C   UNL A   1      40.749  34.401  31.811  1.00  0.00     0.031 C 
ATOM     38  C   UNL A   1      42.957  33.338  32.185  1.00  0.00     0.031 A 
BRANCH  25  39
ATOM     39  C   UNL A   1      46.228  28.196  31.248  1.00  0.00    -0.014 A 
ATOM     40  C   UNL A   1      47.320  28.253  30.366  1.00  0.00     0.010 A 
ATOM     41  C   UNL A   1      46.366  27.509  32.468  1.00  0.00     0.010 A 
ATOM     42  C   UNL A   1      48.527  27.627  30.696  1.00  0.00     0.020 A 
ATOM     43  C   UNL A   1      47.575  26.896  32.809  1.00  0.00     0.020 A 
ATOM     44  C   UNL A   1      48.647  26.954  31.917  1.00  0.00     0.054 A 
BRANCH  44  45
ATOM     45  S   UNL A   1      50.243  26.206  32.348  1.00  0.00     0.124 S 
ATOM     46  O   UNL A   1      50.088  24.848  31.832  1.00  0.00    -0.237 OA
ATOM     47  O   UNL A   1      51.197  27.045  31.625  1.00  0.00    -0.237 OA
ATOM     48  O   UNL A   1      50.299  26.318  33.803  1.00  0.00    -0.744 OA
ENDBRANCH  44  45
ENDBRANCH  25  39
BRANCH  26  49
ATOM     49  C   UNL A   1      37.454  32.773  29.722  1.00  0.00    -0.014 A 
ATOM     50  C   UNL A   1      36.484  32.650  30.730  1.00  0.00     0.010 A 
ATOM     51  C   UNL A   1      37.160  33.531  28.573  1.00  0.00     0.010 A 
ATOM     52  C   UNL A   1      35.235  33.261  30.583  1.00  0.00     0.020 A 
ATOM     53  C   UNL A   1      35.924  34.165  28.435  1.00  0.00     0.020 A 
ATOM     54  C   UNL A   1      34.963  34.013  29.436  1.00  0.00     0.054 A 
BRANCH  54  55
ATOM     55  S   UNL A   1      33.354  34.834  29.280  1.00  0.00     0.124 S 
ATOM     56  O   UNL A   1      32.852  34.775  30.649  1.00  0.00    -0.237 OA
ATOM     57  O   UNL A   1      33.717  36.163  28.794  1.00  0.00    -0.237 OA
ATOM     58  O   UNL A   1      32.640  34.002  28.314  1.00  0.00    -0.744 OA
ENDBRANCH  54  55
ENDBRANCH  26  49
BRANCH  38  59
ATOM     59  C   UNL A   1      43.338  34.541  32.999  1.00  0.00    -0.014 A 
ATOM     60  C   UNL A   1      43.878  35.681  32.381  1.00  0.00     0.010 A 
ATOM     61  C   UNL A   1      43.109  34.548  34.386  1.00  0.00     0.010 A 
ATOM     62  C   UNL A   1      44.201  36.807  33.140  1.00  0.00     0.020 A 
ATOM     63  C   UNL A   1      43.409  35.681  35.146  1.00  0.00     0.020 A 
ATOM     64  C   UNL A   1      43.965  36.800  34.518  1.00  0.00     0.054 A 
BRANCH  64  65
ATOM     65  S   UNL A   1      44.341  38.292  35.476  1.00  0.00     0.124 S 
ATOM     66  O   UNL A   1      43.730  39.338  34.660  1.00  0.00    -0.237 OA
ATOM     67  O   UNL A   1      43.683  38.028  36.754  1.00  0.00    -0.237 OA
ATOM     68  O   UNL A   1      45.801  38.313  35.526  1.00  0.00    -0.744 OA
ENDBRANCH  64  65
ENDBRANCH  38  59
ENDBRANCH  12  13
ENDBRANCH   5   7
ENDBRANCH   2   3
ENDBRANCH   1   2
BRANCH   1  69
ATOM     69  C   UNL A   1      34.006  23.780  26.301  1.00  0.00     0.023 C 
BRANCH  69  70
ATOM     70  C   UNL A   1      32.680  23.615  25.559  1.00  0.00     0.116 C 
BRANCH  70  71
ATOM     71  N   UNL A   1      31.609  24.317  26.235  1.00  0.00    -0.355 N 
ATOM     72  C   UNL A   1      31.022  25.520  25.979  1.00  0.00     0.231 C 
ATOM     73  H   UNL A   1      31.241  23.844  27.015  1.00  0.00     0.163 HD
ATOM     74  O   UNL A   1      30.071  25.807  26.722  1.00  0.00    -0.274 OA
BRANCH  72  75
ATOM     75  C   UNL A   1      31.449  26.467  24.784  1.00  0.00     0.080 C 
ATOM     76  C   UNL A   1      30.200  26.955  24.002  1.00  0.00     0.022 C 
ATOM     77  C   UNL A   1      32.246  27.644  25.415  1.00  0.00    -0.029 A 
ATOM     78  C   UNL A   1      30.349  28.310  23.322  1.00  0.00     0.006 C 
ATOM     79  C   UNL A   1      31.908  28.993  25.180  1.00  0.00    -0.044 A 
ATOM     80  C   UNL A   1      33.315  27.369  26.296  1.00  0.00     0.005 A 
ATOM     81  C   UNL A   1      30.742  29.390  24.313  1.00  0.00     0.036 C 
ATOM     82  C   UNL A   1      32.610  30.014  25.846  1.00  0.00     0.004 A 
ATOM     83  C   UNL A   1      34.006  28.393  26.945  1.00  0.00     0.000 A 
ATOM     84  C   UNL A   1      33.651  29.716  26.722  1.00  0.00     0.000 A 
BRANCH  75  85
ATOM     85  C   UNL A   1      32.426  25.630  23.847  1.00  0.00     0.038 C 
ATOM     86  C   UNL A   1      33.581  26.396  23.176  1.00  0.00     0.008 C 
ATOM     87  C   UNL A   1      31.831  24.842  22.654  1.00  0.00     0.119 C 
ATOM     88  C   UNL A   1      33.203  26.613  21.712  1.00  0.00     0.003 C 
ATOM     89  C   UNL A   1      32.025  25.702  21.414  1.00  0.00     0.032 C 
BRANCH  87  90
ATOM     90  O   UNL A   1      30.471  24.484  22.769  1.00  0.00    -0.393 OA
ATOM     91  H   UNL A   1      30.277  24.243  23.689  1.00  0.00     0.210 HD
ENDBRANCH  87  90
ENDBRANCH  75  85
ENDBRANCH  72  75
ENDBRANCH  70  71
ENDBRANCH  69  70
ENDBRANCH   1  69
TORSDOF 16
ENDMDL
