MODEL 1
REMARK VINA RESULT:     -11.2      0.000      0.000
REMARK SMILES CCN(Cc1ccccn1)c1nc(C)cc(C)c1C(=O)NCCCCNC(=O)c1ccc(-c2c3nc(c(-c4ccc(S(=O)(=O)[O-])cc4)c4ccc([nH]4)c(-c4ccc(S(=O)(=O)[O-])cc4)c4nc(c(-c5ccc(S(=O)(=O)[O-])cc5)c5ccc2[nH]5)C=C4)C=C3)cc1
REMARK SMILES IDX 23 1 22 2 21 3 19 4 20 5 18 7 11 8 12 9 13 10 16 11 14 12
REMARK SMILES IDX 15 13 17 14 3 15 2 16 1 17 4 18 5 19 6 20 10 21 7 22 9 23
REMARK SMILES IDX 8 24 24 25 25 26 26 27 27 28 28 30 29 31 30 32 88 33 31 34
REMARK SMILES IDX 87 35 32 36 33 37 34 38 81 39 35 40 86 41 80 42 82 43 36 44
REMARK SMILES IDX 85 45 79 46 78 47 37 49 67 50 48 51 66 52 49 53 52 54 65 55
REMARK SMILES IDX 83 56 50 57 51 58 64 60 84 61 53 62 38 63 39 64 47 65 40 66
REMARK SMILES IDX 46 67 41 68 42 69 43 70 44 71 45 72 68 73 69 74 77 75 70 76
REMARK SMILES IDX 76 77 71 78 72 79 73 80 74 81 75 82 54 83 55 84 63 85 56 86
REMARK SMILES IDX 62 87 57 88 58 89 59 90 60 91 61 92
REMARK H PARENT 21 6 26 29 82 48 52 59
REMARK Flexibility Score: inf
ROOT
ATOM      1  C   UNL A   1      33.428  29.867  26.334  1.00  0.00     0.023 C 
ENDROOT
BRANCH   1   2
ATOM      2  C   UNL A   1      33.360  28.375  26.636  1.00  0.00     0.116 C 
BRANCH   2   3
ATOM      3  N   UNL A   1      32.055  27.839  26.970  1.00  0.00    -0.352 N 
ATOM      4  C   UNL A   1      31.263  26.953  26.260  1.00  0.00     0.255 C 
ATOM      5  O   UNL A   1      30.334  26.400  26.850  1.00  0.00    -0.269 OA
ATOM      6  H   UNL A   1      31.678  28.151  27.824  1.00  0.00     0.163 HD
BRANCH   4   7
ATOM      7  C   UNL A   1      31.510  26.653  24.822  1.00  0.00     0.085 A 
ATOM      8  C   UNL A   1      32.328  25.556  24.478  1.00  0.00     0.142 A 
ATOM      9  N   UNL A   1      32.594  25.271  23.178  1.00  0.00    -0.235 NA
ATOM     10  C   UNL A   1      32.124  26.056  22.193  1.00  0.00     0.040 A 
ATOM     11  C   UNL A   1      31.073  27.514  23.788  1.00  0.00    -0.033 A 
ATOM     12  C   UNL A   1      32.579  25.725  20.806  1.00  0.00     0.067 C 
ATOM     13  C   UNL A   1      31.365  27.178  22.458  1.00  0.00     0.028 A 
ATOM     14  C   UNL A   1      30.336  28.803  24.004  1.00  0.00     0.045 C 
BRANCH   8  15
ATOM     15  N   UNL A   1      32.965  24.739  25.403  1.00  0.00    -0.350 N 
BRANCH  15  16
ATOM     16  C   UNL A   1      32.517  23.355  25.504  1.00  0.00     0.115 C 
ATOM     17  C   UNL A   1      32.257  22.986  26.958  1.00  0.00     0.027 C 
ENDBRANCH  15  16
BRANCH  15  18
ATOM     18  C   UNL A   1      34.399  24.999  25.631  1.00  0.00     0.174 C 
BRANCH  18  19
ATOM     19  C   UNL A   1      35.363  23.914  25.144  1.00  0.00     0.060 A 
ATOM     20  C   UNL A   1      35.618  23.787  23.774  1.00  0.00     0.026 A 
ATOM     21  N   UNL A   1      35.937  23.087  26.061  1.00  0.00    -0.259 NA
ATOM     22  C   UNL A   1      36.440  22.757  23.325  1.00  0.00     0.004 A 
ATOM     23  C   UNL A   1      36.711  22.083  25.589  1.00  0.00     0.111 A 
ATOM     24  C   UNL A   1      36.988  21.877  24.248  1.00  0.00     0.020 A 
ENDBRANCH  18  19
ENDBRANCH  15  18
ENDBRANCH   8  15
ENDBRANCH   4   7
ENDBRANCH   2   3
ENDBRANCH   1   2
BRANCH   1  25
ATOM     25  C   UNL A   1      34.270  30.753  27.254  1.00  0.00     0.023 C 
BRANCH  25  26
ATOM     26  C   UNL A   1      35.531  30.158  27.875  1.00  0.00     0.116 C 
BRANCH  26  27
ATOM     27  N   UNL A   1      35.468  29.942  29.314  1.00  0.00    -0.352 N 
ATOM     28  C   UNL A   1      36.471  29.851  30.257  1.00  0.00     0.251 C 
ATOM     29  H   UNL A   1      34.556  29.846  29.674  1.00  0.00     0.163 HD
ATOM     30  O   UNL A   1      36.182  29.664  31.433  1.00  0.00    -0.269 OA
BRANCH  28  31
ATOM     31  C   UNL A   1      37.893  29.908  29.848  1.00  0.00     0.039 A 
ATOM     32  C   UNL A   1      38.871  29.953  30.846  1.00  0.00     0.014 A 
ATOM     33  C   UNL A   1      38.270  29.857  28.505  1.00  0.00     0.014 A 
ATOM     34  C   UNL A   1      40.217  29.796  30.506  1.00  0.00     0.010 A 
ATOM     35  C   UNL A   1      39.603  29.620  28.174  1.00  0.00     0.010 A 
ATOM     36  C   UNL A   1      40.584  29.546  29.174  1.00  0.00    -0.014 A 
BRANCH  36  37
ATOM     37  C   UNL A   1      41.960  29.108  28.817  1.00  0.00     0.031 A 
ATOM     38  C   UNL A   1      43.082  30.102  28.712  1.00  0.00     0.074 A 
ATOM     39  C   UNL A   1      42.171  27.821  28.469  1.00  0.00     0.049 A 
ATOM     40  N   UNL A   1      44.307  29.920  28.292  1.00  0.00    -0.248 NA
ATOM     41  C   UNL A   1      42.778  31.486  29.105  1.00  0.00     0.031 C 
ATOM     42  C   UNL A   1      41.155  26.765  28.470  1.00  0.00     0.029 A 
ATOM     43  N   UNL A   1      43.303  27.187  28.019  1.00  0.00    -0.354 N 
ATOM     44  C   UNL A   1      44.917  31.166  28.351  1.00  0.00     0.074 A 
ATOM     45  C   UNL A   1      43.912  32.104  28.806  1.00  0.00     0.031 C 
ATOM     46  C   UNL A   1      41.710  25.617  28.054  1.00  0.00     0.029 A 
ATOM     47  C   UNL A   1      43.106  25.861  27.710  1.00  0.00     0.049 A 
ATOM     48  H   UNL A   1      44.174  27.638  27.928  1.00  0.00     0.167 HD
ATOM     49  C   UNL A   1      46.200  31.499  28.068  1.00  0.00     0.031 A 
ATOM     50  C   UNL A   1      43.943  24.944  27.185  1.00  0.00     0.031 A 
ATOM     51  C   UNL A   1      47.197  30.568  27.612  1.00  0.00     0.049 A 
ATOM     52  C   UNL A   1      45.356  25.336  26.861  1.00  0.00     0.074 A 
ATOM     53  C   UNL A   1      48.538  30.798  27.357  1.00  0.00     0.029 A 
ATOM     54  N   UNL A   1      46.961  29.231  27.330  1.00  0.00    -0.354 N 
ATOM     55  N   UNL A   1      45.934  26.505  26.996  1.00  0.00    -0.248 NA
ATOM     56  C   UNL A   1      46.229  24.288  26.315  1.00  0.00     0.031 C 
ATOM     57  C   UNL A   1      49.102  29.611  26.876  1.00  0.00     0.029 A 
ATOM     58  C   UNL A   1      48.124  28.630  26.875  1.00  0.00     0.049 A 
ATOM     59  H   UNL A   1      46.095  28.776  27.437  1.00  0.00     0.167 HD
ATOM     60  C   UNL A   1      47.241  26.333  26.558  1.00  0.00     0.074 A 
ATOM     61  C   UNL A   1      47.375  24.943  26.173  1.00  0.00     0.031 C 
ATOM     62  C   UNL A   1      48.239  27.248  26.479  1.00  0.00     0.031 A 
BRANCH  49  63
ATOM     63  C   UNL A   1      46.585  32.945  28.239  1.00  0.00    -0.014 A 
ATOM     64  C   UNL A   1      47.068  33.424  29.471  1.00  0.00     0.010 A 
ATOM     65  C   UNL A   1      46.463  33.837  27.158  1.00  0.00     0.010 A 
ATOM     66  C   UNL A   1      47.361  34.780  29.637  1.00  0.00     0.020 A 
ATOM     67  C   UNL A   1      46.783  35.189  27.312  1.00  0.00     0.020 A 
ATOM     68  C   UNL A   1      47.205  35.656  28.559  1.00  0.00     0.054 A 
BRANCH  68  69
ATOM     69  S   UNL A   1      47.575  37.415  28.807  1.00  0.00     0.124 S 
ATOM     70  O   UNL A   1      49.035  37.421  28.768  1.00  0.00    -0.237 OA
ATOM     71  O   UNL A   1      46.915  38.048  27.667  1.00  0.00    -0.237 OA
ATOM     72  O   UNL A   1      46.985  37.712  30.109  1.00  0.00    -0.744 OA
ENDBRANCH  68  69
ENDBRANCH  49  63
BRANCH  50  73
ATOM     73  C   UNL A   1      43.448  23.565  26.929  1.00  0.00    -0.014 A 
ATOM     74  C   UNL A   1      43.172  23.136  25.620  1.00  0.00     0.010 A 
ATOM     75  C   UNL A   1      43.304  22.654  27.994  1.00  0.00     0.010 A 
ATOM     76  C   UNL A   1      42.765  21.820  25.377  1.00  0.00     0.020 A 
ATOM     77  C   UNL A   1      42.920  21.332  27.752  1.00  0.00     0.020 A 
ATOM     78  C   UNL A   1      42.648  20.925  26.445  1.00  0.00     0.054 A 
BRANCH  78  79
ATOM     79  S   UNL A   1      42.208  19.199  26.096  1.00  0.00     0.124 S 
ATOM     80  O   UNL A   1      42.986  18.924  24.893  1.00  0.00    -0.237 OA
ATOM     81  O   UNL A   1      42.648  18.509  27.307  1.00  0.00    -0.237 OA
ATOM     82  O   UNL A   1      40.759  19.247  25.910  1.00  0.00    -0.744 OA
ENDBRANCH  78  79
ENDBRANCH  50  73
BRANCH  62  83
ATOM     83  C   UNL A   1      49.568  26.778  25.952  1.00  0.00    -0.014 A 
ATOM     84  C   UNL A   1      50.056  27.238  24.717  1.00  0.00     0.010 A 
ATOM     85  C   UNL A   1      50.368  25.924  26.733  1.00  0.00     0.010 A 
ATOM     86  C   UNL A   1      51.317  26.839  24.264  1.00  0.00     0.020 A 
ATOM     87  C   UNL A   1      51.638  25.541  26.294  1.00  0.00     0.020 A 
ATOM     88  C   UNL A   1      52.101  25.995  25.057  1.00  0.00     0.054 A 
BRANCH  88  89
ATOM     89  S   UNL A   1      53.760  25.546  24.476  1.00  0.00     0.124 S 
ATOM     90  O   UNL A   1      53.623  25.679  23.028  1.00  0.00    -0.237 OA
ATOM     91  O   UNL A   1      54.608  26.544  25.123  1.00  0.00    -0.237 OA
ATOM     92  O   UNL A   1      53.938  24.179  24.961  1.00  0.00    -0.744 OA
ENDBRANCH  88  89
ENDBRANCH  62  83
ENDBRANCH  36  37
ENDBRANCH  28  31
ENDBRANCH  26  27
ENDBRANCH  25  26
ENDBRANCH   1  25
TORSDOF 18
ENDMDL
MODEL 2
REMARK VINA RESULT:     -11.0      2.635      8.602
REMARK SMILES CCN(Cc1ccccn1)c1nc(C)cc(C)c1C(=O)NCCCCNC(=O)c1ccc(-c2c3nc(c(-c4ccc(S(=O)(=O)[O-])cc4)c4ccc([nH]4)c(-c4ccc(S(=O)(=O)[O-])cc4)c4nc(c(-c5ccc(S(=O)(=O)[O-])cc5)c5ccc2[nH]5)C=C4)C=C3)cc1
REMARK SMILES IDX 23 1 22 2 21 3 19 4 20 5 18 7 11 8 12 9 13 10 16 11 14 12
REMARK SMILES IDX 15 13 17 14 3 15 2 16 1 17 4 18 5 19 6 20 10 21 7 22 9 23
REMARK SMILES IDX 8 24 24 25 25 26 26 27 27 28 28 30 29 31 30 32 88 33 31 34
REMARK SMILES IDX 87 35 32 36 33 37 34 38 81 39 35 40 86 41 80 42 82 43 36 44
REMARK SMILES IDX 85 45 79 46 78 47 37 49 67 50 48 51 66 52 49 53 52 54 65 55
REMARK SMILES IDX 83 56 50 57 51 58 64 60 84 61 53 62 38 63 39 64 47 65 40 66
REMARK SMILES IDX 46 67 41 68 42 69 43 70 44 71 45 72 68 73 69 74 77 75 70 76
REMARK SMILES IDX 76 77 71 78 72 79 73 80 74 81 75 82 54 83 55 84 63 85 56 86
REMARK SMILES IDX 62 87 57 88 58 89 59 90 60 91 61 92
REMARK H PARENT 21 6 26 29 82 48 52 59
REMARK Flexibility Score: inf
ROOT
ATOM      1  C   UNL A   1      37.417  23.249  24.692  1.00  0.00     0.023 C 
ENDROOT
BRANCH   1   2
ATOM      2  C   UNL A   1      35.939  23.606  24.576  1.00  0.00     0.116 C 
BRANCH   2   3
ATOM      3  N   UNL A   1      35.310  23.354  23.295  1.00  0.00    -0.352 N 
ATOM      4  C   UNL A   1      33.966  23.359  22.963  1.00  0.00     0.255 C 
ATOM      5  O   UNL A   1      33.660  23.414  21.771  1.00  0.00    -0.269 OA
ATOM      6  H   UNL A   1      35.926  23.150  22.556  1.00  0.00     0.163 HD
BRANCH   4   7
ATOM      7  C   UNL A   1      32.897  23.306  23.999  1.00  0.00     0.085 A 
ATOM      8  C   UNL A   1      32.612  22.079  24.634  1.00  0.00     0.142 A 
ATOM      9  N   UNL A   1      31.628  21.991  25.563  1.00  0.00    -0.235 NA
ATOM     10  C   UNL A   1      30.869  23.060  25.863  1.00  0.00     0.040 A 
ATOM     11  C   UNL A   1      32.055  24.410  24.268  1.00  0.00    -0.033 A 
ATOM     12  C   UNL A   1      29.733  22.824  26.807  1.00  0.00     0.067 C 
ATOM     13  C   UNL A   1      31.052  24.278  25.240  1.00  0.00     0.028 A 
ATOM     14  C   UNL A   1      32.124  25.731  23.558  1.00  0.00     0.045 C 
BRANCH   8  15
ATOM     15  N   UNL A   1      33.245  20.880  24.330  1.00  0.00    -0.350 N 
BRANCH  15  16
ATOM     16  C   UNL A   1      34.368  20.477  25.168  1.00  0.00     0.115 C 
ATOM     17  C   UNL A   1      34.224  21.062  26.567  1.00  0.00     0.027 C 
ENDBRANCH  15  16
BRANCH  15  18
ATOM     18  C   UNL A   1      32.392  19.805  23.790  1.00  0.00     0.174 C 
BRANCH  18  19
ATOM     19  C   UNL A   1      32.749  18.382  24.227  1.00  0.00     0.060 A 
ATOM     20  C   UNL A   1      33.468  17.556  23.357  1.00  0.00     0.026 A 
ATOM     21  N   UNL A   1      32.341  17.951  25.453  1.00  0.00    -0.259 NA
ATOM     22  C   UNL A   1      33.732  16.240  23.725  1.00  0.00     0.004 A 
ATOM     23  C   UNL A   1      32.594  16.661  25.770  1.00  0.00     0.111 A 
ATOM     24  C   UNL A   1      33.275  15.776  24.951  1.00  0.00     0.020 A 
ENDBRANCH  18  19
ENDBRANCH  15  18
ENDBRANCH   8  15
ENDBRANCH   4   7
ENDBRANCH   2   3
ENDBRANCH   1   2
BRANCH   1  25
ATOM     25  C   UNL A   1      37.786  21.827  25.118  1.00  0.00     0.023 C 
BRANCH  25  26
ATOM     26  C   UNL A   1      38.887  21.647  26.160  1.00  0.00     0.116 C 
BRANCH  26  27
ATOM     27  N   UNL A   1      39.660  20.420  26.036  1.00  0.00    -0.352 N 
ATOM     28  C   UNL A   1      41.015  20.191  26.161  1.00  0.00     0.251 C 
ATOM     29  H   UNL A   1      39.127  19.619  25.829  1.00  0.00     0.163 HD
ATOM     30  O   UNL A   1      41.455  19.057  26.013  1.00  0.00    -0.269 OA
BRANCH  28  31
ATOM     31  C   UNL A   1      41.947  21.316  26.403  1.00  0.00     0.039 A 
ATOM     32  C   UNL A   1      42.429  22.029  25.300  1.00  0.00     0.014 A 
ATOM     33  C   UNL A   1      42.300  21.710  27.695  1.00  0.00     0.014 A 
ATOM     34  C   UNL A   1      43.137  23.218  25.498  1.00  0.00     0.010 A 
ATOM     35  C   UNL A   1      42.934  22.935  27.892  1.00  0.00     0.010 A 
ATOM     36  C   UNL A   1      43.323  23.721  26.796  1.00  0.00    -0.014 A 
BRANCH  36  37
ATOM     37  C   UNL A   1      43.825  25.101  27.029  1.00  0.00     0.031 A 
ATOM     38  C   UNL A   1      45.270  25.443  26.806  1.00  0.00     0.074 A 
ATOM     39  C   UNL A   1      42.994  26.022  27.562  1.00  0.00     0.049 A 
ATOM     40  N   UNL A   1      45.906  26.554  27.077  1.00  0.00    -0.248 NA
ATOM     41  C   UNL A   1      46.117  24.389  26.226  1.00  0.00     0.031 C 
ATOM     42  C   UNL A   1      41.581  25.804  27.883  1.00  0.00     0.029 A 
ATOM     43  N   UNL A   1      43.224  27.319  27.953  1.00  0.00    -0.354 N 
ATOM     44  C   UNL A   1      47.230  26.329  26.720  1.00  0.00     0.074 A 
ATOM     45  C   UNL A   1      47.312  24.961  26.254  1.00  0.00     0.031 C 
ATOM     46  C   UNL A   1      41.069  26.927  28.410  1.00  0.00     0.029 A 
ATOM     47  C   UNL A   1      42.124  27.930  28.510  1.00  0.00     0.049 A 
ATOM     48  H   UNL A   1      44.092  27.770  27.843  1.00  0.00     0.167 HD
ATOM     49  C   UNL A   1      48.278  27.187  26.761  1.00  0.00     0.031 A 
ATOM     50  C   UNL A   1      41.979  29.149  29.064  1.00  0.00     0.031 A 
ATOM     51  C   UNL A   1      48.197  28.545  27.228  1.00  0.00     0.049 A 
ATOM     52  C   UNL A   1      43.156  30.080  29.117  1.00  0.00     0.074 A 
ATOM     53  C   UNL A   1      49.189  29.509  27.251  1.00  0.00     0.029 A 
ATOM     54  N   UNL A   1      47.060  29.130  27.766  1.00  0.00    -0.354 N 
ATOM     55  N   UNL A   1      44.383  29.873  28.703  1.00  0.00    -0.248 NA
ATOM     56  C   UNL A   1      42.931  31.405  29.709  1.00  0.00     0.031 C 
ATOM     57  C   UNL A   1      48.666  30.663  27.847  1.00  0.00     0.029 A 
ATOM     58  C   UNL A   1      47.334  30.432  28.152  1.00  0.00     0.049 A 
ATOM     59  H   UNL A   1      46.187  28.686  27.860  1.00  0.00     0.167 HD
ATOM     60  C   UNL A   1      45.077  31.045  28.979  1.00  0.00     0.074 A 
ATOM     61  C   UNL A   1      44.128  31.964  29.575  1.00  0.00     0.031 C 
ATOM     62  C   UNL A   1      46.384  31.331  28.761  1.00  0.00     0.031 A 
BRANCH  49  63
ATOM     63  C   UNL A   1      49.610  26.663  26.292  1.00  0.00    -0.014 A 
ATOM     64  C   UNL A   1      50.443  25.929  27.157  1.00  0.00     0.010 A 
ATOM     65  C   UNL A   1      50.036  26.905  24.974  1.00  0.00     0.010 A 
ATOM     66  C   UNL A   1      51.704  25.502  26.732  1.00  0.00     0.020 A 
ATOM     67  C   UNL A   1      51.285  26.455  24.536  1.00  0.00     0.020 A 
ATOM     68  C   UNL A   1      52.122  25.779  25.427  1.00  0.00     0.054 A 
BRANCH  68  69
ATOM     69  S   UNL A   1      53.771  25.230  24.907  1.00  0.00     0.124 S 
ATOM     70  O   UNL A   1      53.904  25.880  23.605  1.00  0.00    -0.237 OA
ATOM     71  O   UNL A   1      54.634  25.757  25.962  1.00  0.00    -0.237 OA
ATOM     72  O   UNL A   1      53.655  23.775  24.869  1.00  0.00    -0.744 OA
ENDBRANCH  68  69
ENDBRANCH  49  63
BRANCH  50  73
ATOM     73  C   UNL A   1      40.657  29.547  29.619  1.00  0.00    -0.014 A 
ATOM     74  C   UNL A   1      40.443  29.570  31.007  1.00  0.00     0.010 A 
ATOM     75  C   UNL A   1      39.621  29.960  28.759  1.00  0.00     0.010 A 
ATOM     76  C   UNL A   1      39.219  30.001  31.528  1.00  0.00     0.020 A 
ATOM     77  C   UNL A   1      38.405  30.415  29.277  1.00  0.00     0.020 A 
ATOM     78  C   UNL A   1      38.210  30.428  30.659  1.00  0.00     0.054 A 
BRANCH  78  79
ATOM     79  S   UNL A   1      36.664  31.072  31.360  1.00  0.00     0.124 S 
ATOM     80  O   UNL A   1      37.137  32.203  32.150  1.00  0.00    -0.237 OA
ATOM     81  O   UNL A   1      35.892  31.411  30.166  1.00  0.00    -0.237 OA
ATOM     82  O   UNL A   1      36.142  29.943  32.127  1.00  0.00    -0.744 OA
ENDBRANCH  78  79
ENDBRANCH  50  73
BRANCH  62  83
ATOM     83  C   UNL A   1      46.872  32.694  29.171  1.00  0.00    -0.014 A 
ATOM     84  C   UNL A   1      47.439  32.904  30.440  1.00  0.00     0.010 A 
ATOM     85  C   UNL A   1      46.829  33.759  28.252  1.00  0.00     0.010 A 
ATOM     86  C   UNL A   1      47.940  34.160  30.790  1.00  0.00     0.020 A 
ATOM     87  C   UNL A   1      47.349  35.010  28.591  1.00  0.00     0.020 A 
ATOM     88  C   UNL A   1      47.895  35.205  29.862  1.00  0.00     0.054 A 
BRANCH  88  89
ATOM     89  S   UNL A   1      48.613  36.808  30.316  1.00  0.00     0.124 S 
ATOM     90  O   UNL A   1      49.882  36.790  29.594  1.00  0.00    -0.237 OA
ATOM     91  O   UNL A   1      47.620  37.757  29.820  1.00  0.00    -0.237 OA
ATOM     92  O   UNL A   1      48.724  36.738  31.772  1.00  0.00    -0.744 OA
ENDBRANCH  88  89
ENDBRANCH  62  83
ENDBRANCH  36  37
ENDBRANCH  28  31
ENDBRANCH  26  27
ENDBRANCH  25  26
ENDBRANCH   1  25
TORSDOF 18
ENDMDL
MODEL 3
REMARK VINA RESULT:     -10.8      5.935      8.491
REMARK SMILES CCN(Cc1ccccn1)c1nc(C)cc(C)c1C(=O)NCCCCNC(=O)c1ccc(-c2c3nc(c(-c4ccc(S(=O)(=O)[O-])cc4)c4ccc([nH]4)c(-c4ccc(S(=O)(=O)[O-])cc4)c4nc(c(-c5ccc(S(=O)(=O)[O-])cc5)c5ccc2[nH]5)C=C4)C=C3)cc1
REMARK SMILES IDX 23 1 22 2 21 3 19 4 20 5 18 7 11 8 12 9 13 10 16 11 14 12
REMARK SMILES IDX 15 13 17 14 3 15 2 16 1 17 4 18 5 19 6 20 10 21 7 22 9 23
REMARK SMILES IDX 8 24 24 25 25 26 26 27 27 28 28 30 29 31 30 32 88 33 31 34
REMARK SMILES IDX 87 35 32 36 33 37 34 38 81 39 35 40 86 41 80 42 82 43 36 44
REMARK SMILES IDX 85 45 79 46 78 47 37 49 67 50 48 51 66 52 49 53 52 54 65 55
REMARK SMILES IDX 83 56 50 57 51 58 64 60 84 61 53 62 38 63 39 64 47 65 40 66
REMARK SMILES IDX 46 67 41 68 42 69 43 70 44 71 45 72 68 73 69 74 77 75 70 76
REMARK SMILES IDX 76 77 71 78 72 79 73 80 74 81 75 82 54 83 55 84 63 85 56 86
REMARK SMILES IDX 62 87 57 88 58 89 59 90 60 91 61 92
REMARK H PARENT 21 6 26 29 82 48 52 59
REMARK Flexibility Score: inf
ROOT
ATOM      1  C   UNL A   1      32.045  29.533  27.282  1.00  0.00     0.023 C 
ENDROOT
BRANCH   1   2
ATOM      2  C   UNL A   1      31.976  28.019  27.446  1.00  0.00     0.116 C 
BRANCH   2   3
ATOM      3  N   UNL A   1      30.835  27.353  26.853  1.00  0.00    -0.352 N 
ATOM      4  C   UNL A   1      30.781  26.160  26.152  1.00  0.00     0.255 C 
ATOM      5  O   UNL A   1      29.683  25.626  25.992  1.00  0.00    -0.269 OA
ATOM      6  H   UNL A   1      29.973  27.816  26.962  1.00  0.00     0.163 HD
BRANCH   4   7
ATOM      7  C   UNL A   1      32.006  25.513  25.603  1.00  0.00     0.085 A 
ATOM      8  C   UNL A   1      32.670  26.111  24.510  1.00  0.00     0.142 A 
ATOM      9  N   UNL A   1      33.772  25.534  23.970  1.00  0.00    -0.235 NA
ATOM     10  C   UNL A   1      34.227  24.355  24.431  1.00  0.00     0.040 A 
ATOM     11  C   UNL A   1      32.446  24.242  26.041  1.00  0.00    -0.033 A 
ATOM     12  C   UNL A   1      35.372  23.747  23.684  1.00  0.00     0.067 C 
ATOM     13  C   UNL A   1      33.594  23.685  25.458  1.00  0.00     0.028 A 
ATOM     14  C   UNL A   1      31.752  23.407  27.077  1.00  0.00     0.045 C 
BRANCH   8  15
ATOM     15  N   UNL A   1      32.234  27.264  23.871  1.00  0.00    -0.350 N 
BRANCH  15  16
ATOM     16  C   UNL A   1      33.149  28.399  23.828  1.00  0.00     0.115 C 
ATOM     17  C   UNL A   1      33.767  28.532  22.443  1.00  0.00     0.027 C 
ENDBRANCH  15  16
BRANCH  15  18
ATOM     18  C   UNL A   1      31.343  27.077  22.712  1.00  0.00     0.174 C 
BRANCH  18  19
ATOM     19  C   UNL A   1      30.129  28.006  22.642  1.00  0.00     0.060 A 
ATOM     20  C   UNL A   1      28.970  27.676  23.353  1.00  0.00     0.026 A 
ATOM     21  N   UNL A   1      30.204  29.128  21.873  1.00  0.00    -0.259 NA
ATOM     22  C   UNL A   1      27.842  28.484  23.234  1.00  0.00     0.004 A 
ATOM     23  C   UNL A   1      29.084  29.878  21.761  1.00  0.00     0.111 A 
ATOM     24  C   UNL A   1      27.893  29.601  22.412  1.00  0.00     0.020 A 
ENDBRANCH  18  19
ENDBRANCH  15  18
ENDBRANCH   8  15
ENDBRANCH   4   7
ENDBRANCH   2   3
ENDBRANCH   1   2
BRANCH   1  25
ATOM     25  C   UNL A   1      33.312  30.138  26.676  1.00  0.00     0.023 C 
BRANCH  25  26
ATOM     26  C   UNL A   1      34.079  31.176  27.491  1.00  0.00     0.116 C 
BRANCH  26  27
ATOM     27  N   UNL A   1      33.374  32.430  27.715  1.00  0.00    -0.352 N 
ATOM     28  C   UNL A   1      33.634  33.467  28.587  1.00  0.00     0.251 C 
ATOM     29  H   UNL A   1      32.578  32.560  27.150  1.00  0.00     0.163 HD
ATOM     30  O   UNL A   1      32.894  34.444  28.606  1.00  0.00    -0.269 OA
BRANCH  28  31
ATOM     31  C   UNL A   1      34.759  33.377  29.546  1.00  0.00     0.039 A 
ATOM     32  C   UNL A   1      34.596  32.587  30.689  1.00  0.00     0.014 A 
ATOM     33  C   UNL A   1      35.980  34.009  29.304  1.00  0.00     0.014 A 
ATOM     34  C   UNL A   1      35.698  32.310  31.504  1.00  0.00     0.010 A 
ATOM     35  C   UNL A   1      37.094  33.668  30.069  1.00  0.00     0.010 A 
ATOM     36  C   UNL A   1      36.972  32.784  31.152  1.00  0.00    -0.014 A 
BRANCH  36  37
ATOM     37  C   UNL A   1      38.199  32.291  31.833  1.00  0.00     0.031 A 
ATOM     38  C   UNL A   1      38.636  32.873  33.147  1.00  0.00     0.074 A 
ATOM     39  C   UNL A   1      38.987  31.396  31.202  1.00  0.00     0.049 A 
ATOM     40  N   UNL A   1      39.739  32.657  33.818  1.00  0.00    -0.248 NA
ATOM     41  C   UNL A   1      37.729  33.846  33.775  1.00  0.00     0.031 C 
ATOM     42  C   UNL A   1      38.709  30.794  29.895  1.00  0.00     0.029 A 
ATOM     43  N   UNL A   1      40.198  30.855  31.562  1.00  0.00    -0.354 N 
ATOM     44  C   UNL A   1      39.668  33.478  34.937  1.00  0.00     0.074 A 
ATOM     45  C   UNL A   1      38.434  34.228  34.829  1.00  0.00     0.031 C 
ATOM     46  C   UNL A   1      39.710  29.963  29.569  1.00  0.00     0.029 A 
ATOM     47  C   UNL A   1      40.724  30.006  30.617  1.00  0.00     0.049 A 
ATOM     48  H   UNL A   1      40.645  31.054  32.416  1.00  0.00     0.167 HD
ATOM     49  C   UNL A   1      40.541  33.586  35.967  1.00  0.00     0.031 A 
ATOM     50  C   UNL A   1      41.902  29.351  30.578  1.00  0.00     0.031 A 
ATOM     51  C   UNL A   1      41.769  32.844  36.071  1.00  0.00     0.049 A 
ATOM     52  C   UNL A   1      42.864  29.497  31.720  1.00  0.00     0.074 A 
ATOM     53  C   UNL A   1      42.689  32.840  37.105  1.00  0.00     0.029 A 
ATOM     54  N   UNL A   1      42.256  31.980  35.102  1.00  0.00    -0.354 N 
ATOM     55  N   UNL A   1      42.743  30.223  32.806  1.00  0.00    -0.248 NA
ATOM     56  C   UNL A   1      44.120  28.740  31.634  1.00  0.00     0.031 C 
ATOM     57  C   UNL A   1      43.756  32.011  36.740  1.00  0.00     0.029 A 
ATOM     58  C   UNL A   1      43.478  31.462  35.498  1.00  0.00     0.049 A 
ATOM     59  H   UNL A   1      41.801  31.767  34.255  1.00  0.00     0.167 HD
ATOM     60  C   UNL A   1      43.905  30.004  33.538  1.00  0.00     0.074 A 
ATOM     61  C   UNL A   1      44.706  29.064  32.780  1.00  0.00     0.031 C 
ATOM     62  C   UNL A   1      44.274  30.539  34.727  1.00  0.00     0.031 A 
BRANCH  49  63
ATOM     63  C   UNL A   1      40.191  34.561  37.061  1.00  0.00    -0.014 A 
ATOM     64  C   UNL A   1      40.688  35.878  37.042  1.00  0.00     0.010 A 
ATOM     65  C   UNL A   1      39.357  34.160  38.120  1.00  0.00     0.010 A 
ATOM     66  C   UNL A   1      40.410  36.754  38.093  1.00  0.00     0.020 A 
ATOM     67  C   UNL A   1      39.053  35.043  39.160  1.00  0.00     0.020 A 
ATOM     68  C   UNL A   1      39.604  36.327  39.153  1.00  0.00     0.054 A 
BRANCH  68  69
ATOM     69  S   UNL A   1      39.274  37.479  40.515  1.00  0.00     0.124 S 
ATOM     70  O   UNL A   1      40.565  38.146  40.660  1.00  0.00    -0.237 OA
ATOM     71  O   UNL A   1      38.196  38.309  39.981  1.00  0.00    -0.237 OA
ATOM     72  O   UNL A   1      38.894  36.606  41.622  1.00  0.00    -0.744 OA
ENDBRANCH  68  69
ENDBRANCH  49  63
BRANCH  50  73
ATOM     73  C   UNL A   1      42.227  28.502  29.400  1.00  0.00    -0.014 A 
ATOM     74  C   UNL A   1      41.933  27.129  29.406  1.00  0.00     0.010 A 
ATOM     75  C   UNL A   1      42.785  29.078  28.242  1.00  0.00     0.010 A 
ATOM     76  C   UNL A   1      42.186  26.345  28.276  1.00  0.00     0.020 A 
ATOM     77  C   UNL A   1      43.017  28.303  27.102  1.00  0.00     0.020 A 
ATOM     78  C   UNL A   1      42.719  26.940  27.128  1.00  0.00     0.054 A 
BRANCH  78  79
ATOM     79  S   UNL A   1      42.951  25.923  25.642  1.00  0.00     0.124 S 
ATOM     80  O   UNL A   1      44.374  25.611  25.707  1.00  0.00    -0.237 OA
ATOM     81  O   UNL A   1      42.044  24.803  25.880  1.00  0.00    -0.237 OA
ATOM     82  O   UNL A   1      42.553  26.815  24.554  1.00  0.00    -0.744 OA
ENDBRANCH  78  79
ENDBRANCH  50  73
BRANCH  62  83
ATOM     83  C   UNL A   1      45.607  30.124  35.289  1.00  0.00    -0.014 A 
ATOM     84  C   UNL A   1      45.726  28.972  36.085  1.00  0.00     0.010 A 
ATOM     85  C   UNL A   1      46.763  30.855  34.959  1.00  0.00     0.010 A 
ATOM     86  C   UNL A   1      46.978  28.565  36.555  1.00  0.00     0.020 A 
ATOM     87  C   UNL A   1      48.019  30.438  35.408  1.00  0.00     0.020 A 
ATOM     88  C   UNL A   1      48.117  29.299  36.211  1.00  0.00     0.054 A 
BRANCH  88  89
ATOM     89  S   UNL A   1      49.738  28.713  36.778  1.00  0.00     0.124 S 
ATOM     90  O   UNL A   1      50.586  29.875  36.530  1.00  0.00    -0.237 OA
ATOM     91  O   UNL A   1      49.493  28.401  38.184  1.00  0.00    -0.237 OA
ATOM     92  O   UNL A   1      50.004  27.555  35.927  1.00  0.00    -0.744 OA
ENDBRANCH  88  89
ENDBRANCH  62  83
ENDBRANCH  36  37
ENDBRANCH  28  31
ENDBRANCH  26  27
ENDBRANCH  25  26
ENDBRANCH   1  25
TORSDOF 18
ENDMDL
