MODEL 1
REMARK VINA RESULT:     -11.3      0.000      0.000
REMARK SMILES C[C@H](CNS(=O)(=O)c1ccc(C(=O)NCCCCNC(=O)c2ccc(-c3c4nc(c(-c5ccc(S(=O)(=O)[O-])cc5)c5ccc([nH]5)c(-c5ccc(S(=O)(=O)[O-])cc5)c5nc(c(-c6ccc(S(=O)(=O)[O-])cc6)c6ccc3[nH]6)C=C5)C=C4)cc2)o1)c1ccccc1
REMARK SMILES IDX 15 1 14 2 12 3 13 4 11 6 8 7 9 8 82 9 10 10 5 11 6 12 7 13
REMARK SMILES IDX 4 14 3 16 2 17 1 18 83 19 84 20 88 21 85 22 87 23 86 24
REMARK SMILES IDX 16 25 17 26 18 27 19 28 20 29 21 31 22 32 23 33 81 34 24 35
REMARK SMILES IDX 80 36 25 37 26 38 27 39 74 40 28 41 79 42 73 43 75 44 29 45
REMARK SMILES IDX 78 46 72 47 71 48 30 50 60 51 41 52 59 53 42 54 45 55 58 56
REMARK SMILES IDX 76 57 43 58 44 59 57 61 77 62 46 63 31 64 32 65 40 66 33 67
REMARK SMILES IDX 39 68 34 69 35 70 36 71 37 72 38 73 61 74 62 75 70 76 63 77
REMARK SMILES IDX 69 78 64 79 65 80 66 81 67 82 68 83 47 84 48 85 56 86 49 87
REMARK SMILES IDX 55 88 50 89 51 90 52 91 53 92 54 93
REMARK H PARENT 14 5 4 15 19 30 75 49 45 60
REMARK Flexibility Score: inf
ROOT
ATOM      1  C   UNL A   1      33.392  28.990  23.309  1.00  0.00     0.116 C 
ENDROOT
BRANCH   1   2
ATOM      2  N   UNL A   1      32.107  28.958  22.644  1.00  0.00    -0.349 N 
ATOM      3  C   UNL A   1      31.202  27.929  22.493  1.00  0.00     0.287 C 
ATOM      4  O   UNL A   1      30.107  28.239  22.017  1.00  0.00    -0.266 OA
ATOM      5  H   UNL A   1      31.835  29.810  22.233  1.00  0.00     0.163 HD
BRANCH   3   6
ATOM      6  C   UNL A   1      31.537  26.566  22.877  1.00  0.00     0.193 A 
ATOM      7  C   UNL A   1      31.635  24.879  24.354  1.00  0.00     0.234 A 
ATOM      8  C   UNL A   1      32.061  24.395  23.126  1.00  0.00     0.065 A 
ATOM      9  O   UNL A   1      31.320  26.211  24.189  1.00  0.00    -0.438 OA
ATOM     10  C   UNL A   1      32.005  25.456  22.200  1.00  0.00     0.058 A 
BRANCH   7  11
ATOM     11  S   UNL A   1      31.471  24.019  25.920  1.00  0.00     0.274 S 
ATOM     12  O   UNL A   1      30.494  22.977  25.671  1.00  0.00    -0.204 OA
ATOM     13  O   UNL A   1      31.277  25.010  26.947  1.00  0.00    -0.204 OA
BRANCH  11  14
ATOM     14  N   UNL A   1      32.931  23.218  26.264  1.00  0.00    -0.208 NA
ATOM     15  H   UNL A   1      33.657  23.625  25.674  1.00  0.00     0.141 HD
BRANCH  14  16
ATOM     16  C   UNL A   1      32.939  21.753  26.045  1.00  0.00     0.107 C 
BRANCH  16  17
ATOM     17  C   UNL A   1      34.063  21.266  25.103  1.00  0.00     0.031 C 
ATOM     18  C   UNL A   1      35.464  21.260  25.715  1.00  0.00     0.014 C 
BRANCH  17  19
ATOM     19  C   UNL A   1      33.741  19.930  24.449  1.00  0.00    -0.044 A 
ATOM     20  C   UNL A   1      34.584  18.816  24.567  1.00  0.00     0.004 A 
ATOM     21  C   UNL A   1      32.559  19.800  23.700  1.00  0.00     0.004 A 
ATOM     22  C   UNL A   1      34.248  17.606  23.955  1.00  0.00     0.000 A 
ATOM     23  C   UNL A   1      32.226  18.590  23.090  1.00  0.00     0.000 A 
ATOM     24  C   UNL A   1      33.072  17.492  23.217  1.00  0.00     0.000 A 
ENDBRANCH  17  19
ENDBRANCH  16  17
ENDBRANCH  14  16
ENDBRANCH  11  14
ENDBRANCH   7  11
ENDBRANCH   3   6
ENDBRANCH   1   2
BRANCH   1  25
ATOM     25  C   UNL A   1      33.257  29.268  24.808  1.00  0.00     0.023 C 
BRANCH  25  26
ATOM     26  C   UNL A   1      33.694  28.115  25.716  1.00  0.00     0.023 C 
BRANCH  26  27
ATOM     27  C   UNL A   1      33.569  28.377  27.214  1.00  0.00     0.116 C 
BRANCH  27  28
ATOM     28  N   UNL A   1      33.488  29.791  27.554  1.00  0.00    -0.352 N 
ATOM     29  C   UNL A   1      34.464  30.591  28.101  1.00  0.00     0.251 C 
ATOM     30  H   UNL A   1      32.626  30.229  27.370  1.00  0.00     0.163 HD
ATOM     31  O   UNL A   1      34.206  31.748  28.419  1.00  0.00    -0.269 OA
BRANCH  29  32
ATOM     32  C   UNL A   1      35.810  30.028  28.340  1.00  0.00     0.039 A 
ATOM     33  C   UNL A   1      36.750  30.069  27.307  1.00  0.00     0.014 A 
ATOM     34  C   UNL A   1      36.155  29.512  29.590  1.00  0.00     0.014 A 
ATOM     35  C   UNL A   1      38.062  29.658  27.555  1.00  0.00     0.010 A 
ATOM     36  C   UNL A   1      37.476  29.168  29.854  1.00  0.00     0.010 A 
ATOM     37  C   UNL A   1      38.444  29.241  28.840  1.00  0.00    -0.014 A 
BRANCH  37  38
ATOM     38  C   UNL A   1      39.855  28.894  29.149  1.00  0.00     0.031 A 
ATOM     39  C   UNL A   1      40.768  29.919  29.765  1.00  0.00     0.074 A 
ATOM     40  C   UNL A   1      40.332  27.681  28.808  1.00  0.00     0.049 A 
ATOM     41  N   UNL A   1      42.042  29.823  30.048  1.00  0.00    -0.248 NA
ATOM     42  C   UNL A   1      40.180  31.232  30.079  1.00  0.00     0.031 C 
ATOM     43  C   UNL A   1      39.561  26.616  28.160  1.00  0.00     0.029 A 
ATOM     44  N   UNL A   1      41.587  27.139  28.950  1.00  0.00    -0.354 N 
ATOM     45  C   UNL A   1      42.411  31.064  30.554  1.00  0.00     0.074 A 
ATOM     46  C   UNL A   1      41.239  31.910  30.495  1.00  0.00     0.031 C 
ATOM     47  C   UNL A   1      40.351  25.545  27.983  1.00  0.00     0.029 A 
ATOM     48  C   UNL A   1      41.693  25.856  28.467  1.00  0.00     0.049 A 
ATOM     49  H   UNL A   1      42.339  27.625  29.358  1.00  0.00     0.167 HD
ATOM     50  C   UNL A   1      43.612  31.458  31.042  1.00  0.00     0.031 A 
ATOM     51  C   UNL A   1      42.751  25.023  28.415  1.00  0.00     0.031 A 
ATOM     52  C   UNL A   1      44.770  30.608  31.113  1.00  0.00     0.049 A 
ATOM     53  C   UNL A   1      44.072  25.483  28.966  1.00  0.00     0.074 A 
ATOM     54  C   UNL A   1      46.014  30.895  31.649  1.00  0.00     0.029 A 
ATOM     55  N   UNL A   1      44.831  29.308  30.636  1.00  0.00    -0.354 N 
ATOM     56  N   UNL A   1      44.383  26.637  29.508  1.00  0.00    -0.248 NA
ATOM     57  C   UNL A   1      45.185  24.523  28.912  1.00  0.00     0.031 C 
ATOM     58  C   UNL A   1      46.841  29.784  31.450  1.00  0.00     0.029 A 
ATOM     59  C   UNL A   1      46.096  28.786  30.843  1.00  0.00     0.049 A 
ATOM     60  H   UNL A   1      44.084  28.827  30.211  1.00  0.00     0.167 HD
ATOM     61  C   UNL A   1      45.717  26.532  29.884  1.00  0.00     0.074 A 
ATOM     62  C   UNL A   1      46.150  25.197  29.520  1.00  0.00     0.031 C 
ATOM     63  C   UNL A   1      46.512  27.456  30.476  1.00  0.00     0.031 A 
BRANCH  50  64
ATOM     64  C   UNL A   1      43.731  32.875  31.535  1.00  0.00    -0.014 A 
ATOM     65  C   UNL A   1      43.641  33.179  32.905  1.00  0.00     0.010 A 
ATOM     66  C   UNL A   1      43.978  33.916  30.620  1.00  0.00     0.010 A 
ATOM     67  C   UNL A   1      43.752  34.498  33.348  1.00  0.00     0.020 A 
ATOM     68  C   UNL A   1      44.119  35.235  31.062  1.00  0.00     0.020 A 
ATOM     69  C   UNL A   1      43.987  35.519  32.422  1.00  0.00     0.054 A 
BRANCH  69  70
ATOM     70  S   UNL A   1      44.151  37.221  33.029  1.00  0.00     0.124 S 
ATOM     71  O   UNL A   1      45.343  37.127  33.867  1.00  0.00    -0.237 OA
ATOM     72  O   UNL A   1      44.311  37.987  31.795  1.00  0.00    -0.237 OA
ATOM     73  O   UNL A   1      42.901  37.455  33.747  1.00  0.00    -0.744 OA
ENDBRANCH  69  70
ENDBRANCH  50  64
BRANCH  51  74
ATOM     74  C   UNL A   1      42.599  23.663  27.829  1.00  0.00    -0.014 A 
ATOM     75  C   UNL A   1      42.105  22.603  28.609  1.00  0.00     0.010 A 
ATOM     76  C   UNL A   1      42.938  23.424  26.485  1.00  0.00     0.010 A 
ATOM     77  C   UNL A   1      41.970  21.323  28.061  1.00  0.00     0.020 A 
ATOM     78  C   UNL A   1      42.780  22.152  25.926  1.00  0.00     0.020 A 
ATOM     79  C   UNL A   1      42.308  21.106  26.722  1.00  0.00     0.054 A 
BRANCH  79  80
ATOM     80  S   UNL A   1      42.078  19.450  26.018  1.00  0.00     0.124 S 
ATOM     81  O   UNL A   1      42.600  18.595  27.079  1.00  0.00    -0.237 OA
ATOM     82  O   UNL A   1      40.633  19.392  25.811  1.00  0.00    -0.237 OA
ATOM     83  O   UNL A   1      42.874  19.486  24.794  1.00  0.00    -0.744 OA
ENDBRANCH  79  80
ENDBRANCH  51  74
BRANCH  63  84
ATOM     84  C   UNL A   1      47.924  27.050  30.805  1.00  0.00    -0.014 A 
ATOM     85  C   UNL A   1      48.990  27.357  29.942  1.00  0.00     0.010 A 
ATOM     86  C   UNL A   1      48.192  26.402  32.024  1.00  0.00     0.010 A 
ATOM     87  C   UNL A   1      50.297  26.995  30.280  1.00  0.00     0.020 A 
ATOM     88  C   UNL A   1      49.500  26.063  32.377  1.00  0.00     0.020 A 
ATOM     89  C   UNL A   1      50.544  26.350  31.496  1.00  0.00     0.054 A 
BRANCH  89  90
ATOM     90  S   UNL A   1      52.254  25.933  31.934  1.00  0.00     0.124 S 
ATOM     91  O   UNL A   1      52.105  24.592  32.492  1.00  0.00    -0.237 OA
ATOM     92  O   UNL A   1      52.941  26.004  30.647  1.00  0.00    -0.237 OA
ATOM     93  O   UNL A   1      52.629  26.969  32.892  1.00  0.00    -0.744 OA
ENDBRANCH  89  90
ENDBRANCH  63  84
ENDBRANCH  37  38
ENDBRANCH  29  32
ENDBRANCH  27  28
ENDBRANCH  26  27
ENDBRANCH  25  26
ENDBRANCH   1  25
TORSDOF 19
ENDMDL
MODEL 2
REMARK VINA RESULT:     -10.9      3.454      8.347
REMARK SMILES C[C@H](CNS(=O)(=O)c1ccc(C(=O)NCCCCNC(=O)c2ccc(-c3c4nc(c(-c5ccc(S(=O)(=O)[O-])cc5)c5ccc([nH]5)c(-c5ccc(S(=O)(=O)[O-])cc5)c5nc(c(-c6ccc(S(=O)(=O)[O-])cc6)c6ccc3[nH]6)C=C5)C=C4)cc2)o1)c1ccccc1
REMARK SMILES IDX 15 1 14 2 12 3 13 4 11 6 8 7 9 8 82 9 10 10 5 11 6 12 7 13
REMARK SMILES IDX 4 14 3 16 2 17 1 18 83 19 84 20 88 21 85 22 87 23 86 24
REMARK SMILES IDX 16 25 17 26 18 27 19 28 20 29 21 31 22 32 23 33 81 34 24 35
REMARK SMILES IDX 80 36 25 37 26 38 27 39 74 40 28 41 79 42 73 43 75 44 29 45
REMARK SMILES IDX 78 46 72 47 71 48 30 50 60 51 41 52 59 53 42 54 45 55 58 56
REMARK SMILES IDX 76 57 43 58 44 59 57 61 77 62 46 63 31 64 32 65 40 66 33 67
REMARK SMILES IDX 39 68 34 69 35 70 36 71 37 72 38 73 61 74 62 75 70 76 63 77
REMARK SMILES IDX 69 78 64 79 65 80 66 81 67 82 68 83 47 84 48 85 56 86 49 87
REMARK SMILES IDX 55 88 50 89 51 90 52 91 53 92 54 93
REMARK H PARENT 14 5 4 15 19 30 75 49 45 60
REMARK Flexibility Score: inf
ROOT
ATOM      1  C   UNL A   1      36.634  21.575  25.502  1.00  0.00     0.116 C 
ENDROOT
BRANCH   1   2
ATOM      2  N   UNL A   1      35.560  21.608  26.473  1.00  0.00    -0.349 N 
ATOM      3  C   UNL A   1      34.463  22.437  26.567  1.00  0.00     0.287 C 
ATOM      4  O   UNL A   1      33.621  22.124  27.412  1.00  0.00    -0.266 OA
ATOM      5  H   UNL A   1      35.623  20.927  27.180  1.00  0.00     0.163 HD
BRANCH   3   6
ATOM      6  C   UNL A   1      34.325  23.608  25.714  1.00  0.00     0.193 A 
ATOM      7  C   UNL A   1      33.720  24.623  23.806  1.00  0.00     0.234 A 
ATOM      8  C   UNL A   1      34.148  25.601  24.691  1.00  0.00     0.065 A 
ATOM      9  O   UNL A   1      33.837  23.407  24.443  1.00  0.00    -0.438 OA
ATOM     10  C   UNL A   1      34.534  24.963  25.887  1.00  0.00     0.058 A 
BRANCH   7  11
ATOM     11  S   UNL A   1      33.097  24.799  22.133  1.00  0.00     0.274 S 
ATOM     12  O   UNL A   1      33.470  23.567  21.466  1.00  0.00    -0.204 OA
ATOM     13  O   UNL A   1      33.519  26.085  21.640  1.00  0.00    -0.204 OA
BRANCH  11  14
ATOM     14  N   UNL A   1      31.397  24.810  22.176  1.00  0.00    -0.208 NA
ATOM     15  H   UNL A   1      31.075  25.547  21.548  1.00  0.00     0.141 HD
BRANCH  14  16
ATOM     16  C   UNL A   1      30.779  25.044  23.501  1.00  0.00     0.107 C 
BRANCH  16  17
ATOM     17  C   UNL A   1      30.202  26.466  23.682  1.00  0.00     0.031 C 
ATOM     18  C   UNL A   1      28.682  26.533  23.838  1.00  0.00     0.014 C 
BRANCH  17  19
ATOM     19  C   UNL A   1      30.904  27.247  24.784  1.00  0.00    -0.044 A 
ATOM     20  C   UNL A   1      30.948  26.795  26.111  1.00  0.00     0.004 A 
ATOM     21  C   UNL A   1      31.533  28.464  24.469  1.00  0.00     0.004 A 
ATOM     22  C   UNL A   1      31.608  27.540  27.091  1.00  0.00     0.000 A 
ATOM     23  C   UNL A   1      32.191  29.206  25.450  1.00  0.00     0.000 A 
ATOM     24  C   UNL A   1      32.228  28.744  26.762  1.00  0.00     0.000 A 
ENDBRANCH  17  19
ENDBRANCH  16  17
ENDBRANCH  14  16
ENDBRANCH  11  14
ENDBRANCH   7  11
ENDBRANCH   3   6
ENDBRANCH   1   2
BRANCH   1  25
ATOM     25  C   UNL A   1      36.961  20.150  25.055  1.00  0.00     0.023 C 
BRANCH  25  26
ATOM     26  C   UNL A   1      38.451  19.874  24.832  1.00  0.00     0.023 C 
BRANCH  26  27
ATOM     27  C   UNL A   1      39.355  20.149  26.031  1.00  0.00     0.116 C 
BRANCH  27  28
ATOM     28  N   UNL A   1      40.490  19.243  26.126  1.00  0.00    -0.352 N 
ATOM     29  C   UNL A   1      41.808  19.552  26.369  1.00  0.00     0.251 C 
ATOM     30  H   UNL A   1      40.289  18.287  25.999  1.00  0.00     0.163 HD
ATOM     31  O   UNL A   1      42.666  18.676  26.325  1.00  0.00    -0.269 OA
BRANCH  29  32
ATOM     32  C   UNL A   1      42.181  20.956  26.643  1.00  0.00     0.039 A 
ATOM     33  C   UNL A   1      42.383  21.353  27.967  1.00  0.00     0.014 A 
ATOM     34  C   UNL A   1      42.380  21.858  25.596  1.00  0.00     0.014 A 
ATOM     35  C   UNL A   1      42.858  22.640  28.234  1.00  0.00     0.010 A 
ATOM     36  C   UNL A   1      42.918  23.113  25.859  1.00  0.00     0.010 A 
ATOM     37  C   UNL A   1      43.166  23.516  27.180  1.00  0.00    -0.014 A 
BRANCH  37  38
ATOM     38  C   UNL A   1      43.765  24.850  27.438  1.00  0.00     0.031 A 
ATOM     39  C   UNL A   1      42.894  25.996  27.878  1.00  0.00     0.074 A 
ATOM     40  C   UNL A   1      45.077  25.048  27.205  1.00  0.00     0.049 A 
ATOM     41  N   UNL A   1      43.223  27.245  28.090  1.00  0.00    -0.248 NA
ATOM     42  C   UNL A   1      41.465  25.708  28.080  1.00  0.00     0.031 C 
ATOM     43  C   UNL A   1      46.018  24.030  26.728  1.00  0.00     0.029 A 
ATOM     44  N   UNL A   1      45.849  26.178  27.327  1.00  0.00    -0.354 N 
ATOM     45  C   UNL A   1      42.042  27.894  28.431  1.00  0.00     0.074 A 
ATOM     46  C   UNL A   1      40.982  26.912  28.352  1.00  0.00     0.031 C 
ATOM     47  C   UNL A   1      47.241  24.575  26.622  1.00  0.00     0.029 A 
ATOM     48  C   UNL A   1      47.167  25.987  26.984  1.00  0.00     0.049 A 
ATOM     49  H   UNL A   1      45.491  27.043  27.631  1.00  0.00     0.167 HD
ATOM     50  C   UNL A   1      41.858  29.185  28.797  1.00  0.00     0.031 A 
ATOM     51  C   UNL A   1      48.200  26.852  26.959  1.00  0.00     0.031 A 
ATOM     52  C   UNL A   1      42.917  30.154  28.890  1.00  0.00     0.049 A 
ATOM     53  C   UNL A   1      47.972  28.279  27.373  1.00  0.00     0.074 A 
ATOM     54  C   UNL A   1      42.842  31.471  29.312  1.00  0.00     0.029 A 
ATOM     55  N   UNL A   1      44.241  29.916  28.557  1.00  0.00    -0.354 N 
ATOM     56  N   UNL A   1      46.859  28.856  27.763  1.00  0.00    -0.248 NA
ATOM     57  C   UNL A   1      49.140  29.171  27.356  1.00  0.00     0.031 C 
ATOM     58  C   UNL A   1      44.112  32.042  29.186  1.00  0.00     0.029 A 
ATOM     59  C   UNL A   1      44.989  31.065  28.742  1.00  0.00     0.049 A 
ATOM     60  H   UNL A   1      44.597  29.056  28.236  1.00  0.00     0.167 HD
ATOM     61  C   UNL A   1      47.200  30.170  28.064  1.00  0.00     0.074 A 
ATOM     62  C   UNL A   1      48.624  30.298  27.825  1.00  0.00     0.031 C 
ATOM     63  C   UNL A   1      46.406  31.179  28.500  1.00  0.00     0.031 A 
BRANCH  50  64
ATOM     64  C   UNL A   1      40.455  29.623  29.121  1.00  0.00    -0.014 A 
ATOM     65  C   UNL A   1      40.102  30.031  30.420  1.00  0.00     0.010 A 
ATOM     66  C   UNL A   1      39.483  29.668  28.104  1.00  0.00     0.010 A 
ATOM     67  C   UNL A   1      38.796  30.433  30.707  1.00  0.00     0.020 A 
ATOM     68  C   UNL A   1      38.182  30.098  28.380  1.00  0.00     0.020 A 
ATOM     69  C   UNL A   1      37.843  30.461  29.684  1.00  0.00     0.054 A 
BRANCH  69  70
ATOM     70  S   UNL A   1      36.160  31.011  30.081  1.00  0.00     0.124 S 
ATOM     71  O   UNL A   1      35.458  30.754  28.826  1.00  0.00    -0.237 OA
ATOM     72  O   UNL A   1      35.792  30.140  31.195  1.00  0.00    -0.237 OA
ATOM     73  O   UNL A   1      36.328  32.421  30.424  1.00  0.00    -0.744 OA
ENDBRANCH  69  70
ENDBRANCH  50  64
BRANCH  51  74
ATOM     74  C   UNL A   1      49.550  26.386  26.539  1.00  0.00    -0.014 A 
ATOM     75  C   UNL A   1      50.451  25.865  27.484  1.00  0.00     0.010 A 
ATOM     76  C   UNL A   1      49.938  26.449  25.188  1.00  0.00     0.010 A 
ATOM     77  C   UNL A   1      51.722  25.435  27.091  1.00  0.00     0.020 A 
ATOM     78  C   UNL A   1      51.198  25.996  24.786  1.00  0.00     0.020 A 
ATOM     79  C   UNL A   1      52.087  25.502  25.743  1.00  0.00     0.054 A 
BRANCH  79  80
ATOM     80  S   UNL A   1      53.722  24.892  25.247  1.00  0.00     0.124 S 
ATOM     81  O   UNL A   1      54.534  25.220  26.414  1.00  0.00    -0.237 OA
ATOM     82  O   UNL A   1      53.475  23.469  25.027  1.00  0.00    -0.237 OA
ATOM     83  O   UNL A   1      54.021  25.659  24.040  1.00  0.00    -0.744 OA
ENDBRANCH  79  80
ENDBRANCH  51  74
BRANCH  63  84
ATOM     84  C   UNL A   1      47.060  32.504  28.783  1.00  0.00    -0.014 A 
ATOM     85  C   UNL A   1      47.624  32.785  30.039  1.00  0.00     0.010 A 
ATOM     86  C   UNL A   1      47.161  33.460  27.756  1.00  0.00     0.010 A 
ATOM     87  C   UNL A   1      48.252  34.012  30.272  1.00  0.00     0.020 A 
ATOM     88  C   UNL A   1      47.812  34.676  27.976  1.00  0.00     0.020 A 
ATOM     89  C   UNL A   1      48.342  34.950  29.239  1.00  0.00     0.054 A 
BRANCH  89  90
ATOM     90  S   UNL A   1      49.202  36.515  29.551  1.00  0.00     0.124 S 
ATOM     91  O   UNL A   1      50.189  36.539  28.475  1.00  0.00    -0.237 OA
ATOM     92  O   UNL A   1      48.129  37.500  29.440  1.00  0.00    -0.237 OA
ATOM     93  O   UNL A   1      49.750  36.349  30.895  1.00  0.00    -0.744 OA
ENDBRANCH  89  90
ENDBRANCH  63  84
ENDBRANCH  37  38
ENDBRANCH  29  32
ENDBRANCH  27  28
ENDBRANCH  26  27
ENDBRANCH  25  26
ENDBRANCH   1  25
TORSDOF 19
ENDMDL
MODEL 3
REMARK VINA RESULT:     -10.9      1.517      8.331
REMARK SMILES C[C@H](CNS(=O)(=O)c1ccc(C(=O)NCCCCNC(=O)c2ccc(-c3c4nc(c(-c5ccc(S(=O)(=O)[O-])cc5)c5ccc([nH]5)c(-c5ccc(S(=O)(=O)[O-])cc5)c5nc(c(-c6ccc(S(=O)(=O)[O-])cc6)c6ccc3[nH]6)C=C5)C=C4)cc2)o1)c1ccccc1
REMARK SMILES IDX 15 1 14 2 12 3 13 4 11 6 8 7 9 8 82 9 10 10 5 11 6 12 7 13
REMARK SMILES IDX 4 14 3 16 2 17 1 18 83 19 84 20 88 21 85 22 87 23 86 24
REMARK SMILES IDX 16 25 17 26 18 27 19 28 20 29 21 31 22 32 23 33 81 34 24 35
REMARK SMILES IDX 80 36 25 37 26 38 27 39 74 40 28 41 79 42 73 43 75 44 29 45
REMARK SMILES IDX 78 46 72 47 71 48 30 50 60 51 41 52 59 53 42 54 45 55 58 56
REMARK SMILES IDX 76 57 43 58 44 59 57 61 77 62 46 63 31 64 32 65 40 66 33 67
REMARK SMILES IDX 39 68 34 69 35 70 36 71 37 72 38 73 61 74 62 75 70 76 63 77
REMARK SMILES IDX 69 78 64 79 65 80 66 81 67 82 68 83 47 84 48 85 56 86 49 87
REMARK SMILES IDX 55 88 50 89 51 90 52 91 53 92 54 93
REMARK H PARENT 14 5 4 15 19 30 75 49 45 60
REMARK Flexibility Score: inf
ROOT
ATOM      1  C   UNL A   1      31.459  28.415  24.322  1.00  0.00     0.116 C 
ENDROOT
BRANCH   1   2
ATOM      2  N   UNL A   1      30.098  28.140  23.909  1.00  0.00    -0.349 N 
ATOM      3  C   UNL A   1      29.434  26.943  23.756  1.00  0.00     0.287 C 
ATOM      4  O   UNL A   1      28.220  27.022  23.549  1.00  0.00    -0.266 OA
ATOM      5  H   UNL A   1      29.561  28.939  23.705  1.00  0.00     0.163 HD
BRANCH   3   6
ATOM      6  C   UNL A   1      30.138  25.671  23.835  1.00  0.00     0.193 A 
ATOM      7  C   UNL A   1      30.870  23.865  24.948  1.00  0.00     0.234 A 
ATOM      8  C   UNL A   1      31.193  23.700  23.609  1.00  0.00     0.065 A 
ATOM      9  O   UNL A   1      30.227  25.078  25.073  1.00  0.00    -0.438 OA
ATOM     10  C   UNL A   1      30.740  24.838  22.912  1.00  0.00     0.058 A 
BRANCH   7  11
ATOM     11  S   UNL A   1      31.169  22.765  26.332  1.00  0.00     0.274 S 
ATOM     12  O   UNL A   1      30.752  21.457  25.866  1.00  0.00    -0.204 OA
ATOM     13  O   UNL A   1      30.593  23.369  27.506  1.00  0.00    -0.204 OA
BRANCH  11  14
ATOM     14  N   UNL A   1      32.845  22.655  26.597  1.00  0.00    -0.208 NA
ATOM     15  H   UNL A   1      32.990  22.366  27.564  1.00  0.00     0.141 HD
BRANCH  14  16
ATOM     16  C   UNL A   1      33.624  23.895  26.375  1.00  0.00     0.107 C 
BRANCH  16  17
ATOM     17  C   UNL A   1      34.487  23.872  25.093  1.00  0.00     0.031 C 
ATOM     18  C   UNL A   1      34.568  25.203  24.343  1.00  0.00     0.014 C 
BRANCH  17  19
ATOM     19  C   UNL A   1      35.872  23.288  25.330  1.00  0.00    -0.044 A 
ATOM     20  C   UNL A   1      36.211  21.984  24.943  1.00  0.00     0.004 A 
ATOM     21  C   UNL A   1      36.851  24.077  25.958  1.00  0.00     0.004 A 
ATOM     22  C   UNL A   1      37.496  21.488  25.174  1.00  0.00     0.000 A 
ATOM     23  C   UNL A   1      38.134  23.579  26.189  1.00  0.00     0.000 A 
ATOM     24  C   UNL A   1      38.456  22.283  25.797  1.00  0.00     0.000 A 
ENDBRANCH  17  19
ENDBRANCH  16  17
ENDBRANCH  14  16
ENDBRANCH  11  14
ENDBRANCH   7  11
ENDBRANCH   3   6
ENDBRANCH   1   2
BRANCH   1  25
ATOM     25  C   UNL A   1      31.580  28.565  25.839  1.00  0.00     0.023 C 
BRANCH  25  26
ATOM     26  C   UNL A   1      32.587  27.619  26.499  1.00  0.00     0.023 C 
BRANCH  26  27
ATOM     27  C   UNL A   1      33.868  28.275  27.005  1.00  0.00     0.116 C 
BRANCH  27  28
ATOM     28  N   UNL A   1      33.678  29.639  27.477  1.00  0.00    -0.352 N 
ATOM     29  C   UNL A   1      34.582  30.450  28.122  1.00  0.00     0.251 C 
ATOM     30  H   UNL A   1      32.789  30.030  27.314  1.00  0.00     0.163 HD
ATOM     31  O   UNL A   1      34.234  31.550  28.543  1.00  0.00    -0.269 OA
BRANCH  29  32
ATOM     32  C   UNL A   1      35.961  29.965  28.340  1.00  0.00     0.039 A 
ATOM     33  C   UNL A   1      36.881  30.058  27.293  1.00  0.00     0.014 A 
ATOM     34  C   UNL A   1      36.354  29.469  29.585  1.00  0.00     0.014 A 
ATOM     35  C   UNL A   1      38.218  29.722  27.519  1.00  0.00     0.010 A 
ATOM     36  C   UNL A   1      37.697  29.201  29.827  1.00  0.00     0.010 A 
ATOM     37  C   UNL A   1      38.644  29.328  28.799  1.00  0.00    -0.014 A 
BRANCH  37  38
ATOM     38  C   UNL A   1      40.076  29.061  29.086  1.00  0.00     0.031 A 
ATOM     39  C   UNL A   1      40.681  27.728  28.737  1.00  0.00     0.074 A 
ATOM     40  C   UNL A   1      40.812  29.992  29.726  1.00  0.00     0.049 A 
ATOM     41  N   UNL A   1      41.892  27.289  28.967  1.00  0.00    -0.248 NA
ATOM     42  C   UNL A   1      39.804  26.753  28.069  1.00  0.00     0.031 C 
ATOM     43  C   UNL A   1      40.328  31.305  30.163  1.00  0.00     0.029 A 
ATOM     44  N   UNL A   1      42.123  29.972  30.132  1.00  0.00    -0.354 N 
ATOM     45  C   UNL A   1      41.917  25.984  28.490  1.00  0.00     0.074 A 
ATOM     46  C   UNL A   1      40.588  25.687  28.001  1.00  0.00     0.031 C 
ATOM     47  C   UNL A   1      41.333  31.971  30.752  1.00  0.00     0.029 A 
ATOM     48  C   UNL A   1      42.521  31.123  30.772  1.00  0.00     0.049 A 
ATOM     49  H   UNL A   1      42.723  29.206  29.981  1.00  0.00     0.167 HD
ATOM     50  C   UNL A   1      42.957  25.116  28.443  1.00  0.00     0.031 A 
ATOM     51  C   UNL A   1      43.706  31.458  31.319  1.00  0.00     0.031 A 
ATOM     52  C   UNL A   1      44.281  25.422  28.915  1.00  0.00     0.049 A 
ATOM     53  C   UNL A   1      44.846  30.480  31.251  1.00  0.00     0.074 A 
ATOM     54  C   UNL A   1      45.417  24.633  28.855  1.00  0.00     0.029 A 
ATOM     55  N   UNL A   1      44.649  26.606  29.536  1.00  0.00    -0.354 N 
ATOM     56  N   UNL A   1      44.870  29.277  30.729  1.00  0.00    -0.248 NA
ATOM     57  C   UNL A   1      46.125  30.910  31.835  1.00  0.00     0.031 C 
ATOM     58  C   UNL A   1      46.460  25.322  29.483  1.00  0.00     0.029 A 
ATOM     59  C   UNL A   1      45.987  26.562  29.883  1.00  0.00     0.049 A 
ATOM     60  H   UNL A   1      44.046  27.365  29.704  1.00  0.00     0.167 HD
ATOM     61  C   UNL A   1      46.171  28.817  30.897  1.00  0.00     0.074 A 
ATOM     62  C   UNL A   1      46.908  29.876  31.556  1.00  0.00     0.031 C 
ATOM     63  C   UNL A   1      46.708  27.624  30.538  1.00  0.00     0.031 A 
BRANCH  50  64
ATOM     64  C   UNL A   1      42.699  23.752  27.862  1.00  0.00    -0.014 A 
ATOM     65  C   UNL A   1      42.899  23.495  26.494  1.00  0.00     0.010 A 
ATOM     66  C   UNL A   1      42.291  22.700  28.702  1.00  0.00     0.010 A 
ATOM     67  C   UNL A   1      42.655  22.224  25.969  1.00  0.00     0.020 A 
ATOM     68  C   UNL A   1      42.074  21.418  28.186  1.00  0.00     0.020 A 
ATOM     69  C   UNL A   1      42.240  21.194  26.818  1.00  0.00     0.054 A 
BRANCH  69  70
ATOM     70  S   UNL A   1      41.954  19.548  26.112  1.00  0.00     0.124 S 
ATOM     71  O   UNL A   1      42.788  19.587  24.914  1.00  0.00    -0.237 OA
ATOM     72  O   UNL A   1      42.420  18.658  27.173  1.00  0.00    -0.237 OA
ATOM     73  O   UNL A   1      40.514  19.521  25.868  1.00  0.00    -0.744 OA
ENDBRANCH  69  70
ENDBRANCH  50  64
BRANCH  51  74
ATOM     74  C   UNL A   1      43.878  32.788  31.966  1.00  0.00    -0.014 A 
ATOM     75  C   UNL A   1      43.698  32.935  33.352  1.00  0.00     0.010 A 
ATOM     76  C   UNL A   1      44.236  33.913  31.200  1.00  0.00     0.010 A 
ATOM     77  C   UNL A   1      43.852  34.186  33.958  1.00  0.00     0.020 A 
ATOM     78  C   UNL A   1      44.416  35.159  31.805  1.00  0.00     0.020 A 
ATOM     79  C   UNL A   1      44.211  35.290  33.180  1.00  0.00     0.054 A 
BRANCH  79  80
ATOM     80  S   UNL A   1      44.455  36.893  33.995  1.00  0.00     0.124 S 
ATOM     81  O   UNL A   1      43.551  37.756  33.243  1.00  0.00    -0.237 OA
ATOM     82  O   UNL A   1      44.060  36.610  35.374  1.00  0.00    -0.237 OA
ATOM     83  O   UNL A   1      45.879  37.159  33.806  1.00  0.00    -0.744 OA
ENDBRANCH  79  80
ENDBRANCH  51  74
BRANCH  63  84
ATOM     84  C   UNL A   1      48.171  27.410  30.815  1.00  0.00    -0.014 A 
ATOM     85  C   UNL A   1      48.613  26.901  32.048  1.00  0.00     0.010 A 
ATOM     86  C   UNL A   1      49.113  27.670  29.803  1.00  0.00     0.010 A 
ATOM     87  C   UNL A   1      49.975  26.683  32.274  1.00  0.00     0.020 A 
ATOM     88  C   UNL A   1      50.472  27.428  30.015  1.00  0.00     0.020 A 
ATOM     89  C   UNL A   1      50.896  26.948  31.256  1.00  0.00     0.054 A 
BRANCH  89  90
ATOM     90  S   UNL A   1      52.653  26.613  31.557  1.00  0.00     0.124 S 
ATOM     91  O   UNL A   1      53.289  27.304  30.438  1.00  0.00    -0.237 OA
ATOM     92  O   UNL A   1      52.874  27.211  32.871  1.00  0.00    -0.237 OA
ATOM     93  O   UNL A   1      52.739  25.156  31.520  1.00  0.00    -0.744 OA
ENDBRANCH  89  90
ENDBRANCH  63  84
ENDBRANCH  37  38
ENDBRANCH  29  32
ENDBRANCH  27  28
ENDBRANCH  26  27
ENDBRANCH  25  26
ENDBRANCH   1  25
TORSDOF 19
ENDMDL
