MODEL 1
REMARK VINA RESULT:     -13.6      0.000      0.000
REMARK SMILES COc1cc2ccccc2cc1C(=O)Nc1cc(C(=O)NCCCCNC(=O)c2ccc(-c3c4nc(c(-c5ccc(S(=O)(=O)[O-])cc5)c5ccc([nH]5)c(-c5ccc(S(=O)(=O)[O-])cc5)c5nc(c(-c6ccc(S(=O)(=O)[O-])cc6)c6ccc3[nH]6)C=C5)C=C4)cc2)ccc1C
REMARK SMILES IDX 23 1 22 2 21 3 19 4 20 5 18 7 16 8 17 9 91 10 90 11 92 12
REMARK SMILES IDX 89 13 15 14 13 15 14 16 12 18 3 19 4 20 5 21 11 22 6 23
REMARK SMILES IDX 10 24 7 25 9 26 8 27 2 28 1 29 24 30 25 31 26 32 27 33 28 35
REMARK SMILES IDX 29 36 30 37 88 38 31 39 87 40 32 41 33 42 34 43 81 44 35 45
REMARK SMILES IDX 86 46 80 47 82 48 36 49 85 50 79 51 78 52 37 54 67 55 48 56
REMARK SMILES IDX 66 57 49 58 52 59 65 60 83 61 50 62 51 63 64 65 84 66 53 67
REMARK SMILES IDX 38 68 39 69 47 70 40 71 46 72 41 73 42 74 43 75 44 76 45 77
REMARK SMILES IDX 68 78 69 79 77 80 70 81 76 82 71 83 72 84 73 85 74 86 75 87
REMARK SMILES IDX 54 88 55 89 63 90 56 91 62 92 57 93 58 94 59 95 60 96 61 97
REMARK H PARENT 21 6 15 17 26 34 82 53 52 64
REMARK Flexibility Score: inf
ROOT
ATOM      1  C   UNL A   1      32.557  29.975  26.722  1.00  0.00     0.023 C 
ENDROOT
BRANCH   1   2
ATOM      2  C   UNL A   1      31.998  29.883  25.293  1.00  0.00     0.116 C 
BRANCH   2   3
ATOM      3  N   UNL A   1      33.036  29.705  24.287  1.00  0.00    -0.352 N 
ATOM      4  C   UNL A   1      33.459  28.654  23.511  1.00  0.00     0.251 C 
ATOM      5  O   UNL A   1      34.383  28.885  22.725  1.00  0.00    -0.269 OA
ATOM      6  H   UNL A   1      33.555  30.527  24.127  1.00  0.00     0.163 HD
BRANCH   4   7
ATOM      7  C   UNL A   1      32.862  27.281  23.513  1.00  0.00     0.041 A 
ATOM      8  C   UNL A   1      31.964  25.318  24.624  1.00  0.00     0.045 A 
ATOM      9  C   UNL A   1      32.778  26.457  24.624  1.00  0.00     0.040 A 
ATOM     10  C   UNL A   1      31.446  24.806  23.428  1.00  0.00    -0.027 A 
ATOM     11  C   UNL A   1      31.593  25.592  22.277  1.00  0.00     0.006 A 
ATOM     12  C   UNL A   1      30.564  23.593  23.361  1.00  0.00     0.046 C 
ATOM     13  C   UNL A   1      32.251  26.830  22.331  1.00  0.00     0.014 A 
BRANCH   8  14
ATOM     14  N   UNL A   1      31.517  24.827  25.864  1.00  0.00    -0.322 N 
ATOM     15  C   UNL A   1      32.016  23.712  26.532  1.00  0.00     0.259 C 
ATOM     16  O   UNL A   1      31.464  23.325  27.561  1.00  0.00    -0.269 OA
ATOM     17  H   UNL A   1      30.783  25.317  26.299  1.00  0.00     0.170 HD
BRANCH  15  18
ATOM     18  C   UNL A   1      33.267  23.023  26.078  1.00  0.00     0.082 A 
ATOM     19  C   UNL A   1      33.279  21.764  25.454  1.00  0.00     0.132 A 
ATOM     20  C   UNL A   1      34.475  21.086  25.210  1.00  0.00     0.056 A 
ATOM     21  C   UNL A   1      35.696  21.702  25.457  1.00  0.00    -0.015 A 
ATOM     22  C   UNL A   1      34.490  23.669  26.285  1.00  0.00     0.026 A 
ATOM     23  C   UNL A   1      36.898  21.038  25.168  1.00  0.00     0.009 A 
ATOM     24  C   UNL A   1      35.704  23.013  25.980  1.00  0.00    -0.017 A 
ATOM     25  C   UNL A   1      38.116  21.671  25.367  1.00  0.00     0.001 A 
ATOM     26  C   UNL A   1      36.940  23.618  26.204  1.00  0.00     0.009 A 
ATOM     27  C   UNL A   1      38.130  22.951  25.890  1.00  0.00     0.001 A 
BRANCH  19  28
ATOM     28  O   UNL A   1      32.154  21.091  25.062  1.00  0.00    -0.496 OA
ATOM     29  C   UNL A   1      32.502  19.826  24.514  1.00  0.00     0.278 C 
ENDBRANCH  19  28
ENDBRANCH  15  18
ENDBRANCH   8  14
ENDBRANCH   4   7
ENDBRANCH   2   3
ENDBRANCH   1   2
BRANCH   1  30
ATOM     30  C   UNL A   1      33.200  28.684  27.246  1.00  0.00     0.023 C 
BRANCH  30  31
ATOM     31  C   UNL A   1      34.709  28.646  27.099  1.00  0.00     0.116 C 
BRANCH  31  32
ATOM     32  N   UNL A   1      35.379  29.905  26.823  1.00  0.00    -0.352 N 
ATOM     33  C   UNL A   1      35.934  30.575  27.920  1.00  0.00     0.251 C 
ATOM     34  H   UNL A   1      35.441  30.269  25.910  1.00  0.00     0.163 HD
ATOM     35  O   UNL A   1      35.312  31.170  28.776  1.00  0.00    -0.269 OA
BRANCH  33  36
ATOM     36  C   UNL A   1      37.336  30.166  28.155  1.00  0.00     0.039 A 
ATOM     37  C   UNL A   1      38.244  29.853  27.145  1.00  0.00     0.014 A 
ATOM     38  C   UNL A   1      37.658  29.970  29.496  1.00  0.00     0.014 A 
ATOM     39  C   UNL A   1      39.439  29.212  27.488  1.00  0.00     0.010 A 
ATOM     40  C   UNL A   1      38.754  29.225  29.818  1.00  0.00     0.010 A 
ATOM     41  C   UNL A   1      39.647  28.842  28.816  1.00  0.00    -0.014 A 
BRANCH  41  42
ATOM     42  C   UNL A   1      40.776  28.094  29.343  1.00  0.00     0.031 A 
ATOM     43  C   UNL A   1      40.965  26.705  28.874  1.00  0.00     0.074 A 
ATOM     44  C   UNL A   1      41.788  28.803  29.886  1.00  0.00     0.049 A 
ATOM     45  N   UNL A   1      41.920  25.938  29.254  1.00  0.00    -0.248 NA
ATOM     46  C   UNL A   1      40.093  26.073  27.884  1.00  0.00     0.031 C 
ATOM     47  C   UNL A   1      43.193  28.418  30.026  1.00  0.00     0.029 A 
ATOM     48  N   UNL A   1      41.738  30.048  30.501  1.00  0.00    -0.354 N 
ATOM     49  C   UNL A   1      41.979  24.871  28.389  1.00  0.00     0.074 A 
ATOM     50  C   UNL A   1      40.786  24.970  27.584  1.00  0.00     0.031 C 
ATOM     51  C   UNL A   1      43.794  29.251  30.893  1.00  0.00     0.029 A 
ATOM     52  C   UNL A   1      42.736  30.053  31.481  1.00  0.00     0.049 A 
ATOM     53  H   UNL A   1      41.119  30.784  30.289  1.00  0.00     0.167 HD
ATOM     54  C   UNL A   1      43.104  24.102  28.381  1.00  0.00     0.031 A 
ATOM     55  C   UNL A   1      42.423  30.053  32.811  1.00  0.00     0.031 A 
ATOM     56  C   UNL A   1      44.042  24.552  29.418  1.00  0.00     0.049 A 
ATOM     57  C   UNL A   1      42.881  28.736  33.415  1.00  0.00     0.074 A 
ATOM     58  C   UNL A   1      45.222  25.276  29.382  1.00  0.00     0.029 A 
ATOM     59  N   UNL A   1      43.614  24.568  30.748  1.00  0.00    -0.354 N 
ATOM     60  N   UNL A   1      42.914  27.597  32.762  1.00  0.00    -0.248 NA
ATOM     61  C   UNL A   1      43.525  28.651  34.721  1.00  0.00     0.031 C 
ATOM     62  C   UNL A   1      45.437  25.818  30.683  1.00  0.00     0.029 A 
ATOM     63  C   UNL A   1      44.401  25.410  31.512  1.00  0.00     0.049 A 
ATOM     64  H   UNL A   1      42.853  24.049  31.096  1.00  0.00     0.167 HD
ATOM     65  C   UNL A   1      43.706  26.710  33.450  1.00  0.00     0.074 A 
ATOM     66  C   UNL A   1      44.005  27.395  34.700  1.00  0.00     0.031 C 
ATOM     67  C   UNL A   1      44.190  25.530  32.953  1.00  0.00     0.031 A 
BRANCH  54  68
ATOM     68  C   UNL A   1      43.442  23.100  27.296  1.00  0.00    -0.014 A 
ATOM     69  C   UNL A   1      42.825  21.831  27.295  1.00  0.00     0.010 A 
ATOM     70  C   UNL A   1      44.367  23.334  26.259  1.00  0.00     0.010 A 
ATOM     71  C   UNL A   1      43.152  20.841  26.350  1.00  0.00     0.020 A 
ATOM     72  C   UNL A   1      44.728  22.346  25.328  1.00  0.00     0.020 A 
ATOM     73  C   UNL A   1      44.115  21.100  25.379  1.00  0.00     0.054 A 
BRANCH  73  74
ATOM     74  S   UNL A   1      44.534  19.809  24.176  1.00  0.00     0.124 S 
ATOM     75  O   UNL A   1      44.616  20.559  22.925  1.00  0.00    -0.237 OA
ATOM     76  O   UNL A   1      45.802  19.301  24.691  1.00  0.00    -0.237 OA
ATOM     77  O   UNL A   1      43.412  18.876  24.261  1.00  0.00    -0.744 OA
ENDBRANCH  73  74
ENDBRANCH  54  68
BRANCH  55  78
ATOM     78  C   UNL A   1      41.208  30.888  33.104  1.00  0.00    -0.014 A 
ATOM     79  C   UNL A   1      39.998  30.152  33.200  1.00  0.00     0.010 A 
ATOM     80  C   UNL A   1      41.307  32.093  33.826  1.00  0.00     0.010 A 
ATOM     81  C   UNL A   1      39.047  30.452  34.184  1.00  0.00     0.020 A 
ATOM     82  C   UNL A   1      40.332  32.413  34.794  1.00  0.00     0.020 A 
ATOM     83  C   UNL A   1      39.268  31.534  35.032  1.00  0.00     0.054 A 
BRANCH  83  84
ATOM     84  S   UNL A   1      38.268  31.650  36.557  1.00  0.00     0.124 S 
ATOM     85  O   UNL A   1      37.844  30.269  36.766  1.00  0.00    -0.237 OA
ATOM     86  O   UNL A   1      39.237  32.165  37.528  1.00  0.00    -0.237 OA
ATOM     87  O   UNL A   1      37.207  32.583  36.191  1.00  0.00    -0.744 OA
ENDBRANCH  83  84
ENDBRANCH  55  78
BRANCH  67  88
ATOM     88  C   UNL A   1      44.629  24.362  33.811  1.00  0.00    -0.014 A 
ATOM     89  C   UNL A   1      43.764  23.337  34.221  1.00  0.00     0.010 A 
ATOM     90  C   UNL A   1      46.012  24.168  34.060  1.00  0.00     0.010 A 
ATOM     91  C   UNL A   1      44.244  22.199  34.880  1.00  0.00     0.020 A 
ATOM     92  C   UNL A   1      46.508  23.011  34.662  1.00  0.00     0.020 A 
ATOM     93  C   UNL A   1      45.613  22.038  35.085  1.00  0.00     0.054 A 
BRANCH  93  94
ATOM     94  S   UNL A   1      46.216  20.504  35.826  1.00  0.00     0.124 S 
ATOM     95  O   UNL A   1      45.401  19.504  35.143  1.00  0.00    -0.237 OA
ATOM     96  O   UNL A   1      47.633  20.509  35.469  1.00  0.00    -0.237 OA
ATOM     97  O   UNL A   1      45.940  20.677  37.250  1.00  0.00    -0.744 OA
ENDBRANCH  93  94
ENDBRANCH  67  88
ENDBRANCH  41  42
ENDBRANCH  33  36
ENDBRANCH  31  32
ENDBRANCH  30  31
ENDBRANCH   1  30
TORSDOF 17
ENDMDL
MODEL 2
REMARK VINA RESULT:     -13.1      2.017      2.550
REMARK SMILES COc1cc2ccccc2cc1C(=O)Nc1cc(C(=O)NCCCCNC(=O)c2ccc(-c3c4nc(c(-c5ccc(S(=O)(=O)[O-])cc5)c5ccc([nH]5)c(-c5ccc(S(=O)(=O)[O-])cc5)c5nc(c(-c6ccc(S(=O)(=O)[O-])cc6)c6ccc3[nH]6)C=C5)C=C4)cc2)ccc1C
REMARK SMILES IDX 23 1 22 2 21 3 19 4 20 5 18 7 16 8 17 9 91 10 90 11 92 12
REMARK SMILES IDX 89 13 15 14 13 15 14 16 12 18 3 19 4 20 5 21 11 22 6 23
REMARK SMILES IDX 10 24 7 25 9 26 8 27 2 28 1 29 24 30 25 31 26 32 27 33 28 35
REMARK SMILES IDX 29 36 30 37 88 38 31 39 87 40 32 41 33 42 34 43 81 44 35 45
REMARK SMILES IDX 86 46 80 47 82 48 36 49 85 50 79 51 78 52 37 54 67 55 48 56
REMARK SMILES IDX 66 57 49 58 52 59 65 60 83 61 50 62 51 63 64 65 84 66 53 67
REMARK SMILES IDX 38 68 39 69 47 70 40 71 46 72 41 73 42 74 43 75 44 76 45 77
REMARK SMILES IDX 68 78 69 79 77 80 70 81 76 82 71 83 72 84 73 85 74 86 75 87
REMARK SMILES IDX 54 88 55 89 63 90 56 91 62 92 57 93 58 94 59 95 60 96 61 97
REMARK H PARENT 21 6 15 17 26 34 82 53 52 64
REMARK Flexibility Score: inf
ROOT
ATOM      1  C   UNL A   1      31.499  30.629  25.760  1.00  0.00     0.023 C 
ENDROOT
BRANCH   1   2
ATOM      2  C   UNL A   1      31.314  29.870  24.436  1.00  0.00     0.116 C 
BRANCH   2   3
ATOM      3  N   UNL A   1      32.566  29.654  23.725  1.00  0.00    -0.352 N 
ATOM      4  C   UNL A   1      33.226  28.550  23.243  1.00  0.00     0.251 C 
ATOM      5  O   UNL A   1      34.290  28.757  22.652  1.00  0.00    -0.269 OA
ATOM      6  H   UNL A   1      33.053  30.493  23.550  1.00  0.00     0.163 HD
BRANCH   4   7
ATOM      7  C   UNL A   1      32.737  27.139  23.339  1.00  0.00     0.041 A 
ATOM      8  C   UNL A   1      31.962  25.201  24.581  1.00  0.00     0.045 A 
ATOM      9  C   UNL A   1      32.686  26.398  24.510  1.00  0.00     0.040 A 
ATOM     10  C   UNL A   1      31.518  24.560  23.419  1.00  0.00    -0.027 A 
ATOM     11  C   UNL A   1      31.636  25.265  22.213  1.00  0.00     0.006 A 
ATOM     12  C   UNL A   1      30.734  23.280  23.428  1.00  0.00     0.046 C 
ATOM     13  C   UNL A   1      32.195  26.552  22.184  1.00  0.00     0.014 A 
BRANCH   8  14
ATOM     14  N   UNL A   1      31.520  24.772  25.846  1.00  0.00    -0.322 N 
ATOM     15  C   UNL A   1      32.040  23.709  26.579  1.00  0.00     0.259 C 
ATOM     16  O   UNL A   1      31.492  23.371  27.628  1.00  0.00    -0.269 OA
ATOM     17  H   UNL A   1      30.773  25.270  26.250  1.00  0.00     0.170 HD
BRANCH  15  18
ATOM     18  C   UNL A   1      33.309  23.024  26.171  1.00  0.00     0.082 A 
ATOM     19  C   UNL A   1      33.361  21.702  25.697  1.00  0.00     0.132 A 
ATOM     20  C   UNL A   1      34.579  21.050  25.497  1.00  0.00     0.056 A 
ATOM     21  C   UNL A   1      35.777  21.740  25.635  1.00  0.00    -0.015 A 
ATOM     22  C   UNL A   1      34.507  23.739  26.264  1.00  0.00     0.026 A 
ATOM     23  C   UNL A   1      37.000  21.097  25.387  1.00  0.00     0.009 A 
ATOM     24  C   UNL A   1      35.740  23.103  26.001  1.00  0.00    -0.017 A 
ATOM     25  C   UNL A   1      38.193  21.798  25.475  1.00  0.00     0.001 A 
ATOM     26  C   UNL A   1      36.954  23.780  26.115  1.00  0.00     0.009 A 
ATOM     27  C   UNL A   1      38.163  23.131  25.845  1.00  0.00     0.001 A 
BRANCH  19  28
ATOM     28  O   UNL A   1      32.257  20.942  25.421  1.00  0.00    -0.496 OA
ATOM     29  C   UNL A   1      32.501  20.110  24.295  1.00  0.00     0.278 C 
ENDBRANCH  19  28
ENDBRANCH  15  18
ENDBRANCH   8  14
ENDBRANCH   4   7
ENDBRANCH   2   3
ENDBRANCH   1   2
BRANCH   1  30
ATOM     30  C   UNL A   1      31.672  29.737  26.996  1.00  0.00     0.023 C 
BRANCH  30  31
ATOM     31  C   UNL A   1      33.072  29.175  27.157  1.00  0.00     0.116 C 
BRANCH  31  32
ATOM     32  N   UNL A   1      34.175  30.009  26.712  1.00  0.00    -0.352 N 
ATOM     33  C   UNL A   1      34.804  30.792  27.687  1.00  0.00     0.251 C 
ATOM     34  H   UNL A   1      34.467  30.022  25.771  1.00  0.00     0.163 HD
ATOM     35  O   UNL A   1      34.343  31.790  28.200  1.00  0.00    -0.269 OA
BRANCH  33  36
ATOM     36  C   UNL A   1      35.930  30.070  28.320  1.00  0.00     0.039 A 
ATOM     37  C   UNL A   1      35.951  29.655  29.650  1.00  0.00     0.014 A 
ATOM     38  C   UNL A   1      37.061  29.957  27.515  1.00  0.00     0.014 A 
ATOM     39  C   UNL A   1      37.165  29.242  30.208  1.00  0.00     0.010 A 
ATOM     40  C   UNL A   1      38.267  29.688  28.091  1.00  0.00     0.010 A 
ATOM     41  C   UNL A   1      38.324  29.331  29.439  1.00  0.00    -0.014 A 
BRANCH  41  42
ATOM     42  C   UNL A   1      39.679  29.038  29.872  1.00  0.00     0.031 A 
ATOM     43  C   UNL A   1      40.304  27.787  29.391  1.00  0.00     0.074 A 
ATOM     44  C   UNL A   1      40.420  30.069  30.329  1.00  0.00     0.049 A 
ATOM     45  N   UNL A   1      41.492  27.411  29.692  1.00  0.00    -0.248 NA
ATOM     46  C   UNL A   1      39.633  26.863  28.477  1.00  0.00     0.031 C 
ATOM     47  C   UNL A   1      41.878  30.201  30.354  1.00  0.00     0.029 A 
ATOM     48  N   UNL A   1      39.986  31.237  30.945  1.00  0.00    -0.354 N 
ATOM     49  C   UNL A   1      41.852  26.405  28.826  1.00  0.00     0.074 A 
ATOM     50  C   UNL A   1      40.642  26.061  28.122  1.00  0.00     0.031 C 
ATOM     51  C   UNL A   1      42.215  31.215  31.168  1.00  0.00     0.029 A 
ATOM     52  C   UNL A   1      40.993  31.617  31.840  1.00  0.00     0.049 A 
ATOM     53  H   UNL A   1      39.136  31.706  30.784  1.00  0.00     0.167 HD
ATOM     54  C   UNL A   1      43.171  26.074  28.727  1.00  0.00     0.031 A 
ATOM     55  C   UNL A   1      40.802  31.548  33.191  1.00  0.00     0.031 A 
ATOM     56  C   UNL A   1      43.970  26.852  29.682  1.00  0.00     0.049 A 
ATOM     57  C   UNL A   1      41.735  30.490  33.757  1.00  0.00     0.074 A 
ATOM     58  C   UNL A   1      44.818  27.939  29.550  1.00  0.00     0.029 A 
ATOM     59  N   UNL A   1      43.666  26.758  31.044  1.00  0.00    -0.354 N 
ATOM     60  N   UNL A   1      42.113  29.415  33.105  1.00  0.00    -0.248 NA
ATOM     61  C   UNL A   1      42.466  30.673  35.006  1.00  0.00     0.031 C 
ATOM     62  C   UNL A   1      44.929  28.561  30.828  1.00  0.00     0.029 A 
ATOM     63  C   UNL A   1      44.168  27.843  31.739  1.00  0.00     0.049 A 
ATOM     64  H   UNL A   1      43.163  26.018  31.453  1.00  0.00     0.167 HD
ATOM     65  C   UNL A   1      43.214  28.879  33.726  1.00  0.00     0.074 A 
ATOM     66  C   UNL A   1      43.350  29.662  34.947  1.00  0.00     0.031 C 
ATOM     67  C   UNL A   1      44.039  27.925  33.193  1.00  0.00     0.031 A 
BRANCH  54  68
ATOM     68  C   UNL A   1      43.753  25.220  27.619  1.00  0.00    -0.014 A 
ATOM     69  C   UNL A   1      44.180  23.904  27.897  1.00  0.00     0.010 A 
ATOM     70  C   UNL A   1      43.922  25.652  26.289  1.00  0.00     0.010 A 
ATOM     71  C   UNL A   1      44.786  23.092  26.922  1.00  0.00     0.020 A 
ATOM     72  C   UNL A   1      44.555  24.866  25.311  1.00  0.00     0.020 A 
ATOM     73  C   UNL A   1      44.985  23.585  25.635  1.00  0.00     0.054 A 
BRANCH  73  74
ATOM     74  S   UNL A   1      45.780  22.531  24.392  1.00  0.00     0.124 S 
ATOM     75  O   UNL A   1      44.653  22.127  23.554  1.00  0.00    -0.237 OA
ATOM     76  O   UNL A   1      46.732  23.446  23.768  1.00  0.00    -0.237 OA
ATOM     77  O   UNL A   1      46.378  21.455  25.178  1.00  0.00    -0.744 OA
ENDBRANCH  73  74
ENDBRANCH  54  68
BRANCH  55  78
ATOM     78  C   UNL A   1      39.399  31.918  33.583  1.00  0.00    -0.014 A 
ATOM     79  C   UNL A   1      39.099  33.301  33.461  1.00  0.00     0.010 A 
ATOM     80  C   UNL A   1      38.340  30.998  33.458  1.00  0.00     0.010 A 
ATOM     81  C   UNL A   1      37.864  33.728  32.957  1.00  0.00     0.020 A 
ATOM     82  C   UNL A   1      37.085  31.434  32.983  1.00  0.00     0.020 A 
ATOM     83  C   UNL A   1      36.895  32.779  32.640  1.00  0.00     0.054 A 
BRANCH  83  84
ATOM     84  S   UNL A   1      35.489  33.300  31.597  1.00  0.00     0.124 S 
ATOM     85  O   UNL A   1      35.163  34.617  32.136  1.00  0.00    -0.237 OA
ATOM     86  O   UNL A   1      36.076  33.298  30.254  1.00  0.00    -0.237 OA
ATOM     87  O   UNL A   1      34.493  32.262  31.835  1.00  0.00    -0.744 OA
ENDBRANCH  83  84
ENDBRANCH  55  78
BRANCH  67  88
ATOM     88  C   UNL A   1      44.922  27.008  34.013  1.00  0.00    -0.014 A 
ATOM     89  C   UNL A   1      44.440  26.201  35.054  1.00  0.00     0.010 A 
ATOM     90  C   UNL A   1      46.262  26.789  33.603  1.00  0.00     0.010 A 
ATOM     91  C   UNL A   1      45.259  25.256  35.680  1.00  0.00     0.020 A 
ATOM     92  C   UNL A   1      47.069  25.808  34.180  1.00  0.00     0.020 A 
ATOM     93  C   UNL A   1      46.564  25.057  35.232  1.00  0.00     0.054 A 
BRANCH  93  94
ATOM     94  S   UNL A   1      47.559  23.745  35.976  1.00  0.00     0.124 S 
ATOM     95  O   UNL A   1      46.625  23.177  36.945  1.00  0.00    -0.237 OA
ATOM     96  O   UNL A   1      47.873  22.891  34.832  1.00  0.00    -0.237 OA
ATOM     97  O   UNL A   1      48.700  24.458  36.544  1.00  0.00    -0.744 OA
ENDBRANCH  93  94
ENDBRANCH  67  88
ENDBRANCH  41  42
ENDBRANCH  33  36
ENDBRANCH  31  32
ENDBRANCH  30  31
ENDBRANCH   1  30
TORSDOF 17
ENDMDL
MODEL 3
REMARK VINA RESULT:     -12.6      4.083     10.478
REMARK SMILES COc1cc2ccccc2cc1C(=O)Nc1cc(C(=O)NCCCCNC(=O)c2ccc(-c3c4nc(c(-c5ccc(S(=O)(=O)[O-])cc5)c5ccc([nH]5)c(-c5ccc(S(=O)(=O)[O-])cc5)c5nc(c(-c6ccc(S(=O)(=O)[O-])cc6)c6ccc3[nH]6)C=C5)C=C4)cc2)ccc1C
REMARK SMILES IDX 23 1 22 2 21 3 19 4 20 5 18 7 16 8 17 9 91 10 90 11 92 12
REMARK SMILES IDX 89 13 15 14 13 15 14 16 12 18 3 19 4 20 5 21 11 22 6 23
REMARK SMILES IDX 10 24 7 25 9 26 8 27 2 28 1 29 24 30 25 31 26 32 27 33 28 35
REMARK SMILES IDX 29 36 30 37 88 38 31 39 87 40 32 41 33 42 34 43 81 44 35 45
REMARK SMILES IDX 86 46 80 47 82 48 36 49 85 50 79 51 78 52 37 54 67 55 48 56
REMARK SMILES IDX 66 57 49 58 52 59 65 60 83 61 50 62 51 63 64 65 84 66 53 67
REMARK SMILES IDX 38 68 39 69 47 70 40 71 46 72 41 73 42 74 43 75 44 76 45 77
REMARK SMILES IDX 68 78 69 79 77 80 70 81 76 82 71 83 72 84 73 85 74 86 75 87
REMARK SMILES IDX 54 88 55 89 63 90 56 91 62 92 57 93 58 94 59 95 60 96 61 97
REMARK H PARENT 21 6 15 17 26 34 82 53 52 64
REMARK Flexibility Score: inf
ROOT
ATOM      1  C   UNL A   1      35.750  21.302  24.440  1.00  0.00     0.023 C 
ENDROOT
BRANCH   1   2
ATOM      2  C   UNL A   1      34.602  20.859  25.362  1.00  0.00     0.116 C 
BRANCH   2   3
ATOM      3  N   UNL A   1      34.186  21.901  26.291  1.00  0.00    -0.352 N 
ATOM      4  C   UNL A   1      33.537  23.105  26.164  1.00  0.00     0.251 C 
ATOM      5  O   UNL A   1      33.326  23.730  27.209  1.00  0.00    -0.269 OA
ATOM      6  H   UNL A   1      34.424  21.695  27.224  1.00  0.00     0.163 HD
BRANCH   4   7
ATOM      7  C   UNL A   1      33.035  23.687  24.881  1.00  0.00     0.041 A 
ATOM      8  C   UNL A   1      31.271  24.482  23.413  1.00  0.00     0.045 A 
ATOM      9  C   UNL A   1      31.709  23.680  24.474  1.00  0.00     0.040 A 
ATOM     10  C   UNL A   1      32.186  25.083  22.541  1.00  0.00    -0.027 A 
ATOM     11  C   UNL A   1      33.541  25.030  22.897  1.00  0.00     0.006 A 
ATOM     12  C   UNL A   1      31.781  25.957  21.390  1.00  0.00     0.046 C 
ATOM     13  C   UNL A   1      33.951  24.381  24.072  1.00  0.00     0.014 A 
BRANCH   8  14
ATOM     14  N   UNL A   1      29.909  24.830  23.369  1.00  0.00    -0.322 N 
ATOM     15  C   UNL A   1      29.342  25.992  23.884  1.00  0.00     0.259 C 
ATOM     16  O   UNL A   1      28.119  26.126  23.876  1.00  0.00    -0.269 OA
ATOM     17  H   UNL A   1      29.299  24.190  22.935  1.00  0.00     0.170 HD
BRANCH  15  18
ATOM     18  C   UNL A   1      30.192  27.129  24.366  1.00  0.00     0.082 A 
ATOM     19  C   UNL A   1      30.341  28.339  23.668  1.00  0.00     0.132 A 
ATOM     20  C   UNL A   1      31.278  29.295  24.064  1.00  0.00     0.056 A 
ATOM     21  C   UNL A   1      31.994  29.132  25.243  1.00  0.00    -0.015 A 
ATOM     22  C   UNL A   1      30.872  26.979  25.579  1.00  0.00     0.026 A 
ATOM     23  C   UNL A   1      32.900  30.116  25.666  1.00  0.00     0.009 A 
ATOM     24  C   UNL A   1      31.774  27.973  26.019  1.00  0.00    -0.017 A 
ATOM     25  C   UNL A   1      33.578  29.978  26.868  1.00  0.00     0.001 A 
ATOM     26  C   UNL A   1      32.490  27.839  27.207  1.00  0.00     0.009 A 
ATOM     27  C   UNL A   1      33.375  28.839  27.626  1.00  0.00     0.001 A 
BRANCH  19  28
ATOM     28  O   UNL A   1      29.625  28.673  22.550  1.00  0.00    -0.496 OA
ATOM     29  C   UNL A   1      29.826  30.043  22.228  1.00  0.00     0.278 C 
ENDBRANCH  19  28
ENDBRANCH  15  18
ENDBRANCH   8  14
ENDBRANCH   4   7
ENDBRANCH   2   3
ENDBRANCH   1   2
BRANCH   1  30
ATOM     30  C   UNL A   1      37.149  21.203  25.061  1.00  0.00     0.023 C 
BRANCH  30  31
ATOM     31  C   UNL A   1      37.718  22.537  25.507  1.00  0.00     0.116 C 
BRANCH  31  32
ATOM     32  N   UNL A   1      38.402  22.570  26.789  1.00  0.00    -0.352 N 
ATOM     33  C   UNL A   1      39.753  22.936  26.770  1.00  0.00     0.251 C 
ATOM     34  H   UNL A   1      37.939  22.346  27.628  1.00  0.00     0.163 HD
ATOM     35  O   UNL A   1      40.670  22.247  26.373  1.00  0.00    -0.269 OA
BRANCH  33  36
ATOM     36  C   UNL A   1      39.921  24.399  26.923  1.00  0.00     0.039 A 
ATOM     37  C   UNL A   1      40.569  25.218  26.000  1.00  0.00     0.014 A 
ATOM     38  C   UNL A   1      39.502  24.896  28.155  1.00  0.00     0.014 A 
ATOM     39  C   UNL A   1      40.914  26.519  26.380  1.00  0.00     0.010 A 
ATOM     40  C   UNL A   1      39.958  26.111  28.575  1.00  0.00     0.010 A 
ATOM     41  C   UNL A   1      40.666  26.926  27.690  1.00  0.00    -0.014 A 
BRANCH  41  42
ATOM     42  C   UNL A   1      41.034  28.197  28.289  1.00  0.00     0.031 A 
ATOM     43  C   UNL A   1      39.972  29.211  28.467  1.00  0.00     0.074 A 
ATOM     44  C   UNL A   1      42.178  28.237  29.004  1.00  0.00     0.049 A 
ATOM     45  N   UNL A   1      40.159  30.369  28.986  1.00  0.00    -0.248 NA
ATOM     46  C   UNL A   1      38.576  28.973  28.102  1.00  0.00     0.031 C 
ATOM     47  C   UNL A   1      42.543  29.154  30.085  1.00  0.00     0.029 A 
ATOM     48  N   UNL A   1      43.318  27.456  28.852  1.00  0.00    -0.354 N 
ATOM     49  C   UNL A   1      38.929  30.900  29.294  1.00  0.00     0.074 A 
ATOM     50  C   UNL A   1      37.970  30.018  28.675  1.00  0.00     0.031 C 
ATOM     51  C   UNL A   1      43.865  29.070  30.307  1.00  0.00     0.029 A 
ATOM     52  C   UNL A   1      44.404  28.252  29.234  1.00  0.00     0.049 A 
ATOM     53  H   UNL A   1      43.355  26.525  28.536  1.00  0.00     0.167 HD
ATOM     54  C   UNL A   1      38.875  31.962  30.147  1.00  0.00     0.031 A 
ATOM     55  C   UNL A   1      45.315  28.694  28.317  1.00  0.00     0.031 A 
ATOM     56  C   UNL A   1      40.228  32.393  30.518  1.00  0.00     0.049 A 
ATOM     57  C   UNL A   1      45.203  30.207  28.215  1.00  0.00     0.074 A 
ATOM     58  C   UNL A   1      40.995  32.240  31.661  1.00  0.00     0.029 A 
ATOM     59  N   UNL A   1      41.111  32.778  29.504  1.00  0.00    -0.354 N 
ATOM     60  N   UNL A   1      44.087  30.877  28.387  1.00  0.00    -0.248 NA
ATOM     61  C   UNL A   1      46.370  31.077  28.120  1.00  0.00     0.031 C 
ATOM     62  C   UNL A   1      42.361  32.429  31.295  1.00  0.00     0.029 A 
ATOM     63  C   UNL A   1      42.422  32.715  29.939  1.00  0.00     0.049 A 
ATOM     64  H   UNL A   1      40.836  33.057  28.602  1.00  0.00     0.167 HD
ATOM     65  C   UNL A   1      44.388  32.201  28.597  1.00  0.00     0.074 A 
ATOM     66  C   UNL A   1      45.821  32.283  28.350  1.00  0.00     0.031 C 
ATOM     67  C   UNL A   1      43.519  33.145  29.074  1.00  0.00     0.031 A 
BRANCH  54  68
ATOM     68  C   UNL A   1      37.606  32.455  30.813  1.00  0.00    -0.014 A 
ATOM     69  C   UNL A   1      36.714  33.283  30.098  1.00  0.00     0.010 A 
ATOM     70  C   UNL A   1      37.237  32.156  32.139  1.00  0.00     0.010 A 
ATOM     71  C   UNL A   1      35.556  33.821  30.689  1.00  0.00     0.020 A 
ATOM     72  C   UNL A   1      36.102  32.711  32.754  1.00  0.00     0.020 A 
ATOM     73  C   UNL A   1      35.265  33.543  32.021  1.00  0.00     0.054 A 
BRANCH  73  74
ATOM     74  S   UNL A   1      33.775  34.254  32.772  1.00  0.00     0.124 S 
ATOM     75  O   UNL A   1      34.328  35.107  33.822  1.00  0.00    -0.237 OA
ATOM     76  O   UNL A   1      33.162  34.957  31.648  1.00  0.00    -0.237 OA
ATOM     77  O   UNL A   1      33.036  33.088  33.253  1.00  0.00    -0.744 OA
ENDBRANCH  73  74
ENDBRANCH  54  68
BRANCH  55  78
ATOM     78  C   UNL A   1      45.594  27.665  27.258  1.00  0.00    -0.014 A 
ATOM     79  C   UNL A   1      46.324  26.536  27.712  1.00  0.00     0.010 A 
ATOM     80  C   UNL A   1      44.728  27.495  26.160  1.00  0.00     0.010 A 
ATOM     81  C   UNL A   1      45.996  25.244  27.281  1.00  0.00     0.020 A 
ATOM     82  C   UNL A   1      44.423  26.195  25.703  1.00  0.00     0.020 A 
ATOM     83  C   UNL A   1      44.983  25.080  26.340  1.00  0.00     0.054 A 
BRANCH  83  84
ATOM     84  S   UNL A   1      44.278  23.410  26.117  1.00  0.00     0.124 S 
ATOM     85  O   UNL A   1      43.479  23.237  27.326  1.00  0.00    -0.237 OA
ATOM     86  O   UNL A   1      43.515  23.555  24.873  1.00  0.00    -0.237 OA
ATOM     87  O   UNL A   1      45.458  22.559  26.019  1.00  0.00    -0.744 OA
ENDBRANCH  83  84
ENDBRANCH  55  78
BRANCH  67  88
ATOM     88  C   UNL A   1      43.677  34.634  28.855  1.00  0.00    -0.014 A 
ATOM     89  C   UNL A   1      43.696  35.230  27.585  1.00  0.00     0.010 A 
ATOM     90  C   UNL A   1      43.607  35.509  29.970  1.00  0.00     0.010 A 
ATOM     91  C   UNL A   1      43.687  36.621  27.434  1.00  0.00     0.020 A 
ATOM     92  C   UNL A   1      43.537  36.895  29.828  1.00  0.00     0.020 A 
ATOM     93  C   UNL A   1      43.596  37.444  28.555  1.00  0.00     0.054 A 
BRANCH  93  94
ATOM     94  S   UNL A   1      43.460  39.231  28.324  1.00  0.00     0.124 S 
ATOM     95  O   UNL A   1      44.812  39.579  27.895  1.00  0.00    -0.237 OA
ATOM     96  O   UNL A   1      42.427  39.346  27.296  1.00  0.00    -0.237 OA
ATOM     97  O   UNL A   1      43.072  39.721  29.644  1.00  0.00    -0.744 OA
ENDBRANCH  93  94
ENDBRANCH  67  88
ENDBRANCH  41  42
ENDBRANCH  33  36
ENDBRANCH  31  32
ENDBRANCH  30  31
ENDBRANCH   1  30
TORSDOF 17
ENDMDL
