MODEL 1
REMARK VINA RESULT:     -12.5      0.000      0.000
REMARK SMILES Cc1ccccc1C(=O)Nc1cc(C(=O)NCCCCNC(=O)c2ccc(-c3c4nc(c(-c5ccc(S(=O)(=O)[O-])cc5)c5ccc([nH]5)c(-c5ccc(S(=O)(=O)[O-])cc5)c5nc(c(-c6ccc(S(=O)(=O)[O-])cc6)c6ccc3[nH]6)C=C5)C=C4)cc2)ccc1N1CC[NH+](CC(=O)Nc2ccc(F)cc2)CC1
REMARK SMILES IDX 18 1 17 2 16 3 14 4 15 5 13 7 11 8 12 9 86 10 85 11 84 12
REMARK SMILES IDX 10 13 8 14 9 15 7 17 1 18 2 19 3 20 4 21 6 22 5 23 87 24
REMARK SMILES IDX 88 25 103 26 89 27 102 28 90 29 91 31 92 32 93 33 94 34
REMARK SMILES IDX 95 36 96 37 101 38 97 39 100 40 98 41 99 42 19 43 20 44
REMARK SMILES IDX 21 45 22 46 23 48 24 49 25 50 83 51 26 52 82 53 27 54 28 55
REMARK SMILES IDX 29 56 76 57 30 58 81 59 75 60 77 61 31 62 80 63 74 64 73 65
REMARK SMILES IDX 32 67 62 68 43 69 61 70 44 71 47 72 60 73 78 74 45 75 46 76
REMARK SMILES IDX 59 78 79 79 48 80 33 81 34 82 42 83 35 84 41 85 36 86 37 87
REMARK SMILES IDX 38 88 39 89 40 90 63 91 64 92 72 93 65 94 71 95 66 96 67 97
REMARK SMILES IDX 68 98 69 99 70 100 49 101 50 102 58 103 51 104 57 105 52 106
REMARK SMILES IDX 53 107 54 108 55 109 56 110
REMARK H PARENT 16 6 10 16 90 30 94 35 21 47 77 66 47 77
REMARK Flexibility Score: inf
ROOT
ATOM      1  C   UNL A   1      40.058  22.470  27.452  1.00  0.00     0.023 C 
ENDROOT
BRANCH   1   2
ATOM      2  C   UNL A   1      39.185  22.562  26.185  1.00  0.00     0.116 C 
BRANCH   2   3
ATOM      3  N   UNL A   1      38.620  21.285  25.767  1.00  0.00    -0.352 N 
ATOM      4  C   UNL A   1      37.489  20.928  25.067  1.00  0.00     0.251 C 
ATOM      5  O   UNL A   1      37.362  19.736  24.777  1.00  0.00    -0.269 OA
ATOM      6  H   UNL A   1      39.162  20.512  26.045  1.00  0.00     0.163 HD
BRANCH   4   7
ATOM      7  C   UNL A   1      36.424  21.878  24.625  1.00  0.00     0.042 A 
ATOM      8  C   UNL A   1      34.170  22.768  24.672  1.00  0.00     0.065 A 
ATOM      9  C   UNL A   1      35.106  21.799  25.025  1.00  0.00     0.042 A 
ATOM     10  C   UNL A   1      34.470  23.833  23.785  1.00  0.00     0.061 A 
ATOM     11  C   UNL A   1      35.795  23.869  23.326  1.00  0.00     0.029 A 
ATOM     12  C   UNL A   1      36.759  22.931  23.759  1.00  0.00     0.016 A 
BRANCH   8  13
ATOM     13  N   UNL A   1      32.896  22.644  25.247  1.00  0.00    -0.320 N 
ATOM     14  C   UNL A   1      32.113  21.498  25.288  1.00  0.00     0.255 C 
ATOM     15  O   UNL A   1      31.211  21.436  26.127  1.00  0.00    -0.269 OA
ATOM     16  H   UNL A   1      32.519  23.451  25.665  1.00  0.00     0.170 HD
BRANCH  14  17
ATOM     17  C   UNL A   1      32.309  20.343  24.371  1.00  0.00     0.043 A 
ATOM     18  C   UNL A   1      31.900  21.511  22.092  1.00  0.00     0.045 C 
ATOM     19  C   UNL A   1      32.197  20.326  22.961  1.00  0.00    -0.038 A 
ATOM     20  C   UNL A   1      32.365  19.100  22.285  1.00  0.00     0.004 A 
ATOM     21  C   UNL A   1      32.694  17.937  22.977  1.00  0.00     0.000 A 
ATOM     22  C   UNL A   1      32.679  19.172  25.047  1.00  0.00     0.014 A 
ATOM     23  C   UNL A   1      32.862  17.981  24.355  1.00  0.00     0.001 A 
ENDBRANCH  14  17
ENDBRANCH   8  13
BRANCH  10  24
ATOM     24  N   UNL A   1      33.544  24.814  23.444  1.00  0.00    -0.359 N 
ATOM     25  C   UNL A   1      33.234  25.240  22.057  1.00  0.00     0.178 C 
ATOM     26  C   UNL A   1      33.249  25.883  24.394  1.00  0.00     0.178 C 
ATOM     27  C   UNL A   1      31.891  26.080  21.959  1.00  0.00     0.284 C 
ATOM     28  C   UNL A   1      31.741  26.123  24.346  1.00  0.00     0.284 C 
ATOM     29  N   UNL A   1      31.400  26.853  23.129  1.00  0.00    -0.324 N 
ATOM     30  H   UNL A   1      30.391  26.910  22.996  1.00  0.00     0.348 HD
BRANCH  29  31
ATOM     31  C   UNL A   1      31.712  28.300  23.213  1.00  0.00     0.364 C 
BRANCH  31  32
ATOM     32  C   UNL A   1      31.100  29.109  24.356  1.00  0.00     0.279 C 
ATOM     33  O   UNL A   1      31.423  28.847  25.525  1.00  0.00    -0.268 OA
ATOM     34  N   UNL A   1      30.255  30.176  24.198  1.00  0.00    -0.321 N 
ATOM     35  H   UNL A   1      30.231  30.731  25.010  1.00  0.00     0.170 HD
BRANCH  34  36
ATOM     36  C   UNL A   1      29.407  30.705  23.198  1.00  0.00     0.041 A 
ATOM     37  C   UNL A   1      28.856  29.776  22.296  1.00  0.00     0.029 A 
ATOM     38  C   UNL A   1      29.162  32.053  22.953  1.00  0.00     0.029 A 
ATOM     39  C   UNL A   1      28.126  30.186  21.171  1.00  0.00     0.041 A 
ATOM     40  C   UNL A   1      28.483  32.476  21.797  1.00  0.00     0.041 A 
ATOM     41  C   UNL A   1      27.967  31.538  20.917  1.00  0.00     0.123 A 
ATOM     42  F   UNL A   1      27.305  31.938  19.825  1.00  0.00    -0.207 F 
ENDBRANCH  34  36
ENDBRANCH  31  32
ENDBRANCH  29  31
ENDBRANCH  10  24
ENDBRANCH   4   7
ENDBRANCH   2   3
ENDBRANCH   1   2
BRANCH   1  43
ATOM     43  C   UNL A   1      41.351  21.672  27.275  1.00  0.00     0.023 C 
BRANCH  43  44
ATOM     44  C   UNL A   1      42.568  22.560  27.089  1.00  0.00     0.116 C 
BRANCH  44  45
ATOM     45  N   UNL A   1      43.575  22.509  28.136  1.00  0.00    -0.352 N 
ATOM     46  C   UNL A   1      44.522  23.534  28.232  1.00  0.00     0.251 C 
ATOM     47  H   UNL A   1      43.591  21.759  28.772  1.00  0.00     0.163 HD
ATOM     48  O   UNL A   1      45.718  23.387  28.086  1.00  0.00    -0.269 OA
BRANCH  46  49
ATOM     49  C   UNL A   1      43.939  24.870  28.503  1.00  0.00     0.039 A 
ATOM     50  C   UNL A   1      43.728  25.774  27.459  1.00  0.00     0.014 A 
ATOM     51  C   UNL A   1      43.834  25.273  29.832  1.00  0.00     0.014 A 
ATOM     52  C   UNL A   1      43.569  27.129  27.754  1.00  0.00     0.010 A 
ATOM     53  C   UNL A   1      43.809  26.616  30.116  1.00  0.00     0.010 A 
ATOM     54  C   UNL A   1      43.699  27.546  29.078  1.00  0.00    -0.014 A 
BRANCH  54  55
ATOM     55  C   UNL A   1      43.757  28.928  29.529  1.00  0.00     0.031 A 
ATOM     56  C   UNL A   1      42.529  29.575  30.031  1.00  0.00     0.074 A 
ATOM     57  C   UNL A   1      44.966  29.496  29.724  1.00  0.00     0.049 A 
ATOM     58  N   UNL A   1      42.420  30.831  30.295  1.00  0.00    -0.248 NA
ATOM     59  C   UNL A   1      41.283  28.839  30.227  1.00  0.00     0.031 C 
ATOM     60  C   UNL A   1      45.292  30.638  30.571  1.00  0.00     0.029 A 
ATOM     61  N   UNL A   1      46.137  29.261  29.012  1.00  0.00    -0.354 N 
ATOM     62  C   UNL A   1      41.242  31.004  30.987  1.00  0.00     0.074 A 
ATOM     63  C   UNL A   1      40.519  29.771  30.803  1.00  0.00     0.031 C 
ATOM     64  C   UNL A   1      46.441  31.180  30.138  1.00  0.00     0.029 A 
ATOM     65  C   UNL A   1      46.795  30.494  28.906  1.00  0.00     0.049 A 
ATOM     66  H   UNL A   1      46.444  28.397  28.654  1.00  0.00     0.167 HD
ATOM     67  C   UNL A   1      41.096  32.113  31.767  1.00  0.00     0.031 A 
ATOM     68  C   UNL A   1      47.060  31.101  27.712  1.00  0.00     0.031 A 
ATOM     69  C   UNL A   1      42.184  33.066  31.530  1.00  0.00     0.049 A 
ATOM     70  C   UNL A   1      46.371  32.445  27.626  1.00  0.00     0.074 A 
ATOM     71  C   UNL A   1      43.315  33.412  32.250  1.00  0.00     0.029 A 
ATOM     72  N   UNL A   1      42.358  33.591  30.250  1.00  0.00    -0.354 N 
ATOM     73  N   UNL A   1      45.352  32.778  28.374  1.00  0.00    -0.248 NA
ATOM     74  C   UNL A   1      46.775  33.522  26.726  1.00  0.00     0.031 C 
ATOM     75  C   UNL A   1      44.225  34.039  31.353  1.00  0.00     0.029 A 
ATOM     76  C   UNL A   1      43.626  34.119  30.106  1.00  0.00     0.049 A 
ATOM     77  H   UNL A   1      41.669  33.586  29.545  1.00  0.00     0.167 HD
ATOM     78  C   UNL A   1      45.011  34.081  28.137  1.00  0.00     0.074 A 
ATOM     79  C   UNL A   1      45.913  34.496  27.075  1.00  0.00     0.031 C 
ATOM     80  C   UNL A   1      44.037  34.725  28.844  1.00  0.00     0.031 A 
BRANCH  67  81
ATOM     81  C   UNL A   1      40.122  32.212  32.931  1.00  0.00    -0.014 A 
ATOM     82  C   UNL A   1      39.504  33.447  33.222  1.00  0.00     0.010 A 
ATOM     83  C   UNL A   1      39.839  31.166  33.832  1.00  0.00     0.010 A 
ATOM     84  C   UNL A   1      38.708  33.635  34.368  1.00  0.00     0.020 A 
ATOM     85  C   UNL A   1      39.054  31.337  34.980  1.00  0.00     0.020 A 
ATOM     86  C   UNL A   1      38.502  32.578  35.252  1.00  0.00     0.054 A 
BRANCH  86  87
ATOM     87  S   UNL A   1      37.518  32.832  36.751  1.00  0.00     0.124 S 
ATOM     88  O   UNL A   1      38.326  33.793  37.497  1.00  0.00    -0.237 OA
ATOM     89  O   UNL A   1      36.258  33.343  36.219  1.00  0.00    -0.237 OA
ATOM     90  O   UNL A   1      37.440  31.499  37.346  1.00  0.00    -0.744 OA
ENDBRANCH  86  87
ENDBRANCH  67  81
BRANCH  68  91
ATOM     91  C   UNL A   1      47.318  30.139  26.598  1.00  0.00    -0.014 A 
ATOM     92  C   UNL A   1      48.567  29.477  26.631  1.00  0.00     0.010 A 
ATOM     93  C   UNL A   1      46.247  29.523  25.924  1.00  0.00     0.010 A 
ATOM     94  C   UNL A   1      48.679  28.145  26.223  1.00  0.00     0.020 A 
ATOM     95  C   UNL A   1      46.363  28.188  25.501  1.00  0.00     0.020 A 
ATOM     96  C   UNL A   1      47.550  27.485  25.741  1.00  0.00     0.054 A 
BRANCH  96  97
ATOM     97  S   UNL A   1      47.598  25.665  25.640  1.00  0.00     0.124 S 
ATOM     98  O   UNL A   1      46.375  25.356  24.908  1.00  0.00    -0.237 OA
ATOM     99  O   UNL A   1      48.848  25.431  24.914  1.00  0.00    -0.237 OA
ATOM    100  O   UNL A   1      47.613  25.255  27.041  1.00  0.00    -0.744 OA
ENDBRANCH  96  97
ENDBRANCH  68  91
BRANCH  80 101
ATOM    101  C   UNL A   1      43.427  36.050  28.464  1.00  0.00    -0.014 A 
ATOM    102  C   UNL A   1      43.839  37.278  29.004  1.00  0.00     0.010 A 
ATOM    103  C   UNL A   1      42.505  36.094  27.390  1.00  0.00     0.010 A 
ATOM    104  C   UNL A   1      43.316  38.489  28.534  1.00  0.00     0.020 A 
ATOM    105  C   UNL A   1      42.014  37.299  26.882  1.00  0.00     0.020 A 
ATOM    106  C   UNL A   1      42.407  38.492  27.474  1.00  0.00     0.054 A 
BRANCH 106 107
ATOM    107  S   UNL A   1      41.808  40.066  26.814  1.00  0.00     0.124 S 
ATOM    108  O   UNL A   1      41.394  40.761  28.030  1.00  0.00    -0.237 OA
ATOM    109  O   UNL A   1      42.989  40.615  26.152  1.00  0.00    -0.237 OA
ATOM    110  O   UNL A   1      40.728  39.670  25.916  1.00  0.00    -0.744 OA
ENDBRANCH 106 107
ENDBRANCH  80 101
ENDBRANCH  54  55
ENDBRANCH  46  49
ENDBRANCH  44  45
ENDBRANCH  43  44
ENDBRANCH   1  43
TORSDOF 20
ENDMDL
MODEL 2
REMARK VINA RESULT:     -12.4      1.581      2.239
REMARK SMILES Cc1ccccc1C(=O)Nc1cc(C(=O)NCCCCNC(=O)c2ccc(-c3c4nc(c(-c5ccc(S(=O)(=O)[O-])cc5)c5ccc([nH]5)c(-c5ccc(S(=O)(=O)[O-])cc5)c5nc(c(-c6ccc(S(=O)(=O)[O-])cc6)c6ccc3[nH]6)C=C5)C=C4)cc2)ccc1N1CC[NH+](CC(=O)Nc2ccc(F)cc2)CC1
REMARK SMILES IDX 18 1 17 2 16 3 14 4 15 5 13 7 11 8 12 9 86 10 85 11 84 12
REMARK SMILES IDX 10 13 8 14 9 15 7 17 1 18 2 19 3 20 4 21 6 22 5 23 87 24
REMARK SMILES IDX 88 25 103 26 89 27 102 28 90 29 91 31 92 32 93 33 94 34
REMARK SMILES IDX 95 36 96 37 101 38 97 39 100 40 98 41 99 42 19 43 20 44
REMARK SMILES IDX 21 45 22 46 23 48 24 49 25 50 83 51 26 52 82 53 27 54 28 55
REMARK SMILES IDX 29 56 76 57 30 58 81 59 75 60 77 61 31 62 80 63 74 64 73 65
REMARK SMILES IDX 32 67 62 68 43 69 61 70 44 71 47 72 60 73 78 74 45 75 46 76
REMARK SMILES IDX 59 78 79 79 48 80 33 81 34 82 42 83 35 84 41 85 36 86 37 87
REMARK SMILES IDX 38 88 39 89 40 90 63 91 64 92 72 93 65 94 71 95 66 96 67 97
REMARK SMILES IDX 68 98 69 99 70 100 49 101 50 102 58 103 51 104 57 105 52 106
REMARK SMILES IDX 53 107 54 108 55 109 56 110
REMARK H PARENT 16 6 10 16 90 30 94 35 21 47 77 66 47 77
REMARK Flexibility Score: inf
ROOT
ATOM      1  C   UNL A   1      39.730  23.233  27.511  1.00  0.00     0.023 C 
ENDROOT
BRANCH   1   2
ATOM      2  C   UNL A   1      39.141  23.101  26.092  1.00  0.00     0.116 C 
BRANCH   2   3
ATOM      3  N   UNL A   1      38.746  21.741  25.744  1.00  0.00    -0.352 N 
ATOM      4  C   UNL A   1      37.676  21.205  25.064  1.00  0.00     0.251 C 
ATOM      5  O   UNL A   1      37.704  19.993  24.839  1.00  0.00    -0.269 OA
ATOM      6  H   UNL A   1      39.380  21.060  26.065  1.00  0.00     0.163 HD
BRANCH   4   7
ATOM      7  C   UNL A   1      36.502  21.987  24.569  1.00  0.00     0.042 A 
ATOM      8  C   UNL A   1      34.167  22.633  24.611  1.00  0.00     0.065 A 
ATOM      9  C   UNL A   1      35.212  21.810  25.025  1.00  0.00     0.042 A 
ATOM     10  C   UNL A   1      34.325  23.626  23.612  1.00  0.00     0.061 A 
ATOM     11  C   UNL A   1      35.625  23.755  23.102  1.00  0.00     0.029 A 
ATOM     12  C   UNL A   1      36.697  22.974  23.590  1.00  0.00     0.016 A 
BRANCH   8  13
ATOM     13  N   UNL A   1      32.930  22.435  25.243  1.00  0.00    -0.320 N 
ATOM     14  C   UNL A   1      32.233  21.238  25.345  1.00  0.00     0.255 C 
ATOM     15  O   UNL A   1      31.373  21.135  26.224  1.00  0.00    -0.269 OA
ATOM     16  H   UNL A   1      32.513  23.225  25.657  1.00  0.00     0.170 HD
BRANCH  14  17
ATOM     17  C   UNL A   1      32.473  20.076  24.450  1.00  0.00     0.043 A 
ATOM     18  C   UNL A   1      31.870  21.145  22.165  1.00  0.00     0.045 C 
ATOM     19  C   UNL A   1      32.297  20.010  23.047  1.00  0.00    -0.038 A 
ATOM     20  C   UNL A   1      32.526  18.781  22.395  1.00  0.00     0.004 A 
ATOM     21  C   UNL A   1      32.974  17.667  23.098  1.00  0.00     0.000 A 
ATOM     22  C   UNL A   1      32.963  18.955  25.136  1.00  0.00     0.014 A 
ATOM     23  C   UNL A   1      33.203  17.763  24.465  1.00  0.00     0.001 A 
ENDBRANCH  14  17
ENDBRANCH   8  13
BRANCH  10  24
ATOM     24  N   UNL A   1      33.289  24.463  23.209  1.00  0.00    -0.359 N 
ATOM     25  C   UNL A   1      33.442  25.619  22.292  1.00  0.00     0.178 C 
ATOM     26  C   UNL A   1      32.131  24.642  24.082  1.00  0.00     0.178 C 
ATOM     27  C   UNL A   1      32.054  26.137  21.722  1.00  0.00     0.284 C 
ATOM     28  C   UNL A   1      30.892  24.649  23.189  1.00  0.00     0.284 C 
ATOM     29  N   UNL A   1      30.799  25.925  22.489  1.00  0.00    -0.324 N 
ATOM     30  H   UNL A   1      30.064  25.914  21.782  1.00  0.00     0.348 HD
BRANCH  29  31
ATOM     31  C   UNL A   1      30.289  27.022  23.347  1.00  0.00     0.364 C 
BRANCH  31  32
ATOM     32  C   UNL A   1      30.539  28.463  22.905  1.00  0.00     0.279 C 
ATOM     33  O   UNL A   1      30.077  28.854  21.821  1.00  0.00    -0.268 OA
ATOM     34  N   UNL A   1      31.186  29.412  23.652  1.00  0.00    -0.321 N 
ATOM     35  H   UNL A   1      30.969  30.318  23.336  1.00  0.00     0.170 HD
BRANCH  34  36
ATOM     36  C   UNL A   1      32.079  29.459  24.748  1.00  0.00     0.041 A 
ATOM     37  C   UNL A   1      33.217  28.637  24.655  1.00  0.00     0.029 A 
ATOM     38  C   UNL A   1      31.881  30.142  25.944  1.00  0.00     0.029 A 
ATOM     39  C   UNL A   1      34.098  28.475  25.735  1.00  0.00     0.041 A 
ATOM     40  C   UNL A   1      32.724  29.939  27.050  1.00  0.00     0.041 A 
ATOM     41  C   UNL A   1      33.828  29.110  26.935  1.00  0.00     0.123 A 
ATOM     42  F   UNL A   1      34.642  28.930  27.982  1.00  0.00    -0.207 F 
ENDBRANCH  34  36
ENDBRANCH  31  32
ENDBRANCH  29  31
ENDBRANCH  10  24
ENDBRANCH   4   7
ENDBRANCH   2   3
ENDBRANCH   1   2
BRANCH   1  43
ATOM     43  C   UNL A   1      40.773  22.172  27.867  1.00  0.00     0.023 C 
BRANCH  43  44
ATOM     44  C   UNL A   1      42.188  22.604  27.527  1.00  0.00     0.116 C 
BRANCH  44  45
ATOM     45  N   UNL A   1      43.172  22.502  28.592  1.00  0.00    -0.352 N 
ATOM     46  C   UNL A   1      44.177  23.468  28.697  1.00  0.00     0.251 C 
ATOM     47  H   UNL A   1      43.131  21.758  29.234  1.00  0.00     0.163 HD
ATOM     48  O   UNL A   1      45.365  23.249  28.574  1.00  0.00    -0.269 OA
BRANCH  46  49
ATOM     49  C   UNL A   1      43.671  24.840  28.947  1.00  0.00     0.039 A 
ATOM     50  C   UNL A   1      43.326  25.671  27.879  1.00  0.00     0.014 A 
ATOM     51  C   UNL A   1      43.775  25.342  30.242  1.00  0.00     0.014 A 
ATOM     52  C   UNL A   1      43.243  27.049  28.088  1.00  0.00     0.010 A 
ATOM     53  C   UNL A   1      43.823  26.703  30.421  1.00  0.00     0.010 A 
ATOM     54  C   UNL A   1      43.579  27.558  29.341  1.00  0.00    -0.014 A 
BRANCH  54  55
ATOM     55  C   UNL A   1      43.735  28.966  29.670  1.00  0.00     0.031 A 
ATOM     56  C   UNL A   1      42.572  29.721  30.175  1.00  0.00     0.074 A 
ATOM     57  C   UNL A   1      44.981  29.477  29.757  1.00  0.00     0.049 A 
ATOM     58  N   UNL A   1      42.544  30.999  30.336  1.00  0.00    -0.248 NA
ATOM     59  C   UNL A   1      41.300  29.077  30.493  1.00  0.00     0.031 C 
ATOM     60  C   UNL A   1      45.413  30.665  30.488  1.00  0.00     0.029 A 
ATOM     61  N   UNL A   1      46.098  29.118  29.012  1.00  0.00    -0.354 N 
ATOM     62  C   UNL A   1      41.416  31.296  31.069  1.00  0.00     0.074 A 
ATOM     63  C   UNL A   1      40.619  30.095  31.025  1.00  0.00     0.031 C 
ATOM     64  C   UNL A   1      46.564  31.102  29.954  1.00  0.00     0.029 A 
ATOM     65  C   UNL A   1      46.814  30.298  28.769  1.00  0.00     0.049 A 
ATOM     66  H   UNL A   1      46.339  28.211  28.713  1.00  0.00     0.167 HD
ATOM     67  C   UNL A   1      41.371  32.471  31.757  1.00  0.00     0.031 A 
ATOM     68  C   UNL A   1      47.047  30.789  27.516  1.00  0.00     0.031 A 
ATOM     69  C   UNL A   1      42.494  33.338  31.388  1.00  0.00     0.049 A 
ATOM     70  C   UNL A   1      46.428  32.158  27.350  1.00  0.00     0.074 A 
ATOM     71  C   UNL A   1      43.680  33.676  32.020  1.00  0.00     0.029 A 
ATOM     72  N   UNL A   1      42.627  33.745  30.061  1.00  0.00    -0.354 N 
ATOM     73  N   UNL A   1      45.469  32.610  28.116  1.00  0.00    -0.248 NA
ATOM     74  C   UNL A   1      46.839  33.133  26.344  1.00  0.00     0.031 C 
ATOM     75  C   UNL A   1      44.572  34.174  31.029  1.00  0.00     0.029 A 
ATOM     76  C   UNL A   1      43.912  34.186  29.811  1.00  0.00     0.049 A 
ATOM     77  H   UNL A   1      41.903  33.722  29.394  1.00  0.00     0.167 HD
ATOM     78  C   UNL A   1      45.186  33.906  27.786  1.00  0.00     0.074 A 
ATOM     79  C   UNL A   1      46.051  34.180  26.650  1.00  0.00     0.031 C 
ATOM     80  C   UNL A   1      44.287  34.661  28.483  1.00  0.00     0.031 A 
BRANCH  67  81
ATOM     81  C   UNL A   1      40.468  32.722  32.955  1.00  0.00    -0.014 A 
ATOM     82  C   UNL A   1      40.635  31.957  34.129  1.00  0.00     0.010 A 
ATOM     83  C   UNL A   1      39.382  33.620  32.967  1.00  0.00     0.010 A 
ATOM     84  C   UNL A   1      39.741  32.043  35.214  1.00  0.00     0.020 A 
ATOM     85  C   UNL A   1      38.479  33.715  34.036  1.00  0.00     0.020 A 
ATOM     86  C   UNL A   1      38.655  32.913  35.152  1.00  0.00     0.054 A 
BRANCH  86  87
ATOM     87  S   UNL A   1      37.479  32.990  36.526  1.00  0.00     0.124 S 
ATOM     88  O   UNL A   1      37.453  31.608  36.995  1.00  0.00    -0.237 OA
ATOM     89  O   UNL A   1      38.108  33.952  37.427  1.00  0.00    -0.237 OA
ATOM     90  O   UNL A   1      36.241  33.452  35.899  1.00  0.00    -0.744 OA
ENDBRANCH  86  87
ENDBRANCH  67  81
BRANCH  68  91
ATOM     91  C   UNL A   1      47.193  29.726  26.477  1.00  0.00    -0.014 A 
ATOM     92  C   UNL A   1      48.375  28.951  26.548  1.00  0.00     0.010 A 
ATOM     93  C   UNL A   1      46.057  29.166  25.863  1.00  0.00     0.010 A 
ATOM     94  C   UNL A   1      48.353  27.587  26.242  1.00  0.00     0.020 A 
ATOM     95  C   UNL A   1      46.039  27.798  25.542  1.00  0.00     0.020 A 
ATOM     96  C   UNL A   1      47.158  27.004  25.823  1.00  0.00     0.054 A 
BRANCH  96  97
ATOM     97  S   UNL A   1      47.031  25.186  25.861  1.00  0.00     0.124 S 
ATOM     98  O   UNL A   1      47.745  24.794  24.651  1.00  0.00    -0.237 OA
ATOM     99  O   UNL A   1      47.697  24.858  27.124  1.00  0.00    -0.237 OA
ATOM    100  O   UNL A   1      45.590  24.953  25.846  1.00  0.00    -0.744 OA
ENDBRANCH  96  97
ENDBRANCH  68  91
BRANCH  80 101
ATOM    101  C   UNL A   1      43.729  35.984  28.022  1.00  0.00    -0.014 A 
ATOM    102  C   UNL A   1      42.623  36.105  27.167  1.00  0.00     0.010 A 
ATOM    103  C   UNL A   1      44.230  37.175  28.602  1.00  0.00     0.010 A 
ATOM    104  C   UNL A   1      42.077  37.358  26.860  1.00  0.00     0.020 A 
ATOM    105  C   UNL A   1      43.662  38.423  28.341  1.00  0.00     0.020 A 
ATOM    106  C   UNL A   1      42.599  38.509  27.450  1.00  0.00     0.054 A 
BRANCH 106 107
ATOM    107  S   UNL A   1      41.828  40.112  27.119  1.00  0.00     0.124 S 
ATOM    108  O   UNL A   1      42.974  40.913  26.695  1.00  0.00    -0.237 OA
ATOM    109  O   UNL A   1      40.861  39.800  26.070  1.00  0.00    -0.237 OA
ATOM    110  O   UNL A   1      41.243  40.481  28.405  1.00  0.00    -0.744 OA
ENDBRANCH 106 107
ENDBRANCH  80 101
ENDBRANCH  54  55
ENDBRANCH  46  49
ENDBRANCH  44  45
ENDBRANCH  43  44
ENDBRANCH   1  43
TORSDOF 20
ENDMDL
MODEL 3
REMARK VINA RESULT:     -12.4      2.708      3.739
REMARK SMILES Cc1ccccc1C(=O)Nc1cc(C(=O)NCCCCNC(=O)c2ccc(-c3c4nc(c(-c5ccc(S(=O)(=O)[O-])cc5)c5ccc([nH]5)c(-c5ccc(S(=O)(=O)[O-])cc5)c5nc(c(-c6ccc(S(=O)(=O)[O-])cc6)c6ccc3[nH]6)C=C5)C=C4)cc2)ccc1N1CC[NH+](CC(=O)Nc2ccc(F)cc2)CC1
REMARK SMILES IDX 18 1 17 2 16 3 14 4 15 5 13 7 11 8 12 9 86 10 85 11 84 12
REMARK SMILES IDX 10 13 8 14 9 15 7 17 1 18 2 19 3 20 4 21 6 22 5 23 87 24
REMARK SMILES IDX 88 25 103 26 89 27 102 28 90 29 91 31 92 32 93 33 94 34
REMARK SMILES IDX 95 36 96 37 101 38 97 39 100 40 98 41 99 42 19 43 20 44
REMARK SMILES IDX 21 45 22 46 23 48 24 49 25 50 83 51 26 52 82 53 27 54 28 55
REMARK SMILES IDX 29 56 76 57 30 58 81 59 75 60 77 61 31 62 80 63 74 64 73 65
REMARK SMILES IDX 32 67 62 68 43 69 61 70 44 71 47 72 60 73 78 74 45 75 46 76
REMARK SMILES IDX 59 78 79 79 48 80 33 81 34 82 42 83 35 84 41 85 36 86 37 87
REMARK SMILES IDX 38 88 39 89 40 90 63 91 64 92 72 93 65 94 71 95 66 96 67 97
REMARK SMILES IDX 68 98 69 99 70 100 49 101 50 102 58 103 51 104 57 105 52 106
REMARK SMILES IDX 53 107 54 108 55 109 56 110
REMARK H PARENT 16 6 10 16 90 30 94 35 21 47 77 66 47 77
REMARK Flexibility Score: inf
ROOT
ATOM      1  C   UNL A   1      40.501  23.415  26.843  1.00  0.00     0.023 C 
ENDROOT
BRANCH   1   2
ATOM      2  C   UNL A   1      39.021  22.993  26.752  1.00  0.00     0.116 C 
BRANCH   2   3
ATOM      3  N   UNL A   1      38.826  21.648  26.223  1.00  0.00    -0.352 N 
ATOM      4  C   UNL A   1      37.940  21.099  25.324  1.00  0.00     0.251 C 
ATOM      5  O   UNL A   1      38.123  19.922  25.002  1.00  0.00    -0.269 OA
ATOM      6  H   UNL A   1      39.463  20.992  26.588  1.00  0.00     0.163 HD
BRANCH   4   7
ATOM      7  C   UNL A   1      36.791  21.827  24.705  1.00  0.00     0.042 A 
ATOM      8  C   UNL A   1      34.462  22.487  24.593  1.00  0.00     0.065 A 
ATOM      9  C   UNL A   1      35.484  21.710  25.132  1.00  0.00     0.042 A 
ATOM     10  C   UNL A   1      34.664  23.362  23.495  1.00  0.00     0.061 A 
ATOM     11  C   UNL A   1      35.982  23.425  23.020  1.00  0.00     0.029 A 
ATOM     12  C   UNL A   1      37.028  22.698  23.629  1.00  0.00     0.016 A 
BRANCH   8  13
ATOM     13  N   UNL A   1      33.202  22.368  25.199  1.00  0.00    -0.320 N 
ATOM     14  C   UNL A   1      32.432  21.217  25.292  1.00  0.00     0.255 C 
ATOM     15  O   UNL A   1      31.549  21.171  26.152  1.00  0.00    -0.269 OA
ATOM     16  H   UNL A   1      32.826  23.184  25.600  1.00  0.00     0.170 HD
BRANCH  14  17
ATOM     17  C   UNL A   1      32.621  20.036  24.407  1.00  0.00     0.043 A 
ATOM     18  C   UNL A   1      31.819  21.039  22.153  1.00  0.00     0.045 C 
ATOM     19  C   UNL A   1      32.334  19.933  23.026  1.00  0.00    -0.038 A 
ATOM     20  C   UNL A   1      32.532  18.692  22.386  1.00  0.00     0.004 A 
ATOM     21  C   UNL A   1      33.054  17.603  23.077  1.00  0.00     0.000 A 
ATOM     22  C   UNL A   1      33.183  18.940  25.078  1.00  0.00     0.014 A 
ATOM     23  C   UNL A   1      33.389  17.736  24.418  1.00  0.00     0.001 A 
ENDBRANCH  14  17
ENDBRANCH   8  13
BRANCH  10  24
ATOM     24  N   UNL A   1      33.650  24.155  22.966  1.00  0.00    -0.359 N 
ATOM     25  C   UNL A   1      33.310  24.244  21.524  1.00  0.00     0.178 C 
ATOM     26  C   UNL A   1      33.247  25.369  23.671  1.00  0.00     0.178 C 
ATOM     27  C   UNL A   1      31.893  24.911  21.269  1.00  0.00     0.284 C 
ATOM     28  C   UNL A   1      31.724  25.449  23.593  1.00  0.00     0.284 C 
ATOM     29  N   UNL A   1      31.323  25.866  22.255  1.00  0.00    -0.324 N 
ATOM     30  H   UNL A   1      30.313  25.797  22.126  1.00  0.00     0.348 HD
BRANCH  29  31
ATOM     31  C   UNL A   1      31.494  27.321  22.024  1.00  0.00     0.364 C 
BRANCH  31  32
ATOM     32  C   UNL A   1      30.620  28.289  22.820  1.00  0.00     0.279 C 
ATOM     33  O   UNL A   1      29.599  28.759  22.292  1.00  0.00    -0.268 OA
ATOM     34  N   UNL A   1      30.828  28.642  24.127  1.00  0.00    -0.321 N 
ATOM     35  H   UNL A   1      30.008  29.008  24.529  1.00  0.00     0.170 HD
BRANCH  34  36
ATOM     36  C   UNL A   1      31.888  28.629  25.063  1.00  0.00     0.041 A 
ATOM     37  C   UNL A   1      31.539  28.322  26.391  1.00  0.00     0.029 A 
ATOM     38  C   UNL A   1      33.207  29.001  24.821  1.00  0.00     0.029 A 
ATOM     39  C   UNL A   1      32.465  28.425  27.439  1.00  0.00     0.041 A 
ATOM     40  C   UNL A   1      34.126  29.166  25.872  1.00  0.00     0.041 A 
ATOM     41  C   UNL A   1      33.748  28.873  27.172  1.00  0.00     0.123 A 
ATOM     42  F   UNL A   1      34.626  29.012  28.172  1.00  0.00    -0.207 F 
ENDBRANCH  34  36
ENDBRANCH  31  32
ENDBRANCH  29  31
ENDBRANCH  10  24
ENDBRANCH   4   7
ENDBRANCH   2   3
ENDBRANCH   1   2
BRANCH   1  43
ATOM     43  C   UNL A   1      41.499  22.259  26.750  1.00  0.00     0.023 C 
BRANCH  43  44
ATOM     44  C   UNL A   1      42.204  22.199  25.408  1.00  0.00     0.116 C 
BRANCH  44  45
ATOM     45  N   UNL A   1      43.335  21.291  25.309  1.00  0.00    -0.352 N 
ATOM     46  C   UNL A   1      44.527  21.735  24.727  1.00  0.00     0.251 C 
ATOM     47  H   UNL A   1      43.262  20.370  25.649  1.00  0.00     0.163 HD
ATOM     48  O   UNL A   1      45.012  21.283  23.710  1.00  0.00    -0.269 OA
BRANCH  46  49
ATOM     49  C   UNL A   1      45.167  22.862  25.448  1.00  0.00     0.039 A 
ATOM     50  C   UNL A   1      45.504  22.737  26.797  1.00  0.00     0.014 A 
ATOM     51  C   UNL A   1      45.200  24.101  24.812  1.00  0.00     0.014 A 
ATOM     52  C   UNL A   1      45.722  23.890  27.554  1.00  0.00     0.010 A 
ATOM     53  C   UNL A   1      45.284  25.236  25.580  1.00  0.00     0.010 A 
ATOM     54  C   UNL A   1      45.523  25.132  26.954  1.00  0.00    -0.014 A 
BRANCH  54  55
ATOM     55  C   UNL A   1      45.513  26.414  27.642  1.00  0.00     0.031 A 
ATOM     56  C   UNL A   1      44.223  27.079  27.908  1.00  0.00     0.074 A 
ATOM     57  C   UNL A   1      46.644  26.834  28.247  1.00  0.00     0.049 A 
ATOM     58  N   UNL A   1      44.098  28.283  28.351  1.00  0.00    -0.248 NA
ATOM     59  C   UNL A   1      42.941  26.436  27.633  1.00  0.00     0.031 C 
ATOM     60  C   UNL A   1      46.772  27.794  29.339  1.00  0.00     0.029 A 
ATOM     61  N   UNL A   1      47.955  26.612  27.840  1.00  0.00    -0.354 N 
ATOM     62  C   UNL A   1      42.784  28.447  28.727  1.00  0.00     0.074 A 
ATOM     63  C   UNL A   1      42.088  27.328  28.143  1.00  0.00     0.031 C 
ATOM     64  C   UNL A   1      48.018  28.293  29.327  1.00  0.00     0.029 A 
ATOM     65  C   UNL A   1      48.668  27.783  28.131  1.00  0.00     0.049 A 
ATOM     66  H   UNL A   1      48.312  25.792  27.429  1.00  0.00     0.167 HD
ATOM     67  C   UNL A   1      42.475  29.427  29.623  1.00  0.00     0.031 A 
ATOM     68  C   UNL A   1      49.278  28.546  27.177  1.00  0.00     0.031 A 
ATOM     69  C   UNL A   1      43.625  30.305  29.856  1.00  0.00     0.049 A 
ATOM     70  C   UNL A   1      48.697  29.942  27.151  1.00  0.00     0.074 A 
ATOM     71  C   UNL A   1      44.528  30.431  30.898  1.00  0.00     0.029 A 
ATOM     72  N   UNL A   1      44.168  31.009  28.781  1.00  0.00    -0.354 N 
ATOM     73  N   UNL A   1      47.526  30.241  27.650  1.00  0.00    -0.248 NA
ATOM     74  C   UNL A   1      49.378  31.108  26.596  1.00  0.00     0.031 C 
ATOM     75  C   UNL A   1      45.676  31.109  30.399  1.00  0.00     0.029 A 
ATOM     76  C   UNL A   1      45.448  31.439  29.073  1.00  0.00     0.049 A 
ATOM     77  H   UNL A   1      43.701  31.177  27.930  1.00  0.00     0.167 HD
ATOM     78  C   UNL A   1      47.319  31.590  27.565  1.00  0.00     0.074 A 
ATOM     79  C   UNL A   1      48.496  32.087  26.870  1.00  0.00     0.031 C 
ATOM     80  C   UNL A   1      46.216  32.198  28.092  1.00  0.00     0.031 A 
BRANCH  67  81
ATOM     81  C   UNL A   1      41.223  29.426  30.487  1.00  0.00    -0.014 A 
ATOM     82  C   UNL A   1      40.016  29.943  29.969  1.00  0.00     0.010 A 
ATOM     83  C   UNL A   1      41.181  29.025  31.837  1.00  0.00     0.010 A 
ATOM     84  C   UNL A   1      38.865  30.100  30.765  1.00  0.00     0.020 A 
ATOM     85  C   UNL A   1      40.046  29.180  32.645  1.00  0.00     0.020 A 
ATOM     86  C   UNL A   1      38.894  29.731  32.108  1.00  0.00     0.054 A 
BRANCH  86  87
ATOM     87  S   UNL A   1      37.430  29.978  33.145  1.00  0.00     0.124 S 
ATOM     88  O   UNL A   1      37.979  30.684  34.300  1.00  0.00    -0.237 OA
ATOM     89  O   UNL A   1      36.558  30.766  32.278  1.00  0.00    -0.237 OA
ATOM     90  O   UNL A   1      36.964  28.619  33.418  1.00  0.00    -0.744 OA
ENDBRANCH  86  87
ENDBRANCH  67  81
BRANCH  68  91
ATOM     91  C   UNL A   1      49.792  27.754  26.019  1.00  0.00    -0.014 A 
ATOM     92  C   UNL A   1      48.834  26.971  25.333  1.00  0.00     0.010 A 
ATOM     93  C   UNL A   1      50.943  28.170  25.325  1.00  0.00     0.010 A 
ATOM     94  C   UNL A   1      48.901  26.815  23.946  1.00  0.00     0.020 A 
ATOM     95  C   UNL A   1      51.018  28.001  23.931  1.00  0.00     0.020 A 
ATOM     96  C   UNL A   1      49.951  27.408  23.246  1.00  0.00     0.054 A 
BRANCH  96  97
ATOM     97  S   UNL A   1      49.788  27.579  21.438  1.00  0.00     0.124 S 
ATOM     98  O   UNL A   1      48.406  27.174  21.206  1.00  0.00    -0.237 OA
ATOM     99  O   UNL A   1      50.074  29.002  21.237  1.00  0.00    -0.237 OA
ATOM    100  O   UNL A   1      50.806  26.668  20.925  1.00  0.00    -0.744 OA
ENDBRANCH  96  97
ENDBRANCH  68  91
BRANCH  80 101
ATOM    101  C   UNL A   1      45.791  33.616  27.805  1.00  0.00    -0.014 A 
ATOM    102  C   UNL A   1      44.665  33.948  27.037  1.00  0.00     0.010 A 
ATOM    103  C   UNL A   1      46.454  34.675  28.471  1.00  0.00     0.010 A 
ATOM    104  C   UNL A   1      44.251  35.279  26.895  1.00  0.00     0.020 A 
ATOM    105  C   UNL A   1      46.020  35.999  28.375  1.00  0.00     0.020 A 
ATOM    106  C   UNL A   1      44.931  36.296  27.566  1.00  0.00     0.054 A 
BRANCH 106 107
ATOM    107  S   UNL A   1      44.333  38.000  27.450  1.00  0.00     0.124 S 
ATOM    108  O   UNL A   1      44.178  38.358  28.857  1.00  0.00    -0.237 OA
ATOM    109  O   UNL A   1      45.418  38.680  26.747  1.00  0.00    -0.237 OA
ATOM    110  O   UNL A   1      43.092  37.874  26.691  1.00  0.00    -0.744 OA
ENDBRANCH 106 107
ENDBRANCH  80 101
ENDBRANCH  54  55
ENDBRANCH  46  49
ENDBRANCH  44  45
ENDBRANCH  43  44
ENDBRANCH   1  43
TORSDOF 20
ENDMDL
