MODEL 1
REMARK VINA RESULT:     -12.3      0.000      0.000
REMARK SMILES O=C(NCCCCNC(=O)c1ccc([C@H]2CCCN(C(=O)c3ccc4[nH]ccc4c3)C2)cc1)c1ccc(-c2c3nc(c(-c4ccc(S(=O)(=O)[O-])cc4)c4ccc([nH]4)c(-c4ccc(S(=O)(=O)[O-])cc4)c4nc(c(-c5ccc(S(=O)(=O)[O-])cc5)c5ccc2[nH]5)C=C4)C=C3)cc1
REMARK SMILES IDX 5 1 4 2 3 3 1 4 2 5 34 7 35 8 93 9 36 10 92 11 37 12 38 13
REMARK SMILES IDX 39 14 86 15 40 16 91 17 85 18 87 19 41 20 90 21 84 22 83 23
REMARK SMILES IDX 42 25 72 26 53 27 71 28 54 29 57 30 70 31 88 32 55 33 56 34
REMARK SMILES IDX 69 36 89 37 58 38 43 39 44 40 52 41 45 42 51 43 46 44 47 45
REMARK SMILES IDX 48 46 49 47 50 48 73 49 74 50 82 51 75 52 81 53 76 54 77 55
REMARK SMILES IDX 78 56 79 57 80 58 59 59 60 60 68 61 61 62 67 63 62 64 63 65
REMARK SMILES IDX 64 66 65 67 66 68 6 69 7 70 8 71 9 72 10 74 11 75 12 76
REMARK SMILES IDX 33 77 13 78 32 79 14 80 15 81 16 82 31 83 17 84 19 85 18 86
REMARK SMILES IDX 20 87 21 88 22 89 23 90 30 91 24 92 29 93 25 94 28 95 26 96
REMARK SMILES IDX 27 97
REMARK H PARENT 3 6 87 24 57 35 8 73 26 98
REMARK Flexibility Score: inf
ROOT
ATOM      1  C   UNL A   1      44.165  23.201  27.311  1.00  0.00     0.023 C 
ENDROOT
BRANCH   1   2
ATOM      2  C   UNL A   1      43.609  24.617  27.321  1.00  0.00     0.116 C 
BRANCH   2   3
ATOM      3  N   UNL A   1      42.823  24.941  26.139  1.00  0.00    -0.352 N 
ATOM      4  O   UNL A   1      41.144  25.903  24.968  1.00  0.00    -0.269 OA
ATOM      5  C   UNL A   1      41.779  25.833  26.015  1.00  0.00     0.251 C 
ATOM      6  H   UNL A   1      43.070  24.458  25.317  1.00  0.00     0.163 HD
BRANCH   5   7
ATOM      7  C   UNL A   1      41.412  26.677  27.175  1.00  0.00     0.039 A 
ATOM      8  C   UNL A   1      42.029  27.914  27.361  1.00  0.00     0.014 A 
ATOM      9  C   UNL A   1      40.487  26.205  28.110  1.00  0.00     0.014 A 
ATOM     10  C   UNL A   1      41.868  28.583  28.566  1.00  0.00     0.010 A 
ATOM     11  C   UNL A   1      40.238  26.942  29.275  1.00  0.00     0.010 A 
ATOM     12  C   UNL A   1      40.959  28.118  29.531  1.00  0.00    -0.014 A 
BRANCH  12  13
ATOM     13  C   UNL A   1      40.752  28.936  30.757  1.00  0.00     0.031 A 
ATOM     14  C   UNL A   1      41.664  28.828  31.949  1.00  0.00     0.074 A 
ATOM     15  C   UNL A   1      39.761  29.851  30.744  1.00  0.00     0.049 A 
ATOM     16  N   UNL A   1      41.664  29.544  33.047  1.00  0.00    -0.248 NA
ATOM     17  C   UNL A   1      42.702  27.786  31.919  1.00  0.00     0.031 C 
ATOM     18  C   UNL A   1      38.799  30.034  29.650  1.00  0.00     0.029 A 
ATOM     19  N   UNL A   1      39.422  30.825  31.646  1.00  0.00    -0.354 N 
ATOM     20  C   UNL A   1      42.688  29.038  33.838  1.00  0.00     0.074 A 
ATOM     21  C   UNL A   1      43.271  27.931  33.109  1.00  0.00     0.031 C 
ATOM     22  C   UNL A   1      38.034  31.101  29.911  1.00  0.00     0.029 A 
ATOM     23  C   UNL A   1      38.395  31.633  31.218  1.00  0.00     0.049 A 
ATOM     24  H   UNL A   1      39.871  30.936  32.515  1.00  0.00     0.167 HD
ATOM     25  C   UNL A   1      43.108  29.461  35.056  1.00  0.00     0.031 A 
ATOM     26  C   UNL A   1      37.797  32.682  31.811  1.00  0.00     0.031 A 
ATOM     27  C   UNL A   1      42.520  30.562  35.779  1.00  0.00     0.049 A 
ATOM     28  C   UNL A   1      38.280  33.125  33.159  1.00  0.00     0.074 A 
ATOM     29  C   UNL A   1      42.876  31.066  37.019  1.00  0.00     0.029 A 
ATOM     30  N   UNL A   1      41.457  31.330  35.329  1.00  0.00    -0.354 N 
ATOM     31  N   UNL A   1      39.259  32.636  33.882  1.00  0.00    -0.248 NA
ATOM     32  C   UNL A   1      37.581  34.261  33.771  1.00  0.00     0.031 C 
ATOM     33  C   UNL A   1      42.002  32.112  37.336  1.00  0.00     0.029 A 
ATOM     34  C   UNL A   1      41.135  32.295  36.270  1.00  0.00     0.049 A 
ATOM     35  H   UNL A   1      40.998  31.209  34.466  1.00  0.00     0.167 HD
ATOM     36  C   UNL A   1      39.293  33.406  35.037  1.00  0.00     0.074 A 
ATOM     37  C   UNL A   1      38.264  34.417  34.896  1.00  0.00     0.031 C 
ATOM     38  C   UNL A   1      40.096  33.281  36.122  1.00  0.00     0.031 A 
BRANCH  25  39
ATOM     39  C   UNL A   1      44.256  28.724  35.700  1.00  0.00    -0.014 A 
ATOM     40  C   UNL A   1      45.589  29.072  35.418  1.00  0.00     0.010 A 
ATOM     41  C   UNL A   1      44.000  27.721  36.653  1.00  0.00     0.010 A 
ATOM     42  C   UNL A   1      46.645  28.412  36.055  1.00  0.00     0.020 A 
ATOM     43  C   UNL A   1      45.052  27.075  37.310  1.00  0.00     0.020 A 
ATOM     44  C   UNL A   1      46.369  27.416  36.997  1.00  0.00     0.054 A 
BRANCH  44  45
ATOM     45  S   UNL A   1      47.758  26.602  37.835  1.00  0.00     0.124 S 
ATOM     46  O   UNL A   1      47.112  26.057  39.027  1.00  0.00    -0.237 OA
ATOM     47  O   UNL A   1      48.193  25.614  36.850  1.00  0.00    -0.237 OA
ATOM     48  O   UNL A   1      48.702  27.690  38.080  1.00  0.00    -0.744 OA
ENDBRANCH  44  45
ENDBRANCH  25  39
BRANCH  26  49
ATOM     49  C   UNL A   1      36.653  33.354  31.138  1.00  0.00    -0.014 A 
ATOM     50  C   UNL A   1      35.390  33.422  31.748  1.00  0.00     0.010 A 
ATOM     51  C   UNL A   1      36.839  33.954  29.877  1.00  0.00     0.010 A 
ATOM     52  C   UNL A   1      34.326  34.059  31.100  1.00  0.00     0.020 A 
ATOM     53  C   UNL A   1      35.789  34.621  29.244  1.00  0.00     0.020 A 
ATOM     54  C   UNL A   1      34.534  34.654  29.852  1.00  0.00     0.054 A 
BRANCH  54  55
ATOM     55  S   UNL A   1      33.157  35.514  29.046  1.00  0.00     0.124 S 
ATOM     56  O   UNL A   1      32.575  34.454  28.230  1.00  0.00    -0.237 OA
ATOM     57  O   UNL A   1      32.349  35.957  30.180  1.00  0.00    -0.237 OA
ATOM     58  O   UNL A   1      33.815  36.589  28.305  1.00  0.00    -0.744 OA
ENDBRANCH  54  55
ENDBRANCH  26  49
BRANCH  38  59
ATOM     59  C   UNL A   1      39.888  34.273  37.235  1.00  0.00    -0.014 A 
ATOM     60  C   UNL A   1      39.146  33.933  38.380  1.00  0.00     0.010 A 
ATOM     61  C   UNL A   1      40.442  35.561  37.132  1.00  0.00     0.010 A 
ATOM     62  C   UNL A   1      38.918  34.880  39.380  1.00  0.00     0.020 A 
ATOM     63  C   UNL A   1      40.240  36.502  38.145  1.00  0.00     0.020 A 
ATOM     64  C   UNL A   1      39.461  36.162  39.252  1.00  0.00     0.054 A 
BRANCH  64  65
ATOM     65  S   UNL A   1      39.156  37.375  40.566  1.00  0.00     0.124 S 
ATOM     66  O   UNL A   1      38.605  36.538  41.628  1.00  0.00    -0.237 OA
ATOM     67  O   UNL A   1      40.490  37.917  40.819  1.00  0.00    -0.237 OA
ATOM     68  O   UNL A   1      38.215  38.313  39.958  1.00  0.00    -0.744 OA
ENDBRANCH  64  65
ENDBRANCH  38  59
ENDBRANCH  12  13
ENDBRANCH   5   7
ENDBRANCH   2   3
ENDBRANCH   1   2
BRANCH   1  69
ATOM     69  C   UNL A   1      44.101  22.492  25.964  1.00  0.00     0.023 C 
BRANCH  69  70
ATOM     70  C   UNL A   1      42.786  21.774  25.673  1.00  0.00     0.116 C 
BRANCH  70  71
ATOM     71  N   UNL A   1      42.296  21.002  26.805  1.00  0.00    -0.352 N 
ATOM     72  C   UNL A   1      41.016  20.919  27.308  1.00  0.00     0.251 C 
ATOM     73  H   UNL A   1      42.972  20.466  27.277  1.00  0.00     0.163 HD
ATOM     74  O   UNL A   1      40.779  20.324  28.344  1.00  0.00    -0.269 OA
BRANCH  72  75
ATOM     75  C   UNL A   1      39.930  21.604  26.582  1.00  0.00     0.039 A 
ATOM     76  C   UNL A   1      39.164  20.880  25.674  1.00  0.00     0.014 A 
ATOM     77  C   UNL A   1      39.635  22.939  26.851  1.00  0.00     0.014 A 
ATOM     78  C   UNL A   1      38.022  21.466  25.124  1.00  0.00     0.005 A 
ATOM     79  C   UNL A   1      38.478  23.508  26.322  1.00  0.00     0.005 A 
ATOM     80  C   UNL A   1      37.621  22.765  25.493  1.00  0.00    -0.043 A 
BRANCH  80  81
ATOM     81  C   UNL A   1      36.291  23.320  24.985  1.00  0.00     0.039 C 
ATOM     82  C   UNL A   1      36.083  23.004  23.481  1.00  0.00     0.012 C 
ATOM     83  C   UNL A   1      35.055  22.816  25.765  1.00  0.00     0.128 C 
ATOM     84  C   UNL A   1      34.742  23.528  22.959  1.00  0.00     0.022 C 
ATOM     85  N   UNL A   1      33.818  23.356  25.213  1.00  0.00    -0.338 N 
ATOM     86  C   UNL A   1      33.576  23.034  23.810  1.00  0.00     0.120 C 
BRANCH  85  87
ATOM     87  C   UNL A   1      33.046  24.194  26.006  1.00  0.00     0.253 C 
ATOM     88  O   UNL A   1      32.528  23.858  27.068  1.00  0.00    -0.269 OA
BRANCH  87  89
ATOM     89  C   UNL A   1      32.849  25.586  25.579  1.00  0.00     0.040 A 
ATOM     90  C   UNL A   1      33.866  26.507  25.835  1.00  0.00     0.016 A 
ATOM     91  C   UNL A   1      31.633  25.966  24.995  1.00  0.00     0.024 A 
ATOM     92  C   UNL A   1      33.706  27.848  25.487  1.00  0.00     0.027 A 
ATOM     93  C   UNL A   1      31.455  27.318  24.650  1.00  0.00     0.000 A 
ATOM     94  C   UNL A   1      32.490  28.222  24.900  1.00  0.00     0.045 A 
ATOM     95  C   UNL A   1      30.383  28.056  24.077  1.00  0.00     0.028 A 
ATOM     96  N   UNL A   1      32.053  29.459  24.481  1.00  0.00    -0.361 N 
ATOM     97  C   UNL A   1      30.778  29.371  23.989  1.00  0.00     0.083 A 
ATOM     98  H   UNL A   1      32.583  30.288  24.528  1.00  0.00     0.166 HD
ENDBRANCH  87  89
ENDBRANCH  85  87
ENDBRANCH  80  81
ENDBRANCH  72  75
ENDBRANCH  70  71
ENDBRANCH  69  70
ENDBRANCH   1  69
TORSDOF 17
ENDMDL
MODEL 2
REMARK VINA RESULT:     -12.1      4.489     12.530
REMARK SMILES O=C(NCCCCNC(=O)c1ccc([C@H]2CCCN(C(=O)c3ccc4[nH]ccc4c3)C2)cc1)c1ccc(-c2c3nc(c(-c4ccc(S(=O)(=O)[O-])cc4)c4ccc([nH]4)c(-c4ccc(S(=O)(=O)[O-])cc4)c4nc(c(-c5ccc(S(=O)(=O)[O-])cc5)c5ccc2[nH]5)C=C4)C=C3)cc1
REMARK SMILES IDX 5 1 4 2 3 3 1 4 2 5 34 7 35 8 93 9 36 10 92 11 37 12 38 13
REMARK SMILES IDX 39 14 86 15 40 16 91 17 85 18 87 19 41 20 90 21 84 22 83 23
REMARK SMILES IDX 42 25 72 26 53 27 71 28 54 29 57 30 70 31 88 32 55 33 56 34
REMARK SMILES IDX 69 36 89 37 58 38 43 39 44 40 52 41 45 42 51 43 46 44 47 45
REMARK SMILES IDX 48 46 49 47 50 48 73 49 74 50 82 51 75 52 81 53 76 54 77 55
REMARK SMILES IDX 78 56 79 57 80 58 59 59 60 60 68 61 61 62 67 63 62 64 63 65
REMARK SMILES IDX 64 66 65 67 66 68 6 69 7 70 8 71 9 72 10 74 11 75 12 76
REMARK SMILES IDX 33 77 13 78 32 79 14 80 15 81 16 82 31 83 17 84 19 85 18 86
REMARK SMILES IDX 20 87 21 88 22 89 23 90 30 91 24 92 29 93 25 94 28 95 26 96
REMARK SMILES IDX 27 97
REMARK H PARENT 3 6 87 24 57 35 8 73 26 98
REMARK Flexibility Score: inf
ROOT
ATOM      1  C   UNL A   1      35.096  32.659  29.416  1.00  0.00     0.023 C 
ENDROOT
BRANCH   1   2
ATOM      2  C   UNL A   1      34.482  32.446  28.041  1.00  0.00     0.116 C 
BRANCH   2   3
ATOM      3  N   UNL A   1      33.840  31.148  27.886  1.00  0.00    -0.352 N 
ATOM      4  O   UNL A   1      33.744  28.899  27.673  1.00  0.00    -0.269 OA
ATOM      5  C   UNL A   1      34.410  29.894  27.940  1.00  0.00     0.251 C 
ATOM      6  H   UNL A   1      32.870  31.169  27.724  1.00  0.00     0.163 HD
BRANCH   5   7
ATOM      7  C   UNL A   1      35.844  29.767  28.285  1.00  0.00     0.039 A 
ATOM      8  C   UNL A   1      36.818  30.020  27.319  1.00  0.00     0.014 A 
ATOM      9  C   UNL A   1      36.215  29.340  29.563  1.00  0.00     0.014 A 
ATOM     10  C   UNL A   1      38.136  29.664  27.569  1.00  0.00     0.010 A 
ATOM     11  C   UNL A   1      37.563  29.092  29.848  1.00  0.00     0.010 A 
ATOM     12  C   UNL A   1      38.531  29.213  28.840  1.00  0.00    -0.014 A 
BRANCH  12  13
ATOM     13  C   UNL A   1      39.975  28.948  29.078  1.00  0.00     0.031 A 
ATOM     14  C   UNL A   1      40.858  29.935  29.793  1.00  0.00     0.074 A 
ATOM     15  C   UNL A   1      40.466  27.749  28.706  1.00  0.00     0.049 A 
ATOM     16  N   UNL A   1      42.110  29.800  30.156  1.00  0.00    -0.248 NA
ATOM     17  C   UNL A   1      40.276  31.241  30.140  1.00  0.00     0.031 C 
ATOM     18  C   UNL A   1      39.709  26.716  27.987  1.00  0.00     0.029 A 
ATOM     19  N   UNL A   1      41.691  27.171  28.915  1.00  0.00    -0.354 N 
ATOM     20  C   UNL A   1      42.467  30.999  30.763  1.00  0.00     0.074 A 
ATOM     21  C   UNL A   1      41.310  31.865  30.692  1.00  0.00     0.031 C 
ATOM     22  C   UNL A   1      40.459  25.612  27.884  1.00  0.00     0.029 A 
ATOM     23  C   UNL A   1      41.770  25.876  28.460  1.00  0.00     0.049 A 
ATOM     24  H   UNL A   1      42.441  27.638  29.349  1.00  0.00     0.167 HD
ATOM     25  C   UNL A   1      43.649  31.343  31.332  1.00  0.00     0.031 A 
ATOM     26  C   UNL A   1      42.787  24.995  28.488  1.00  0.00     0.031 A 
ATOM     27  C   UNL A   1      44.802  30.477  31.395  1.00  0.00     0.049 A 
ATOM     28  C   UNL A   1      44.083  25.405  29.120  1.00  0.00     0.074 A 
ATOM     29  C   UNL A   1      46.043  30.734  31.952  1.00  0.00     0.029 A 
ATOM     30  N   UNL A   1      44.854  29.187  30.889  1.00  0.00    -0.354 N 
ATOM     31  N   UNL A   1      44.392  26.541  29.698  1.00  0.00    -0.248 NA
ATOM     32  C   UNL A   1      45.166  24.415  29.107  1.00  0.00     0.031 C 
ATOM     33  C   UNL A   1      46.859  29.617  31.745  1.00  0.00     0.029 A 
ATOM     34  C   UNL A   1      46.109  28.641  31.107  1.00  0.00     0.049 A 
ATOM     35  H   UNL A   1      44.109  28.725  30.440  1.00  0.00     0.167 HD
ATOM     36  C   UNL A   1      45.709  26.403  30.118  1.00  0.00     0.074 A 
ATOM     37  C   UNL A   1      46.121  25.059  29.764  1.00  0.00     0.031 C 
ATOM     38  C   UNL A   1      46.509  27.309  30.731  1.00  0.00     0.031 A 
BRANCH  25  39
ATOM     39  C   UNL A   1      43.769  32.724  31.926  1.00  0.00    -0.014 A 
ATOM     40  C   UNL A   1      43.507  32.951  33.289  1.00  0.00     0.010 A 
ATOM     41  C   UNL A   1      44.218  33.794  31.130  1.00  0.00     0.010 A 
ATOM     42  C   UNL A   1      43.665  34.227  33.839  1.00  0.00     0.020 A 
ATOM     43  C   UNL A   1      44.400  35.066  31.681  1.00  0.00     0.020 A 
ATOM     44  C   UNL A   1      44.110  35.278  33.030  1.00  0.00     0.054 A 
BRANCH  44  45
ATOM     45  S   UNL A   1      44.341  36.915  33.779  1.00  0.00     0.124 S 
ATOM     46  O   UNL A   1      44.592  36.573  35.177  1.00  0.00    -0.237 OA
ATOM     47  O   UNL A   1      45.490  37.443  33.047  1.00  0.00    -0.237 OA
ATOM     48  O   UNL A   1      43.075  37.597  33.522  1.00  0.00    -0.744 OA
ENDBRANCH  44  45
ENDBRANCH  25  39
BRANCH  26  49
ATOM     49  C   UNL A   1      42.618  23.656  27.864  1.00  0.00    -0.014 A 
ATOM     50  C   UNL A   1      42.993  23.423  26.530  1.00  0.00     0.010 A 
ATOM     51  C   UNL A   1      42.094  22.593  28.624  1.00  0.00     0.010 A 
ATOM     52  C   UNL A   1      42.828  22.157  25.961  1.00  0.00     0.020 A 
ATOM     53  C   UNL A   1      41.961  21.319  28.070  1.00  0.00     0.020 A 
ATOM     54  C   UNL A   1      42.312  21.113  26.736  1.00  0.00     0.054 A 
BRANCH  54  55
ATOM     55  S   UNL A   1      42.145  19.466  25.996  1.00  0.00     0.124 S 
ATOM     56  O   UNL A   1      42.646  18.604  27.061  1.00  0.00    -0.237 OA
ATOM     57  O   UNL A   1      40.711  19.379  25.731  1.00  0.00    -0.237 OA
ATOM     58  O   UNL A   1      42.985  19.543  24.803  1.00  0.00    -0.744 OA
ENDBRANCH  54  55
ENDBRANCH  26  49
BRANCH  38  59
ATOM     59  C   UNL A   1      47.908  26.863  31.059  1.00  0.00    -0.014 A 
ATOM     60  C   UNL A   1      48.193  26.206  32.270  1.00  0.00     0.010 A 
ATOM     61  C   UNL A   1      48.949  27.105  30.146  1.00  0.00     0.010 A 
ATOM     62  C   UNL A   1      49.505  25.845  32.584  1.00  0.00     0.020 A 
ATOM     63  C   UNL A   1      50.258  26.718  30.445  1.00  0.00     0.020 A 
ATOM     64  C   UNL A   1      50.530  26.110  31.672  1.00  0.00     0.054 A 
BRANCH  64  65
ATOM     65  S   UNL A   1      52.226  25.627  32.098  1.00  0.00     0.124 S 
ATOM     66  O   UNL A   1      52.589  26.639  33.087  1.00  0.00    -0.237 OA
ATOM     67  O   UNL A   1      52.054  24.273  32.619  1.00  0.00    -0.237 OA
ATOM     68  O   UNL A   1      52.940  25.714  30.826  1.00  0.00    -0.744 OA
ENDBRANCH  64  65
ENDBRANCH  38  59
ENDBRANCH  12  13
ENDBRANCH   5   7
ENDBRANCH   2   3
ENDBRANCH   1   2
BRANCH   1  69
ATOM     69  C   UNL A   1      36.284  33.613  29.452  1.00  0.00     0.023 C 
BRANCH  69  70
ATOM     70  C   UNL A   1      37.103  33.577  30.739  1.00  0.00     0.116 C 
BRANCH  70  71
ATOM     71  N   UNL A   1      36.280  33.490  31.937  1.00  0.00    -0.352 N 
ATOM     72  C   UNL A   1      36.495  32.761  33.085  1.00  0.00     0.251 C 
ATOM     73  H   UNL A   1      35.455  34.026  31.924  1.00  0.00     0.163 HD
ATOM     74  O   UNL A   1      35.650  32.691  33.960  1.00  0.00    -0.269 OA
BRANCH  72  75
ATOM     75  C   UNL A   1      37.766  32.024  33.222  1.00  0.00     0.039 A 
ATOM     76  C   UNL A   1      38.888  32.698  33.695  1.00  0.00     0.014 A 
ATOM     77  C   UNL A   1      37.824  30.660  32.944  1.00  0.00     0.014 A 
ATOM     78  C   UNL A   1      40.040  31.971  34.004  1.00  0.00     0.005 A 
ATOM     79  C   UNL A   1      38.966  29.937  33.283  1.00  0.00     0.005 A 
ATOM     80  C   UNL A   1      40.075  30.570  33.870  1.00  0.00    -0.043 A 
BRANCH  80  81
ATOM     81  C   UNL A   1      41.298  29.792  34.353  1.00  0.00     0.039 C 
ATOM     82  C   UNL A   1      41.611  30.098  35.841  1.00  0.00     0.012 C 
ATOM     83  C   UNL A   1      41.182  28.260  34.184  1.00  0.00     0.128 C 
ATOM     84  C   UNL A   1      42.818  29.306  36.354  1.00  0.00     0.022 C 
ATOM     85  N   UNL A   1      42.365  27.575  34.692  1.00  0.00    -0.338 N 
ATOM     86  C   UNL A   1      42.657  27.811  36.103  1.00  0.00     0.120 C 
BRANCH  85  87
ATOM     87  C   UNL A   1      43.156  26.864  33.800  1.00  0.00     0.253 C 
ATOM     88  O   UNL A   1      43.450  27.254  32.673  1.00  0.00    -0.269 OA
BRANCH  87  89
ATOM     89  C   UNL A   1      43.710  25.571  34.224  1.00  0.00     0.040 A 
ATOM     90  C   UNL A   1      42.845  24.635  34.793  1.00  0.00     0.016 A 
ATOM     91  C   UNL A   1      45.087  25.338  34.114  1.00  0.00     0.024 A 
ATOM     92  C   UNL A   1      43.334  23.411  35.251  1.00  0.00     0.027 A 
ATOM     93  C   UNL A   1      45.594  24.113  34.583  1.00  0.00     0.000 A 
ATOM     94  C   UNL A   1      44.711  23.182  35.135  1.00  0.00     0.045 A 
ATOM     95  C   UNL A   1      46.897  23.547  34.656  1.00  0.00     0.028 A 
ATOM     96  N   UNL A   1      45.461  22.092  35.516  1.00  0.00    -0.361 N 
ATOM     97  C   UNL A   1      46.785  22.306  35.237  1.00  0.00     0.083 A 
ATOM     98  H   UNL A   1      45.098  21.275  35.929  1.00  0.00     0.166 HD
ENDBRANCH  87  89
ENDBRANCH  85  87
ENDBRANCH  80  81
ENDBRANCH  72  75
ENDBRANCH  70  71
ENDBRANCH  69  70
ENDBRANCH   1  69
TORSDOF 17
ENDMDL
MODEL 3
REMARK VINA RESULT:     -12.0      3.842     11.204
REMARK SMILES O=C(NCCCCNC(=O)c1ccc([C@H]2CCCN(C(=O)c3ccc4[nH]ccc4c3)C2)cc1)c1ccc(-c2c3nc(c(-c4ccc(S(=O)(=O)[O-])cc4)c4ccc([nH]4)c(-c4ccc(S(=O)(=O)[O-])cc4)c4nc(c(-c5ccc(S(=O)(=O)[O-])cc5)c5ccc2[nH]5)C=C4)C=C3)cc1
REMARK SMILES IDX 5 1 4 2 3 3 1 4 2 5 34 7 35 8 93 9 36 10 92 11 37 12 38 13
REMARK SMILES IDX 39 14 86 15 40 16 91 17 85 18 87 19 41 20 90 21 84 22 83 23
REMARK SMILES IDX 42 25 72 26 53 27 71 28 54 29 57 30 70 31 88 32 55 33 56 34
REMARK SMILES IDX 69 36 89 37 58 38 43 39 44 40 52 41 45 42 51 43 46 44 47 45
REMARK SMILES IDX 48 46 49 47 50 48 73 49 74 50 82 51 75 52 81 53 76 54 77 55
REMARK SMILES IDX 78 56 79 57 80 58 59 59 60 60 68 61 61 62 67 63 62 64 63 65
REMARK SMILES IDX 64 66 65 67 66 68 6 69 7 70 8 71 9 72 10 74 11 75 12 76
REMARK SMILES IDX 33 77 13 78 32 79 14 80 15 81 16 82 31 83 17 84 19 85 18 86
REMARK SMILES IDX 20 87 21 88 22 89 23 90 30 91 24 92 29 93 25 94 28 95 26 96
REMARK SMILES IDX 27 97
REMARK H PARENT 3 6 87 24 57 35 8 73 26 98
REMARK Flexibility Score: inf
ROOT
ATOM      1  C   UNL A   1      33.229  33.408  28.413  1.00  0.00     0.023 C 
ENDROOT
BRANCH   1   2
ATOM      2  C   UNL A   1      34.314  32.562  27.764  1.00  0.00     0.116 C 
BRANCH   2   3
ATOM      3  N   UNL A   1      33.836  31.272  27.286  1.00  0.00    -0.352 N 
ATOM      4  O   UNL A   1      33.953  29.059  26.835  1.00  0.00    -0.269 OA
ATOM      5  C   UNL A   1      34.437  30.036  27.397  1.00  0.00     0.251 C 
ATOM      6  H   UNL A   1      32.968  31.283  26.824  1.00  0.00     0.163 HD
BRANCH   5   7
ATOM      7  C   UNL A   1      35.694  29.912  28.170  1.00  0.00     0.039 A 
ATOM      8  C   UNL A   1      36.924  30.060  27.529  1.00  0.00     0.014 A 
ATOM      9  C   UNL A   1      35.643  29.591  29.529  1.00  0.00     0.014 A 
ATOM     10  C   UNL A   1      38.088  29.701  28.195  1.00  0.00     0.010 A 
ATOM     11  C   UNL A   1      36.830  29.343  30.229  1.00  0.00     0.010 A 
ATOM     12  C   UNL A   1      38.061  29.355  29.557  1.00  0.00    -0.014 A 
BRANCH  12  13
ATOM     13  C   UNL A   1      39.353  29.084  30.242  1.00  0.00     0.031 A 
ATOM     14  C   UNL A   1      40.331  28.065  29.721  1.00  0.00     0.074 A 
ATOM     15  C   UNL A   1      39.672  29.843  31.310  1.00  0.00     0.049 A 
ATOM     16  N   UNL A   1      41.536  27.790  30.158  1.00  0.00    -0.248 NA
ATOM     17  C   UNL A   1      39.911  27.242  28.577  1.00  0.00     0.031 C 
ATOM     18  C   UNL A   1      38.794  30.850  31.918  1.00  0.00     0.029 A 
ATOM     19  N   UNL A   1      40.824  29.924  32.046  1.00  0.00    -0.354 N 
ATOM     20  C   UNL A   1      42.012  26.763  29.352  1.00  0.00     0.074 A 
ATOM     21  C   UNL A   1      40.956  26.439  28.418  1.00  0.00     0.031 C 
ATOM     22  C   UNL A   1      39.466  31.497  32.879  1.00  0.00     0.029 A 
ATOM     23  C   UNL A   1      40.790  30.906  33.009  1.00  0.00     0.049 A 
ATOM     24  H   UNL A   1      41.602  29.337  31.900  1.00  0.00     0.167 HD
ATOM     25  C   UNL A   1      43.222  26.151  29.384  1.00  0.00     0.031 A 
ATOM     26  C   UNL A   1      41.715  31.286  33.909  1.00  0.00     0.031 A 
ATOM     27  C   UNL A   1      44.271  26.475  30.321  1.00  0.00     0.049 A 
ATOM     28  C   UNL A   1      43.042  30.590  33.923  1.00  0.00     0.074 A 
ATOM     29  C   UNL A   1      45.531  25.912  30.432  1.00  0.00     0.029 A 
ATOM     30  N   UNL A   1      44.183  27.449  31.304  1.00  0.00    -0.354 N 
ATOM     31  N   UNL A   1      43.473  29.628  33.142  1.00  0.00    -0.248 NA
ATOM     32  C   UNL A   1      44.008  31.029  34.937  1.00  0.00     0.031 C 
ATOM     33  C   UNL A   1      46.190  26.516  31.509  1.00  0.00     0.029 A 
ATOM     34  C   UNL A   1      45.360  27.494  32.035  1.00  0.00     0.049 A 
ATOM     35  H   UNL A   1      43.400  28.025  31.462  1.00  0.00     0.167 HD
ATOM     36  C   UNL A   1      44.764  29.346  33.571  1.00  0.00     0.074 A 
ATOM     37  C   UNL A   1      45.055  30.267  34.652  1.00  0.00     0.031 C 
ATOM     38  C   UNL A   1      45.626  28.403  33.120  1.00  0.00     0.031 A 
BRANCH  25  39
ATOM     39  C   UNL A   1      43.483  25.054  28.383  1.00  0.00    -0.014 A 
ATOM     40  C   UNL A   1      43.024  23.744  28.607  1.00  0.00     0.010 A 
ATOM     41  C   UNL A   1      44.132  25.350  27.169  1.00  0.00     0.010 A 
ATOM     42  C   UNL A   1      43.232  22.745  27.651  1.00  0.00     0.020 A 
ATOM     43  C   UNL A   1      44.322  24.360  26.200  1.00  0.00     0.020 A 
ATOM     44  C   UNL A   1      43.882  23.059  26.453  1.00  0.00     0.054 A 
BRANCH  44  45
ATOM     45  S   UNL A   1      44.106  21.751  25.214  1.00  0.00     0.124 S 
ATOM     46  O   UNL A   1      45.483  21.334  25.465  1.00  0.00    -0.237 OA
ATOM     47  O   UNL A   1      43.079  20.780  25.584  1.00  0.00    -0.237 OA
ATOM     48  O   UNL A   1      43.883  22.435  23.943  1.00  0.00    -0.744 OA
ENDBRANCH  44  45
ENDBRANCH  25  39
BRANCH  26  49
ATOM     49  C   UNL A   1      41.392  32.358  34.888  1.00  0.00    -0.014 A 
ATOM     50  C   UNL A   1      41.714  33.700  34.628  1.00  0.00     0.010 A 
ATOM     51  C   UNL A   1      40.731  32.031  36.088  1.00  0.00     0.010 A 
ATOM     52  C   UNL A   1      41.401  34.695  35.561  1.00  0.00     0.020 A 
ATOM     53  C   UNL A   1      40.386  33.025  37.005  1.00  0.00     0.020 A 
ATOM     54  C   UNL A   1      40.740  34.350  36.744  1.00  0.00     0.054 A 
BRANCH  54  55
ATOM     55  S   UNL A   1      40.302  35.656  37.922  1.00  0.00     0.124 S 
ATOM     56  O   UNL A   1      39.893  36.739  37.034  1.00  0.00    -0.237 OA
ATOM     57  O   UNL A   1      39.233  35.037  38.702  1.00  0.00    -0.237 OA
ATOM     58  O   UNL A   1      41.546  35.881  38.656  1.00  0.00    -0.744 OA
ENDBRANCH  54  55
ENDBRANCH  26  49
BRANCH  38  59
ATOM     59  C   UNL A   1      46.968  28.333  33.798  1.00  0.00    -0.014 A 
ATOM     60  C   UNL A   1      47.157  27.551  34.952  1.00  0.00     0.010 A 
ATOM     61  C   UNL A   1      48.052  29.059  33.274  1.00  0.00     0.010 A 
ATOM     62  C   UNL A   1      48.394  27.538  35.600  1.00  0.00     0.020 A 
ATOM     63  C   UNL A   1      49.299  29.024  33.904  1.00  0.00     0.020 A 
ATOM     64  C   UNL A   1      49.455  28.281  35.075  1.00  0.00     0.054 A 
BRANCH  64  65
ATOM     65  S   UNL A   1      51.054  28.245  35.930  1.00  0.00     0.124 S 
ATOM     66  O   UNL A   1      51.601  29.560  35.606  1.00  0.00    -0.237 OA
ATOM     67  O   UNL A   1      50.668  28.051  37.326  1.00  0.00    -0.237 OA
ATOM     68  O   UNL A   1      51.747  27.113  35.319  1.00  0.00    -0.744 OA
ENDBRANCH  64  65
ENDBRANCH  38  59
ENDBRANCH  12  13
ENDBRANCH   5   7
ENDBRANCH   2   3
ENDBRANCH   1   2
BRANCH   1  69
ATOM     69  C   UNL A   1      33.596  34.870  28.637  1.00  0.00     0.023 C 
BRANCH  69  70
ATOM     70  C   UNL A   1      33.972  35.229  30.071  1.00  0.00     0.116 C 
BRANCH  70  71
ATOM     71  N   UNL A   1      33.972  34.080  30.965  1.00  0.00    -0.352 N 
ATOM     72  C   UNL A   1      35.024  33.272  31.337  1.00  0.00     0.251 C 
ATOM     73  H   UNL A   1      33.101  33.848  31.358  1.00  0.00     0.163 HD
ATOM     74  O   UNL A   1      34.847  32.266  32.001  1.00  0.00    -0.269 OA
BRANCH  72  75
ATOM     75  C   UNL A   1      36.381  33.628  30.879  1.00  0.00     0.039 A 
ATOM     76  C   UNL A   1      37.190  34.401  31.706  1.00  0.00     0.014 A 
ATOM     77  C   UNL A   1      36.865  33.144  29.666  1.00  0.00     0.014 A 
ATOM     78  C   UNL A   1      38.532  34.587  31.368  1.00  0.00     0.005 A 
ATOM     79  C   UNL A   1      38.213  33.307  29.349  1.00  0.00     0.005 A 
ATOM     80  C   UNL A   1      39.083  33.983  30.220  1.00  0.00    -0.043 A 
BRANCH  80  81
ATOM     81  C   UNL A   1      40.585  34.086  29.958  1.00  0.00     0.039 C 
ATOM     82  C   UNL A   1      40.910  35.232  28.965  1.00  0.00     0.012 C 
ATOM     83  C   UNL A   1      41.439  34.287  31.231  1.00  0.00     0.128 C 
ATOM     84  C   UNL A   1      42.413  35.370  28.710  1.00  0.00     0.022 C 
ATOM     85  N   UNL A   1      42.856  34.409  30.911  1.00  0.00    -0.338 N 
ATOM     86  C   UNL A   1      43.194  35.509  30.013  1.00  0.00     0.120 C 
BRANCH  85  87
ATOM     87  C   UNL A   1      43.729  33.438  31.382  1.00  0.00     0.253 C 
ATOM     88  O   UNL A   1      44.234  33.446  32.502  1.00  0.00    -0.269 OA
BRANCH  87  89
ATOM     89  C   UNL A   1      44.062  32.304  30.508  1.00  0.00     0.040 A 
ATOM     90  C   UNL A   1      43.046  31.750  29.728  1.00  0.00     0.016 A 
ATOM     91  C   UNL A   1      45.356  31.768  30.532  1.00  0.00     0.024 A 
ATOM     92  C   UNL A   1      43.304  30.645  28.916  1.00  0.00     0.027 A 
ATOM     93  C   UNL A   1      45.626  30.646  29.727  1.00  0.00     0.000 A 
ATOM     94  C   UNL A   1      44.601  30.116  28.940  1.00  0.00     0.045 A 
ATOM     95  C   UNL A   1      46.778  29.842  29.511  1.00  0.00     0.028 A 
ATOM     96  N   UNL A   1      45.127  29.034  28.270  1.00  0.00    -0.361 N 
ATOM     97  C   UNL A   1      46.441  28.855  28.614  1.00  0.00     0.083 A 
ATOM     98  H   UNL A   1      44.630  28.470  27.633  1.00  0.00     0.166 HD
ENDBRANCH  87  89
ENDBRANCH  85  87
ENDBRANCH  80  81
ENDBRANCH  72  75
ENDBRANCH  70  71
ENDBRANCH  69  70
ENDBRANCH   1  69
TORSDOF 17
ENDMDL
