MODEL 1
REMARK VINA RESULT:     -10.4      0.000      0.000
REMARK SMILES [NH3+][C@H]1COC[C@@H]1C(=O)NC1(CC(=O)NCCCCNC(=O)c2ccc(-c3c4nc(c(-c5ccc(S(=O)(=O)[O-])cc5)c5ccc([nH]5)c(-c5ccc(S(=O)(=O)[O-])cc5)c5nc(c(-c6ccc(S(=O)(=O)[O-])cc6)c6ccc3[nH]6)C=C5)C=C4)cc2)CCC1
REMARK SMILES IDX 16 1 15 2 14 3 12 4 13 5 11 7 10 8 82 9 84 10 83 11 9 12
REMARK SMILES IDX 7 13 8 14 6 16 2 17 3 18 4 19 5 20 1 21 17 25 18 26 19 27
REMARK SMILES IDX 20 28 21 30 22 31 23 32 81 33 24 34 80 35 25 36 26 37 27 38
REMARK SMILES IDX 74 39 28 40 79 41 73 42 75 43 29 44 78 45 72 46 71 47 30 49
REMARK SMILES IDX 60 50 41 51 59 52 42 53 45 54 58 55 76 56 43 57 44 58 57 60
REMARK SMILES IDX 77 61 46 62 31 63 32 64 40 65 33 66 39 67 34 68 35 69 36 70
REMARK SMILES IDX 37 71 38 72 61 73 62 74 70 75 63 76 69 77 64 78 65 79 66 80
REMARK SMILES IDX 67 81 68 82 47 83 48 84 56 85 49 86 55 87 50 88 51 89 52 90
REMARK SMILES IDX 53 91 54 92
REMARK H PARENT 14 6 9 15 1 22 1 23 1 24 19 29 75 48 45 59
REMARK Flexibility Score: inf
ROOT
ATOM      1  C   UNL A   1      31.661  28.688  25.680  1.00  0.00     0.023 C 
ENDROOT
BRANCH   1   2
ATOM      2  C   UNL A   1      31.914  28.018  24.327  1.00  0.00     0.116 C 
BRANCH   2   3
ATOM      3  N   UNL A   1      31.035  26.881  24.149  1.00  0.00    -0.356 N 
ATOM      4  C   UNL A   1      31.291  25.687  23.552  1.00  0.00     0.222 C 
ATOM      5  O   UNL A   1      30.349  24.928  23.319  1.00  0.00    -0.275 OA
ATOM      6  H   UNL A   1      30.126  26.988  24.509  1.00  0.00     0.163 HD
BRANCH   4   7
ATOM      7  C   UNL A   1      32.701  25.276  23.173  1.00  0.00     0.128 C 
BRANCH   7   8
ATOM      8  C   UNL A   1      33.328  24.107  23.980  1.00  0.00     0.049 C 
ATOM      9  C   UNL A   1      33.027  24.231  25.505  1.00  0.00     0.029 C 
ATOM     10  C   UNL A   1      34.807  24.377  24.326  1.00  0.00     0.029 C 
ATOM     11  C   UNL A   1      34.361  24.969  25.674  1.00  0.00     0.005 C 
BRANCH   8  12
ATOM     12  N   UNL A   1      32.872  22.812  23.426  1.00  0.00    -0.350 N 
ATOM     13  C   UNL A   1      32.912  21.482  23.657  1.00  0.00     0.232 C 
ATOM     14  O   UNL A   1      32.184  20.837  22.880  1.00  0.00    -0.274 OA
ATOM     15  H   UNL A   1      32.361  22.980  22.601  1.00  0.00     0.164 HD
BRANCH  13  16
ATOM     16  C   UNL A   1      33.691  20.665  24.682  1.00  0.00     0.164 C 
ATOM     17  C   UNL A   1      33.121  20.517  26.082  1.00  0.00     0.221 C 
ATOM     18  C   UNL A   1      34.124  21.273  26.950  1.00  0.00     0.225 C 
ATOM     19  O   UNL A   1      35.371  21.317  26.249  1.00  0.00    -0.374 OA
ATOM     20  C   UNL A   1      35.143  21.034  24.861  1.00  0.00     0.180 C 
BRANCH  17  21
ATOM     21  N   UNL A   1      33.047  19.109  26.540  1.00  0.00    -0.352 N 
ATOM     22  H   UNL A   1      33.988  18.725  26.611  1.00  0.00     0.344 HD
ATOM     23  H   UNL A   1      32.506  18.562  25.871  1.00  0.00     0.344 HD
ATOM     24  H   UNL A   1      32.595  19.072  27.454  1.00  0.00     0.344 HD
ENDBRANCH  17  21
ENDBRANCH  13  16
ENDBRANCH   8  12
ENDBRANCH   7   8
ENDBRANCH   4   7
ENDBRANCH   2   3
ENDBRANCH   1   2
BRANCH   1  25
ATOM     25  C   UNL A   1      32.303  27.983  26.872  1.00  0.00     0.023 C 
BRANCH  25  26
ATOM     26  C   UNL A   1      33.667  28.541  27.261  1.00  0.00     0.116 C 
BRANCH  26  27
ATOM     27  N   UNL A   1      33.631  29.933  27.687  1.00  0.00    -0.352 N 
ATOM     28  C   UNL A   1      34.654  30.669  28.247  1.00  0.00     0.251 C 
ATOM     29  H   UNL A   1      32.776  30.404  27.563  1.00  0.00     0.163 HD
ATOM     30  O   UNL A   1      34.466  31.814  28.628  1.00  0.00    -0.269 OA
BRANCH  28  31
ATOM     31  C   UNL A   1      35.966  30.016  28.426  1.00  0.00     0.039 A 
ATOM     32  C   UNL A   1      36.900  30.089  27.390  1.00  0.00     0.014 A 
ATOM     33  C   UNL A   1      36.302  29.435  29.650  1.00  0.00     0.014 A 
ATOM     34  C   UNL A   1      38.207  29.652  27.616  1.00  0.00     0.010 A 
ATOM     35  C   UNL A   1      37.621  29.074  29.897  1.00  0.00     0.010 A 
ATOM     36  C   UNL A   1      38.587  29.188  28.886  1.00  0.00    -0.014 A 
BRANCH  36  37
ATOM     37  C   UNL A   1      39.995  28.830  29.188  1.00  0.00     0.031 A 
ATOM     38  C   UNL A   1      40.909  29.845  29.815  1.00  0.00     0.074 A 
ATOM     39  C   UNL A   1      40.470  27.623  28.820  1.00  0.00     0.049 A 
ATOM     40  N   UNL A   1      42.186  29.752  30.079  1.00  0.00    -0.248 NA
ATOM     41  C   UNL A   1      40.315  31.147  30.164  1.00  0.00     0.031 C 
ATOM     42  C   UNL A   1      39.698  26.571  28.156  1.00  0.00     0.029 A 
ATOM     43  N   UNL A   1      41.725  27.081  28.946  1.00  0.00    -0.354 N 
ATOM     44  C   UNL A   1      42.553  30.986  30.601  1.00  0.00     0.074 A 
ATOM     45  C   UNL A   1      41.377  31.827  30.572  1.00  0.00     0.031 C 
ATOM     46  C   UNL A   1      40.487  25.502  27.958  1.00  0.00     0.029 A 
ATOM     47  C   UNL A   1      41.828  25.805  28.445  1.00  0.00     0.049 A 
ATOM     48  H   UNL A   1      42.480  27.562  29.356  1.00  0.00     0.167 HD
ATOM     49  C   UNL A   1      43.757  31.379  31.082  1.00  0.00     0.031 A 
ATOM     50  C   UNL A   1      42.886  24.972  28.382  1.00  0.00     0.031 A 
ATOM     51  C   UNL A   1      44.919  30.535  31.130  1.00  0.00     0.049 A 
ATOM     52  C   UNL A   1      44.208  25.426  28.934  1.00  0.00     0.074 A 
ATOM     53  C   UNL A   1      46.167  30.817  31.656  1.00  0.00     0.029 A 
ATOM     54  N   UNL A   1      44.976  29.241  30.635  1.00  0.00    -0.354 N 
ATOM     55  N   UNL A   1      44.520  26.575  29.485  1.00  0.00    -0.248 NA
ATOM     56  C   UNL A   1      45.320  24.468  28.865  1.00  0.00     0.031 C 
ATOM     57  C   UNL A   1      46.991  29.707  31.443  1.00  0.00     0.029 A 
ATOM     58  C   UNL A   1      46.243  28.717  30.827  1.00  0.00     0.049 A 
ATOM     59  H   UNL A   1      44.226  28.765  30.210  1.00  0.00     0.167 HD
ATOM     60  C   UNL A   1      45.857  26.471  29.846  1.00  0.00     0.074 A 
ATOM     61  C   UNL A   1      46.291  25.141  29.466  1.00  0.00     0.031 C 
ATOM     62  C   UNL A   1      46.656  27.392  30.439  1.00  0.00     0.031 A 
BRANCH  49  63
ATOM     63  C   UNL A   1      43.867  32.789  31.595  1.00  0.00    -0.014 A 
ATOM     64  C   UNL A   1      44.058  33.867  30.711  1.00  0.00     0.010 A 
ATOM     65  C   UNL A   1      43.762  33.045  32.974  1.00  0.00     0.010 A 
ATOM     66  C   UNL A   1      44.192  35.169  31.201  1.00  0.00     0.020 A 
ATOM     67  C   UNL A   1      43.868  34.349  33.466  1.00  0.00     0.020 A 
ATOM     68  C   UNL A   1      44.102  35.401  32.576  1.00  0.00     0.054 A 
BRANCH  68  69
ATOM     69  S   UNL A   1      44.271  37.100  33.186  1.00  0.00     0.124 S 
ATOM     70  O   UNL A   1      44.806  37.787  32.013  1.00  0.00    -0.237 OA
ATOM     71  O   UNL A   1      42.900  37.451  33.546  1.00  0.00    -0.237 OA
ATOM     72  O   UNL A   1      45.195  36.975  34.310  1.00  0.00    -0.744 OA
ENDBRANCH  68  69
ENDBRANCH  49  63
BRANCH  50  73
ATOM     73  C   UNL A   1      42.729  23.614  27.794  1.00  0.00    -0.014 A 
ATOM     74  C   UNL A   1      42.290  22.542  28.591  1.00  0.00     0.010 A 
ATOM     75  C   UNL A   1      43.000  23.388  26.433  1.00  0.00     0.010 A 
ATOM     76  C   UNL A   1      42.140  21.265  28.042  1.00  0.00     0.020 A 
ATOM     77  C   UNL A   1      42.829  22.118  25.875  1.00  0.00     0.020 A 
ATOM     78  C   UNL A   1      42.411  21.063  26.687  1.00  0.00     0.054 A 
BRANCH  78  79
ATOM     79  S   UNL A   1      42.156  19.410  25.982  1.00  0.00     0.124 S 
ATOM     80  O   UNL A   1      42.972  19.465  24.774  1.00  0.00    -0.237 OA
ATOM     81  O   UNL A   1      42.649  18.534  27.041  1.00  0.00    -0.237 OA
ATOM     82  O   UNL A   1      40.712  19.353  25.761  1.00  0.00    -0.744 OA
ENDBRANCH  78  79
ENDBRANCH  50  73
BRANCH  62  83
ATOM     83  C   UNL A   1      48.074  26.988  30.735  1.00  0.00    -0.014 A 
ATOM     84  C   UNL A   1      49.124  27.343  29.871  1.00  0.00     0.010 A 
ATOM     85  C   UNL A   1      48.363  26.291  31.922  1.00  0.00     0.010 A 
ATOM     86  C   UNL A   1      50.440  26.985  30.177  1.00  0.00     0.020 A 
ATOM     87  C   UNL A   1      49.680  25.952  32.243  1.00  0.00     0.020 A 
ATOM     88  C   UNL A   1      50.709  26.290  31.361  1.00  0.00     0.054 A 
BRANCH  88  89
ATOM     89  S   UNL A   1      52.429  25.876  31.760  1.00  0.00     0.124 S 
ATOM     90  O   UNL A   1      52.776  26.917  32.723  1.00  0.00    -0.237 OA
ATOM     91  O   UNL A   1      52.317  24.525  32.306  1.00  0.00    -0.237 OA
ATOM     92  O   UNL A   1      53.114  25.965  30.472  1.00  0.00    -0.744 OA
ENDBRANCH  88  89
ENDBRANCH  62  83
ENDBRANCH  36  37
ENDBRANCH  28  31
ENDBRANCH  26  27
ENDBRANCH  25  26
ENDBRANCH   1  25
TORSDOF 18
ENDMDL
MODEL 2
REMARK VINA RESULT:     -10.4      2.772      9.421
REMARK SMILES [NH3+][C@H]1COC[C@@H]1C(=O)NC1(CC(=O)NCCCCNC(=O)c2ccc(-c3c4nc(c(-c5ccc(S(=O)(=O)[O-])cc5)c5ccc([nH]5)c(-c5ccc(S(=O)(=O)[O-])cc5)c5nc(c(-c6ccc(S(=O)(=O)[O-])cc6)c6ccc3[nH]6)C=C5)C=C4)cc2)CCC1
REMARK SMILES IDX 16 1 15 2 14 3 12 4 13 5 11 7 10 8 82 9 84 10 83 11 9 12
REMARK SMILES IDX 7 13 8 14 6 16 2 17 3 18 4 19 5 20 1 21 17 25 18 26 19 27
REMARK SMILES IDX 20 28 21 30 22 31 23 32 81 33 24 34 80 35 25 36 26 37 27 38
REMARK SMILES IDX 74 39 28 40 79 41 73 42 75 43 29 44 78 45 72 46 71 47 30 49
REMARK SMILES IDX 60 50 41 51 59 52 42 53 45 54 58 55 76 56 43 57 44 58 57 60
REMARK SMILES IDX 77 61 46 62 31 63 32 64 40 65 33 66 39 67 34 68 35 69 36 70
REMARK SMILES IDX 37 71 38 72 61 73 62 74 70 75 63 76 69 77 64 78 65 79 66 80
REMARK SMILES IDX 67 81 68 82 47 83 48 84 56 85 49 86 55 87 50 88 51 89 52 90
REMARK SMILES IDX 53 91 54 92
REMARK H PARENT 14 6 9 15 1 22 1 23 1 24 19 29 75 48 45 59
REMARK Flexibility Score: inf
ROOT
ATOM      1  C   UNL A   1      34.934  22.862  26.442  1.00  0.00     0.023 C 
ENDROOT
BRANCH   1   2
ATOM      2  C   UNL A   1      33.696  21.966  26.356  1.00  0.00     0.116 C 
BRANCH   2   3
ATOM      3  N   UNL A   1      32.544  22.630  26.930  1.00  0.00    -0.356 N 
ATOM      4  C   UNL A   1      31.686  23.509  26.350  1.00  0.00     0.222 C 
ATOM      5  O   UNL A   1      30.890  24.119  27.066  1.00  0.00    -0.275 OA
ATOM      6  H   UNL A   1      32.357  22.415  27.872  1.00  0.00     0.163 HD
BRANCH   4   7
ATOM      7  C   UNL A   1      31.689  23.749  24.852  1.00  0.00     0.128 C 
BRANCH   7   8
ATOM      8  C   UNL A   1      31.857  25.219  24.381  1.00  0.00     0.049 C 
ATOM      9  C   UNL A   1      32.689  25.312  23.065  1.00  0.00     0.029 C 
ATOM     10  C   UNL A   1      33.037  25.916  25.088  1.00  0.00     0.029 C 
ATOM     11  C   UNL A   1      33.949  25.515  23.916  1.00  0.00     0.005 C 
BRANCH   8  12
ATOM     12  N   UNL A   1      30.529  25.859  24.246  1.00  0.00    -0.350 N 
ATOM     13  C   UNL A   1      29.941  27.042  23.964  1.00  0.00     0.232 C 
ATOM     14  O   UNL A   1      28.705  26.949  23.850  1.00  0.00    -0.274 OA
ATOM     15  H   UNL A   1      29.831  25.188  24.424  1.00  0.00     0.164 HD
BRANCH  13  16
ATOM     16  C   UNL A   1      30.530  28.436  23.777  1.00  0.00     0.164 C 
ATOM     17  C   UNL A   1      31.395  28.704  22.558  1.00  0.00     0.221 C 
ATOM     18  C   UNL A   1      32.776  28.956  23.158  1.00  0.00     0.225 C 
ATOM     19  O   UNL A   1      32.600  29.369  24.517  1.00  0.00    -0.374 OA
ATOM     20  C   UNL A   1      31.284  29.002  24.955  1.00  0.00     0.180 C 
BRANCH  17  21
ATOM     21  N   UNL A   1      30.973  29.901  21.791  1.00  0.00    -0.352 N 
ATOM     22  H   UNL A   1      30.182  29.661  21.195  1.00  0.00     0.344 HD
ATOM     23  H   UNL A   1      31.749  30.224  21.213  1.00  0.00     0.344 HD
ATOM     24  H   UNL A   1      30.699  30.640  22.438  1.00  0.00     0.344 HD
ENDBRANCH  17  21
ENDBRANCH  13  16
ENDBRANCH   8  12
ENDBRANCH   7   8
ENDBRANCH   4   7
ENDBRANCH   2   3
ENDBRANCH   1   2
BRANCH   1  25
ATOM     25  C   UNL A   1      35.831  22.834  25.209  1.00  0.00     0.023 C 
BRANCH  25  26
ATOM     26  C   UNL A   1      37.155  23.565  25.389  1.00  0.00     0.116 C 
BRANCH  26  27
ATOM     27  N   UNL A   1      38.278  22.682  25.678  1.00  0.00    -0.352 N 
ATOM     28  C   UNL A   1      39.429  22.983  26.373  1.00  0.00     0.251 C 
ATOM     29  H   UNL A   1      38.206  21.763  25.335  1.00  0.00     0.163 HD
ATOM     30  O   UNL A   1      40.329  22.164  26.481  1.00  0.00    -0.269 OA
BRANCH  28  31
ATOM     31  C   UNL A   1      39.570  24.342  26.934  1.00  0.00     0.039 A 
ATOM     32  C   UNL A   1      39.096  24.589  28.224  1.00  0.00     0.014 A 
ATOM     33  C   UNL A   1      40.263  25.327  26.228  1.00  0.00     0.014 A 
ATOM     34  C   UNL A   1      39.396  25.805  28.842  1.00  0.00     0.010 A 
ATOM     35  C   UNL A   1      40.627  26.503  26.872  1.00  0.00     0.010 A 
ATOM     36  C   UNL A   1      40.205  26.749  28.187  1.00  0.00    -0.014 A 
BRANCH  36  37
ATOM     37  C   UNL A   1      40.639  27.996  28.865  1.00  0.00     0.031 A 
ATOM     38  C   UNL A   1      42.007  28.079  29.481  1.00  0.00     0.074 A 
ATOM     39  C   UNL A   1      39.771  29.020  28.997  1.00  0.00     0.049 A 
ATOM     40  N   UNL A   1      42.537  29.046  30.184  1.00  0.00    -0.248 NA
ATOM     41  C   UNL A   1      42.883  26.907  29.312  1.00  0.00     0.031 C 
ATOM     42  C   UNL A   1      38.397  29.041  28.489  1.00  0.00     0.029 A 
ATOM     43  N   UNL A   1      39.915  30.240  29.609  1.00  0.00    -0.354 N 
ATOM     44  C   UNL A   1      43.796  28.591  30.558  1.00  0.00     0.074 A 
ATOM     45  C   UNL A   1      43.931  27.245  30.048  1.00  0.00     0.031 C 
ATOM     46  C   UNL A   1      37.835  30.225  28.787  1.00  0.00     0.029 A 
ATOM     47  C   UNL A   1      38.792  31.030  29.537  1.00  0.00     0.049 A 
ATOM     48  H   UNL A   1      40.744  30.521  30.058  1.00  0.00     0.167 HD
ATOM     49  C   UNL A   1      44.761  29.244  31.248  1.00  0.00     0.031 A 
ATOM     50  C   UNL A   1      38.559  32.264  30.023  1.00  0.00     0.031 A 
ATOM     51  C   UNL A   1      44.632  30.590  31.736  1.00  0.00     0.049 A 
ATOM     52  C   UNL A   1      39.650  32.974  30.774  1.00  0.00     0.074 A 
ATOM     53  C   UNL A   1      45.576  31.363  32.389  1.00  0.00     0.029 A 
ATOM     54  N   UNL A   1      43.489  31.365  31.621  1.00  0.00    -0.354 N 
ATOM     55  N   UNL A   1      40.859  32.553  31.062  1.00  0.00    -0.248 NA
ATOM     56  C   UNL A   1      39.351  34.329  31.258  1.00  0.00     0.031 C 
ATOM     57  C   UNL A   1      44.988  32.592  32.706  1.00  0.00     0.029 A 
ATOM     58  C   UNL A   1      43.695  32.602  32.208  1.00  0.00     0.049 A 
ATOM     59  H   UNL A   1      42.652  31.079  31.187  1.00  0.00     0.167 HD
ATOM     60  C   UNL A   1      41.471  33.598  31.743  1.00  0.00     0.074 A 
ATOM     61  C   UNL A   1      40.505  34.677  31.810  1.00  0.00     0.031 C 
ATOM     62  C   UNL A   1      42.720  33.661  32.266  1.00  0.00     0.031 A 
BRANCH  49  63
ATOM     63  C   UNL A   1      46.043  28.501  31.511  1.00  0.00    -0.014 A 
ATOM     64  C   UNL A   1      47.217  28.809  30.800  1.00  0.00     0.010 A 
ATOM     65  C   UNL A   1      46.080  27.492  32.491  1.00  0.00     0.010 A 
ATOM     66  C   UNL A   1      48.392  28.090  31.031  1.00  0.00     0.020 A 
ATOM     67  C   UNL A   1      47.261  26.789  32.743  1.00  0.00     0.020 A 
ATOM     68  C   UNL A   1      48.405  27.079  31.996  1.00  0.00     0.054 A 
BRANCH  68  69
ATOM     69  S   UNL A   1      49.946  26.167  32.281  1.00  0.00     0.124 S 
ATOM     70  O   UNL A   1      49.964  26.057  33.738  1.00  0.00    -0.237 OA
ATOM     71  O   UNL A   1      49.718  24.917  31.560  1.00  0.00    -0.237 OA
ATOM     72  O   UNL A   1      50.973  27.033  31.709  1.00  0.00    -0.744 OA
ENDBRANCH  68  69
ENDBRANCH  49  63
BRANCH  50  73
ATOM     73  C   UNL A   1      37.241  32.917  29.793  1.00  0.00    -0.014 A 
ATOM     74  C   UNL A   1      36.318  33.043  30.847  1.00  0.00     0.010 A 
ATOM     75  C   UNL A   1      36.909  33.430  28.527  1.00  0.00     0.010 A 
ATOM     76  C   UNL A   1      35.080  33.657  30.634  1.00  0.00     0.020 A 
ATOM     77  C   UNL A   1      35.681  34.066  28.317  1.00  0.00     0.020 A 
ATOM     78  C   UNL A   1      34.771  34.164  29.370  1.00  0.00     0.054 A 
BRANCH  78  79
ATOM     79  S   UNL A   1      33.181  35.007  29.131  1.00  0.00     0.124 S 
ATOM     80  O   UNL A   1      32.547  34.177  28.112  1.00  0.00    -0.237 OA
ATOM     81  O   UNL A   1      32.585  34.943  30.463  1.00  0.00    -0.237 OA
ATOM     82  O   UNL A   1      33.569  36.348  28.696  1.00  0.00    -0.744 OA
ENDBRANCH  78  79
ENDBRANCH  50  73
BRANCH  62  83
ATOM     83  C   UNL A   1      43.124  34.944  32.938  1.00  0.00    -0.014 A 
ATOM     84  C   UNL A   1      43.054  35.086  34.335  1.00  0.00     0.010 A 
ATOM     85  C   UNL A   1      43.630  36.004  32.163  1.00  0.00     0.010 A 
ATOM     86  C   UNL A   1      43.461  36.275  34.944  1.00  0.00     0.020 A 
ATOM     87  C   UNL A   1      44.059  37.186  32.770  1.00  0.00     0.020 A 
ATOM     88  C   UNL A   1      43.960  37.319  34.157  1.00  0.00     0.054 A 
BRANCH  88  89
ATOM     89  S   UNL A   1      44.526  38.836  34.974  1.00  0.00     0.124 S 
ATOM     90  O   UNL A   1      44.066  38.633  36.344  1.00  0.00    -0.237 OA
ATOM     91  O   UNL A   1      45.974  38.785  34.782  1.00  0.00    -0.237 OA
ATOM     92  O   UNL A   1      43.845  39.899  34.239  1.00  0.00    -0.744 OA
ENDBRANCH  88  89
ENDBRANCH  62  83
ENDBRANCH  36  37
ENDBRANCH  28  31
ENDBRANCH  26  27
ENDBRANCH  25  26
ENDBRANCH   1  25
TORSDOF 18
ENDMDL
MODEL 3
REMARK VINA RESULT:     -10.3      2.795      9.247
REMARK SMILES [NH3+][C@H]1COC[C@@H]1C(=O)NC1(CC(=O)NCCCCNC(=O)c2ccc(-c3c4nc(c(-c5ccc(S(=O)(=O)[O-])cc5)c5ccc([nH]5)c(-c5ccc(S(=O)(=O)[O-])cc5)c5nc(c(-c6ccc(S(=O)(=O)[O-])cc6)c6ccc3[nH]6)C=C5)C=C4)cc2)CCC1
REMARK SMILES IDX 16 1 15 2 14 3 12 4 13 5 11 7 10 8 82 9 84 10 83 11 9 12
REMARK SMILES IDX 7 13 8 14 6 16 2 17 3 18 4 19 5 20 1 21 17 25 18 26 19 27
REMARK SMILES IDX 20 28 21 30 22 31 23 32 81 33 24 34 80 35 25 36 26 37 27 38
REMARK SMILES IDX 74 39 28 40 79 41 73 42 75 43 29 44 78 45 72 46 71 47 30 49
REMARK SMILES IDX 60 50 41 51 59 52 42 53 45 54 58 55 76 56 43 57 44 58 57 60
REMARK SMILES IDX 77 61 46 62 31 63 32 64 40 65 33 66 39 67 34 68 35 69 36 70
REMARK SMILES IDX 37 71 38 72 61 73 62 74 70 75 63 76 69 77 64 78 65 79 66 80
REMARK SMILES IDX 67 81 68 82 47 83 48 84 56 85 49 86 55 87 50 88 51 89 52 90
REMARK SMILES IDX 53 91 54 92
REMARK H PARENT 14 6 9 15 1 22 1 23 1 24 19 29 75 48 45 59
REMARK Flexibility Score: inf
ROOT
ATOM      1  C   UNL A   1      35.429  23.363  23.248  1.00  0.00     0.023 C 
ENDROOT
BRANCH   1   2
ATOM      2  C   UNL A   1      33.968  23.776  23.055  1.00  0.00     0.116 C 
BRANCH   2   3
ATOM      3  N   UNL A   1      33.885  25.091  22.454  1.00  0.00    -0.356 N 
ATOM      4  C   UNL A   1      33.681  26.294  23.052  1.00  0.00     0.222 C 
ATOM      5  O   UNL A   1      33.438  27.273  22.343  1.00  0.00    -0.275 OA
ATOM      6  H   UNL A   1      33.991  25.116  21.476  1.00  0.00     0.163 HD
BRANCH   4   7
ATOM      7  C   UNL A   1      33.748  26.452  24.558  1.00  0.00     0.128 C 
BRANCH   7   8
ATOM      8  C   UNL A   1      32.917  27.609  25.177  1.00  0.00     0.049 C 
ATOM      9  C   UNL A   1      33.735  28.934  25.250  1.00  0.00     0.029 C 
ATOM     10  C   UNL A   1      32.959  27.585  26.718  1.00  0.00     0.029 C 
ATOM     11  C   UNL A   1      34.147  28.561  26.679  1.00  0.00     0.005 C 
BRANCH   8  12
ATOM     12  N   UNL A   1      31.652  27.776  24.425  1.00  0.00    -0.350 N 
ATOM     13  C   UNL A   1      30.460  27.179  24.200  1.00  0.00     0.232 C 
ATOM     14  O   UNL A   1      29.682  27.895  23.544  1.00  0.00    -0.274 OA
ATOM     15  H   UNL A   1      31.693  28.614  23.911  1.00  0.00     0.164 HD
BRANCH  13  16
ATOM     16  C   UNL A   1      29.935  25.805  24.600  1.00  0.00     0.164 C 
ATOM     17  C   UNL A   1      30.155  25.327  26.025  1.00  0.00     0.221 C 
ATOM     18  C   UNL A   1      31.108  24.146  25.854  1.00  0.00     0.225 C 
ATOM     19  O   UNL A   1      30.967  23.653  24.518  1.00  0.00    -0.374 OA
ATOM     20  C   UNL A   1      30.336  24.655  23.708  1.00  0.00     0.180 C 
BRANCH  17  21
ATOM     21  N   UNL A   1      28.913  24.857  26.684  1.00  0.00    -0.352 N 
ATOM     22  H   UNL A   1      28.690  25.471  27.466  1.00  0.00     0.344 HD
ATOM     23  H   UNL A   1      29.049  23.906  27.027  1.00  0.00     0.344 HD
ATOM     24  H   UNL A   1      28.145  24.869  26.012  1.00  0.00     0.344 HD
ENDBRANCH  17  21
ENDBRANCH  13  16
ENDBRANCH   8  12
ENDBRANCH   7   8
ENDBRANCH   4   7
ENDBRANCH   2   3
ENDBRANCH   1   2
BRANCH   1  25
ATOM     25  C   UNL A   1      35.800  22.971  24.676  1.00  0.00     0.023 C 
BRANCH  25  26
ATOM     26  C   UNL A   1      37.051  23.663  25.203  1.00  0.00     0.116 C 
BRANCH  26  27
ATOM     27  N   UNL A   1      38.165  22.756  25.444  1.00  0.00    -0.352 N 
ATOM     28  C   UNL A   1      39.315  23.006  26.162  1.00  0.00     0.251 C 
ATOM     29  H   UNL A   1      38.089  21.859  25.047  1.00  0.00     0.163 HD
ATOM     30  O   UNL A   1      40.208  22.175  26.225  1.00  0.00    -0.269 OA
BRANCH  28  31
ATOM     31  C   UNL A   1      39.463  24.328  26.804  1.00  0.00     0.039 A 
ATOM     32  C   UNL A   1      38.972  24.505  28.099  1.00  0.00     0.014 A 
ATOM     33  C   UNL A   1      40.179  25.344  26.166  1.00  0.00     0.014 A 
ATOM     34  C   UNL A   1      39.277  25.679  28.791  1.00  0.00     0.010 A 
ATOM     35  C   UNL A   1      40.546  26.475  26.884  1.00  0.00     0.010 A 
ATOM     36  C   UNL A   1      40.107  26.650  28.205  1.00  0.00    -0.014 A 
BRANCH  36  37
ATOM     37  C   UNL A   1      40.544  27.850  28.960  1.00  0.00     0.031 A 
ATOM     38  C   UNL A   1      41.884  27.861  29.640  1.00  0.00     0.074 A 
ATOM     39  C   UNL A   1      39.701  28.892  29.103  1.00  0.00     0.049 A 
ATOM     40  N   UNL A   1      42.409  28.777  30.411  1.00  0.00    -0.248 NA
ATOM     41  C   UNL A   1      42.733  26.672  29.453  1.00  0.00     0.031 C 
ATOM     42  C   UNL A   1      38.352  28.980  28.536  1.00  0.00     0.029 A 
ATOM     43  N   UNL A   1      39.851  30.077  29.779  1.00  0.00    -0.354 N 
ATOM     44  C   UNL A   1      43.636  28.267  30.819  1.00  0.00     0.074 A 
ATOM     45  C   UNL A   1      43.756  26.943  30.250  1.00  0.00     0.031 C 
ATOM     46  C   UNL A   1      37.812  30.165  28.866  1.00  0.00     0.029 A 
ATOM     47  C   UNL A   1      38.756  30.904  29.696  1.00  0.00     0.049 A 
ATOM     48  H   UNL A   1      40.667  30.312  30.278  1.00  0.00     0.167 HD
ATOM     49  C   UNL A   1      44.587  28.857  31.581  1.00  0.00     0.031 A 
ATOM     50  C   UNL A   1      38.536  32.120  30.231  1.00  0.00     0.031 A 
ATOM     51  C   UNL A   1      44.474  30.182  32.128  1.00  0.00     0.049 A 
ATOM     52  C   UNL A   1      39.611  32.760  31.063  1.00  0.00     0.074 A 
ATOM     53  C   UNL A   1      45.409  30.894  32.859  1.00  0.00     0.029 A 
ATOM     54  N   UNL A   1      43.360  30.997  32.000  1.00  0.00    -0.354 N 
ATOM     55  N   UNL A   1      40.794  32.289  31.383  1.00  0.00    -0.248 NA
ATOM     56  C   UNL A   1      39.329  34.099  31.598  1.00  0.00     0.031 C 
ATOM     57  C   UNL A   1      44.843  32.124  33.209  1.00  0.00     0.029 A 
ATOM     58  C   UNL A   1      43.574  32.198  32.654  1.00  0.00     0.049 A 
ATOM     59  H   UNL A   1      42.536  30.756  31.516  1.00  0.00     0.167 HD
ATOM     60  C   UNL A   1      41.403  33.282  32.141  1.00  0.00     0.074 A 
ATOM     61  C   UNL A   1      40.466  34.385  32.217  1.00  0.00     0.031 C 
ATOM     62  C   UNL A   1      42.628  33.281  32.721  1.00  0.00     0.031 A 
BRANCH  49  63
ATOM     63  C   UNL A   1      45.833  28.063  31.864  1.00  0.00    -0.014 A 
ATOM     64  C   UNL A   1      45.929  27.250  33.009  1.00  0.00     0.010 A 
ATOM     65  C   UNL A   1      46.916  28.115  30.969  1.00  0.00     0.010 A 
ATOM     66  C   UNL A   1      47.103  26.543  33.278  1.00  0.00     0.020 A 
ATOM     67  C   UNL A   1      48.083  27.387  31.220  1.00  0.00     0.020 A 
ATOM     68  C   UNL A   1      48.176  26.621  32.385  1.00  0.00     0.054 A 
BRANCH  68  69
ATOM     69  S   UNL A   1      49.685  25.687  32.754  1.00  0.00     0.124 S 
ATOM     70  O   UNL A   1      50.476  26.672  33.487  1.00  0.00    -0.237 OA
ATOM     71  O   UNL A   1      49.186  24.567  33.548  1.00  0.00    -0.237 OA
ATOM     72  O   UNL A   1      50.202  25.329  31.436  1.00  0.00    -0.744 OA
ENDBRANCH  68  69
ENDBRANCH  49  63
BRANCH  50  73
ATOM     73  C   UNL A   1      37.249  32.823  29.974  1.00  0.00    -0.014 A 
ATOM     74  C   UNL A   1      37.082  33.594  28.809  1.00  0.00     0.010 A 
ATOM     75  C   UNL A   1      36.181  32.714  30.881  1.00  0.00     0.010 A 
ATOM     76  C   UNL A   1      35.875  34.255  28.565  1.00  0.00     0.020 A 
ATOM     77  C   UNL A   1      34.964  33.354  30.629  1.00  0.00     0.020 A 
ATOM     78  C   UNL A   1      34.823  34.129  29.476  1.00  0.00     0.054 A 
BRANCH  78  79
ATOM     79  S   UNL A   1      33.246  34.950  29.111  1.00  0.00     0.124 S 
ATOM     80  O   UNL A   1      32.671  34.067  28.102  1.00  0.00    -0.237 OA
ATOM     81  O   UNL A   1      32.579  34.948  30.410  1.00  0.00    -0.237 OA
ATOM     82  O   UNL A   1      33.652  36.269  28.631  1.00  0.00    -0.744 OA
ENDBRANCH  78  79
ENDBRANCH  50  73
BRANCH  62  83
ATOM     83  C   UNL A   1      43.037  34.519  33.471  1.00  0.00    -0.014 A 
ATOM     84  C   UNL A   1      42.838  34.625  34.859  1.00  0.00     0.010 A 
ATOM     85  C   UNL A   1      43.678  35.567  32.784  1.00  0.00     0.010 A 
ATOM     86  C   UNL A   1      43.251  35.771  35.544  1.00  0.00     0.020 A 
ATOM     87  C   UNL A   1      44.113  36.703  33.470  1.00  0.00     0.020 A 
ATOM     88  C   UNL A   1      43.885  36.803  34.845  1.00  0.00     0.054 A 
BRANCH  88  89
ATOM     89  S   UNL A   1      44.454  38.261  35.763  1.00  0.00     0.124 S 
ATOM     90  O   UNL A   1      45.901  38.067  35.773  1.00  0.00    -0.237 OA
ATOM     91  O   UNL A   1      43.973  39.368  34.939  1.00  0.00    -0.237 OA
ATOM     92  O   UNL A   1      43.798  38.129  37.061  1.00  0.00    -0.744 OA
ENDBRANCH  88  89
ENDBRANCH  62  83
ENDBRANCH  36  37
ENDBRANCH  28  31
ENDBRANCH  26  27
ENDBRANCH  25  26
ENDBRANCH   1  25
TORSDOF 18
ENDMDL
