MODEL 1
REMARK VINA RESULT:     -11.7      0.000      0.000
REMARK SMILES COc1ccc2c(CC(=O)NCCCCNC(=O)c3ccc(-c4c5nc(c(-c6ccc(S(=O)(=O)[O-])cc6)c6ccc([nH]6)c(-c6ccc(S(=O)(=O)[O-])cc6)c6nc(c(-c7ccc(S(=O)(=O)[O-])cc7)c7ccc4[nH]7)C=C6)C=C5)cc3)c(C(=O)c3cc(C)ccn3)[nH]c2c1
REMARK SMILES IDX 13 1 12 2 11 3 9 4 10 5 8 7 7 8 3 9 4 10 91 11 5 12 90 13
REMARK SMILES IDX 6 14 89 15 79 16 2 18 1 19 80 20 81 21 82 22 83 23 88 24
REMARK SMILES IDX 84 25 87 26 85 27 86 28 14 29 15 30 16 31 17 32 18 34 19 35
REMARK SMILES IDX 20 36 78 37 21 38 77 39 22 40 23 41 24 42 71 43 25 44 76 45
REMARK SMILES IDX 70 46 72 47 26 48 75 49 69 50 68 51 27 53 57 54 38 55 56 56
REMARK SMILES IDX 39 57 42 58 55 59 73 60 40 61 41 62 54 64 74 65 43 66 28 67
REMARK SMILES IDX 29 68 37 69 30 70 36 71 31 72 32 73 33 74 34 75 35 76 58 77
REMARK SMILES IDX 59 78 67 79 60 80 66 81 61 82 62 83 63 84 64 85 65 86 44 87
REMARK SMILES IDX 45 88 53 89 46 90 52 91 47 92 48 93 49 94 50 95 51 96
REMARK H PARENT 11 6 89 17 16 33 72 52 42 63
REMARK Flexibility Score: inf
ROOT
ATOM      1  C   UNL A   1      32.194  26.432  26.505  1.00  0.00     0.023 C 
ENDROOT
BRANCH   1   2
ATOM      2  C   UNL A   1      30.871  25.953  25.909  1.00  0.00     0.116 C 
BRANCH   2   3
ATOM      3  N   UNL A   1      30.581  24.570  26.218  1.00  0.00    -0.356 N 
ATOM      4  C   UNL A   1      30.655  23.462  25.421  1.00  0.00     0.224 C 
ATOM      5  O   UNL A   1      30.557  22.365  25.977  1.00  0.00    -0.275 OA
ATOM      6  H   UNL A   1      30.287  24.401  27.142  1.00  0.00     0.163 HD
BRANCH   4   7
ATOM      7  C   UNL A   1      30.984  23.570  23.935  1.00  0.00     0.138 C 
BRANCH   7   8
ATOM      8  C   UNL A   1      32.447  23.715  23.612  1.00  0.00    -0.002 A 
ATOM      9  C   UNL A   1      35.947  21.653  24.760  1.00  0.00     0.120 A 
ATOM     10  C   UNL A   1      34.751  21.094  25.205  1.00  0.00     0.047 A 
ATOM     11  C   UNL A   1      35.939  22.826  23.997  1.00  0.00     0.073 A 
ATOM     12  C   UNL A   1      33.522  21.684  24.876  1.00  0.00     0.014 A 
ATOM     13  C   UNL A   1      34.703  23.391  23.662  1.00  0.00     0.050 A 
ATOM     14  C   UNL A   1      33.492  22.853  24.087  1.00  0.00     0.004 A 
ATOM     15  N   UNL A   1      34.407  24.510  22.924  1.00  0.00    -0.351 N 
ATOM     16  C   UNL A   1      33.044  24.665  22.780  1.00  0.00     0.093 A 
ATOM     17  H   UNL A   1      35.080  25.122  22.547  1.00  0.00     0.167 HD
BRANCH   9  18
ATOM     18  O   UNL A   1      37.196  21.155  25.030  1.00  0.00    -0.497 OA
ATOM     19  C   UNL A   1      38.112  22.067  25.627  1.00  0.00     0.278 C 
ENDBRANCH   9  18
BRANCH  16  20
ATOM     20  C   UNL A   1      32.391  25.662  21.934  1.00  0.00     0.227 C 
ATOM     21  O   UNL A   1      32.233  25.519  20.725  1.00  0.00    -0.285 OA
BRANCH  20  22
ATOM     22  C   UNL A   1      31.981  26.959  22.533  1.00  0.00     0.113 A 
ATOM     23  C   UNL A   1      30.648  27.355  22.472  1.00  0.00     0.036 A 
ATOM     24  N   UNL A   1      32.957  27.678  23.140  1.00  0.00    -0.253 NA
ATOM     25  C   UNL A   1      30.287  28.563  23.070  1.00  0.00    -0.047 A 
ATOM     26  C   UNL A   1      32.577  28.824  23.739  1.00  0.00     0.112 A 
ATOM     27  C   UNL A   1      28.869  29.050  23.045  1.00  0.00     0.044 C 
ATOM     28  C   UNL A   1      31.274  29.303  23.727  1.00  0.00     0.023 A 
ENDBRANCH  20  22
ENDBRANCH  16  20
ENDBRANCH   7   8
ENDBRANCH   4   7
ENDBRANCH   2   3
ENDBRANCH   1   2
BRANCH   1  29
ATOM     29  C   UNL A   1      32.178  27.858  27.059  1.00  0.00     0.023 C 
BRANCH  29  30
ATOM     30  C   UNL A   1      33.546  28.492  27.273  1.00  0.00     0.116 C 
BRANCH  30  31
ATOM     31  N   UNL A   1      33.483  29.902  27.630  1.00  0.00    -0.352 N 
ATOM     32  C   UNL A   1      34.478  30.681  28.174  1.00  0.00     0.251 C 
ATOM     33  H   UNL A   1      32.623  30.353  27.463  1.00  0.00     0.163 HD
ATOM     34  O   UNL A   1      34.253  31.839  28.513  1.00  0.00    -0.269 OA
BRANCH  32  35
ATOM     35  C   UNL A   1      35.814  30.086  28.384  1.00  0.00     0.039 A 
ATOM     36  C   UNL A   1      36.740  30.107  27.337  1.00  0.00     0.014 A 
ATOM     37  C   UNL A   1      36.168  29.574  29.634  1.00  0.00     0.014 A 
ATOM     38  C   UNL A   1      38.053  29.687  27.569  1.00  0.00     0.010 A 
ATOM     39  C   UNL A   1      37.489  29.210  29.878  1.00  0.00     0.010 A 
ATOM     40  C   UNL A   1      38.446  29.275  28.852  1.00  0.00    -0.014 A 
BRANCH  40  41
ATOM     41  C   UNL A   1      39.851  28.913  29.168  1.00  0.00     0.031 A 
ATOM     42  C   UNL A   1      40.778  29.956  29.727  1.00  0.00     0.074 A 
ATOM     43  C   UNL A   1      40.319  27.691  28.850  1.00  0.00     0.049 A 
ATOM     44  N   UNL A   1      42.073  29.903  29.895  1.00  0.00    -0.248 NA
ATOM     45  C   UNL A   1      40.169  31.237  30.118  1.00  0.00     0.031 C 
ATOM     46  C   UNL A   1      39.528  26.598  28.280  1.00  0.00     0.029 A 
ATOM     47  N   UNL A   1      41.587  27.170  28.937  1.00  0.00    -0.354 N 
ATOM     48  C   UNL A   1      42.441  31.154  30.377  1.00  0.00     0.074 A 
ATOM     49  C   UNL A   1      41.235  31.951  30.450  1.00  0.00     0.031 C 
ATOM     50  C   UNL A   1      40.325  25.537  28.075  1.00  0.00     0.029 A 
ATOM     51  C   UNL A   1      41.691  25.886  28.454  1.00  0.00     0.049 A 
ATOM     52  H   UNL A   1      42.349  27.668  29.311  1.00  0.00     0.167 HD
ATOM     53  C   UNL A   1      43.671  31.597  30.731  1.00  0.00     0.031 A 
ATOM     54  C   UNL A   1      42.767  25.088  28.313  1.00  0.00     0.031 A 
ATOM     55  C   UNL A   1      44.863  30.795  30.678  1.00  0.00     0.049 A 
ATOM     56  C   UNL A   1      44.120  25.596  28.726  1.00  0.00     0.074 A 
ATOM     57  C   UNL A   1      46.150  31.140  31.054  1.00  0.00     0.029 A 
ATOM     58  N   UNL A   1      44.913  29.484  30.231  1.00  0.00    -0.354 N 
ATOM     59  N   UNL A   1      44.445  26.773  29.205  1.00  0.00    -0.248 NA
ATOM     60  C   UNL A   1      45.252  24.668  28.587  1.00  0.00     0.031 C 
ATOM     61  C   UNL A   1      46.984  30.045  30.809  1.00  0.00     0.029 A 
ATOM     62  C   UNL A   1      46.209  29.006  30.318  1.00  0.00     0.049 A 
ATOM     63  H   UNL A   1      44.142  28.970  29.900  1.00  0.00     0.167 HD
ATOM     64  C   UNL A   1      45.812  26.716  29.455  1.00  0.00     0.074 A 
ATOM     65  C   UNL A   1      46.253  25.389  29.075  1.00  0.00     0.031 C 
ATOM     66  C   UNL A   1      46.625  27.674  29.958  1.00  0.00     0.031 A 
BRANCH  53  67
ATOM     67  C   UNL A   1      43.783  33.022  31.197  1.00  0.00    -0.014 A 
ATOM     68  C   UNL A   1      43.995  34.069  30.283  1.00  0.00     0.010 A 
ATOM     69  C   UNL A   1      43.652  33.322  32.565  1.00  0.00     0.010 A 
ATOM     70  C   UNL A   1      44.123  35.385  30.732  1.00  0.00     0.020 A 
ATOM     71  C   UNL A   1      43.754  34.641  33.016  1.00  0.00     0.020 A 
ATOM     72  C   UNL A   1      44.010  35.662  32.097  1.00  0.00     0.054 A 
BRANCH  72  73
ATOM     73  S   UNL A   1      44.173  37.379  32.657  1.00  0.00     0.124 S 
ATOM     74  O   UNL A   1      45.527  37.389  33.204  1.00  0.00    -0.237 OA
ATOM     75  O   UNL A   1      43.990  38.141  31.424  1.00  0.00    -0.237 OA
ATOM     76  O   UNL A   1      43.102  37.526  33.641  1.00  0.00    -0.744 OA
ENDBRANCH  72  73
ENDBRANCH  53  67
BRANCH  54  77
ATOM     77  C   UNL A   1      42.603  23.715  27.763  1.00  0.00    -0.014 A 
ATOM     78  C   UNL A   1      42.348  22.634  28.624  1.00  0.00     0.010 A 
ATOM     79  C   UNL A   1      42.683  23.484  26.378  1.00  0.00     0.010 A 
ATOM     80  C   UNL A   1      42.187  21.343  28.113  1.00  0.00     0.020 A 
ATOM     81  C   UNL A   1      42.501  22.198  25.860  1.00  0.00     0.020 A 
ATOM     82  C   UNL A   1      42.263  21.133  26.733  1.00  0.00     0.054 A 
BRANCH  82  83
ATOM     83  S   UNL A   1      41.991  19.461  26.083  1.00  0.00     0.124 S 
ATOM     84  O   UNL A   1      42.461  18.627  27.185  1.00  0.00    -0.237 OA
ATOM     85  O   UNL A   1      40.549  19.442  25.846  1.00  0.00    -0.237 OA
ATOM     86  O   UNL A   1      42.813  19.427  24.875  1.00  0.00    -0.744 OA
ENDBRANCH  82  83
ENDBRANCH  54  77
BRANCH  66  87
ATOM     87  C   UNL A   1      48.067  27.318  30.188  1.00  0.00    -0.014 A 
ATOM     88  C   UNL A   1      49.027  27.473  29.173  1.00  0.00     0.010 A 
ATOM     89  C   UNL A   1      48.478  26.909  31.470  1.00  0.00     0.010 A 
ATOM     90  C   UNL A   1      50.376  27.216  29.436  1.00  0.00     0.020 A 
ATOM     91  C   UNL A   1      49.827  26.670  31.740  1.00  0.00     0.020 A 
ATOM     92  C   UNL A   1      50.767  26.818  30.719  1.00  0.00     0.054 A 
BRANCH  92  93
ATOM     93  S   UNL A   1      52.531  26.566  31.059  1.00  0.00     0.124 S 
ATOM     94  O   UNL A   1      52.538  25.236  31.662  1.00  0.00    -0.237 OA
ATOM     95  O   UNL A   1      53.133  26.656  29.731  1.00  0.00    -0.237 OA
ATOM     96  O   UNL A   1      52.869  27.662  31.963  1.00  0.00    -0.744 OA
ENDBRANCH  92  93
ENDBRANCH  66  87
ENDBRANCH  40  41
ENDBRANCH  32  35
ENDBRANCH  30  31
ENDBRANCH  29  30
ENDBRANCH   1  29
TORSDOF 18
ENDMDL
MODEL 2
REMARK VINA RESULT:     -11.5      1.099      3.508
REMARK SMILES COc1ccc2c(CC(=O)NCCCCNC(=O)c3ccc(-c4c5nc(c(-c6ccc(S(=O)(=O)[O-])cc6)c6ccc([nH]6)c(-c6ccc(S(=O)(=O)[O-])cc6)c6nc(c(-c7ccc(S(=O)(=O)[O-])cc7)c7ccc4[nH]7)C=C6)C=C5)cc3)c(C(=O)c3cc(C)ccn3)[nH]c2c1
REMARK SMILES IDX 13 1 12 2 11 3 9 4 10 5 8 7 7 8 3 9 4 10 91 11 5 12 90 13
REMARK SMILES IDX 6 14 89 15 79 16 2 18 1 19 80 20 81 21 82 22 83 23 88 24
REMARK SMILES IDX 84 25 87 26 85 27 86 28 14 29 15 30 16 31 17 32 18 34 19 35
REMARK SMILES IDX 20 36 78 37 21 38 77 39 22 40 23 41 24 42 71 43 25 44 76 45
REMARK SMILES IDX 70 46 72 47 26 48 75 49 69 50 68 51 27 53 57 54 38 55 56 56
REMARK SMILES IDX 39 57 42 58 55 59 73 60 40 61 41 62 54 64 74 65 43 66 28 67
REMARK SMILES IDX 29 68 37 69 30 70 36 71 31 72 32 73 33 74 34 75 35 76 58 77
REMARK SMILES IDX 59 78 67 79 60 80 66 81 61 82 62 83 63 84 64 85 65 86 44 87
REMARK SMILES IDX 45 88 53 89 46 90 52 91 47 92 48 93 49 94 50 95 51 96
REMARK H PARENT 11 6 89 17 16 33 72 52 42 63
REMARK Flexibility Score: inf
ROOT
ATOM      1  C   UNL A   1      33.725  25.516  25.755  1.00  0.00     0.023 C 
ENDROOT
BRANCH   1   2
ATOM      2  C   UNL A   1      33.219  24.283  26.502  1.00  0.00     0.116 C 
BRANCH   2   3
ATOM      3  N   UNL A   1      31.870  24.441  27.002  1.00  0.00    -0.356 N 
ATOM      4  C   UNL A   1      30.694  23.948  26.512  1.00  0.00     0.224 C 
ATOM      5  O   UNL A   1      29.699  24.050  27.235  1.00  0.00    -0.275 OA
ATOM      6  H   UNL A   1      31.787  24.986  27.817  1.00  0.00     0.163 HD
BRANCH   4   7
ATOM      7  C   UNL A   1      30.638  23.180  25.194  1.00  0.00     0.138 C 
BRANCH   7   8
ATOM      8  C   UNL A   1      31.082  23.956  23.982  1.00  0.00    -0.002 A 
ATOM      9  C   UNL A   1      30.404  27.875  22.567  1.00  0.00     0.120 A 
ATOM     10  C   UNL A   1      29.892  27.599  23.834  1.00  0.00     0.047 A 
ATOM     11  C   UNL A   1      31.080  26.883  21.846  1.00  0.00     0.073 A 
ATOM     12  C   UNL A   1      30.066  26.335  24.413  1.00  0.00     0.014 A 
ATOM     13  C   UNL A   1      31.260  25.632  22.449  1.00  0.00     0.050 A 
ATOM     14  C   UNL A   1      30.765  25.330  23.713  1.00  0.00     0.004 A 
ATOM     15  N   UNL A   1      31.888  24.504  21.983  1.00  0.00    -0.351 N 
ATOM     16  C   UNL A   1      31.896  23.509  22.939  1.00  0.00     0.093 A 
ATOM     17  H   UNL A   1      32.281  24.416  21.084  1.00  0.00     0.167 HD
BRANCH   9  18
ATOM     18  O   UNL A   1      30.284  29.074  21.914  1.00  0.00    -0.497 OA
ATOM     19  C   UNL A   1      29.160  29.870  22.277  1.00  0.00     0.278 C 
ENDBRANCH   9  18
BRANCH  16  20
ATOM     20  C   UNL A   1      32.607  22.237  22.830  1.00  0.00     0.227 C 
ATOM     21  O   UNL A   1      32.268  21.340  22.064  1.00  0.00    -0.285 OA
BRANCH  20  22
ATOM     22  C   UNL A   1      33.739  21.962  23.754  1.00  0.00     0.113 A 
ATOM     23  C   UNL A   1      34.883  22.753  23.694  1.00  0.00     0.036 A 
ATOM     24  N   UNL A   1      33.564  20.949  24.636  1.00  0.00    -0.253 NA
ATOM     25  C   UNL A   1      35.917  22.491  24.595  1.00  0.00    -0.047 A 
ATOM     26  C   UNL A   1      34.563  20.738  25.517  1.00  0.00     0.112 A 
ATOM     27  C   UNL A   1      37.176  23.304  24.590  1.00  0.00     0.044 C 
ATOM     28  C   UNL A   1      35.742  21.469  25.532  1.00  0.00     0.023 A 
ENDBRANCH  20  22
ENDBRANCH  16  20
ENDBRANCH   7   8
ENDBRANCH   4   7
ENDBRANCH   2   3
ENDBRANCH   1   2
BRANCH   1  29
ATOM     29  C   UNL A   1      33.182  26.852  26.264  1.00  0.00     0.023 C 
BRANCH  29  30
ATOM     30  C   UNL A   1      34.233  27.866  26.694  1.00  0.00     0.116 C 
BRANCH  30  31
ATOM     31  N   UNL A   1      33.687  29.186  26.974  1.00  0.00    -0.352 N 
ATOM     32  C   UNL A   1      34.291  30.225  27.644  1.00  0.00     0.251 C 
ATOM     33  H   UNL A   1      32.775  29.357  26.644  1.00  0.00     0.163 HD
ATOM     34  O   UNL A   1      33.672  31.256  27.890  1.00  0.00    -0.269 OA
BRANCH  32  35
ATOM     35  C   UNL A   1      35.686  30.062  28.104  1.00  0.00     0.039 A 
ATOM     36  C   UNL A   1      35.924  29.594  29.399  1.00  0.00     0.014 A 
ATOM     37  C   UNL A   1      36.749  30.306  27.231  1.00  0.00     0.014 A 
ATOM     38  C   UNL A   1      37.230  29.292  29.794  1.00  0.00     0.010 A 
ATOM     39  C   UNL A   1      38.041  29.952  27.606  1.00  0.00     0.010 A 
ATOM     40  C   UNL A   1      38.292  29.430  28.886  1.00  0.00    -0.014 A 
BRANCH  40  41
ATOM     41  C   UNL A   1      39.680  29.029  29.229  1.00  0.00     0.031 A 
ATOM     42  C   UNL A   1      40.622  30.044  29.813  1.00  0.00     0.074 A 
ATOM     43  C   UNL A   1      40.122  27.796  28.916  1.00  0.00     0.049 A 
ATOM     44  N   UNL A   1      41.912  29.956  30.007  1.00  0.00    -0.248 NA
ATOM     45  C   UNL A   1      40.040  31.340  30.197  1.00  0.00     0.031 C 
ATOM     46  C   UNL A   1      39.314  26.728  28.324  1.00  0.00     0.029 A 
ATOM     47  N   UNL A   1      41.374  27.242  29.026  1.00  0.00    -0.354 N 
ATOM     48  C   UNL A   1      42.303  31.196  30.502  1.00  0.00     0.074 A 
ATOM     49  C   UNL A   1      41.117  32.024  30.554  1.00  0.00     0.031 C 
ATOM     50  C   UNL A   1      40.087  25.646  28.130  1.00  0.00     0.029 A 
ATOM     51  C   UNL A   1      41.453  25.957  28.539  1.00  0.00     0.049 A 
ATOM     52  H   UNL A   1      42.141  27.718  29.417  1.00  0.00     0.167 HD
ATOM     53  C   UNL A   1      43.536  31.604  30.884  1.00  0.00     0.031 A 
ATOM     54  C   UNL A   1      42.510  25.132  28.416  1.00  0.00     0.031 A 
ATOM     55  C   UNL A   1      44.707  30.771  30.852  1.00  0.00     0.049 A 
ATOM     56  C   UNL A   1      43.868  25.602  28.859  1.00  0.00     0.074 A 
ATOM     57  C   UNL A   1      45.995  31.080  31.256  1.00  0.00     0.029 A 
ATOM     58  N   UNL A   1      44.732  29.461  30.399  1.00  0.00    -0.354 N 
ATOM     59  N   UNL A   1      44.214  26.768  29.351  1.00  0.00    -0.248 NA
ATOM     60  C   UNL A   1      44.978  24.645  28.739  1.00  0.00     0.031 C 
ATOM     61  C   UNL A   1      46.805  29.964  31.022  1.00  0.00     0.029 A 
ATOM     62  C   UNL A   1      46.013  28.948  30.511  1.00  0.00     0.049 A 
ATOM     63  H   UNL A   1      43.955  28.969  30.050  1.00  0.00     0.167 HD
ATOM     64  C   UNL A   1      45.573  26.673  29.628  1.00  0.00     0.074 A 
ATOM     65  C   UNL A   1      45.987  25.337  29.251  1.00  0.00     0.031 C 
ATOM     66  C   UNL A   1      46.401  27.608  30.153  1.00  0.00     0.031 A 
BRANCH  53  67
ATOM     67  C   UNL A   1      43.676  33.024  31.358  1.00  0.00    -0.014 A 
ATOM     68  C   UNL A   1      44.054  34.050  30.475  1.00  0.00     0.010 A 
ATOM     69  C   UNL A   1      43.405  33.341  32.702  1.00  0.00     0.010 A 
ATOM     70  C   UNL A   1      44.205  35.360  30.935  1.00  0.00     0.020 A 
ATOM     71  C   UNL A   1      43.532  34.655  33.161  1.00  0.00     0.020 A 
ATOM     72  C   UNL A   1      43.951  35.652  32.278  1.00  0.00     0.054 A 
BRANCH  72  73
ATOM     73  S   UNL A   1      44.147  37.361  32.852  1.00  0.00     0.124 S 
ATOM     74  O   UNL A   1      43.897  38.119  31.628  1.00  0.00    -0.237 OA
ATOM     75  O   UNL A   1      43.118  37.478  33.882  1.00  0.00    -0.237 OA
ATOM     76  O   UNL A   1      45.523  37.406  33.343  1.00  0.00    -0.744 OA
ENDBRANCH  72  73
ENDBRANCH  53  67
BRANCH  54  77
ATOM     77  C   UNL A   1      42.322  23.766  27.856  1.00  0.00    -0.014 A 
ATOM     78  C   UNL A   1      42.290  23.570  26.464  1.00  0.00     0.010 A 
ATOM     79  C   UNL A   1      42.193  22.655  28.708  1.00  0.00     0.010 A 
ATOM     80  C   UNL A   1      42.120  22.289  25.934  1.00  0.00     0.020 A 
ATOM     81  C   UNL A   1      42.046  21.368  28.181  1.00  0.00     0.020 A 
ATOM     82  C   UNL A   1      42.000  21.194  26.795  1.00  0.00     0.054 A 
BRANCH  82  83
ATOM     83  S   UNL A   1      41.841  19.532  26.086  1.00  0.00     0.124 S 
ATOM     84  O   UNL A   1      42.281  18.687  27.192  1.00  0.00    -0.237 OA
ATOM     85  O   UNL A   1      40.419  19.458  25.761  1.00  0.00    -0.237 OA
ATOM     86  O   UNL A   1      42.734  19.568  24.930  1.00  0.00    -0.744 OA
ENDBRANCH  82  83
ENDBRANCH  54  77
BRANCH  66  87
ATOM     87  C   UNL A   1      47.828  27.212  30.410  1.00  0.00    -0.014 A 
ATOM     88  C   UNL A   1      48.825  27.406  29.439  1.00  0.00     0.010 A 
ATOM     89  C   UNL A   1      48.187  26.725  31.680  1.00  0.00     0.010 A 
ATOM     90  C   UNL A   1      50.159  27.109  29.732  1.00  0.00     0.020 A 
ATOM     91  C   UNL A   1      49.522  26.446  31.982  1.00  0.00     0.020 A 
ATOM     92  C   UNL A   1      50.499  26.633  31.003  1.00  0.00     0.054 A 
BRANCH  92  93
ATOM     93  S   UNL A   1      52.246  26.329  31.388  1.00  0.00     0.124 S 
ATOM     94  O   UNL A   1      52.240  24.909  31.728  1.00  0.00    -0.237 OA
ATOM     95  O   UNL A   1      52.918  26.672  30.136  1.00  0.00    -0.237 OA
ATOM     96  O   UNL A   1      52.518  27.236  32.500  1.00  0.00    -0.744 OA
ENDBRANCH  92  93
ENDBRANCH  66  87
ENDBRANCH  40  41
ENDBRANCH  32  35
ENDBRANCH  30  31
ENDBRANCH  29  30
ENDBRANCH   1  29
TORSDOF 18
ENDMDL
MODEL 3
REMARK VINA RESULT:     -11.1      3.355      8.766
REMARK SMILES COc1ccc2c(CC(=O)NCCCCNC(=O)c3ccc(-c4c5nc(c(-c6ccc(S(=O)(=O)[O-])cc6)c6ccc([nH]6)c(-c6ccc(S(=O)(=O)[O-])cc6)c6nc(c(-c7ccc(S(=O)(=O)[O-])cc7)c7ccc4[nH]7)C=C6)C=C5)cc3)c(C(=O)c3cc(C)ccn3)[nH]c2c1
REMARK SMILES IDX 13 1 12 2 11 3 9 4 10 5 8 7 7 8 3 9 4 10 91 11 5 12 90 13
REMARK SMILES IDX 6 14 89 15 79 16 2 18 1 19 80 20 81 21 82 22 83 23 88 24
REMARK SMILES IDX 84 25 87 26 85 27 86 28 14 29 15 30 16 31 17 32 18 34 19 35
REMARK SMILES IDX 20 36 78 37 21 38 77 39 22 40 23 41 24 42 71 43 25 44 76 45
REMARK SMILES IDX 70 46 72 47 26 48 75 49 69 50 68 51 27 53 57 54 38 55 56 56
REMARK SMILES IDX 39 57 42 58 55 59 73 60 40 61 41 62 54 64 74 65 43 66 28 67
REMARK SMILES IDX 29 68 37 69 30 70 36 71 31 72 32 73 33 74 34 75 35 76 58 77
REMARK SMILES IDX 59 78 67 79 60 80 66 81 61 82 62 83 63 84 64 85 65 86 44 87
REMARK SMILES IDX 45 88 53 89 46 90 52 91 47 92 48 93 49 94 50 95 51 96
REMARK H PARENT 11 6 89 17 16 33 72 52 42 63
REMARK Flexibility Score: inf
ROOT
ATOM      1  C   UNL A   1      38.934  23.067  26.520  1.00  0.00     0.023 C 
ENDROOT
BRANCH   1   2
ATOM      2  C   UNL A   1      37.760  23.694  25.770  1.00  0.00     0.116 C 
BRANCH   2   3
ATOM      3  N   UNL A   1      37.626  23.196  24.418  1.00  0.00    -0.356 N 
ATOM      4  C   UNL A   1      36.564  23.273  23.560  1.00  0.00     0.224 C 
ATOM      5  O   UNL A   1      36.769  22.955  22.386  1.00  0.00    -0.275 OA
ATOM      6  H   UNL A   1      38.417  22.733  24.062  1.00  0.00     0.163 HD
BRANCH   4   7
ATOM      7  C   UNL A   1      35.225  23.859  23.999  1.00  0.00     0.138 C 
BRANCH   7   8
ATOM      8  C   UNL A   1      34.013  23.074  23.572  1.00  0.00    -0.002 A 
ATOM      9  C   UNL A   1      32.613  19.161  24.310  1.00  0.00     0.120 A 
ATOM     10  C   UNL A   1      33.751  19.534  25.023  1.00  0.00     0.047 A 
ATOM     11  C   UNL A   1      32.017  20.054  23.413  1.00  0.00     0.073 A 
ATOM     12  C   UNL A   1      34.301  20.814  24.870  1.00  0.00     0.014 A 
ATOM     13  C   UNL A   1      32.569  21.335  23.286  1.00  0.00     0.050 A 
ATOM     14  C   UNL A   1      33.700  21.737  23.988  1.00  0.00     0.004 A 
ATOM     15  N   UNL A   1      32.182  22.396  22.506  1.00  0.00    -0.351 N 
ATOM     16  C   UNL A   1      32.971  23.503  22.745  1.00  0.00     0.093 A 
ATOM     17  H   UNL A   1      31.440  22.371  21.859  1.00  0.00     0.167 HD
BRANCH   9  18
ATOM     18  O   UNL A   1      32.003  17.935  24.387  1.00  0.00    -0.497 OA
ATOM     19  C   UNL A   1      32.520  17.045  25.370  1.00  0.00     0.278 C 
ENDBRANCH   9  18
BRANCH  16  20
ATOM     20  C   UNL A   1      32.743  24.838  22.198  1.00  0.00     0.227 C 
ATOM     21  O   UNL A   1      33.481  25.360  21.368  1.00  0.00    -0.285 OA
BRANCH  20  22
ATOM     22  C   UNL A   1      31.625  25.656  22.736  1.00  0.00     0.113 A 
ATOM     23  C   UNL A   1      31.508  26.993  22.362  1.00  0.00     0.036 A 
ATOM     24  N   UNL A   1      30.752  25.021  23.555  1.00  0.00    -0.253 NA
ATOM     25  C   UNL A   1      30.430  27.727  22.857  1.00  0.00    -0.047 A 
ATOM     26  C   UNL A   1      29.701  25.743  23.992  1.00  0.00     0.112 A 
ATOM     27  C   UNL A   1      30.240  29.170  22.494  1.00  0.00     0.044 C 
ATOM     28  C   UNL A   1      29.503  27.080  23.679  1.00  0.00     0.023 A 
ENDBRANCH  20  22
ENDBRANCH  16  20
ENDBRANCH   7   8
ENDBRANCH   4   7
ENDBRANCH   2   3
ENDBRANCH   1   2
BRANCH   1  29
ATOM     29  C   UNL A   1      39.294  21.643  26.091  1.00  0.00     0.023 C 
BRANCH  29  30
ATOM     30  C   UNL A   1      40.229  20.893  27.029  1.00  0.00     0.116 C 
BRANCH  30  31
ATOM     31  N   UNL A   1      41.093  19.939  26.348  1.00  0.00    -0.352 N 
ATOM     32  C   UNL A   1      42.340  20.163  25.812  1.00  0.00     0.251 C 
ATOM     33  H   UNL A   1      40.743  19.023  26.261  1.00  0.00     0.163 HD
ATOM     34  O   UNL A   1      42.917  19.283  25.179  1.00  0.00    -0.269 OA
BRANCH  32  35
ATOM     35  C   UNL A   1      42.956  21.496  25.970  1.00  0.00     0.039 A 
ATOM     36  C   UNL A   1      42.868  22.415  24.920  1.00  0.00     0.014 A 
ATOM     37  C   UNL A   1      43.556  21.856  27.179  1.00  0.00     0.014 A 
ATOM     38  C   UNL A   1      43.311  23.726  25.111  1.00  0.00     0.010 A 
ATOM     39  C   UNL A   1      43.944  23.176  27.386  1.00  0.00     0.010 A 
ATOM     40  C   UNL A   1      43.814  24.126  26.359  1.00  0.00    -0.014 A 
BRANCH  40  41
ATOM     41  C   UNL A   1      44.205  25.531  26.638  1.00  0.00     0.031 A 
ATOM     42  C   UNL A   1      45.598  25.992  26.314  1.00  0.00     0.074 A 
ATOM     43  C   UNL A   1      43.352  26.353  27.280  1.00  0.00     0.049 A 
ATOM     44  N   UNL A   1      46.196  27.107  26.643  1.00  0.00    -0.248 NA
ATOM     45  C   UNL A   1      46.438  25.060  25.544  1.00  0.00     0.031 C 
ATOM     46  C   UNL A   1      41.981  26.018  27.672  1.00  0.00     0.029 A 
ATOM     47  N   UNL A   1      43.525  27.634  27.743  1.00  0.00    -0.354 N 
ATOM     48  C   UNL A   1      47.493  26.996  26.154  1.00  0.00     0.074 A 
ATOM     49  C   UNL A   1      47.601  25.696  25.527  1.00  0.00     0.031 C 
ATOM     50  C   UNL A   1      41.436  27.068  28.308  1.00  0.00     0.029 A 
ATOM     51  C   UNL A   1      42.430  28.132  28.411  1.00  0.00     0.049 A 
ATOM     52  H   UNL A   1      44.353  28.149  27.607  1.00  0.00     0.167 HD
ATOM     53  C   UNL A   1      48.501  27.899  26.216  1.00  0.00     0.031 A 
ATOM     54  C   UNL A   1      42.255  29.303  29.053  1.00  0.00     0.031 A 
ATOM     55  C   UNL A   1      48.383  29.199  26.820  1.00  0.00     0.049 A 
ATOM     56  C   UNL A   1      43.383  30.296  29.097  1.00  0.00     0.074 A 
ATOM     57  C   UNL A   1      49.335  30.200  26.897  1.00  0.00     0.029 A 
ATOM     58  N   UNL A   1      47.241  29.680  27.440  1.00  0.00    -0.354 N 
ATOM     59  N   UNL A   1      44.594  30.186  28.605  1.00  0.00    -0.248 NA
ATOM     60  C   UNL A   1      43.121  31.574  29.776  1.00  0.00     0.031 C 
ATOM     61  C   UNL A   1      48.776  31.280  27.589  1.00  0.00     0.029 A 
ATOM     62  C   UNL A   1      47.465  30.964  27.906  1.00  0.00     0.049 A 
ATOM     63  H   UNL A   1      46.397  29.183  27.536  1.00  0.00     0.167 HD
ATOM     64  C   UNL A   1      45.228  31.391  28.887  1.00  0.00     0.074 A 
ATOM     65  C   UNL A   1      44.267  32.216  29.591  1.00  0.00     0.031 C 
ATOM     66  C   UNL A   1      46.489  31.780  28.584  1.00  0.00     0.031 A 
BRANCH  53  67
ATOM     67  C   UNL A   1      49.823  27.498  25.622  1.00  0.00    -0.014 A 
ATOM     68  C   UNL A   1      50.790  26.830  26.392  1.00  0.00     0.010 A 
ATOM     69  C   UNL A   1      50.092  27.774  24.270  1.00  0.00     0.010 A 
ATOM     70  C   UNL A   1      52.024  26.487  25.835  1.00  0.00     0.020 A 
ATOM     71  C   UNL A   1      51.316  27.411  23.701  1.00  0.00     0.020 A 
ATOM     72  C   UNL A   1      52.282  26.787  24.494  1.00  0.00     0.054 A 
BRANCH  72  73
ATOM     73  S   UNL A   1      53.889  26.326  23.789  1.00  0.00     0.124 S 
ATOM     74  O   UNL A   1      54.660  27.553  23.975  1.00  0.00    -0.237 OA
ATOM     75  O   UNL A   1      54.296  25.198  24.622  1.00  0.00    -0.237 OA
ATOM     76  O   UNL A   1      53.575  25.991  22.402  1.00  0.00    -0.744 OA
ENDBRANCH  72  73
ENDBRANCH  53  67
BRANCH  54  77
ATOM     77  C   UNL A   1      40.948  29.606  29.698  1.00  0.00    -0.014 A 
ATOM     78  C   UNL A   1      40.732  29.275  31.047  1.00  0.00     0.010 A 
ATOM     79  C   UNL A   1      39.923  30.241  28.975  1.00  0.00     0.010 A 
ATOM     80  C   UNL A   1      39.509  29.562  31.659  1.00  0.00     0.020 A 
ATOM     81  C   UNL A   1      38.706  30.551  29.590  1.00  0.00     0.020 A 
ATOM     82  C   UNL A   1      38.503  30.200  30.928  1.00  0.00     0.054 A 
BRANCH  82  83
ATOM     83  S   UNL A   1      36.945  30.620  31.757  1.00  0.00     0.124 S 
ATOM     84  O   UNL A   1      37.317  31.809  32.518  1.00  0.00    -0.237 OA
ATOM     85  O   UNL A   1      36.037  30.846  30.635  1.00  0.00    -0.237 OA
ATOM     86  O   UNL A   1      36.653  29.431  32.554  1.00  0.00    -0.744 OA
ENDBRANCH  82  83
ENDBRANCH  54  77
BRANCH  66  87
ATOM     87  C   UNL A   1      46.898  33.178  28.955  1.00  0.00    -0.014 A 
ATOM     88  C   UNL A   1      46.671  34.259  28.086  1.00  0.00     0.010 A 
ATOM     89  C   UNL A   1      47.433  33.420  30.233  1.00  0.00     0.010 A 
ATOM     90  C   UNL A   1      46.982  35.561  28.488  1.00  0.00     0.020 A 
ATOM     91  C   UNL A   1      47.727  34.722  30.644  1.00  0.00     0.020 A 
ATOM     92  C   UNL A   1      47.506  35.785  29.766  1.00  0.00     0.054 A 
BRANCH  92  93
ATOM     93  S   UNL A   1      47.828  37.489  30.296  1.00  0.00     0.124 S 
ATOM     94  O   UNL A   1      46.900  37.641  31.413  1.00  0.00    -0.237 OA
ATOM     95  O   UNL A   1      49.244  37.454  30.657  1.00  0.00    -0.237 OA
ATOM     96  O   UNL A   1      47.516  38.285  29.112  1.00  0.00    -0.744 OA
ENDBRANCH  92  93
ENDBRANCH  66  87
ENDBRANCH  40  41
ENDBRANCH  32  35
ENDBRANCH  30  31
ENDBRANCH  29  30
ENDBRANCH   1  29
TORSDOF 18
ENDMDL
