MODEL 1
REMARK VINA RESULT:     -10.4      0.000      0.000
REMARK SMILES O=C(NCCCCNC(=O)[C@H](F)[C@H](O)C1CCOCC1)c1ccc(-c2c3nc(c(-c4ccc(S(=O)(=O)[O-])cc4)c4ccc([nH]4)c(-c4ccc(S(=O)(=O)[O-])cc4)c4nc(c(-c5ccc(S(=O)(=O)[O-])cc5)c5ccc2[nH]5)C=C4)C=C3)cc1
REMARK SMILES IDX 5 1 4 2 3 3 1 4 2 5 21 7 22 8 80 9 23 10 79 11 24 12 25 13
REMARK SMILES IDX 26 14 73 15 27 16 78 17 72 18 74 19 28 20 77 21 71 22 70 23
REMARK SMILES IDX 29 25 59 26 40 27 58 28 41 29 44 30 57 31 75 32 42 33 43 34
REMARK SMILES IDX 56 36 76 37 45 38 30 39 31 40 39 41 32 42 38 43 33 44 34 45
REMARK SMILES IDX 35 46 36 47 37 48 60 49 61 50 69 51 62 52 68 53 63 54 64 55
REMARK SMILES IDX 65 56 66 57 67 58 46 59 47 60 55 61 48 62 54 63 49 64 50 65
REMARK SMILES IDX 51 66 52 67 53 68 6 69 7 70 8 71 9 72 10 74 11 75 12 76
REMARK SMILES IDX 13 77 15 78 16 79 20 80 17 81 19 82 18 83 14 84
REMARK H PARENT 3 6 74 24 44 35 8 73 14 85
REMARK Flexibility Score: inf
ROOT
ATOM      1  C   UNL A   1      34.499  32.874  29.691  1.00  0.00     0.023 C 
ENDROOT
BRANCH   1   2
ATOM      2  C   UNL A   1      34.717  32.770  28.185  1.00  0.00     0.116 C 
BRANCH   2   3
ATOM      3  N   UNL A   1      34.052  31.617  27.600  1.00  0.00    -0.352 N 
ATOM      4  O   UNL A   1      33.868  29.528  26.780  1.00  0.00    -0.269 OA
ATOM      5  C   UNL A   1      34.519  30.336  27.436  1.00  0.00     0.251 C 
ATOM      6  H   UNL A   1      33.137  31.777  27.275  1.00  0.00     0.163 HD
BRANCH   5   7
ATOM      7  C   UNL A   1      35.817  29.949  28.025  1.00  0.00     0.039 A 
ATOM      8  C   UNL A   1      35.880  29.358  29.291  1.00  0.00     0.014 A 
ATOM      9  C   UNL A   1      36.985  30.196  27.301  1.00  0.00     0.014 A 
ATOM     10  C   UNL A   1      37.118  29.135  29.888  1.00  0.00     0.010 A 
ATOM     11  C   UNL A   1      38.224  29.906  27.874  1.00  0.00     0.010 A 
ATOM     12  C   UNL A   1      38.301  29.404  29.183  1.00  0.00    -0.014 A 
BRANCH  12  13
ATOM     13  C   UNL A   1      39.621  29.121  29.799  1.00  0.00     0.031 A 
ATOM     14  C   UNL A   1      40.131  29.958  30.937  1.00  0.00     0.074 A 
ATOM     15  C   UNL A   1      40.373  28.121  29.302  1.00  0.00     0.049 A 
ATOM     16  N   UNL A   1      41.295  29.913  31.534  1.00  0.00    -0.248 NA
ATOM     17  C   UNL A   1      39.221  30.986  31.467  1.00  0.00     0.031 C 
ATOM     18  C   UNL A   1      39.979  27.237  28.203  1.00  0.00     0.029 A 
ATOM     19  N   UNL A   1      41.627  27.690  29.647  1.00  0.00    -0.354 N 
ATOM     20  C   UNL A   1      41.271  30.923  32.489  1.00  0.00     0.074 A 
ATOM     21  C   UNL A   1      39.982  31.573  32.381  1.00  0.00     0.031 C 
ATOM     22  C   UNL A   1      40.969  26.363  27.969  1.00  0.00     0.029 A 
ATOM     23  C   UNL A   1      42.088  26.665  28.856  1.00  0.00     0.049 A 
ATOM     24  H   UNL A   1      42.148  28.077  30.387  1.00  0.00     0.167 HD
ATOM     25  C   UNL A   1      42.238  31.277  33.371  1.00  0.00     0.031 A 
ATOM     26  C   UNL A   1      43.288  26.054  28.820  1.00  0.00     0.031 A 
ATOM     27  C   UNL A   1      43.519  30.628  33.466  1.00  0.00     0.049 A 
ATOM     28  C   UNL A   1      44.356  26.480  29.782  1.00  0.00     0.074 A 
ATOM     29  C   UNL A   1      44.555  30.892  34.345  1.00  0.00     0.029 A 
ATOM     30  N   UNL A   1      43.944  29.590  32.648  1.00  0.00    -0.354 N 
ATOM     31  N   UNL A   1      44.307  27.420  30.696  1.00  0.00    -0.248 NA
ATOM     32  C   UNL A   1      45.636  25.766  29.714  1.00  0.00     0.031 C 
ATOM     33  C   UNL A   1      45.624  30.046  34.027  1.00  0.00     0.029 A 
ATOM     34  C   UNL A   1      45.234  29.219  32.985  1.00  0.00     0.049 A 
ATOM     35  H   UNL A   1      43.407  29.180  31.932  1.00  0.00     0.167 HD
ATOM     36  C   UNL A   1      45.543  27.396  31.328  1.00  0.00     0.074 A 
ATOM     37  C   UNL A   1      46.317  26.346  30.695  1.00  0.00     0.031 C 
ATOM     38  C   UNL A   1      45.991  28.170  32.347  1.00  0.00     0.031 A 
BRANCH  25  39
ATOM     39  C   UNL A   1      41.956  32.453  34.269  1.00  0.00    -0.014 A 
ATOM     40  C   UNL A   1      41.678  32.281  35.636  1.00  0.00     0.010 A 
ATOM     41  C   UNL A   1      41.973  33.753  33.733  1.00  0.00     0.010 A 
ATOM     42  C   UNL A   1      41.361  33.383  36.437  1.00  0.00     0.020 A 
ATOM     43  C   UNL A   1      41.681  34.859  34.535  1.00  0.00     0.020 A 
ATOM     44  C   UNL A   1      41.350  34.664  35.878  1.00  0.00     0.054 A 
BRANCH  44  45
ATOM     45  S   UNL A   1      40.903  36.074  36.927  1.00  0.00     0.124 S 
ATOM     46  O   UNL A   1      40.364  35.406  38.110  1.00  0.00    -0.237 OA
ATOM     47  O   UNL A   1      42.181  36.754  37.119  1.00  0.00    -0.237 OA
ATOM     48  O   UNL A   1      39.925  36.805  36.126  1.00  0.00    -0.744 OA
ENDBRANCH  44  45
ENDBRANCH  25  39
BRANCH  26  49
ATOM     49  C   UNL A   1      43.517  24.985  27.813  1.00  0.00    -0.014 A 
ATOM     50  C   UNL A   1      44.106  25.286  26.575  1.00  0.00     0.010 A 
ATOM     51  C   UNL A   1      43.233  23.644  28.134  1.00  0.00     0.010 A 
ATOM     52  C   UNL A   1      44.423  24.261  25.679  1.00  0.00     0.020 A 
ATOM     53  C   UNL A   1      43.570  22.615  27.251  1.00  0.00     0.020 A 
ATOM     54  C   UNL A   1      44.163  22.931  26.027  1.00  0.00     0.054 A 
BRANCH  54  55
ATOM     55  S   UNL A   1      44.683  21.611  24.896  1.00  0.00     0.124 S 
ATOM     56  O   UNL A   1      46.041  21.337  25.355  1.00  0.00    -0.237 OA
ATOM     57  O   UNL A   1      43.701  20.563  25.161  1.00  0.00    -0.237 OA
ATOM     58  O   UNL A   1      44.579  22.231  23.577  1.00  0.00    -0.744 OA
ENDBRANCH  54  55
ENDBRANCH  26  49
BRANCH  38  59
ATOM     59  C   UNL A   1      47.371  27.893  32.877  1.00  0.00    -0.014 A 
ATOM     60  C   UNL A   1      47.587  26.934  33.881  1.00  0.00     0.010 A 
ATOM     61  C   UNL A   1      48.475  28.539  32.292  1.00  0.00     0.010 A 
ATOM     62  C   UNL A   1      48.886  26.631  34.295  1.00  0.00     0.020 A 
ATOM     63  C   UNL A   1      49.777  28.223  32.689  1.00  0.00     0.020 A 
ATOM     64  C   UNL A   1      49.974  27.272  33.692  1.00  0.00     0.054 A 
BRANCH  64  65
ATOM     65  S   UNL A   1      51.654  26.800  34.187  1.00  0.00     0.124 S 
ATOM     66  O   UNL A   1      52.457  27.346  33.096  1.00  0.00    -0.237 OA
ATOM     67  O   UNL A   1      51.809  27.468  35.476  1.00  0.00    -0.237 OA
ATOM     68  O   UNL A   1      51.599  25.342  34.251  1.00  0.00    -0.744 OA
ENDBRANCH  64  65
ENDBRANCH  38  59
ENDBRANCH  12  13
ENDBRANCH   5   7
ENDBRANCH   2   3
ENDBRANCH   1   2
BRANCH   1  69
ATOM     69  C   UNL A   1      35.727  32.570  30.548  1.00  0.00     0.023 C 
BRANCH  69  70
ATOM     70  C   UNL A   1      36.556  33.787  30.935  1.00  0.00     0.116 C 
BRANCH  70  71
ATOM     71  N   UNL A   1      35.764  34.849  31.528  1.00  0.00    -0.353 N 
ATOM     72  C   UNL A   1      35.542  35.102  32.859  1.00  0.00     0.257 C 
ATOM     73  H   UNL A   1      35.331  35.466  30.895  1.00  0.00     0.163 HD
ATOM     74  O   UNL A   1      34.957  36.141  33.171  1.00  0.00    -0.272 OA
BRANCH  72  75
ATOM     75  C   UNL A   1      35.975  34.058  33.883  1.00  0.00     0.283 C 
ATOM     76  F   UNL A   1      35.014  33.877  34.846  1.00  0.00    -0.234 F 
BRANCH  75  77
ATOM     77  C   UNL A   1      37.288  34.421  34.604  1.00  0.00     0.161 C 
BRANCH  77  78
ATOM     78  C   UNL A   1      37.926  33.269  35.436  1.00  0.00     0.026 C 
ATOM     79  C   UNL A   1      37.660  31.845  34.927  1.00  0.00     0.035 C 
ATOM     80  C   UNL A   1      37.474  33.377  36.905  1.00  0.00     0.035 C 
ATOM     81  C   UNL A   1      38.244  30.809  35.880  1.00  0.00     0.160 C 
ATOM     82  C   UNL A   1      38.045  32.245  37.748  1.00  0.00     0.160 C 
ATOM     83  O   UNL A   1      37.712  30.975  37.189  1.00  0.00    -0.381 OA
ENDBRANCH  77  78
BRANCH  77  84
ATOM     84  O   UNL A   1      38.300  34.948  33.732  1.00  0.00    -0.389 OA
ATOM     85  H   UNL A   1      39.166  34.887  34.166  1.00  0.00     0.211 HD
ENDBRANCH  77  84
ENDBRANCH  75  77
ENDBRANCH  72  75
ENDBRANCH  70  71
ENDBRANCH  69  70
ENDBRANCH   1  69
TORSDOF 17
ENDMDL
MODEL 2
REMARK VINA RESULT:     -10.4      4.022      7.095
REMARK SMILES O=C(NCCCCNC(=O)[C@H](F)[C@H](O)C1CCOCC1)c1ccc(-c2c3nc(c(-c4ccc(S(=O)(=O)[O-])cc4)c4ccc([nH]4)c(-c4ccc(S(=O)(=O)[O-])cc4)c4nc(c(-c5ccc(S(=O)(=O)[O-])cc5)c5ccc2[nH]5)C=C4)C=C3)cc1
REMARK SMILES IDX 5 1 4 2 3 3 1 4 2 5 21 7 22 8 80 9 23 10 79 11 24 12 25 13
REMARK SMILES IDX 26 14 73 15 27 16 78 17 72 18 74 19 28 20 77 21 71 22 70 23
REMARK SMILES IDX 29 25 59 26 40 27 58 28 41 29 44 30 57 31 75 32 42 33 43 34
REMARK SMILES IDX 56 36 76 37 45 38 30 39 31 40 39 41 32 42 38 43 33 44 34 45
REMARK SMILES IDX 35 46 36 47 37 48 60 49 61 50 69 51 62 52 68 53 63 54 64 55
REMARK SMILES IDX 65 56 66 57 67 58 46 59 47 60 55 61 48 62 54 63 49 64 50 65
REMARK SMILES IDX 51 66 52 67 53 68 6 69 7 70 8 71 9 72 10 74 11 75 12 76
REMARK SMILES IDX 13 77 15 78 16 79 20 80 17 81 19 82 18 83 14 84
REMARK H PARENT 3 6 74 24 44 35 8 73 14 85
REMARK Flexibility Score: inf
ROOT
ATOM      1  C   UNL A   1      32.845  27.839  25.877  1.00  0.00     0.023 C 
ENDROOT
BRANCH   1   2
ATOM      2  C   UNL A   1      33.786  28.263  26.999  1.00  0.00     0.116 C 
BRANCH   2   3
ATOM      3  N   UNL A   1      33.631  29.663  27.363  1.00  0.00    -0.352 N 
ATOM      4  O   UNL A   1      34.145  31.609  28.372  1.00  0.00    -0.269 OA
ATOM      5  C   UNL A   1      34.510  30.493  28.015  1.00  0.00     0.251 C 
ATOM      6  H   UNL A   1      32.775  30.073  27.105  1.00  0.00     0.163 HD
BRANCH   5   7
ATOM      7  C   UNL A   1      35.879  30.022  28.311  1.00  0.00     0.039 A 
ATOM      8  C   UNL A   1      36.205  29.523  29.575  1.00  0.00     0.014 A 
ATOM      9  C   UNL A   1      36.847  30.096  27.308  1.00  0.00     0.014 A 
ATOM     10  C   UNL A   1      37.530  29.222  29.878  1.00  0.00     0.010 A 
ATOM     11  C   UNL A   1      38.162  29.726  27.593  1.00  0.00     0.010 A 
ATOM     12  C   UNL A   1      38.520  29.317  28.888  1.00  0.00    -0.014 A 
BRANCH  12  13
ATOM     13  C   UNL A   1      39.924  28.949  29.195  1.00  0.00     0.031 A 
ATOM     14  C   UNL A   1      40.862  29.948  29.810  1.00  0.00     0.074 A 
ATOM     15  C   UNL A   1      40.358  27.713  28.883  1.00  0.00     0.049 A 
ATOM     16  N   UNL A   1      42.141  29.830  30.060  1.00  0.00    -0.248 NA
ATOM     17  C   UNL A   1      40.293  31.253  30.183  1.00  0.00     0.031 C 
ATOM     18  C   UNL A   1      39.537  26.656  28.289  1.00  0.00     0.029 A 
ATOM     19  N   UNL A   1      41.598  27.143  29.012  1.00  0.00    -0.354 N 
ATOM     20  C   UNL A   1      42.539  31.051  30.591  1.00  0.00     0.074 A 
ATOM     21  C   UNL A   1      41.366  31.901  30.613  1.00  0.00     0.031 C 
ATOM     22  C   UNL A   1      40.293  25.563  28.111  1.00  0.00     0.029 A 
ATOM     23  C   UNL A   1      41.662  25.861  28.520  1.00  0.00     0.049 A 
ATOM     24  H   UNL A   1      42.367  27.605  29.415  1.00  0.00     0.167 HD
ATOM     25  C   UNL A   1      43.768  31.429  31.017  1.00  0.00     0.031 A 
ATOM     26  C   UNL A   1      42.709  25.026  28.377  1.00  0.00     0.031 A 
ATOM     27  C   UNL A   1      44.929  30.578  30.986  1.00  0.00     0.049 A 
ATOM     28  C   UNL A   1      44.068  25.473  28.825  1.00  0.00     0.074 A 
ATOM     29  C   UNL A   1      46.213  30.857  31.421  1.00  0.00     0.029 A 
ATOM     30  N   UNL A   1      44.949  29.285  30.482  1.00  0.00    -0.354 N 
ATOM     31  N   UNL A   1      44.421  26.622  29.349  1.00  0.00    -0.248 NA
ATOM     32  C   UNL A   1      45.169  24.515  28.668  1.00  0.00     0.031 C 
ATOM     33  C   UNL A   1      47.020  29.750  31.137  1.00  0.00     0.029 A 
ATOM     34  C   UNL A   1      46.227  28.761  30.574  1.00  0.00     0.049 A 
ATOM     35  H   UNL A   1      44.170  28.811  30.113  1.00  0.00     0.167 HD
ATOM     36  C   UNL A   1      45.782  26.519  29.606  1.00  0.00     0.074 A 
ATOM     37  C   UNL A   1      46.188  25.193  29.183  1.00  0.00     0.031 C 
ATOM     38  C   UNL A   1      46.616  27.438  30.151  1.00  0.00     0.031 A 
BRANCH  25  39
ATOM     39  C   UNL A   1      43.924  32.844  31.509  1.00  0.00    -0.014 A 
ATOM     40  C   UNL A   1      44.294  33.886  30.639  1.00  0.00     0.010 A 
ATOM     41  C   UNL A   1      43.694  33.137  32.865  1.00  0.00     0.010 A 
ATOM     42  C   UNL A   1      44.491  35.180  31.130  1.00  0.00     0.020 A 
ATOM     43  C   UNL A   1      43.865  34.434  33.355  1.00  0.00     0.020 A 
ATOM     44  C   UNL A   1      44.289  35.443  32.488  1.00  0.00     0.054 A 
BRANCH  44  45
ATOM     45  S   UNL A   1      44.584  37.122  33.108  1.00  0.00     0.124 S 
ATOM     46  O   UNL A   1      44.912  37.841  31.879  1.00  0.00    -0.237 OA
ATOM     47  O   UNL A   1      43.303  37.472  33.716  1.00  0.00    -0.237 OA
ATOM     48  O   UNL A   1      45.691  36.955  34.046  1.00  0.00    -0.744 OA
ENDBRANCH  44  45
ENDBRANCH  25  39
BRANCH  26  49
ATOM     49  C   UNL A   1      42.482  23.692  27.765  1.00  0.00    -0.014 A 
ATOM     50  C   UNL A   1      42.775  23.468  26.411  1.00  0.00     0.010 A 
ATOM     51  C   UNL A   1      42.063  22.611  28.566  1.00  0.00     0.010 A 
ATOM     52  C   UNL A   1      42.667  22.184  25.869  1.00  0.00     0.020 A 
ATOM     53  C   UNL A   1      41.977  21.323  28.034  1.00  0.00     0.020 A 
ATOM     54  C   UNL A   1      42.279  21.118  26.687  1.00  0.00     0.054 A 
BRANCH  54  55
ATOM     55  S   UNL A   1      42.254  19.443  25.990  1.00  0.00     0.124 S 
ATOM     56  O   UNL A   1      40.837  19.259  25.693  1.00  0.00    -0.237 OA
ATOM     57  O   UNL A   1      43.132  19.571  24.830  1.00  0.00    -0.237 OA
ATOM     58  O   UNL A   1      42.781  18.615  27.071  1.00  0.00    -0.744 OA
ENDBRANCH  54  55
ENDBRANCH  26  49
BRANCH  38  59
ATOM     59  C   UNL A   1      48.051  27.039  30.361  1.00  0.00    -0.014 A 
ATOM     60  C   UNL A   1      49.039  27.347  29.411  1.00  0.00     0.010 A 
ATOM     61  C   UNL A   1      48.425  26.430  31.573  1.00  0.00     0.010 A 
ATOM     62  C   UNL A   1      50.379  27.046  29.668  1.00  0.00     0.020 A 
ATOM     63  C   UNL A   1      49.766  26.146  31.841  1.00  0.00     0.020 A 
ATOM     64  C   UNL A   1      50.735  26.453  30.884  1.00  0.00     0.054 A 
BRANCH  64  65
ATOM     65  S   UNL A   1      52.489  26.149  31.230  1.00  0.00     0.124 S 
ATOM     66  O   UNL A   1      52.451  24.839  31.872  1.00  0.00    -0.237 OA
ATOM     67  O   UNL A   1      53.090  26.179  29.899  1.00  0.00    -0.237 OA
ATOM     68  O   UNL A   1      52.869  27.259  32.101  1.00  0.00    -0.744 OA
ENDBRANCH  64  65
ENDBRANCH  38  59
ENDBRANCH  12  13
ENDBRANCH   5   7
ENDBRANCH   2   3
ENDBRANCH   1   2
BRANCH   1  69
ATOM     69  C   UNL A   1      31.401  27.577  26.303  1.00  0.00     0.023 C 
BRANCH  69  70
ATOM     70  C   UNL A   1      30.697  26.466  25.536  1.00  0.00     0.116 C 
BRANCH  70  71
ATOM     71  N   UNL A   1      31.210  26.291  24.190  1.00  0.00    -0.353 N 
ATOM     72  C   UNL A   1      30.953  27.052  23.077  1.00  0.00     0.257 C 
ATOM     73  H   UNL A   1      31.819  25.529  24.058  1.00  0.00     0.163 HD
ATOM     74  O   UNL A   1      31.599  26.831  22.051  1.00  0.00    -0.272 OA
BRANCH  72  75
ATOM     75  C   UNL A   1      29.841  28.093  23.145  1.00  0.00     0.283 C 
ATOM     76  F   UNL A   1      28.603  27.503  23.097  1.00  0.00    -0.234 F 
BRANCH  75  77
ATOM     77  C   UNL A   1      29.904  29.127  22.004  1.00  0.00     0.161 C 
BRANCH  77  78
ATOM     78  C   UNL A   1      28.822  30.247  22.064  1.00  0.00     0.026 C 
ATOM     79  C   UNL A   1      28.866  31.285  20.933  1.00  0.00     0.035 C 
ATOM     80  C   UNL A   1      28.898  30.969  23.422  1.00  0.00     0.035 C 
ATOM     81  C   UNL A   1      27.831  32.380  21.161  1.00  0.00     0.160 C 
ATOM     82  C   UNL A   1      27.881  32.099  23.508  1.00  0.00     0.160 C 
ATOM     83  O   UNL A   1      28.036  33.010  22.421  1.00  0.00    -0.381 OA
ENDBRANCH  77  78
BRANCH  77  84
ATOM     84  O   UNL A   1      31.186  29.761  21.868  1.00  0.00    -0.389 OA
ATOM     85  H   UNL A   1      31.714  29.286  21.207  1.00  0.00     0.211 HD
ENDBRANCH  77  84
ENDBRANCH  75  77
ENDBRANCH  72  75
ENDBRANCH  70  71
ENDBRANCH  69  70
ENDBRANCH   1  69
TORSDOF 17
ENDMDL
MODEL 3
REMARK VINA RESULT:     -10.3      4.236     11.725
REMARK SMILES O=C(NCCCCNC(=O)[C@H](F)[C@H](O)C1CCOCC1)c1ccc(-c2c3nc(c(-c4ccc(S(=O)(=O)[O-])cc4)c4ccc([nH]4)c(-c4ccc(S(=O)(=O)[O-])cc4)c4nc(c(-c5ccc(S(=O)(=O)[O-])cc5)c5ccc2[nH]5)C=C4)C=C3)cc1
REMARK SMILES IDX 5 1 4 2 3 3 1 4 2 5 21 7 22 8 80 9 23 10 79 11 24 12 25 13
REMARK SMILES IDX 26 14 73 15 27 16 78 17 72 18 74 19 28 20 77 21 71 22 70 23
REMARK SMILES IDX 29 25 59 26 40 27 58 28 41 29 44 30 57 31 75 32 42 33 43 34
REMARK SMILES IDX 56 36 76 37 45 38 30 39 31 40 39 41 32 42 38 43 33 44 34 45
REMARK SMILES IDX 35 46 36 47 37 48 60 49 61 50 69 51 62 52 68 53 63 54 64 55
REMARK SMILES IDX 65 56 66 57 67 58 46 59 47 60 55 61 48 62 54 63 49 64 50 65
REMARK SMILES IDX 51 66 52 67 53 68 6 69 7 70 8 71 9 72 10 74 11 75 12 76
REMARK SMILES IDX 13 77 15 78 16 79 20 80 17 81 19 82 18 83 14 84
REMARK H PARENT 3 6 74 24 44 35 8 73 14 85
REMARK Flexibility Score: inf
ROOT
ATOM      1  C   UNL A   1      40.651  21.752  27.330  1.00  0.00     0.023 C 
ENDROOT
BRANCH   1   2
ATOM      2  C   UNL A   1      41.226  23.134  27.620  1.00  0.00     0.116 C 
BRANCH   2   3
ATOM      3  N   UNL A   1      41.242  23.993  26.447  1.00  0.00    -0.352 N 
ATOM      4  O   UNL A   1      40.942  25.883  25.260  1.00  0.00    -0.269 OA
ATOM      5  C   UNL A   1      41.042  25.349  26.361  1.00  0.00     0.251 C 
ATOM      6  H   UNL A   1      41.421  23.538  25.593  1.00  0.00     0.163 HD
BRANCH   5   7
ATOM      7  C   UNL A   1      40.916  26.150  27.596  1.00  0.00     0.039 A 
ATOM      8  C   UNL A   1      39.837  25.959  28.465  1.00  0.00     0.014 A 
ATOM      9  C   UNL A   1      41.887  27.112  27.876  1.00  0.00     0.014 A 
ATOM     10  C   UNL A   1      39.660  26.820  29.544  1.00  0.00     0.010 A 
ATOM     11  C   UNL A   1      41.744  27.929  28.999  1.00  0.00     0.010 A 
ATOM     12  C   UNL A   1      40.613  27.810  29.823  1.00  0.00    -0.014 A 
BRANCH  12  13
ATOM     13  C   UNL A   1      40.451  28.696  31.002  1.00  0.00     0.031 A 
ATOM     14  C   UNL A   1      39.413  29.782  31.007  1.00  0.00     0.074 A 
ATOM     15  C   UNL A   1      41.270  28.535  32.058  1.00  0.00     0.049 A 
ATOM     16  N   UNL A   1      39.193  30.705  31.909  1.00  0.00    -0.248 NA
ATOM     17  C   UNL A   1      38.513  29.848  29.845  1.00  0.00     0.031 C 
ATOM     18  C   UNL A   1      42.311  27.511  32.169  1.00  0.00     0.029 A 
ATOM     19  N   UNL A   1      41.365  29.238  33.230  1.00  0.00    -0.354 N 
ATOM     20  C   UNL A   1      38.151  31.480  31.413  1.00  0.00     0.074 A 
ATOM     21  C   UNL A   1      37.794  30.927  30.123  1.00  0.00     0.031 C 
ATOM     22  C   UNL A   1      42.934  27.647  33.348  1.00  0.00     0.029 A 
ATOM     23  C   UNL A   1      42.380  28.803  34.047  1.00  0.00     0.049 A 
ATOM     24  H   UNL A   1      40.765  29.983  33.465  1.00  0.00     0.167 HD
ATOM     25  C   UNL A   1      37.551  32.555  31.979  1.00  0.00     0.031 A 
ATOM     26  C   UNL A   1      42.844  29.295  35.212  1.00  0.00     0.031 A 
ATOM     27  C   UNL A   1      37.918  33.101  33.260  1.00  0.00     0.049 A 
ATOM     28  C   UNL A   1      42.188  30.504  35.809  1.00  0.00     0.074 A 
ATOM     29  C   UNL A   1      37.353  34.169  33.935  1.00  0.00     0.029 A 
ATOM     30  N   UNL A   1      38.951  32.626  34.056  1.00  0.00    -0.354 N 
ATOM     31  N   UNL A   1      41.187  31.209  35.338  1.00  0.00    -0.248 NA
ATOM     32  C   UNL A   1      42.718  30.984  37.090  1.00  0.00     0.031 C 
ATOM     33  C   UNL A   1      38.075  34.370  35.116  1.00  0.00     0.029 A 
ATOM     34  C   UNL A   1      39.056  33.394  35.203  1.00  0.00     0.049 A 
ATOM     35  H   UNL A   1      39.526  31.858  33.836  1.00  0.00     0.167 HD
ATOM     36  C   UNL A   1      40.951  32.204  36.278  1.00  0.00     0.074 A 
ATOM     37  C   UNL A   1      41.912  32.007  37.345  1.00  0.00     0.031 C 
ATOM     38  C   UNL A   1      40.016  33.185  36.259  1.00  0.00     0.031 A 
BRANCH  25  39
ATOM     39  C   UNL A   1      36.467  33.237  31.188  1.00  0.00    -0.014 A 
ATOM     40  C   UNL A   1      36.727  33.810  29.930  1.00  0.00     0.010 A 
ATOM     41  C   UNL A   1      35.163  33.304  31.713  1.00  0.00     0.010 A 
ATOM     42  C   UNL A   1      35.718  34.491  29.241  1.00  0.00     0.020 A 
ATOM     43  C   UNL A   1      34.146  33.962  31.015  1.00  0.00     0.020 A 
ATOM     44  C   UNL A   1      34.438  34.575  29.796  1.00  0.00     0.054 A 
BRANCH  44  45
ATOM     45  S   UNL A   1      33.155  35.492  28.900  1.00  0.00     0.124 S 
ATOM     46  O   UNL A   1      32.380  36.070  29.996  1.00  0.00    -0.237 OA
ATOM     47  O   UNL A   1      33.929  36.444  28.109  1.00  0.00    -0.237 OA
ATOM     48  O   UNL A   1      32.466  34.460  28.129  1.00  0.00    -0.744 OA
ENDBRANCH  44  45
ENDBRANCH  25  39
BRANCH  26  49
ATOM     49  C   UNL A   1      44.002  28.628  35.861  1.00  0.00    -0.014 A 
ATOM     50  C   UNL A   1      43.802  27.598  36.793  1.00  0.00     0.010 A 
ATOM     51  C   UNL A   1      45.314  28.958  35.470  1.00  0.00     0.010 A 
ATOM     52  C   UNL A   1      44.894  26.898  37.315  1.00  0.00     0.020 A 
ATOM     53  C   UNL A   1      46.406  28.246  35.971  1.00  0.00     0.020 A 
ATOM     54  C   UNL A   1      46.189  27.219  36.892  1.00  0.00     0.054 A 
BRANCH  54  55
ATOM     55  S   UNL A   1      47.580  26.225  37.498  1.00  0.00     0.124 S 
ATOM     56  O   UNL A   1      47.050  25.691  38.748  1.00  0.00    -0.237 OA
ATOM     57  O   UNL A   1      47.766  25.254  36.422  1.00  0.00    -0.237 OA
ATOM     58  O   UNL A   1      48.660  27.199  37.639  1.00  0.00    -0.744 OA
ENDBRANCH  54  55
ENDBRANCH  26  49
BRANCH  38  59
ATOM     59  C   UNL A   1      39.952  34.109  37.444  1.00  0.00    -0.014 A 
ATOM     60  C   UNL A   1      40.722  35.283  37.494  1.00  0.00     0.010 A 
ATOM     61  C   UNL A   1      39.036  33.840  38.477  1.00  0.00     0.010 A 
ATOM     62  C   UNL A   1      40.580  36.171  38.563  1.00  0.00     0.020 A 
ATOM     63  C   UNL A   1      38.877  34.736  39.537  1.00  0.00     0.020 A 
ATOM     64  C   UNL A   1      39.654  35.896  39.575  1.00  0.00     0.054 A 
BRANCH  64  65
ATOM     65  S   UNL A   1      39.428  37.104  40.908  1.00  0.00     0.124 S 
ATOM     66  O   UNL A   1      38.914  36.270  41.991  1.00  0.00    -0.237 OA
ATOM     67  O   UNL A   1      40.778  37.626  41.103  1.00  0.00    -0.237 OA
ATOM     68  O   UNL A   1      38.473  38.060  40.352  1.00  0.00    -0.744 OA
ENDBRANCH  64  65
ENDBRANCH  38  59
ENDBRANCH  12  13
ENDBRANCH   5   7
ENDBRANCH   2   3
ENDBRANCH   1   2
BRANCH   1  69
ATOM     69  C   UNL A   1      41.668  20.611  27.328  1.00  0.00     0.023 C 
BRANCH  69  70
ATOM     70  C   UNL A   1      42.115  20.154  25.946  1.00  0.00     0.116 C 
BRANCH  70  71
ATOM     71  N   UNL A   1      42.987  18.995  25.985  1.00  0.00    -0.353 N 
ATOM     72  C   UNL A   1      44.186  18.811  25.341  1.00  0.00     0.257 C 
ATOM     73  H   UNL A   1      42.679  18.244  26.543  1.00  0.00     0.163 HD
ATOM     74  O   UNL A   1      44.852  17.811  25.614  1.00  0.00    -0.272 OA
BRANCH  72  75
ATOM     75  C   UNL A   1      44.606  19.820  24.278  1.00  0.00     0.283 C 
ATOM     76  F   UNL A   1      44.801  19.211  23.064  1.00  0.00    -0.234 F 
BRANCH  75  77
ATOM     77  C   UNL A   1      45.904  20.572  24.631  1.00  0.00     0.161 C 
BRANCH  77  78
ATOM     78  C   UNL A   1      45.745  22.108  24.837  1.00  0.00     0.026 C 
ATOM     79  C   UNL A   1      45.989  22.624  26.262  1.00  0.00     0.035 C 
ATOM     80  C   UNL A   1      44.347  22.552  24.366  1.00  0.00     0.035 C 
ATOM     81  C   UNL A   1      45.700  24.117  26.356  1.00  0.00     0.160 C 
ATOM     82  C   UNL A   1      44.134  24.043  24.587  1.00  0.00     0.160 C 
ATOM     83  O   UNL A   1      44.365  24.397  25.949  1.00  0.00    -0.381 OA
ENDBRANCH  77  78
BRANCH  77  84
ATOM     84  O   UNL A   1      46.585  20.041  25.780  1.00  0.00    -0.389 OA
ATOM     85  H   UNL A   1      46.554  19.072  25.757  1.00  0.00     0.211 HD
ENDBRANCH  77  84
ENDBRANCH  75  77
ENDBRANCH  72  75
ENDBRANCH  70  71
ENDBRANCH  69  70
ENDBRANCH   1  69
TORSDOF 17
ENDMDL
