MODEL 1
REMARK VINA RESULT:     -12.7      0.000      0.000
REMARK SMILES Cc1c(C(=O)NCCCCNC(=O)c2ccc(-c3c4nc(c(-c5ccc(S(=O)(=O)[O-])cc5)c5ccc([nH]5)c(-c5ccc(S(=O)(=O)[O-])cc5)c5nc(c(-c6ccc(S(=O)(=O)[O-])cc6)c6ccc3[nH]6)C=C5)C=C4)cc2)sc2nc3n(c(=O)c12)CC/C3=C\c1ccc(OC(F)F)cc1
REMARK SMILES IDX 8 1 7 2 6 3 4 4 5 5 3 7 1 8 2 9 81 10 74 11 75 12 79 13
REMARK SMILES IDX 76 14 78 15 80 16 77 17 82 18 84 19 83 20 85 21 86 22 87 23
REMARK SMILES IDX 95 24 88 25 94 26 89 27 90 28 91 29 92 30 93 31 9 32 10 33
REMARK SMILES IDX 11 34 12 35 13 37 14 38 15 39 73 40 16 41 72 42 17 43 18 44
REMARK SMILES IDX 19 45 66 46 20 47 71 48 65 49 67 50 21 51 70 52 64 53 63 54
REMARK SMILES IDX 22 56 52 57 33 58 51 59 34 60 37 61 50 62 68 63 35 64 36 65
REMARK SMILES IDX 49 67 69 68 38 69 23 70 24 71 32 72 25 73 31 74 26 75 27 76
REMARK SMILES IDX 28 77 29 78 30 79 53 80 54 81 62 82 55 83 61 84 56 85 57 86
REMARK SMILES IDX 58 87 59 88 60 89 39 90 40 91 48 92 41 93 47 94 42 95 43 96
REMARK SMILES IDX 44 97 45 98 46 99
REMARK H PARENT 6 6 11 36 67 55 37 66
REMARK Flexibility Score: inf
ROOT
ATOM      1  C   UNL A   1      39.545  20.062  25.887  1.00  0.00     0.023 C 
ENDROOT
BRANCH   1   2
ATOM      2  C   UNL A   1      38.265  20.511  25.158  1.00  0.00     0.116 C 
BRANCH   2   3
ATOM      3  N   UNL A   1      37.344  19.404  24.963  1.00  0.00    -0.351 N 
ATOM      4  C   UNL A   1      35.978  19.286  24.807  1.00  0.00     0.261 C 
ATOM      5  O   UNL A   1      35.612  18.120  24.612  1.00  0.00    -0.268 OA
ATOM      6  H   UNL A   1      37.802  18.533  24.934  1.00  0.00     0.163 HD
BRANCH   4   7
ATOM      7  C   UNL A   1      35.024  20.408  24.848  1.00  0.00     0.098 A 
ATOM      8  C   UNL A   1      32.593  19.481  24.739  1.00  0.00     0.047 C 
ATOM      9  C   UNL A   1      33.638  20.525  24.897  1.00  0.00    -0.012 A 
ATOM     10  C   UNL A   1      33.232  21.892  25.034  1.00  0.00     0.081 A 
ATOM     11  S   UNL A   1      35.720  22.011  24.644  1.00  0.00    -0.110 S 
ATOM     12  C   UNL A   1      34.213  22.801  24.722  1.00  0.00     0.132 A 
ATOM     13  C   UNL A   1      31.885  22.372  25.264  1.00  0.00     0.262 A 
ATOM     14  N   UNL A   1      34.032  24.141  24.472  1.00  0.00    -0.219 NA
ATOM     15  N   UNL A   1      31.738  23.680  24.872  1.00  0.00    -0.292 N 
ATOM     16  O   UNL A   1      30.988  21.703  25.731  1.00  0.00    -0.269 OA
ATOM     17  C   UNL A   1      32.792  24.511  24.519  1.00  0.00     0.140 A 
ATOM     18  C   UNL A   1      30.445  24.285  24.849  1.00  0.00     0.132 C 
ATOM     19  C   UNL A   1      32.165  25.837  24.247  1.00  0.00    -0.002 C 
ATOM     20  C   UNL A   1      30.671  25.712  24.431  1.00  0.00     0.061 C 
ATOM     21  C   UNL A   1      32.809  26.965  23.906  1.00  0.00     0.015 C 
BRANCH  21  22
ATOM     22  C   UNL A   1      32.025  28.199  23.747  1.00  0.00    -0.025 A 
ATOM     23  C   UNL A   1      31.282  28.442  22.590  1.00  0.00     0.012 A 
ATOM     24  C   UNL A   1      31.859  29.049  24.849  1.00  0.00     0.012 A 
ATOM     25  C   UNL A   1      30.345  29.482  22.569  1.00  0.00     0.047 A 
ATOM     26  C   UNL A   1      30.900  30.065  24.837  1.00  0.00     0.047 A 
ATOM     27  C   UNL A   1      30.124  30.277  23.700  1.00  0.00     0.126 A 
BRANCH  27  28
ATOM     28  O   UNL A   1      29.128  31.205  23.571  1.00  0.00    -0.435 OA
BRANCH  28  29
ATOM     29  C   UNL A   1      27.886  30.782  23.020  1.00  0.00     0.542 C 
ATOM     30  F   UNL A   1      27.017  30.469  24.012  1.00  0.00    -0.167 F 
ATOM     31  F   UNL A   1      27.343  31.774  22.274  1.00  0.00    -0.167 F 
ENDBRANCH  28  29
ENDBRANCH  27  28
ENDBRANCH  21  22
ENDBRANCH   4   7
ENDBRANCH   2   3
ENDBRANCH   1   2
BRANCH   1  32
ATOM     32  C   UNL A   1      40.469  21.147  26.438  1.00  0.00     0.023 C 
BRANCH  32  33
ATOM     33  C   UNL A   1      41.914  20.705  26.616  1.00  0.00     0.116 C 
BRANCH  33  34
ATOM     34  N   UNL A   1      42.814  21.227  25.585  1.00  0.00    -0.352 N 
ATOM     35  C   UNL A   1      43.007  22.556  25.251  1.00  0.00     0.251 C 
ATOM     36  H   UNL A   1      43.336  20.565  25.077  1.00  0.00     0.163 HD
ATOM     37  O   UNL A   1      43.460  22.886  24.162  1.00  0.00    -0.269 OA
BRANCH  35  38
ATOM     38  C   UNL A   1      42.655  23.566  26.262  1.00  0.00     0.039 A 
ATOM     39  C   UNL A   1      43.342  23.654  27.475  1.00  0.00     0.014 A 
ATOM     40  C   UNL A   1      41.692  24.505  25.901  1.00  0.00     0.014 A 
ATOM     41  C   UNL A   1      43.123  24.767  28.286  1.00  0.00     0.010 A 
ATOM     42  C   UNL A   1      41.576  25.659  26.638  1.00  0.00     0.010 A 
ATOM     43  C   UNL A   1      42.261  25.786  27.846  1.00  0.00    -0.014 A 
BRANCH  43  44
ATOM     44  C   UNL A   1      42.188  27.063  28.560  1.00  0.00     0.031 A 
ATOM     45  C   UNL A   1      43.329  27.993  28.305  1.00  0.00     0.074 A 
ATOM     46  C   UNL A   1      41.060  27.477  29.183  1.00  0.00     0.049 A 
ATOM     47  N   UNL A   1      44.190  28.451  29.153  1.00  0.00    -0.248 NA
ATOM     48  C   UNL A   1      43.620  28.368  26.908  1.00  0.00     0.031 C 
ATOM     49  C   UNL A   1      39.760  26.790  29.228  1.00  0.00     0.029 A 
ATOM     50  N   UNL A   1      40.785  28.666  29.786  1.00  0.00    -0.354 N 
ATOM     51  C   UNL A   1      45.001  29.335  28.442  1.00  0.00     0.074 A 
ATOM     52  C   UNL A   1      44.720  29.112  27.047  1.00  0.00     0.031 C 
ATOM     53  C   UNL A   1      38.794  27.668  29.576  1.00  0.00     0.029 A 
ATOM     54  C   UNL A   1      39.425  28.912  29.967  1.00  0.00     0.049 A 
ATOM     55  H   UNL A   1      41.486  29.296  30.070  1.00  0.00     0.167 HD
ATOM     56  C   UNL A   1      45.659  30.361  29.053  1.00  0.00     0.031 A 
ATOM     57  C   UNL A   1      38.853  30.065  30.391  1.00  0.00     0.031 A 
ATOM     58  C   UNL A   1      45.638  30.224  30.483  1.00  0.00     0.049 A 
ATOM     59  C   UNL A   1      39.902  30.826  31.100  1.00  0.00     0.074 A 
ATOM     60  C   UNL A   1      46.202  29.373  31.405  1.00  0.00     0.029 A 
ATOM     61  N   UNL A   1      44.589  30.858  31.102  1.00  0.00    -0.354 N 
ATOM     62  N   UNL A   1      40.469  30.414  32.200  1.00  0.00    -0.248 NA
ATOM     63  C   UNL A   1      40.604  31.889  30.397  1.00  0.00     0.031 C 
ATOM     64  C   UNL A   1      45.246  29.268  32.457  1.00  0.00     0.029 A 
ATOM     65  C   UNL A   1      44.165  30.105  32.166  1.00  0.00     0.049 A 
ATOM     66  H   UNL A   1      44.200  31.718  30.824  1.00  0.00     0.167 HD
ATOM     67  C   UNL A   1      41.781  30.840  32.096  1.00  0.00     0.074 A 
ATOM     68  C   UNL A   1      41.761  31.870  31.065  1.00  0.00     0.031 C 
ATOM     69  C   UNL A   1      42.797  30.114  32.649  1.00  0.00     0.031 A 
BRANCH  56  70
ATOM     70  C   UNL A   1      45.928  31.697  28.398  1.00  0.00    -0.014 A 
ATOM     71  C   UNL A   1      47.185  32.315  28.571  1.00  0.00     0.010 A 
ATOM     72  C   UNL A   1      44.899  32.491  27.853  1.00  0.00     0.010 A 
ATOM     73  C   UNL A   1      47.389  33.663  28.233  1.00  0.00     0.020 A 
ATOM     74  C   UNL A   1      45.101  33.822  27.478  1.00  0.00     0.020 A 
ATOM     75  C   UNL A   1      46.341  34.407  27.690  1.00  0.00     0.054 A 
BRANCH  75  76
ATOM     76  S   UNL A   1      46.593  36.161  27.313  1.00  0.00     0.124 S 
ATOM     77  O   UNL A   1      47.992  36.354  27.681  1.00  0.00    -0.237 OA
ATOM     78  O   UNL A   1      46.300  36.214  25.882  1.00  0.00    -0.237 OA
ATOM     79  O   UNL A   1      45.621  36.839  28.168  1.00  0.00    -0.744 OA
ENDBRANCH  75  76
ENDBRANCH  56  70
BRANCH  57  80
ATOM     80  C   UNL A   1      37.555  30.673  30.005  1.00  0.00    -0.014 A 
ATOM     81  C   UNL A   1      36.639  31.090  30.991  1.00  0.00     0.010 A 
ATOM     82  C   UNL A   1      37.354  31.129  28.687  1.00  0.00     0.010 A 
ATOM     83  C   UNL A   1      35.616  32.003  30.688  1.00  0.00     0.020 A 
ATOM     84  C   UNL A   1      36.331  32.037  28.377  1.00  0.00     0.020 A 
ATOM     85  C   UNL A   1      35.488  32.495  29.387  1.00  0.00     0.054 A 
BRANCH  85  86
ATOM     86  S   UNL A   1      34.302  33.833  29.057  1.00  0.00     0.124 S 
ATOM     87  O   UNL A   1      35.171  34.916  28.606  1.00  0.00    -0.237 OA
ATOM     88  O   UNL A   1      33.442  33.246  28.034  1.00  0.00    -0.237 OA
ATOM     89  O   UNL A   1      33.659  34.051  30.352  1.00  0.00    -0.744 OA
ENDBRANCH  85  86
ENDBRANCH  57  80
BRANCH  69  90
ATOM     90  C   UNL A   1      42.446  29.113  33.724  1.00  0.00    -0.014 A 
ATOM     91  C   UNL A   1      42.008  27.797  33.479  1.00  0.00     0.010 A 
ATOM     92  C   UNL A   1      42.684  29.503  35.053  1.00  0.00     0.010 A 
ATOM     93  C   UNL A   1      41.797  26.904  34.543  1.00  0.00     0.020 A 
ATOM     94  C   UNL A   1      42.495  28.616  36.113  1.00  0.00     0.020 A 
ATOM     95  C   UNL A   1      42.045  27.322  35.855  1.00  0.00     0.054 A 
BRANCH  95  96
ATOM     96  S   UNL A   1      41.810  26.158  37.228  1.00  0.00     0.124 S 
ATOM     97  O   UNL A   1      42.914  26.493  38.123  1.00  0.00    -0.237 OA
ATOM     98  O   UNL A   1      40.476  26.499  37.717  1.00  0.00    -0.237 OA
ATOM     99  O   UNL A   1      41.909  24.844  36.592  1.00  0.00    -0.744 OA
ENDBRANCH  95  96
ENDBRANCH  69  90
ENDBRANCH  43  44
ENDBRANCH  35  38
ENDBRANCH  33  34
ENDBRANCH  32  33
ENDBRANCH   1  32
TORSDOF 17
ENDMDL
MODEL 2
REMARK VINA RESULT:     -11.9      8.600     14.995
REMARK SMILES Cc1c(C(=O)NCCCCNC(=O)c2ccc(-c3c4nc(c(-c5ccc(S(=O)(=O)[O-])cc5)c5ccc([nH]5)c(-c5ccc(S(=O)(=O)[O-])cc5)c5nc(c(-c6ccc(S(=O)(=O)[O-])cc6)c6ccc3[nH]6)C=C5)C=C4)cc2)sc2nc3n(c(=O)c12)CC/C3=C\c1ccc(OC(F)F)cc1
REMARK SMILES IDX 8 1 7 2 6 3 4 4 5 5 3 7 1 8 2 9 81 10 74 11 75 12 79 13
REMARK SMILES IDX 76 14 78 15 80 16 77 17 82 18 84 19 83 20 85 21 86 22 87 23
REMARK SMILES IDX 95 24 88 25 94 26 89 27 90 28 91 29 92 30 93 31 9 32 10 33
REMARK SMILES IDX 11 34 12 35 13 37 14 38 15 39 73 40 16 41 72 42 17 43 18 44
REMARK SMILES IDX 19 45 66 46 20 47 71 48 65 49 67 50 21 51 70 52 64 53 63 54
REMARK SMILES IDX 22 56 52 57 33 58 51 59 34 60 37 61 50 62 68 63 35 64 36 65
REMARK SMILES IDX 49 67 69 68 38 69 23 70 24 71 32 72 25 73 31 74 26 75 27 76
REMARK SMILES IDX 28 77 29 78 30 79 53 80 54 81 62 82 55 83 61 84 56 85 57 86
REMARK SMILES IDX 58 87 59 88 60 89 39 90 40 91 48 92 41 93 47 94 42 95 43 96
REMARK SMILES IDX 44 97 45 98 46 99
REMARK H PARENT 6 6 11 36 67 55 37 66
REMARK Flexibility Score: inf
ROOT
ATOM      1  C   UNL A   1      47.557  23.664  36.565  1.00  0.00     0.023 C 
ENDROOT
BRANCH   1   2
ATOM      2  C   UNL A   1      46.877  23.224  35.255  1.00  0.00     0.116 C 
BRANCH   2   3
ATOM      3  N   UNL A   1      47.590  22.125  34.626  1.00  0.00    -0.351 N 
ATOM      4  C   UNL A   1      47.744  20.780  34.893  1.00  0.00     0.261 C 
ATOM      5  O   UNL A   1      48.418  20.191  34.039  1.00  0.00    -0.268 OA
ATOM      6  H   UNL A   1      48.077  22.405  33.818  1.00  0.00     0.163 HD
BRANCH   4   7
ATOM      7  C   UNL A   1      47.170  20.079  36.055  1.00  0.00     0.098 A 
ATOM      8  C   UNL A   1      48.942  19.964  37.959  1.00  0.00     0.047 C 
ATOM      9  C   UNL A   1      47.600  19.793  37.347  1.00  0.00    -0.012 A 
ATOM     10  C   UNL A   1      46.567  19.161  38.114  1.00  0.00     0.081 A 
ATOM     11  S   UNL A   1      45.639  19.259  35.773  1.00  0.00    -0.110 S 
ATOM     12  C   UNL A   1      45.544  18.644  37.358  1.00  0.00     0.132 A 
ATOM     13  C   UNL A   1      46.609  18.859  39.530  1.00  0.00     0.262 A 
ATOM     14  N   UNL A   1      44.597  17.741  37.778  1.00  0.00    -0.219 NA
ATOM     15  N   UNL A   1      45.730  17.857  39.862  1.00  0.00    -0.292 N 
ATOM     16  O   UNL A   1      47.339  19.407  40.328  1.00  0.00    -0.269 OA
ATOM     17  C   UNL A   1      44.759  17.358  39.005  1.00  0.00     0.140 A 
ATOM     18  C   UNL A   1      45.744  17.289  41.171  1.00  0.00     0.132 C 
ATOM     19  C   UNL A   1      44.007  16.355  39.815  1.00  0.00    -0.002 C 
ATOM     20  C   UNL A   1      44.629  16.281  41.189  1.00  0.00     0.061 C 
ATOM     21  C   UNL A   1      42.946  15.640  39.407  1.00  0.00     0.015 C 
BRANCH  21  22
ATOM     22  C   UNL A   1      42.288  14.748  40.374  1.00  0.00    -0.025 A 
ATOM     23  C   UNL A   1      41.885  13.461  40.015  1.00  0.00     0.012 A 
ATOM     24  C   UNL A   1      42.246  15.119  41.725  1.00  0.00     0.012 A 
ATOM     25  C   UNL A   1      41.509  12.546  41.007  1.00  0.00     0.047 A 
ATOM     26  C   UNL A   1      41.902  14.195  42.715  1.00  0.00     0.047 A 
ATOM     27  C   UNL A   1      41.547  12.895  42.362  1.00  0.00     0.126 A 
BRANCH  27  28
ATOM     28  O   UNL A   1      41.229  11.887  43.229  1.00  0.00    -0.435 OA
BRANCH  28  29
ATOM     29  C   UNL A   1      42.287  11.082  43.737  1.00  0.00     0.542 C 
ATOM     30  F   UNL A   1      43.181  10.811  42.757  1.00  0.00    -0.167 F 
ATOM     31  F   UNL A   1      42.931  11.733  44.735  1.00  0.00    -0.167 F 
ENDBRANCH  28  29
ENDBRANCH  27  28
ENDBRANCH  21  22
ENDBRANCH   4   7
ENDBRANCH   2   3
ENDBRANCH   1   2
BRANCH   1  32
ATOM     32  C   UNL A   1      46.726  23.624  37.847  1.00  0.00     0.023 C 
BRANCH  32  33
ATOM     33  C   UNL A   1      45.237  23.407  37.619  1.00  0.00     0.116 C 
BRANCH  33  34
ATOM     34  N   UNL A   1      44.397  24.433  38.241  1.00  0.00    -0.352 N 
ATOM     35  C   UNL A   1      44.046  25.656  37.696  1.00  0.00     0.251 C 
ATOM     36  H   UNL A   1      44.045  24.233  39.138  1.00  0.00     0.163 HD
ATOM     37  O   UNL A   1      43.680  26.591  38.397  1.00  0.00    -0.269 OA
BRANCH  35  38
ATOM     38  C   UNL A   1      44.118  25.791  36.232  1.00  0.00     0.039 A 
ATOM     39  C   UNL A   1      43.115  25.286  35.402  1.00  0.00     0.014 A 
ATOM     40  C   UNL A   1      45.168  26.552  35.724  1.00  0.00     0.014 A 
ATOM     41  C   UNL A   1      43.121  25.644  34.055  1.00  0.00     0.010 A 
ATOM     42  C   UNL A   1      45.098  27.006  34.430  1.00  0.00     0.010 A 
ATOM     43  C   UNL A   1      44.098  26.534  33.579  1.00  0.00    -0.014 A 
BRANCH  43  44
ATOM     44  C   UNL A   1      43.997  27.107  32.234  1.00  0.00     0.031 A 
ATOM     45  C   UNL A   1      43.340  28.448  32.170  1.00  0.00     0.074 A 
ATOM     46  C   UNL A   1      44.675  26.597  31.180  1.00  0.00     0.049 A 
ATOM     47  N   UNL A   1      42.252  28.774  31.552  1.00  0.00    -0.248 NA
ATOM     48  C   UNL A   1      43.900  29.536  32.993  1.00  0.00     0.031 C 
ATOM     49  C   UNL A   1      45.616  25.467  31.185  1.00  0.00     0.029 A 
ATOM     50  N   UNL A   1      44.785  27.065  29.907  1.00  0.00    -0.354 N 
ATOM     51  C   UNL A   1      42.104  30.149  31.733  1.00  0.00     0.074 A 
ATOM     52  C   UNL A   1      43.038  30.528  32.761  1.00  0.00     0.031 C 
ATOM     53  C   UNL A   1      46.384  25.510  30.074  1.00  0.00     0.029 A 
ATOM     54  C   UNL A   1      45.862  26.538  29.196  1.00  0.00     0.049 A 
ATOM     55  H   UNL A   1      44.158  27.720  29.522  1.00  0.00     0.167 HD
ATOM     56  C   UNL A   1      41.406  30.920  30.851  1.00  0.00     0.031 A 
ATOM     57  C   UNL A   1      46.307  26.930  27.978  1.00  0.00     0.031 A 
ATOM     58  C   UNL A   1      40.643  30.118  29.935  1.00  0.00     0.049 A 
ATOM     59  C   UNL A   1      45.187  27.636  27.321  1.00  0.00     0.074 A 
ATOM     60  C   UNL A   1      39.543  29.296  30.018  1.00  0.00     0.029 A 
ATOM     61  N   UNL A   1      41.295  29.809  28.767  1.00  0.00    -0.354 N 
ATOM     62  N   UNL A   1      44.064  27.057  26.998  1.00  0.00    -0.248 NA
ATOM     63  C   UNL A   1      45.155  29.090  27.346  1.00  0.00     0.031 C 
ATOM     64  C   UNL A   1      39.763  28.270  29.052  1.00  0.00     0.029 A 
ATOM     65  C   UNL A   1      40.957  28.539  28.378  1.00  0.00     0.049 A 
ATOM     66  H   UNL A   1      41.910  30.407  28.284  1.00  0.00     0.167 HD
ATOM     67  C   UNL A   1      43.100  28.027  27.206  1.00  0.00     0.074 A 
ATOM     68  C   UNL A   1      43.836  29.285  27.255  1.00  0.00     0.031 C 
ATOM     69  C   UNL A   1      41.841  27.685  27.607  1.00  0.00     0.031 A 
BRANCH  56  70
ATOM     70  C   UNL A   1      41.754  32.357  30.531  1.00  0.00    -0.014 A 
ATOM     71  C   UNL A   1      42.696  32.634  29.517  1.00  0.00     0.010 A 
ATOM     72  C   UNL A   1      41.396  33.427  31.376  1.00  0.00     0.010 A 
ATOM     73  C   UNL A   1      43.262  33.912  29.376  1.00  0.00     0.020 A 
ATOM     74  C   UNL A   1      41.924  34.711  31.220  1.00  0.00     0.020 A 
ATOM     75  C   UNL A   1      42.871  34.941  30.233  1.00  0.00     0.054 A 
BRANCH  75  76
ATOM     76  S   UNL A   1      43.649  36.571  30.083  1.00  0.00     0.124 S 
ATOM     77  O   UNL A   1      43.619  37.050  31.461  1.00  0.00    -0.237 OA
ATOM     78  O   UNL A   1      44.970  36.235  29.556  1.00  0.00    -0.237 OA
ATOM     79  O   UNL A   1      42.776  37.282  29.152  1.00  0.00    -0.744 OA
ENDBRANCH  75  76
ENDBRANCH  56  70
BRANCH  57  80
ATOM     80  C   UNL A   1      47.693  26.974  27.448  1.00  0.00    -0.014 A 
ATOM     81  C   UNL A   1      48.701  27.674  28.139  1.00  0.00     0.010 A 
ATOM     82  C   UNL A   1      48.092  26.071  26.442  1.00  0.00     0.010 A 
ATOM     83  C   UNL A   1      50.060  27.413  27.897  1.00  0.00     0.020 A 
ATOM     84  C   UNL A   1      49.446  25.810  26.190  1.00  0.00     0.020 A 
ATOM     85  C   UNL A   1      50.424  26.459  26.944  1.00  0.00     0.054 A 
BRANCH  85  86
ATOM     86  S   UNL A   1      52.170  25.977  26.793  1.00  0.00     0.124 S 
ATOM     87  O   UNL A   1      52.080  24.676  26.137  1.00  0.00    -0.237 OA
ATOM     88  O   UNL A   1      52.725  27.056  25.981  1.00  0.00    -0.237 OA
ATOM     89  O   UNL A   1      52.639  25.943  28.177  1.00  0.00    -0.744 OA
ENDBRANCH  85  86
ENDBRANCH  57  80
BRANCH  69  90
ATOM     90  C   UNL A   1      41.395  26.257  27.393  1.00  0.00    -0.014 A 
ATOM     91  C   UNL A   1      40.705  25.798  26.254  1.00  0.00     0.010 A 
ATOM     92  C   UNL A   1      41.803  25.317  28.353  1.00  0.00     0.010 A 
ATOM     93  C   UNL A   1      40.416  24.432  26.097  1.00  0.00     0.020 A 
ATOM     94  C   UNL A   1      41.537  23.957  28.194  1.00  0.00     0.020 A 
ATOM     95  C   UNL A   1      40.837  23.520  27.069  1.00  0.00     0.054 A 
BRANCH  95  96
ATOM     96  S   UNL A   1      40.499  21.750  26.848  1.00  0.00     0.124 S 
ATOM     97  O   UNL A   1      40.457  21.259  28.222  1.00  0.00    -0.237 OA
ATOM     98  O   UNL A   1      39.221  21.751  26.139  1.00  0.00    -0.237 OA
ATOM     99  O   UNL A   1      41.634  21.275  26.057  1.00  0.00    -0.744 OA
ENDBRANCH  95  96
ENDBRANCH  69  90
ENDBRANCH  43  44
ENDBRANCH  35  38
ENDBRANCH  33  34
ENDBRANCH  32  33
ENDBRANCH   1  32
TORSDOF 17
ENDMDL
MODEL 3
REMARK VINA RESULT:     -11.8      6.051     13.398
REMARK SMILES Cc1c(C(=O)NCCCCNC(=O)c2ccc(-c3c4nc(c(-c5ccc(S(=O)(=O)[O-])cc5)c5ccc([nH]5)c(-c5ccc(S(=O)(=O)[O-])cc5)c5nc(c(-c6ccc(S(=O)(=O)[O-])cc6)c6ccc3[nH]6)C=C5)C=C4)cc2)sc2nc3n(c(=O)c12)CC/C3=C\c1ccc(OC(F)F)cc1
REMARK SMILES IDX 8 1 7 2 6 3 4 4 5 5 3 7 1 8 2 9 81 10 74 11 75 12 79 13
REMARK SMILES IDX 76 14 78 15 80 16 77 17 82 18 84 19 83 20 85 21 86 22 87 23
REMARK SMILES IDX 95 24 88 25 94 26 89 27 90 28 91 29 92 30 93 31 9 32 10 33
REMARK SMILES IDX 11 34 12 35 13 37 14 38 15 39 73 40 16 41 72 42 17 43 18 44
REMARK SMILES IDX 19 45 66 46 20 47 71 48 65 49 67 50 21 51 70 52 64 53 63 54
REMARK SMILES IDX 22 56 52 57 33 58 51 59 34 60 37 61 50 62 68 63 35 64 36 65
REMARK SMILES IDX 49 67 69 68 38 69 23 70 24 71 32 72 25 73 31 74 26 75 27 76
REMARK SMILES IDX 28 77 29 78 30 79 53 80 54 81 62 82 55 83 61 84 56 85 57 86
REMARK SMILES IDX 58 87 59 88 60 89 39 90 40 91 48 92 41 93 47 94 42 95 43 96
REMARK SMILES IDX 44 97 45 98 46 99
REMARK H PARENT 6 6 11 36 67 55 37 66
REMARK Flexibility Score: inf
ROOT
ATOM      1  C   UNL A   1      35.533  34.509  34.854  1.00  0.00     0.023 C 
ENDROOT
BRANCH   1   2
ATOM      2  C   UNL A   1      36.585  33.386  34.911  1.00  0.00     0.116 C 
BRANCH   2   3
ATOM      3  N   UNL A   1      37.244  33.334  36.206  1.00  0.00    -0.351 N 
ATOM      4  C   UNL A   1      38.494  33.675  36.680  1.00  0.00     0.261 C 
ATOM      5  O   UNL A   1      38.611  33.505  37.900  1.00  0.00    -0.268 OA
ATOM      6  H   UNL A   1      36.661  32.971  36.911  1.00  0.00     0.163 HD
BRANCH   4   7
ATOM      7  C   UNL A   1      39.594  34.203  35.856  1.00  0.00     0.098 A 
ATOM      8  C   UNL A   1      40.337  36.519  36.785  1.00  0.00     0.047 C 
ATOM      9  C   UNL A   1      40.420  35.322  35.910  1.00  0.00    -0.012 A 
ATOM     10  C   UNL A   1      41.421  35.285  34.885  1.00  0.00     0.081 A 
ATOM     11  S   UNL A   1      39.899  33.348  34.349  1.00  0.00    -0.110 S 
ATOM     12  C   UNL A   1      41.150  34.400  33.870  1.00  0.00     0.132 A 
ATOM     13  C   UNL A   1      42.534  36.199  34.733  1.00  0.00     0.262 A 
ATOM     14  N   UNL A   1      41.754  34.367  32.635  1.00  0.00    -0.219 NA
ATOM     15  N   UNL A   1      43.007  36.215  33.444  1.00  0.00    -0.292 N 
ATOM     16  O   UNL A   1      42.987  36.883  35.626  1.00  0.00    -0.269 OA
ATOM     17  C   UNL A   1      42.630  35.305  32.465  1.00  0.00     0.140 A 
ATOM     18  C   UNL A   1      43.982  37.178  33.045  1.00  0.00     0.132 C 
ATOM     19  C   UNL A   1      43.447  35.663  31.270  1.00  0.00    -0.002 C 
ATOM     20  C   UNL A   1      44.300  36.863  31.609  1.00  0.00     0.061 C 
ATOM     21  C   UNL A   1      43.445  35.027  30.087  1.00  0.00     0.015 C 
BRANCH  21  22
ATOM     22  C   UNL A   1      44.377  35.483  29.044  1.00  0.00    -0.025 A 
ATOM     23  C   UNL A   1      44.010  36.467  28.124  1.00  0.00     0.012 A 
ATOM     24  C   UNL A   1      45.716  35.072  29.098  1.00  0.00     0.012 A 
ATOM     25  C   UNL A   1      44.987  37.068  27.320  1.00  0.00     0.047 A 
ATOM     26  C   UNL A   1      46.693  35.697  28.319  1.00  0.00     0.047 A 
ATOM     27  C   UNL A   1      46.336  36.712  27.435  1.00  0.00     0.126 A 
BRANCH  27  28
ATOM     28  O   UNL A   1      47.193  37.430  26.649  1.00  0.00    -0.435 OA
BRANCH  28  29
ATOM     29  C   UNL A   1      48.430  36.828  26.284  1.00  0.00     0.542 C 
ATOM     30  F   UNL A   1      48.898  37.378  25.137  1.00  0.00    -0.167 F 
ATOM     31  F   UNL A   1      49.350  37.023  27.258  1.00  0.00    -0.167 F 
ENDBRANCH  28  29
ENDBRANCH  27  28
ENDBRANCH  21  22
ENDBRANCH   4   7
ENDBRANCH   2   3
ENDBRANCH   1   2
BRANCH   1  32
ATOM     32  C   UNL A   1      34.601  34.551  33.644  1.00  0.00     0.023 C 
BRANCH  32  33
ATOM     33  C   UNL A   1      34.352  33.195  33.001  1.00  0.00     0.116 C 
BRANCH  33  34
ATOM     34  N   UNL A   1      34.102  33.272  31.559  1.00  0.00    -0.352 N 
ATOM     35  C   UNL A   1      35.037  33.128  30.549  1.00  0.00     0.251 C 
ATOM     36  H   UNL A   1      33.174  33.443  31.280  1.00  0.00     0.163 HD
ATOM     37  O   UNL A   1      34.843  33.573  29.425  1.00  0.00    -0.269 OA
BRANCH  35  38
ATOM     38  C   UNL A   1      36.278  32.406  30.873  1.00  0.00     0.039 A 
ATOM     39  C   UNL A   1      36.297  31.017  31.023  1.00  0.00     0.014 A 
ATOM     40  C   UNL A   1      37.451  33.157  30.899  1.00  0.00     0.014 A 
ATOM     41  C   UNL A   1      37.530  30.371  31.097  1.00  0.00     0.010 A 
ATOM     42  C   UNL A   1      38.660  32.508  30.843  1.00  0.00     0.010 A 
ATOM     43  C   UNL A   1      38.712  31.120  30.973  1.00  0.00    -0.014 A 
BRANCH  43  44
ATOM     44  C   UNL A   1      40.007  30.452  30.817  1.00  0.00     0.031 A 
ATOM     45  C   UNL A   1      40.794  30.303  32.079  1.00  0.00     0.074 A 
ATOM     46  C   UNL A   1      40.345  29.788  29.688  1.00  0.00     0.049 A 
ATOM     47  N   UNL A   1      41.955  30.799  32.359  1.00  0.00    -0.248 NA
ATOM     48  C   UNL A   1      40.158  29.613  33.217  1.00  0.00     0.031 C 
ATOM     49  C   UNL A   1      39.518  29.586  28.488  1.00  0.00     0.029 A 
ATOM     50  N   UNL A   1      41.442  29.028  29.419  1.00  0.00    -0.354 N 
ATOM     51  C   UNL A   1      42.289  30.312  33.622  1.00  0.00     0.074 A 
ATOM     52  C   UNL A   1      41.086  29.739  34.169  1.00  0.00     0.031 C 
ATOM     53  C   UNL A   1      40.015  28.563  27.760  1.00  0.00     0.029 A 
ATOM     54  C   UNL A   1      41.290  28.174  28.328  1.00  0.00     0.049 A 
ATOM     55  H   UNL A   1      42.269  29.076  29.950  1.00  0.00     0.167 HD
ATOM     56  C   UNL A   1      43.585  30.188  34.027  1.00  0.00     0.031 A 
ATOM     57  C   UNL A   1      42.144  27.200  27.927  1.00  0.00     0.031 A 
ATOM     58  C   UNL A   1      44.484  30.869  33.137  1.00  0.00     0.049 A 
ATOM     59  C   UNL A   1      43.463  27.524  28.510  1.00  0.00     0.074 A 
ATOM     60  C   UNL A   1      44.758  32.178  32.816  1.00  0.00     0.029 A 
ATOM     61  N   UNL A   1      44.986  30.089  32.125  1.00  0.00    -0.354 N 
ATOM     62  N   UNL A   1      44.143  28.592  28.198  1.00  0.00    -0.248 NA
ATOM     63  C   UNL A   1      43.883  26.851  29.729  1.00  0.00     0.031 C 
ATOM     64  C   UNL A   1      45.115  32.163  31.436  1.00  0.00     0.029 A 
ATOM     65  C   UNL A   1      45.105  30.841  30.985  1.00  0.00     0.049 A 
ATOM     66  H   UNL A   1      45.222  29.136  32.204  1.00  0.00     0.167 HD
ATOM     67  C   UNL A   1      44.766  28.965  29.375  1.00  0.00     0.074 A 
ATOM     68  C   UNL A   1      44.706  27.780  30.223  1.00  0.00     0.031 C 
ATOM     69  C   UNL A   1      45.008  30.280  29.651  1.00  0.00     0.031 A 
BRANCH  56  70
ATOM     70  C   UNL A   1      44.076  29.098  34.953  1.00  0.00    -0.014 A 
ATOM     71  C   UNL A   1      43.933  27.746  34.574  1.00  0.00     0.010 A 
ATOM     72  C   UNL A   1      44.418  29.348  36.298  1.00  0.00     0.010 A 
ATOM     73  C   UNL A   1      44.104  26.705  35.501  1.00  0.00     0.020 A 
ATOM     74  C   UNL A   1      44.629  28.319  37.220  1.00  0.00     0.020 A 
ATOM     75  C   UNL A   1      44.449  27.002  36.821  1.00  0.00     0.054 A 
BRANCH  75  76
ATOM     76  S   UNL A   1      44.610  25.659  38.025  1.00  0.00     0.124 S 
ATOM     77  O   UNL A   1      46.046  25.400  38.003  1.00  0.00    -0.237 OA
ATOM     78  O   UNL A   1      44.094  26.276  39.246  1.00  0.00    -0.237 OA
ATOM     79  O   UNL A   1      43.773  24.598  37.469  1.00  0.00    -0.744 OA
ENDBRANCH  75  76
ENDBRANCH  56  70
BRANCH  57  80
ATOM     80  C   UNL A   1      41.851  25.884  27.307  1.00  0.00    -0.014 A 
ATOM     81  C   UNL A   1      42.811  25.244  26.500  1.00  0.00     0.010 A 
ATOM     82  C   UNL A   1      40.758  25.118  27.761  1.00  0.00     0.010 A 
ATOM     83  C   UNL A   1      42.732  23.867  26.235  1.00  0.00     0.020 A 
ATOM     84  C   UNL A   1      40.670  23.744  27.496  1.00  0.00     0.020 A 
ATOM     85  C   UNL A   1      41.677  23.119  26.761  1.00  0.00     0.054 A 
BRANCH  85  86
ATOM     86  S   UNL A   1      41.702  21.309  26.593  1.00  0.00     0.124 S 
ATOM     87  O   UNL A   1      40.296  20.998  26.352  1.00  0.00    -0.237 OA
ATOM     88  O   UNL A   1      42.595  21.111  25.455  1.00  0.00    -0.237 OA
ATOM     89  O   UNL A   1      42.228  20.850  27.877  1.00  0.00    -0.744 OA
ENDBRANCH  85  86
ENDBRANCH  57  80
BRANCH  69  90
ATOM     90  C   UNL A   1      44.998  31.256  28.498  1.00  0.00    -0.014 A 
ATOM     91  C   UNL A   1      46.126  31.586  27.721  1.00  0.00     0.010 A 
ATOM     92  C   UNL A   1      43.748  31.775  28.120  1.00  0.00     0.010 A 
ATOM     93  C   UNL A   1      46.002  32.432  26.606  1.00  0.00     0.020 A 
ATOM     94  C   UNL A   1      43.615  32.600  27.003  1.00  0.00     0.020 A 
ATOM     95  C   UNL A   1      44.744  32.931  26.253  1.00  0.00     0.054 A 
BRANCH  95  96
ATOM     96  S   UNL A   1      44.576  33.992  24.790  1.00  0.00     0.124 S 
ATOM     97  O   UNL A   1      43.428  34.827  25.131  1.00  0.00    -0.237 OA
ATOM     98  O   UNL A   1      45.864  34.681  24.741  1.00  0.00    -0.237 OA
ATOM     99  O   UNL A   1      44.348  33.046  23.698  1.00  0.00    -0.744 OA
ENDBRANCH  95  96
ENDBRANCH  69  90
ENDBRANCH  43  44
ENDBRANCH  35  38
ENDBRANCH  33  34
ENDBRANCH  32  33
ENDBRANCH   1  32
TORSDOF 17
ENDMDL
