MODEL 1
REMARK VINA RESULT:     -10.2      0.000      0.000
REMARK SMILES CC[C@@](C)(NS(=O)(=O)c1ccc(F)c(Cl)c1)C(=O)NCCCCNC(=O)c1ccc(-c2c3nc(c(-c4ccc(S(=O)(=O)[O-])cc4)c4ccc([nH]4)c(-c4ccc(S(=O)(=O)[O-])cc4)c4nc(c(-c5ccc(S(=O)(=O)[O-])cc5)c5ccc2[nH]5)C=C4)C=C3)cc1
REMARK SMILES IDX 21 1 20 2 19 3 17 4 18 5 3 7 4 8 2 9 1 10 5 11 6 13 7 14
REMARK SMILES IDX 8 15 9 16 10 17 16 18 11 19 14 20 12 21 15 22 13 23 22 24
REMARK SMILES IDX 23 25 24 26 25 27 26 29 27 30 28 31 86 32 29 33 85 34 30 35
REMARK SMILES IDX 31 36 32 37 79 38 33 39 84 40 78 41 80 42 34 43 83 44 77 45
REMARK SMILES IDX 76 46 35 48 65 49 46 50 64 51 47 52 50 53 63 54 81 55 48 56
REMARK SMILES IDX 49 57 62 59 82 60 51 61 36 62 37 63 45 64 38 65 44 66 39 67
REMARK SMILES IDX 40 68 41 69 42 70 43 71 66 72 67 73 75 74 68 75 74 76 69 77
REMARK SMILES IDX 70 78 71 79 72 80 73 81 52 82 53 83 61 84 54 85 60 86 55 87
REMARK SMILES IDX 56 88 57 89 58 90 59 91
REMARK H PARENT 19 6 5 12 24 28 80 47 50 58
REMARK Flexibility Score: inf
ROOT
ATOM      1  C   UNL A   1      31.620  27.392  26.797  1.00  0.00     0.023 C 
ENDROOT
BRANCH   1   2
ATOM      2  C   UNL A   1      31.362  25.959  26.266  1.00  0.00     0.116 C 
BRANCH   2   3
ATOM      3  N   UNL A   1      30.571  25.730  25.055  1.00  0.00    -0.354 N 
ATOM      4  C   UNL A   1      30.821  25.508  23.725  1.00  0.00     0.241 C 
ATOM      5  O   UNL A   1      29.835  25.113  23.085  1.00  0.00    -0.273 OA
ATOM      6  H   UNL A   1      29.606  25.736  25.246  1.00  0.00     0.163 HD
BRANCH   4   7
ATOM      7  C   UNL A   1      32.146  25.793  22.967  1.00  0.00     0.108 C 
ATOM      8  C   UNL A   1      32.011  25.552  21.458  1.00  0.00     0.040 C 
BRANCH   7   9
ATOM      9  C   UNL A   1      32.610  27.300  23.148  1.00  0.00     0.030 C 
ATOM     10  C   UNL A   1      31.641  28.432  22.832  1.00  0.00     0.006 C 
ENDBRANCH   7   9
BRANCH   7  11
ATOM     11  N   UNL A   1      33.343  25.073  23.466  1.00  0.00    -0.196 NA
ATOM     12  H   UNL A   1      33.350  25.279  24.466  1.00  0.00     0.142 HD
BRANCH  11  13
ATOM     13  S   UNL A   1      33.770  23.474  23.390  1.00  0.00     0.241 S 
ATOM     14  O   UNL A   1      32.655  22.711  23.898  1.00  0.00    -0.207 OA
ATOM     15  O   UNL A   1      34.187  23.289  22.017  1.00  0.00    -0.207 OA
BRANCH  13  16
ATOM     16  C   UNL A   1      35.185  23.140  24.410  1.00  0.00     0.084 A 
ATOM     17  C   UNL A   1      35.795  24.129  25.174  1.00  0.00     0.025 A 
ATOM     18  C   UNL A   1      35.830  21.910  24.270  1.00  0.00     0.045 A 
ATOM     19  C   UNL A   1      37.002  23.844  25.833  1.00  0.00     0.042 A 
ATOM     20  C   UNL A   1      36.999  21.601  24.957  1.00  0.00     0.078 A 
ATOM     21  C   UNL A   1      37.588  22.580  25.735  1.00  0.00     0.141 A 
ATOM     22  Cl  UNL A   1      37.673  20.023  24.820  1.00  0.00    -0.081 Cl
ATOM     23  F   UNL A   1      38.734  22.336  26.386  1.00  0.00    -0.205 F 
ENDBRANCH  13  16
ENDBRANCH  11  13
ENDBRANCH   7  11
ENDBRANCH   4   7
ENDBRANCH   2   3
ENDBRANCH   1   2
BRANCH   1  24
ATOM     24  C   UNL A   1      32.765  28.276  26.294  1.00  0.00     0.023 C 
BRANCH  24  25
ATOM     25  C   UNL A   1      33.802  28.643  27.333  1.00  0.00     0.116 C 
BRANCH  25  26
ATOM     26  N   UNL A   1      33.786  30.078  27.562  1.00  0.00    -0.352 N 
ATOM     27  C   UNL A   1      34.688  30.816  28.294  1.00  0.00     0.251 C 
ATOM     28  H   UNL A   1      33.048  30.578  27.146  1.00  0.00     0.163 HD
ATOM     29  O   UNL A   1      34.359  31.909  28.745  1.00  0.00    -0.269 OA
BRANCH  27  30
ATOM     30  C   UNL A   1      36.054  30.287  28.524  1.00  0.00     0.039 A 
ATOM     31  C   UNL A   1      36.370  29.704  29.754  1.00  0.00     0.014 A 
ATOM     32  C   UNL A   1      37.035  30.407  27.535  1.00  0.00     0.014 A 
ATOM     33  C   UNL A   1      37.669  29.247  29.986  1.00  0.00     0.010 A 
ATOM     34  C   UNL A   1      38.297  29.858  27.732  1.00  0.00     0.010 A 
ATOM     35  C   UNL A   1      38.644  29.320  28.977  1.00  0.00    -0.014 A 
BRANCH  35  36
ATOM     36  C   UNL A   1      40.052  28.929  29.242  1.00  0.00     0.031 A 
ATOM     37  C   UNL A   1      40.977  29.897  29.939  1.00  0.00     0.074 A 
ATOM     38  C   UNL A   1      40.500  27.719  28.857  1.00  0.00     0.049 A 
ATOM     39  N   UNL A   1      42.230  29.738  30.284  1.00  0.00    -0.248 NA
ATOM     40  C   UNL A   1      40.434  31.225  30.275  1.00  0.00     0.031 C 
ATOM     41  C   UNL A   1      39.713  26.711  28.142  1.00  0.00     0.029 A 
ATOM     42  N   UNL A   1      41.726  27.124  29.023  1.00  0.00    -0.354 N 
ATOM     43  C   UNL A   1      42.622  30.944  30.854  1.00  0.00     0.074 A 
ATOM     44  C   UNL A   1      41.499  31.846  30.755  1.00  0.00     0.031 C 
ATOM     45  C   UNL A   1      40.460  25.606  27.978  1.00  0.00     0.029 A 
ATOM     46  C   UNL A   1      41.790  25.842  28.534  1.00  0.00     0.049 A 
ATOM     47  H   UNL A   1      42.489  27.575  29.454  1.00  0.00     0.167 HD
ATOM     48  C   UNL A   1      43.801  31.267  31.435  1.00  0.00     0.031 A 
ATOM     49  C   UNL A   1      42.803  24.954  28.536  1.00  0.00     0.031 A 
ATOM     50  C   UNL A   1      44.911  30.359  31.549  1.00  0.00     0.049 A 
ATOM     51  C   UNL A   1      44.110  25.341  29.174  1.00  0.00     0.074 A 
ATOM     52  C   UNL A   1      46.128  30.565  32.172  1.00  0.00     0.029 A 
ATOM     53  N   UNL A   1      44.937  29.075  31.027  1.00  0.00    -0.354 N 
ATOM     54  N   UNL A   1      44.436  26.460  29.776  1.00  0.00    -0.248 NA
ATOM     55  C   UNL A   1      45.185  24.339  29.144  1.00  0.00     0.031 C 
ATOM     56  C   UNL A   1      46.917  29.428  31.969  1.00  0.00     0.029 A 
ATOM     57  C   UNL A   1      46.164  28.488  31.284  1.00  0.00     0.049 A 
ATOM     58  H   UNL A   1      44.194  28.644  30.545  1.00  0.00     0.167 HD
ATOM     59  C   UNL A   1      45.742  26.285  30.223  1.00  0.00     0.074 A 
ATOM     60  C   UNL A   1      46.138  24.946  29.836  1.00  0.00     0.031 C 
ATOM     61  C   UNL A   1      46.540  27.153  30.893  1.00  0.00     0.031 A 
BRANCH  48  62
ATOM     62  C   UNL A   1      43.956  32.663  31.981  1.00  0.00    -0.014 A 
ATOM     63  C   UNL A   1      43.618  32.970  33.312  1.00  0.00     0.010 A 
ATOM     64  C   UNL A   1      44.491  33.675  31.163  1.00  0.00     0.010 A 
ATOM     65  C   UNL A   1      43.771  34.270  33.801  1.00  0.00     0.020 A 
ATOM     66  C   UNL A   1      44.678  34.969  31.658  1.00  0.00     0.020 A 
ATOM     67  C   UNL A   1      44.302  35.262  32.970  1.00  0.00     0.054 A 
BRANCH  67  68
ATOM     68  S   UNL A   1      44.520  36.932  33.642  1.00  0.00     0.124 S 
ATOM     69  O   UNL A   1      44.834  37.702  32.441  1.00  0.00    -0.237 OA
ATOM     70  O   UNL A   1      43.217  37.208  34.243  1.00  0.00    -0.237 OA
ATOM     71  O   UNL A   1      45.621  36.784  34.591  1.00  0.00    -0.744 OA
ENDBRANCH  67  68
ENDBRANCH  48  62
BRANCH  49  72
ATOM     72  C   UNL A   1      42.617  23.606  27.929  1.00  0.00    -0.014 A 
ATOM     73  C   UNL A   1      43.193  23.293  26.684  1.00  0.00     0.010 A 
ATOM     74  C   UNL A   1      41.861  22.624  28.595  1.00  0.00     0.010 A 
ATOM     75  C   UNL A   1      42.996  22.035  26.107  1.00  0.00     0.020 A 
ATOM     76  C   UNL A   1      41.688  21.354  28.036  1.00  0.00     0.020 A 
ATOM     77  C   UNL A   1      42.246  21.073  26.788  1.00  0.00     0.054 A 
BRANCH  77  78
ATOM     78  S   UNL A   1      42.035  19.436  26.036  1.00  0.00     0.124 S 
ATOM     79  O   UNL A   1      42.600  18.557  27.055  1.00  0.00    -0.237 OA
ATOM     80  O   UNL A   1      40.587  19.354  25.861  1.00  0.00    -0.237 OA
ATOM     81  O   UNL A   1      42.800  19.527  24.794  1.00  0.00    -0.744 OA
ENDBRANCH  77  78
ENDBRANCH  49  72
BRANCH  61  82
ATOM     82  C   UNL A   1      47.912  26.672  31.288  1.00  0.00    -0.014 A 
ATOM     83  C   UNL A   1      48.141  26.048  32.526  1.00  0.00     0.010 A 
ATOM     84  C   UNL A   1      48.976  26.792  30.374  1.00  0.00     0.010 A 
ATOM     85  C   UNL A   1      49.417  25.584  32.857  1.00  0.00     0.020 A 
ATOM     86  C   UNL A   1      50.244  26.300  30.688  1.00  0.00     0.020 A 
ATOM     87  C   UNL A   1      50.460  25.710  31.935  1.00  0.00     0.054 A 
BRANCH  87  88
ATOM     88  S   UNL A   1      52.094  25.059  32.371  1.00  0.00     0.124 S 
ATOM     89  O   UNL A   1      52.923  25.558  31.278  1.00  0.00    -0.237 OA
ATOM     90  O   UNL A   1      52.343  25.667  33.676  1.00  0.00    -0.237 OA
ATOM     91  O   UNL A   1      51.898  23.611  32.392  1.00  0.00    -0.744 OA
ENDBRANCH  87  88
ENDBRANCH  61  82
ENDBRANCH  35  36
ENDBRANCH  27  30
ENDBRANCH  25  26
ENDBRANCH  24  25
ENDBRANCH   1  24
TORSDOF 18
ENDMDL
MODEL 2
REMARK VINA RESULT:     -10.2      3.359      8.943
REMARK SMILES CC[C@@](C)(NS(=O)(=O)c1ccc(F)c(Cl)c1)C(=O)NCCCCNC(=O)c1ccc(-c2c3nc(c(-c4ccc(S(=O)(=O)[O-])cc4)c4ccc([nH]4)c(-c4ccc(S(=O)(=O)[O-])cc4)c4nc(c(-c5ccc(S(=O)(=O)[O-])cc5)c5ccc2[nH]5)C=C4)C=C3)cc1
REMARK SMILES IDX 21 1 20 2 19 3 17 4 18 5 3 7 4 8 2 9 1 10 5 11 6 13 7 14
REMARK SMILES IDX 8 15 9 16 10 17 16 18 11 19 14 20 12 21 15 22 13 23 22 24
REMARK SMILES IDX 23 25 24 26 25 27 26 29 27 30 28 31 86 32 29 33 85 34 30 35
REMARK SMILES IDX 31 36 32 37 79 38 33 39 84 40 78 41 80 42 34 43 83 44 77 45
REMARK SMILES IDX 76 46 35 48 65 49 46 50 64 51 47 52 50 53 63 54 81 55 48 56
REMARK SMILES IDX 49 57 62 59 82 60 51 61 36 62 37 63 45 64 38 65 44 66 39 67
REMARK SMILES IDX 40 68 41 69 42 70 43 71 66 72 67 73 75 74 68 75 74 76 69 77
REMARK SMILES IDX 70 78 71 79 72 80 73 81 52 82 53 83 61 84 54 85 60 86 55 87
REMARK SMILES IDX 56 88 57 89 58 90 59 91
REMARK H PARENT 19 6 5 12 24 28 80 47 50 58
REMARK Flexibility Score: inf
ROOT
ATOM      1  C   UNL A   1      32.975  28.788  27.186  1.00  0.00     0.023 C 
ENDROOT
BRANCH   1   2
ATOM      2  C   UNL A   1      32.982  27.343  26.627  1.00  0.00     0.116 C 
BRANCH   2   3
ATOM      3  N   UNL A   1      31.785  26.500  26.689  1.00  0.00    -0.354 N 
ATOM      4  C   UNL A   1      31.310  25.389  26.042  1.00  0.00     0.241 C 
ATOM      5  O   UNL A   1      30.339  24.856  26.599  1.00  0.00    -0.273 OA
ATOM      6  H   UNL A   1      31.156  26.815  27.377  1.00  0.00     0.163 HD
BRANCH   4   7
ATOM      7  C   UNL A   1      31.800  24.826  24.680  1.00  0.00     0.108 C 
ATOM      8  C   UNL A   1      30.741  23.944  24.006  1.00  0.00     0.040 C 
BRANCH   7   9
ATOM      9  C   UNL A   1      32.142  25.989  23.656  1.00  0.00     0.030 C 
ATOM     10  C   UNL A   1      31.013  26.758  22.980  1.00  0.00     0.006 C 
ENDBRANCH   7   9
BRANCH   7  11
ATOM     11  N   UNL A   1      33.090  24.095  24.709  1.00  0.00    -0.196 NA
ATOM     12  H   UNL A   1      33.694  24.692  25.275  1.00  0.00     0.142 HD
BRANCH  11  13
ATOM     13  S   UNL A   1      33.468  22.562  25.210  1.00  0.00     0.241 S 
ATOM     14  O   UNL A   1      33.006  22.432  26.571  1.00  0.00    -0.207 OA
ATOM     15  O   UNL A   1      32.902  21.710  24.186  1.00  0.00    -0.207 OA
BRANCH  13  16
ATOM     16  C   UNL A   1      35.225  22.297  25.190  1.00  0.00     0.084 A 
ATOM     17  C   UNL A   1      35.785  21.081  24.816  1.00  0.00     0.025 A 
ATOM     18  C   UNL A   1      36.049  23.263  25.772  1.00  0.00     0.045 A 
ATOM     19  C   UNL A   1      37.166  20.882  24.972  1.00  0.00     0.042 A 
ATOM     20  C   UNL A   1      37.424  23.095  25.887  1.00  0.00     0.078 A 
ATOM     21  C   UNL A   1      37.979  21.893  25.490  1.00  0.00     0.141 A 
ATOM     22  Cl  UNL A   1      38.387  24.376  26.513  1.00  0.00    -0.081 Cl
ATOM     23  F   UNL A   1      39.296  21.675  25.616  1.00  0.00    -0.205 F 
ENDBRANCH  13  16
ENDBRANCH  11  13
ENDBRANCH   7  11
ENDBRANCH   4   7
ENDBRANCH   2   3
ENDBRANCH   1   2
BRANCH   1  24
ATOM     24  C   UNL A   1      34.140  29.763  26.995  1.00  0.00     0.023 C 
BRANCH  24  25
ATOM     25  C   UNL A   1      35.432  29.369  27.679  1.00  0.00     0.116 C 
BRANCH  25  26
ATOM     26  N   UNL A   1      35.452  29.891  29.035  1.00  0.00    -0.352 N 
ATOM     27  C   UNL A   1      36.419  29.689  29.993  1.00  0.00     0.251 C 
ATOM     28  H   UNL A   1      34.688  30.454  29.298  1.00  0.00     0.163 HD
ATOM     29  O   UNL A   1      36.141  29.828  31.180  1.00  0.00    -0.269 OA
BRANCH  27  30
ATOM     30  C   UNL A   1      37.792  29.313  29.580  1.00  0.00     0.039 A 
ATOM     31  C   UNL A   1      38.641  28.687  30.496  1.00  0.00     0.014 A 
ATOM     32  C   UNL A   1      38.255  29.621  28.297  1.00  0.00     0.014 A 
ATOM     33  C   UNL A   1      39.950  28.374  30.121  1.00  0.00     0.010 A 
ATOM     34  C   UNL A   1      39.522  29.215  27.894  1.00  0.00     0.010 A 
ATOM     35  C   UNL A   1      40.402  28.636  28.817  1.00  0.00    -0.014 A 
BRANCH  35  36
ATOM     36  C   UNL A   1      41.817  28.399  28.434  1.00  0.00     0.031 A 
ATOM     37  C   UNL A   1      42.250  27.022  27.995  1.00  0.00     0.074 A 
ATOM     38  C   UNL A   1      42.708  29.408  28.484  1.00  0.00     0.049 A 
ATOM     39  N   UNL A   1      43.430  26.615  27.598  1.00  0.00    -0.248 NA
ATOM     40  C   UNL A   1      41.235  25.954  28.025  1.00  0.00     0.031 C 
ATOM     41  C   UNL A   1      42.419  30.774  28.927  1.00  0.00     0.029 A 
ATOM     42  N   UNL A   1      44.038  29.444  28.146  1.00  0.00    -0.354 N 
ATOM     43  C   UNL A   1      43.299  25.253  27.353  1.00  0.00     0.074 A 
ATOM     44  C   UNL A   1      41.947  24.886  27.703  1.00  0.00     0.031 C 
ATOM     45  C   UNL A   1      43.524  31.524  28.786  1.00  0.00     0.029 A 
ATOM     46  C   UNL A   1      44.610  30.686  28.286  1.00  0.00     0.049 A 
ATOM     47  H   UNL A   1      44.536  28.653  27.833  1.00  0.00     0.167 HD
ATOM     48  C   UNL A   1      44.211  24.386  26.855  1.00  0.00     0.031 A 
ATOM     49  C   UNL A   1      45.866  31.104  28.035  1.00  0.00     0.031 A 
ATOM     50  C   UNL A   1      45.551  24.760  26.488  1.00  0.00     0.049 A 
ATOM     51  C   UNL A   1      46.868  30.119  27.495  1.00  0.00     0.074 A 
ATOM     52  C   UNL A   1      46.536  23.974  25.918  1.00  0.00     0.029 A 
ATOM     53  N   UNL A   1      46.093  26.025  26.659  1.00  0.00    -0.354 N 
ATOM     54  N   UNL A   1      46.703  28.851  27.198  1.00  0.00    -0.248 NA
ATOM     55  C   UNL A   1      48.225  30.623  27.245  1.00  0.00     0.031 C 
ATOM     56  C   UNL A   1      47.696  24.747  25.805  1.00  0.00     0.029 A 
ATOM     57  C   UNL A   1      47.410  26.033  26.236  1.00  0.00     0.049 A 
ATOM     58  H   UNL A   1      45.612  26.801  27.027  1.00  0.00     0.167 HD
ATOM     59  C   UNL A   1      47.925  28.416  26.697  1.00  0.00     0.074 A 
ATOM     60  C   UNL A   1      48.814  29.560  26.716  1.00  0.00     0.031 C 
ATOM     61  C   UNL A   1      48.280  27.182  26.261  1.00  0.00     0.031 A 
BRANCH  48  62
ATOM     62  C   UNL A   1      43.795  22.947  26.686  1.00  0.00    -0.014 A 
ATOM     63  C   UNL A   1      42.926  22.325  27.600  1.00  0.00     0.010 A 
ATOM     64  C   UNL A   1      44.246  22.219  25.570  1.00  0.00     0.010 A 
ATOM     65  C   UNL A   1      42.550  20.990  27.425  1.00  0.00     0.020 A 
ATOM     66  C   UNL A   1      43.846  20.894  25.373  1.00  0.00     0.020 A 
ATOM     67  C   UNL A   1      43.012  20.283  26.311  1.00  0.00     0.054 A 
BRANCH  67  68
ATOM     68  S   UNL A   1      42.481  18.563  26.092  1.00  0.00     0.124 S 
ATOM     69  O   UNL A   1      43.341  18.118  24.999  1.00  0.00    -0.237 OA
ATOM     70  O   UNL A   1      42.768  17.972  27.398  1.00  0.00    -0.237 OA
ATOM     71  O   UNL A   1      41.062  18.677  25.761  1.00  0.00    -0.744 OA
ENDBRANCH  67  68
ENDBRANCH  48  62
BRANCH  49  72
ATOM     72  C   UNL A   1      46.243  32.525  28.275  1.00  0.00    -0.014 A 
ATOM     73  C   UNL A   1      46.088  33.489  27.262  1.00  0.00     0.010 A 
ATOM     74  C   UNL A   1      46.760  32.923  29.521  1.00  0.00     0.010 A 
ATOM     75  C   UNL A   1      46.465  34.817  27.484  1.00  0.00     0.020 A 
ATOM     76  C   UNL A   1      47.108  34.256  29.758  1.00  0.00     0.020 A 
ATOM     77  C   UNL A   1      46.971  35.193  28.731  1.00  0.00     0.054 A 
BRANCH  77  78
ATOM     78  S   UNL A   1      47.419  36.929  29.007  1.00  0.00     0.124 S 
ATOM     79  O   UNL A   1      48.794  36.970  28.517  1.00  0.00    -0.237 OA
ATOM     80  O   UNL A   1      46.436  37.640  28.193  1.00  0.00    -0.237 OA
ATOM     81  O   UNL A   1      47.264  37.099  30.450  1.00  0.00    -0.744 OA
ENDBRANCH  77  78
ENDBRANCH  49  72
BRANCH  61  82
ATOM     82  C   UNL A   1      49.679  27.008  25.729  1.00  0.00    -0.014 A 
ATOM     83  C   UNL A   1      50.702  26.464  26.524  1.00  0.00     0.010 A 
ATOM     84  C   UNL A   1      49.954  27.337  24.388  1.00  0.00     0.010 A 
ATOM     85  C   UNL A   1      51.984  26.286  25.999  1.00  0.00     0.020 A 
ATOM     86  C   UNL A   1      51.225  27.129  23.850  1.00  0.00     0.020 A 
ATOM     87  C   UNL A   1      52.238  26.617  24.664  1.00  0.00     0.054 A 
BRANCH  87  88
ATOM     88  S   UNL A   1      53.898  26.333  23.995  1.00  0.00     0.124 S 
ATOM     89  O   UNL A   1      54.603  27.545  24.403  1.00  0.00    -0.237 OA
ATOM     90  O   UNL A   1      54.311  25.107  24.673  1.00  0.00    -0.237 OA
ATOM     91  O   UNL A   1      53.675  26.197  22.557  1.00  0.00    -0.744 OA
ENDBRANCH  87  88
ENDBRANCH  61  82
ENDBRANCH  35  36
ENDBRANCH  27  30
ENDBRANCH  25  26
ENDBRANCH  24  25
ENDBRANCH   1  24
TORSDOF 18
ENDMDL
MODEL 3
REMARK VINA RESULT:     -10.1      2.991      4.191
REMARK SMILES CC[C@@](C)(NS(=O)(=O)c1ccc(F)c(Cl)c1)C(=O)NCCCCNC(=O)c1ccc(-c2c3nc(c(-c4ccc(S(=O)(=O)[O-])cc4)c4ccc([nH]4)c(-c4ccc(S(=O)(=O)[O-])cc4)c4nc(c(-c5ccc(S(=O)(=O)[O-])cc5)c5ccc2[nH]5)C=C4)C=C3)cc1
REMARK SMILES IDX 21 1 20 2 19 3 17 4 18 5 3 7 4 8 2 9 1 10 5 11 6 13 7 14
REMARK SMILES IDX 8 15 9 16 10 17 16 18 11 19 14 20 12 21 15 22 13 23 22 24
REMARK SMILES IDX 23 25 24 26 25 27 26 29 27 30 28 31 86 32 29 33 85 34 30 35
REMARK SMILES IDX 31 36 32 37 79 38 33 39 84 40 78 41 80 42 34 43 83 44 77 45
REMARK SMILES IDX 76 46 35 48 65 49 46 50 64 51 47 52 50 53 63 54 81 55 48 56
REMARK SMILES IDX 49 57 62 59 82 60 51 61 36 62 37 63 45 64 38 65 44 66 39 67
REMARK SMILES IDX 40 68 41 69 42 70 43 71 66 72 67 73 75 74 68 75 74 76 69 77
REMARK SMILES IDX 70 78 71 79 72 80 73 81 52 82 53 83 61 84 54 85 60 86 55 87
REMARK SMILES IDX 56 88 57 89 58 90 59 91
REMARK H PARENT 19 6 5 12 24 28 80 47 50 58
REMARK Flexibility Score: inf
ROOT
ATOM      1  C   UNL A   1      32.389  26.949  26.594  1.00  0.00     0.023 C 
ENDROOT
BRANCH   1   2
ATOM      2  C   UNL A   1      33.342  25.822  26.123  1.00  0.00     0.116 C 
BRANCH   2   3
ATOM      3  N   UNL A   1      33.016  24.411  26.345  1.00  0.00    -0.354 N 
ATOM      4  C   UNL A   1      33.589  23.196  26.070  1.00  0.00     0.241 C 
ATOM      5  O   UNL A   1      33.071  22.245  26.672  1.00  0.00    -0.273 OA
ATOM      6  H   UNL A   1      32.158  24.308  26.816  1.00  0.00     0.163 HD
BRANCH   4   7
ATOM      7  C   UNL A   1      34.716  22.912  25.040  1.00  0.00     0.108 C 
ATOM      8  C   UNL A   1      36.091  23.361  25.551  1.00  0.00     0.040 C 
BRANCH   7   9
ATOM      9  C   UNL A   1      34.835  21.363  24.717  1.00  0.00     0.030 C 
ATOM     10  C   UNL A   1      36.151  20.637  24.967  1.00  0.00     0.006 C 
ENDBRANCH   7   9
BRANCH   7  11
ATOM     11  N   UNL A   1      34.502  23.462  23.679  1.00  0.00    -0.196 NA
ATOM     12  H   UNL A   1      35.117  22.899  23.091  1.00  0.00     0.142 HD
BRANCH  11  13
ATOM     13  S   UNL A   1      33.127  23.627  22.769  1.00  0.00     0.241 S 
ATOM     14  O   UNL A   1      33.472  23.287  21.411  1.00  0.00    -0.207 OA
ATOM     15  O   UNL A   1      32.146  22.828  23.472  1.00  0.00    -0.207 OA
BRANCH  13  16
ATOM     16  C   UNL A   1      32.542  25.304  22.793  1.00  0.00     0.084 A 
ATOM     17  C   UNL A   1      31.190  25.616  22.702  1.00  0.00     0.025 A 
ATOM     18  C   UNL A   1      33.476  26.336  22.681  1.00  0.00     0.045 A 
ATOM     19  C   UNL A   1      30.801  26.959  22.566  1.00  0.00     0.042 A 
ATOM     20  C   UNL A   1      33.102  27.671  22.595  1.00  0.00     0.078 A 
ATOM     21  C   UNL A   1      31.756  27.979  22.530  1.00  0.00     0.141 A 
ATOM     22  Cl  UNL A   1      34.313  28.894  22.573  1.00  0.00    -0.081 Cl
ATOM     23  F   UNL A   1      31.351  29.251  22.411  1.00  0.00    -0.205 F 
ENDBRANCH  13  16
ENDBRANCH  11  13
ENDBRANCH   7  11
ENDBRANCH   4   7
ENDBRANCH   2   3
ENDBRANCH   1   2
BRANCH   1  24
ATOM     24  C   UNL A   1      32.488  28.392  26.088  1.00  0.00     0.023 C 
BRANCH  24  25
ATOM     25  C   UNL A   1      33.842  29.046  26.260  1.00  0.00     0.116 C 
BRANCH  25  26
ATOM     26  N   UNL A   1      33.674  30.454  26.575  1.00  0.00    -0.352 N 
ATOM     27  C   UNL A   1      34.275  31.160  27.592  1.00  0.00     0.251 C 
ATOM     28  H   UNL A   1      33.062  30.961  25.994  1.00  0.00     0.163 HD
ATOM     29  O   UNL A   1      33.764  32.198  28.000  1.00  0.00    -0.269 OA
BRANCH  27  30
ATOM     30  C   UNL A   1      35.543  30.663  28.179  1.00  0.00     0.039 A 
ATOM     31  C   UNL A   1      35.502  29.719  29.208  1.00  0.00     0.014 A 
ATOM     32  C   UNL A   1      36.771  31.164  27.740  1.00  0.00     0.014 A 
ATOM     33  C   UNL A   1      36.694  29.285  29.793  1.00  0.00     0.010 A 
ATOM     34  C   UNL A   1      37.959  30.654  28.252  1.00  0.00     0.010 A 
ATOM     35  C   UNL A   1      37.933  29.749  29.320  1.00  0.00    -0.014 A 
BRANCH  35  36
ATOM     36  C   UNL A   1      39.201  29.372  29.994  1.00  0.00     0.031 A 
ATOM     37  C   UNL A   1      39.614  30.085  31.259  1.00  0.00     0.074 A 
ATOM     38  C   UNL A   1      39.980  28.402  29.476  1.00  0.00     0.049 A 
ATOM     39  N   UNL A   1      40.668  29.888  32.010  1.00  0.00    -0.248 NA
ATOM     40  C   UNL A   1      38.745  31.176  31.731  1.00  0.00     0.031 C 
ATOM     41  C   UNL A   1      39.707  27.666  28.239  1.00  0.00     0.029 A 
ATOM     42  N   UNL A   1      41.155  27.860  29.931  1.00  0.00    -0.354 N 
ATOM     43  C   UNL A   1      40.593  30.837  33.023  1.00  0.00     0.074 A 
ATOM     44  C   UNL A   1      39.429  31.650  32.761  1.00  0.00     0.031 C 
ATOM     45  C   UNL A   1      40.659  26.735  28.063  1.00  0.00     0.029 A 
ATOM     46  C   UNL A   1      41.632  26.837  29.147  1.00  0.00     0.049 A 
ATOM     47  H   UNL A   1      41.613  28.174  30.745  1.00  0.00     0.167 HD
ATOM     48  C   UNL A   1      41.404  31.003  34.095  1.00  0.00     0.031 A 
ATOM     49  C   UNL A   1      42.728  26.066  29.286  1.00  0.00     0.031 A 
ATOM     50  C   UNL A   1      42.551  30.179  34.365  1.00  0.00     0.049 A 
ATOM     51  C   UNL A   1      43.623  26.279  30.478  1.00  0.00     0.074 A 
ATOM     52  C   UNL A   1      43.404  30.223  35.453  1.00  0.00     0.029 A 
ATOM     53  N   UNL A   1      43.006  29.164  33.537  1.00  0.00    -0.354 N 
ATOM     54  N   UNL A   1      43.493  27.132  31.467  1.00  0.00    -0.248 NA
ATOM     55  C   UNL A   1      44.808  25.416  30.580  1.00  0.00     0.031 C 
ATOM     56  C   UNL A   1      44.414  29.278  35.251  1.00  0.00     0.029 A 
ATOM     57  C   UNL A   1      44.149  28.596  34.073  1.00  0.00     0.049 A 
ATOM     58  H   UNL A   1      42.581  28.888  32.692  1.00  0.00     0.167 HD
ATOM     59  C   UNL A   1      44.561  26.886  32.323  1.00  0.00     0.074 A 
ATOM     60  C   UNL A   1      45.317  25.795  31.744  1.00  0.00     0.031 C 
ATOM     61  C   UNL A   1      44.887  27.508  33.483  1.00  0.00     0.031 A 
BRANCH  48  62
ATOM     62  C   UNL A   1      41.084  32.124  35.050  1.00  0.00    -0.014 A 
ATOM     63  C   UNL A   1      40.212  31.934  36.137  1.00  0.00     0.010 A 
ATOM     64  C   UNL A   1      41.702  33.377  34.884  1.00  0.00     0.010 A 
ATOM     65  C   UNL A   1      39.930  32.985  37.014  1.00  0.00     0.020 A 
ATOM     66  C   UNL A   1      41.450  34.422  35.778  1.00  0.00     0.020 A 
ATOM     67  C   UNL A   1      40.553  34.224  36.828  1.00  0.00     0.054 A 
BRANCH  67  68
ATOM     68  S   UNL A   1      40.194  35.560  38.001  1.00  0.00     0.124 S 
ATOM     69  O   UNL A   1      39.860  36.666  37.106  1.00  0.00    -0.237 OA
ATOM     70  O   UNL A   1      39.077  35.017  38.772  1.00  0.00    -0.237 OA
ATOM     71  O   UNL A   1      41.442  35.716  38.743  1.00  0.00    -0.744 OA
ENDBRANCH  67  68
ENDBRANCH  48  62
BRANCH  49  72
ATOM     72  C   UNL A   1      43.031  25.009  28.281  1.00  0.00    -0.014 A 
ATOM     73  C   UNL A   1      42.556  23.696  28.453  1.00  0.00     0.010 A 
ATOM     74  C   UNL A   1      43.800  25.310  27.142  1.00  0.00     0.010 A 
ATOM     75  C   UNL A   1      42.863  22.702  27.520  1.00  0.00     0.020 A 
ATOM     76  C   UNL A   1      44.081  24.327  26.189  1.00  0.00     0.020 A 
ATOM     77  C   UNL A   1      43.622  23.024  26.392  1.00  0.00     0.054 A 
BRANCH  77  78
ATOM     78  S   UNL A   1      43.976  21.725  25.176  1.00  0.00     0.124 S 
ATOM     79  O   UNL A   1      43.811  22.438  23.913  1.00  0.00    -0.237 OA
ATOM     80  O   UNL A   1      45.345  21.343  25.513  1.00  0.00    -0.237 OA
ATOM     81  O   UNL A   1      42.966  20.708  25.457  1.00  0.00    -0.744 OA
ENDBRANCH  77  78
ENDBRANCH  49  72
BRANCH  61  82
ATOM     82  C   UNL A   1      46.094  27.000  34.230  1.00  0.00    -0.014 A 
ATOM     83  C   UNL A   1      45.989  25.958  35.167  1.00  0.00     0.010 A 
ATOM     84  C   UNL A   1      47.362  27.534  33.936  1.00  0.00     0.010 A 
ATOM     85  C   UNL A   1      47.127  25.484  35.824  1.00  0.00     0.020 A 
ATOM     86  C   UNL A   1      48.506  27.040  34.566  1.00  0.00     0.020 A 
ATOM     87  C   UNL A   1      48.379  26.026  35.519  1.00  0.00     0.054 A 
BRANCH  87  88
ATOM     88  S   UNL A   1      49.845  25.361  36.352  1.00  0.00     0.124 S 
ATOM     89  O   UNL A   1      50.633  26.567  36.590  1.00  0.00    -0.237 OA
ATOM     90  O   UNL A   1      49.278  24.735  37.544  1.00  0.00    -0.237 OA
ATOM     91  O   UNL A   1      50.409  24.432  35.376  1.00  0.00    -0.744 OA
ENDBRANCH  87  88
ENDBRANCH  61  82
ENDBRANCH  35  36
ENDBRANCH  27  30
ENDBRANCH  25  26
ENDBRANCH  24  25
ENDBRANCH   1  24
TORSDOF 18
ENDMDL
