MODEL 1
REMARK VINA RESULT:     -12.6      0.000      0.000
REMARK SMILES O=C(NCCCCNC(=O)c1[nH]ncc1C[N@H+]1CCC[C@H](C(=O)c2ccc3ccccc3c2)C1)c1ccc(-c2c3nc(c(-c4ccc(S(=O)(=O)[O-])cc4)c4ccc([nH]4)c(-c4ccc(S(=O)(=O)[O-])cc4)c4nc(c(-c5ccc(S(=O)(=O)[O-])cc5)c5ccc2[nH]5)C=C4)C=C3)cc1
REMARK SMILES IDX 6 1 5 2 4 3 3 4 1 5 2 6 35 8 36 9 94 10 37 11 93 12 38 13
REMARK SMILES IDX 39 14 40 15 87 16 41 17 92 18 86 19 88 20 42 21 91 22 85 23
REMARK SMILES IDX 84 24 43 26 73 27 54 28 72 29 55 30 58 31 71 32 89 33 56 34
REMARK SMILES IDX 57 35 70 37 90 38 59 39 44 40 45 41 53 42 46 43 52 44 47 45
REMARK SMILES IDX 48 46 49 47 50 48 51 49 74 50 75 51 83 52 76 53 82 54 77 55
REMARK SMILES IDX 78 56 79 57 80 58 81 59 60 60 61 61 69 62 62 63 68 64 63 65
REMARK SMILES IDX 64 66 65 67 66 68 67 69 7 70 8 71 9 72 10 74 11 75 12 76
REMARK SMILES IDX 15 77 13 78 14 80 16 81 17 82 18 83 34 84 19 86 21 87 20 88
REMARK SMILES IDX 22 89 23 90 24 91 25 92 33 93 26 94 32 95 27 96 31 97 28 98
REMARK SMILES IDX 30 99 29 100
REMARK H PARENT 3 7 88 25 58 36 8 73 12 79 17 85
REMARK Flexibility Score: inf
ROOT
ATOM      1  C   UNL A   1      31.599  30.070  27.022  1.00  0.00     0.023 C 
ENDROOT
BRANCH   1   2
ATOM      2  C   UNL A   1      32.206  31.363  26.474  1.00  0.00     0.023 C 
BRANCH   2   3
ATOM      3  C   UNL A   1      33.168  32.098  27.401  1.00  0.00     0.116 C 
BRANCH   3   4
ATOM      4  N   UNL A   1      32.761  33.464  27.692  1.00  0.00    -0.352 N 
ATOM      5  O   UNL A   1      32.741  35.459  28.735  1.00  0.00    -0.269 OA
ATOM      6  C   UNL A   1      33.289  34.371  28.580  1.00  0.00     0.251 C 
ATOM      7  H   UNL A   1      31.989  33.788  27.174  1.00  0.00     0.163 HD
BRANCH   6   8
ATOM      8  C   UNL A   1      34.491  34.028  29.373  1.00  0.00     0.039 A 
ATOM      9  C   UNL A   1      35.769  34.370  28.928  1.00  0.00     0.014 A 
ATOM     10  C   UNL A   1      34.332  33.343  30.582  1.00  0.00     0.014 A 
ATOM     11  C   UNL A   1      36.888  33.891  29.606  1.00  0.00     0.010 A 
ATOM     12  C   UNL A   1      35.457  32.919  31.298  1.00  0.00     0.010 A 
ATOM     13  C   UNL A   1      36.744  33.145  30.789  1.00  0.00    -0.014 A 
BRANCH  13  14
ATOM     14  C   UNL A   1      37.956  32.604  31.455  1.00  0.00     0.031 A 
ATOM     15  C   UNL A   1      38.345  33.058  32.837  1.00  0.00     0.074 A 
ATOM     16  C   UNL A   1      38.673  31.643  30.842  1.00  0.00     0.049 A 
ATOM     17  N   UNL A   1      39.302  32.609  33.610  1.00  0.00    -0.248 NA
ATOM     18  C   UNL A   1      37.567  34.159  33.426  1.00  0.00     0.031 C 
ATOM     19  C   UNL A   1      38.415  31.125  29.497  1.00  0.00     0.029 A 
ATOM     20  N   UNL A   1      39.740  30.903  31.287  1.00  0.00    -0.354 N 
ATOM     21  C   UNL A   1      39.262  33.388  34.760  1.00  0.00     0.074 A 
ATOM     22  C   UNL A   1      38.190  34.344  34.582  1.00  0.00     0.031 C 
ATOM     23  C   UNL A   1      39.253  30.106  29.252  1.00  0.00     0.029 A 
ATOM     24  C   UNL A   1      40.123  29.918  30.411  1.00  0.00     0.049 A 
ATOM     25  H   UNL A   1      40.186  31.063  32.149  1.00  0.00     0.167 HD
ATOM     26  C   UNL A   1      40.043  33.318  35.865  1.00  0.00     0.031 A 
ATOM     27  C   UNL A   1      41.052  28.951  30.530  1.00  0.00     0.031 A 
ATOM     28  C   UNL A   1      41.091  32.354  36.066  1.00  0.00     0.049 A 
ATOM     29  C   UNL A   1      41.856  28.845  31.791  1.00  0.00     0.074 A 
ATOM     30  C   UNL A   1      41.922  32.198  37.163  1.00  0.00     0.029 A 
ATOM     31  N   UNL A   1      41.444  31.373  35.154  1.00  0.00    -0.354 N 
ATOM     32  N   UNL A   1      41.791  29.586  32.870  1.00  0.00    -0.248 NA
ATOM     33  C   UNL A   1      42.855  27.770  31.849  1.00  0.00     0.031 C 
ATOM     34  C   UNL A   1      42.787  31.125  36.908  1.00  0.00     0.029 A 
ATOM     35  C   UNL A   1      42.480  30.607  35.661  1.00  0.00     0.049 A 
ATOM     36  H   UNL A   1      41.022  31.241  34.275  1.00  0.00     0.167 HD
ATOM     37  C   UNL A   1      42.742  29.066  33.739  1.00  0.00     0.074 A 
ATOM     38  C   UNL A   1      43.354  27.937  33.068  1.00  0.00     0.031 C 
ATOM     39  C   UNL A   1      43.080  29.491  34.980  1.00  0.00     0.031 A 
BRANCH  26  40
ATOM     40  C   UNL A   1      39.795  34.336  36.940  1.00  0.00    -0.014 A 
ATOM     41  C   UNL A   1      40.279  35.650  36.815  1.00  0.00     0.010 A 
ATOM     42  C   UNL A   1      39.061  33.979  38.083  1.00  0.00     0.010 A 
ATOM     43  C   UNL A   1      40.068  36.579  37.837  1.00  0.00     0.020 A 
ATOM     44  C   UNL A   1      38.837  34.910  39.102  1.00  0.00     0.020 A 
ATOM     45  C   UNL A   1      39.360  36.199  38.980  1.00  0.00     0.054 A 
BRANCH  45  46
ATOM     46  S   UNL A   1      39.097  37.411  40.304  1.00  0.00     0.124 S 
ATOM     47  O   UNL A   1      38.454  36.594  41.332  1.00  0.00    -0.237 OA
ATOM     48  O   UNL A   1      40.452  37.859  40.617  1.00  0.00    -0.237 OA
ATOM     49  O   UNL A   1      38.241  38.417  39.680  1.00  0.00    -0.744 OA
ENDBRANCH  45  46
ENDBRANCH  26  40
BRANCH  27  50
ATOM     50  C   UNL A   1      41.228  27.973  29.428  1.00  0.00    -0.014 A 
ATOM     51  C   UNL A   1      42.289  28.122  28.521  1.00  0.00     0.010 A 
ATOM     52  C   UNL A   1      40.376  26.862  29.321  1.00  0.00     0.010 A 
ATOM     53  C   UNL A   1      42.501  27.170  27.521  1.00  0.00     0.020 A 
ATOM     54  C   UNL A   1      40.593  25.900  28.331  1.00  0.00     0.020 A 
ATOM     55  C   UNL A   1      41.653  26.063  27.434  1.00  0.00     0.054 A 
BRANCH  55  56
ATOM     56  S   UNL A   1      41.988  24.776  26.199  1.00  0.00     0.124 S 
ATOM     57  O   UNL A   1      41.970  25.539  24.955  1.00  0.00    -0.237 OA
ATOM     58  O   UNL A   1      43.293  24.263  26.607  1.00  0.00    -0.237 OA
ATOM     59  O   UNL A   1      40.879  23.844  26.384  1.00  0.00    -0.744 OA
ENDBRANCH  55  56
ENDBRANCH  27  50
BRANCH  39  60
ATOM     60  C   UNL A   1      44.162  28.728  35.687  1.00  0.00    -0.014 A 
ATOM     61  C   UNL A   1      43.839  27.683  36.569  1.00  0.00     0.010 A 
ATOM     62  C   UNL A   1      45.511  29.045  35.454  1.00  0.00     0.010 A 
ATOM     63  C   UNL A   1      44.850  26.984  37.233  1.00  0.00     0.020 A 
ATOM     64  C   UNL A   1      46.524  28.340  36.109  1.00  0.00     0.020 A 
ATOM     65  C   UNL A   1      46.186  27.324  37.007  1.00  0.00     0.054 A 
BRANCH  65  66
ATOM     66  S   UNL A   1      47.495  26.396  37.854  1.00  0.00     0.124 S 
ATOM     67  O   UNL A   1      47.028  25.019  37.713  1.00  0.00    -0.237 OA
ATOM     68  O   UNL A   1      48.691  26.735  37.089  1.00  0.00    -0.237 OA
ATOM     69  O   UNL A   1      47.462  26.931  39.214  1.00  0.00    -0.744 OA
ENDBRANCH  65  66
ENDBRANCH  39  60
ENDBRANCH  13  14
ENDBRANCH   6   8
ENDBRANCH   3   4
ENDBRANCH   2   3
ENDBRANCH   1   2
BRANCH   1  70
ATOM     70  C   UNL A   1      32.076  28.778  26.363  1.00  0.00     0.116 C 
BRANCH  70  71
ATOM     71  N   UNL A   1      32.911  29.011  25.198  1.00  0.00    -0.351 N 
ATOM     72  C   UNL A   1      32.566  29.050  23.873  1.00  0.00     0.269 C 
ATOM     73  H   UNL A   1      33.865  29.164  25.388  1.00  0.00     0.163 HD
ATOM     74  O   UNL A   1      33.464  29.076  23.032  1.00  0.00    -0.268 OA
BRANCH  72  75
ATOM     75  C   UNL A   1      31.182  28.991  23.502  1.00  0.00     0.131 A 
ATOM     76  N   UNL A   1      30.328  30.021  23.785  1.00  0.00    -0.272 N 
ATOM     77  C   UNL A   1      30.393  28.000  22.926  1.00  0.00     0.057 A 
ATOM     78  N   UNL A   1      29.092  29.854  23.287  1.00  0.00    -0.183 NA
ATOM     79  H   UNL A   1      30.594  30.813  24.306  1.00  0.00     0.190 HD
ATOM     80  C   UNL A   1      29.133  28.626  22.768  1.00  0.00     0.145 A 
BRANCH  77  81
ATOM     81  C   UNL A   1      30.795  26.612  22.543  1.00  0.00     0.303 C 
BRANCH  81  82
ATOM     82  N   UNL A   1      30.928  25.680  23.666  1.00  0.00    -0.330 N 
ATOM     83  C   UNL A   1      30.110  26.015  24.832  1.00  0.00     0.262 C 
ATOM     84  C   UNL A   1      30.839  24.270  23.304  1.00  0.00     0.274 C 
ATOM     85  H   UNL A   1      31.894  25.819  23.962  1.00  0.00     0.348 HD
ATOM     86  C   UNL A   1      30.578  25.228  26.053  1.00  0.00     0.062 C 
ATOM     87  C   UNL A   1      31.299  23.358  24.445  1.00  0.00     0.116 C 
ATOM     88  C   UNL A   1      30.670  23.725  25.793  1.00  0.00     0.023 C 
BRANCH  87  89
ATOM     89  C   UNL A   1      32.817  23.168  24.482  1.00  0.00     0.171 C 
ATOM     90  O   UNL A   1      33.589  24.125  24.522  1.00  0.00    -0.294 OA
BRANCH  89  91
ATOM     91  C   UNL A   1      33.401  21.812  24.492  1.00  0.00     0.019 A 
ATOM     92  C   UNL A   1      34.694  21.620  24.972  1.00  0.00     0.012 A 
ATOM     93  C   UNL A   1      32.623  20.724  24.086  1.00  0.00     0.020 A 
ATOM     94  C   UNL A   1      35.246  20.339  24.971  1.00  0.00     0.009 A 
ATOM     95  C   UNL A   1      33.165  19.429  24.090  1.00  0.00    -0.018 A 
ATOM     96  C   UNL A   1      34.498  19.236  24.525  1.00  0.00    -0.018 A 
ATOM     97  C   UNL A   1      32.414  18.317  23.673  1.00  0.00     0.009 A 
ATOM     98  C   UNL A   1      35.045  17.944  24.514  1.00  0.00     0.009 A 
ATOM     99  C   UNL A   1      32.973  17.037  23.671  1.00  0.00     0.001 A 
ATOM    100  C   UNL A   1      34.287  16.852  24.088  1.00  0.00     0.001 A 
ENDBRANCH  89  91
ENDBRANCH  87  89
ENDBRANCH  81  82
ENDBRANCH  77  81
ENDBRANCH  72  75
ENDBRANCH  70  71
ENDBRANCH   1  70
TORSDOF 18
ENDMDL
MODEL 2
REMARK VINA RESULT:     -12.4      5.723     10.238
REMARK SMILES O=C(NCCCCNC(=O)c1[nH]ncc1C[N@H+]1CCC[C@H](C(=O)c2ccc3ccccc3c2)C1)c1ccc(-c2c3nc(c(-c4ccc(S(=O)(=O)[O-])cc4)c4ccc([nH]4)c(-c4ccc(S(=O)(=O)[O-])cc4)c4nc(c(-c5ccc(S(=O)(=O)[O-])cc5)c5ccc2[nH]5)C=C4)C=C3)cc1
REMARK SMILES IDX 6 1 5 2 4 3 3 4 1 5 2 6 35 8 36 9 94 10 37 11 93 12 38 13
REMARK SMILES IDX 39 14 40 15 87 16 41 17 92 18 86 19 88 20 42 21 91 22 85 23
REMARK SMILES IDX 84 24 43 26 73 27 54 28 72 29 55 30 58 31 71 32 89 33 56 34
REMARK SMILES IDX 57 35 70 37 90 38 59 39 44 40 45 41 53 42 46 43 52 44 47 45
REMARK SMILES IDX 48 46 49 47 50 48 51 49 74 50 75 51 83 52 76 53 82 54 77 55
REMARK SMILES IDX 78 56 79 57 80 58 81 59 60 60 61 61 69 62 62 63 68 64 63 65
REMARK SMILES IDX 64 66 65 67 66 68 67 69 7 70 8 71 9 72 10 74 11 75 12 76
REMARK SMILES IDX 15 77 13 78 14 80 16 81 17 82 18 83 34 84 19 86 21 87 20 88
REMARK SMILES IDX 22 89 23 90 24 91 25 92 33 93 26 94 32 95 27 96 31 97 28 98
REMARK SMILES IDX 30 99 29 100
REMARK H PARENT 3 7 88 25 58 36 8 73 12 79 17 85
REMARK Flexibility Score: inf
ROOT
ATOM      1  C   UNL A   1      34.737  29.079  27.140  1.00  0.00     0.023 C 
ENDROOT
BRANCH   1   2
ATOM      2  C   UNL A   1      34.630  30.570  27.461  1.00  0.00     0.023 C 
BRANCH   2   3
ATOM      3  C   UNL A   1      35.735  31.147  28.339  1.00  0.00     0.116 C 
BRANCH   3   4
ATOM      4  N   UNL A   1      35.546  30.880  29.757  1.00  0.00    -0.352 N 
ATOM      5  O   UNL A   1      35.977  30.029  31.797  1.00  0.00    -0.269 OA
ATOM      6  C   UNL A   1      36.362  30.221  30.647  1.00  0.00     0.251 C 
ATOM      7  H   UNL A   1      34.705  31.223  30.138  1.00  0.00     0.163 HD
BRANCH   6   8
ATOM      8  C   UNL A   1      37.684  29.714  30.213  1.00  0.00     0.039 A 
ATOM      9  C   UNL A   1      38.587  29.180  31.134  1.00  0.00     0.014 A 
ATOM     10  C   UNL A   1      38.024  29.784  28.858  1.00  0.00     0.014 A 
ATOM     11  C   UNL A   1      39.882  28.866  30.726  1.00  0.00     0.010 A 
ATOM     12  C   UNL A   1      39.304  29.404  28.440  1.00  0.00     0.010 A 
ATOM     13  C   UNL A   1      40.260  28.991  29.379  1.00  0.00    -0.014 A 
BRANCH  13  14
ATOM     14  C   UNL A   1      41.664  28.699  28.991  1.00  0.00     0.031 A 
ATOM     15  C   UNL A   1      42.048  27.350  28.443  1.00  0.00     0.074 A 
ATOM     16  C   UNL A   1      42.586  29.677  29.063  1.00  0.00     0.049 A 
ATOM     17  N   UNL A   1      43.198  26.961  27.951  1.00  0.00    -0.248 NA
ATOM     18  C   UNL A   1      41.017  26.301  28.454  1.00  0.00     0.031 C 
ATOM     19  C   UNL A   1      42.350  31.023  29.590  1.00  0.00     0.029 A 
ATOM     20  N   UNL A   1      43.896  29.703  28.656  1.00  0.00    -0.354 N 
ATOM     21  C   UNL A   1      43.040  25.620  27.622  1.00  0.00     0.074 A 
ATOM     22  C   UNL A   1      41.683  25.259  27.976  1.00  0.00     0.031 C 
ATOM     23  C   UNL A   1      43.455  31.763  29.411  1.00  0.00     0.029 A 
ATOM     24  C   UNL A   1      44.482  30.938  28.782  1.00  0.00     0.049 A 
ATOM     25  H   UNL A   1      44.369  28.913  28.307  1.00  0.00     0.167 HD
ATOM     26  C   UNL A   1      43.936  24.765  27.073  1.00  0.00     0.031 A 
ATOM     27  C   UNL A   1      45.702  31.371  28.412  1.00  0.00     0.031 A 
ATOM     28  C   UNL A   1      45.275  25.120  26.689  1.00  0.00     0.049 A 
ATOM     29  C   UNL A   1      46.655  30.427  27.741  1.00  0.00     0.074 A 
ATOM     30  C   UNL A   1      46.248  24.321  26.111  1.00  0.00     0.029 A 
ATOM     31  N   UNL A   1      45.828  26.382  26.833  1.00  0.00    -0.354 N 
ATOM     32  N   UNL A   1      46.476  29.167  27.429  1.00  0.00    -0.248 NA
ATOM     33  C   UNL A   1      47.969  30.967  27.370  1.00  0.00     0.031 C 
ATOM     34  C   UNL A   1      47.395  25.101  25.914  1.00  0.00     0.029 A 
ATOM     35  C   UNL A   1      47.127  26.386  26.355  1.00  0.00     0.049 A 
ATOM     36  H   UNL A   1      45.366  27.160  27.220  1.00  0.00     0.167 HD
ATOM     37  C   UNL A   1      47.659  28.761  26.823  1.00  0.00     0.074 A 
ATOM     38  C   UNL A   1      48.536  29.914  26.795  1.00  0.00     0.031 C 
ATOM     39  C   UNL A   1      47.988  27.539  26.338  1.00  0.00     0.031 A 
BRANCH  26  40
ATOM     40  C   UNL A   1      43.489  23.346  26.875  1.00  0.00    -0.014 A 
ATOM     41  C   UNL A   1      42.988  22.590  27.950  1.00  0.00     0.010 A 
ATOM     42  C   UNL A   1      43.562  22.763  25.599  1.00  0.00     0.010 A 
ATOM     43  C   UNL A   1      42.605  21.260  27.758  1.00  0.00     0.020 A 
ATOM     44  C   UNL A   1      43.168  21.437  25.401  1.00  0.00     0.020 A 
ATOM     45  C   UNL A   1      42.711  20.688  26.487  1.00  0.00     0.054 A 
BRANCH  45  46
ATOM     46  S   UNL A   1      42.218  18.958  26.249  1.00  0.00     0.124 S 
ATOM     47  O   UNL A   1      40.837  19.102  25.793  1.00  0.00    -0.237 OA
ATOM     48  O   UNL A   1      43.164  18.480  25.243  1.00  0.00    -0.237 OA
ATOM     49  O   UNL A   1      42.379  18.371  27.578  1.00  0.00    -0.744 OA
ENDBRANCH  45  46
ENDBRANCH  26  40
BRANCH  27  50
ATOM     50  C   UNL A   1      46.064  32.793  28.630  1.00  0.00    -0.014 A 
ATOM     51  C   UNL A   1      45.723  33.760  27.671  1.00  0.00     0.010 A 
ATOM     52  C   UNL A   1      46.694  33.191  29.821  1.00  0.00     0.010 A 
ATOM     53  C   UNL A   1      46.002  35.110  27.900  1.00  0.00     0.020 A 
ATOM     54  C   UNL A   1      46.962  34.541  30.060  1.00  0.00     0.020 A 
ATOM     55  C   UNL A   1      46.618  35.492  29.095  1.00  0.00     0.054 A 
BRANCH  55  56
ATOM     56  S   UNL A   1      46.890  37.254  29.435  1.00  0.00     0.124 S 
ATOM     57  O   UNL A   1      47.997  37.211  30.383  1.00  0.00    -0.237 OA
ATOM     58  O   UNL A   1      47.208  37.796  28.116  1.00  0.00    -0.237 OA
ATOM     59  O   UNL A   1      45.606  37.687  29.981  1.00  0.00    -0.744 OA
ENDBRANCH  55  56
ENDBRANCH  27  50
BRANCH  39  60
ATOM     60  C   UNL A   1      49.355  27.394  25.738  1.00  0.00    -0.014 A 
ATOM     61  C   UNL A   1      50.478  27.195  26.559  1.00  0.00     0.010 A 
ATOM     62  C   UNL A   1      49.518  27.439  24.343  1.00  0.00     0.010 A 
ATOM     63  C   UNL A   1      51.750  27.072  25.996  1.00  0.00     0.020 A 
ATOM     64  C   UNL A   1      50.788  27.306  23.776  1.00  0.00     0.020 A 
ATOM     65  C   UNL A   1      51.899  27.138  24.608  1.00  0.00     0.054 A 
BRANCH  65  66
ATOM     66  S   UNL A   1      53.551  26.954  23.882  1.00  0.00     0.124 S 
ATOM     67  O   UNL A   1      53.706  25.502  23.847  1.00  0.00    -0.237 OA
ATOM     68  O   UNL A   1      53.415  27.602  22.580  1.00  0.00    -0.237 OA
ATOM     69  O   UNL A   1      54.417  27.653  24.829  1.00  0.00    -0.744 OA
ENDBRANCH  65  66
ENDBRANCH  39  60
ENDBRANCH  13  14
ENDBRANCH   6   8
ENDBRANCH   3   4
ENDBRANCH   2   3
ENDBRANCH   1   2
BRANCH   1  70
ATOM     70  C   UNL A   1      33.415  28.350  26.911  1.00  0.00     0.116 C 
BRANCH  70  71
ATOM     71  N   UNL A   1      32.329  29.243  26.548  1.00  0.00    -0.351 N 
ATOM     72  C   UNL A   1      31.855  29.580  25.308  1.00  0.00     0.269 C 
ATOM     73  H   UNL A   1      31.865  29.669  27.305  1.00  0.00     0.163 HD
ATOM     74  O   UNL A   1      31.047  30.502  25.217  1.00  0.00    -0.268 OA
BRANCH  72  75
ATOM     75  C   UNL A   1      32.362  28.899  24.151  1.00  0.00     0.131 A 
ATOM     76  N   UNL A   1      33.458  29.364  23.478  1.00  0.00    -0.272 N 
ATOM     77  C   UNL A   1      31.916  27.801  23.423  1.00  0.00     0.057 A 
ATOM     78  N   UNL A   1      33.863  28.562  22.480  1.00  0.00    -0.183 NA
ATOM     79  H   UNL A   1      33.910  30.209  23.705  1.00  0.00     0.190 HD
ATOM     80  C   UNL A   1      32.923  27.616  22.446  1.00  0.00     0.145 A 
BRANCH  77  81
ATOM     81  C   UNL A   1      30.676  26.995  23.642  1.00  0.00     0.303 C 
BRANCH  81  82
ATOM     82  N   UNL A   1      30.887  25.715  24.322  1.00  0.00    -0.330 N 
ATOM     83  C   UNL A   1      30.260  25.618  25.641  1.00  0.00     0.262 C 
ATOM     84  C   UNL A   1      30.645  24.536  23.497  1.00  0.00     0.274 C 
ATOM     85  H   UNL A   1      31.892  25.715  24.498  1.00  0.00     0.348 HD
ATOM     86  C   UNL A   1      30.827  24.430  26.413  1.00  0.00     0.062 C 
ATOM     87  C   UNL A   1      31.184  23.261  24.151  1.00  0.00     0.116 C 
ATOM     88  C   UNL A   1      30.771  23.124  25.621  1.00  0.00     0.023 C 
BRANCH  87  89
ATOM     89  C   UNL A   1      32.674  23.038  23.887  1.00  0.00     0.171 C 
ATOM     90  O   UNL A   1      33.412  23.954  23.525  1.00  0.00    -0.294 OA
BRANCH  89  91
ATOM     91  C   UNL A   1      33.277  21.705  24.081  1.00  0.00     0.019 A 
ATOM     92  C   UNL A   1      34.491  21.587  24.753  1.00  0.00     0.012 A 
ATOM     93  C   UNL A   1      32.587  20.568  23.650  1.00  0.00     0.020 A 
ATOM     94  C   UNL A   1      35.062  20.326  24.926  1.00  0.00     0.009 A 
ATOM     95  C   UNL A   1      33.148  19.293  23.828  1.00  0.00    -0.018 A 
ATOM     96  C   UNL A   1      34.408  19.172  24.462  1.00  0.00    -0.018 A 
ATOM     97  C   UNL A   1      32.487  18.132  23.393  1.00  0.00     0.009 A 
ATOM     98  C   UNL A   1      34.976  17.899  24.624  1.00  0.00     0.009 A 
ATOM     99  C   UNL A   1      33.065  16.873  23.565  1.00  0.00     0.001 A 
ATOM    100  C   UNL A   1      34.309  16.757  24.177  1.00  0.00     0.001 A 
ENDBRANCH  89  91
ENDBRANCH  87  89
ENDBRANCH  81  82
ENDBRANCH  77  81
ENDBRANCH  72  75
ENDBRANCH  70  71
ENDBRANCH   1  70
TORSDOF 18
ENDMDL
MODEL 3
REMARK VINA RESULT:     -12.2      6.128     11.807
REMARK SMILES O=C(NCCCCNC(=O)c1[nH]ncc1C[N@H+]1CCC[C@H](C(=O)c2ccc3ccccc3c2)C1)c1ccc(-c2c3nc(c(-c4ccc(S(=O)(=O)[O-])cc4)c4ccc([nH]4)c(-c4ccc(S(=O)(=O)[O-])cc4)c4nc(c(-c5ccc(S(=O)(=O)[O-])cc5)c5ccc2[nH]5)C=C4)C=C3)cc1
REMARK SMILES IDX 6 1 5 2 4 3 3 4 1 5 2 6 35 8 36 9 94 10 37 11 93 12 38 13
REMARK SMILES IDX 39 14 40 15 87 16 41 17 92 18 86 19 88 20 42 21 91 22 85 23
REMARK SMILES IDX 84 24 43 26 73 27 54 28 72 29 55 30 58 31 71 32 89 33 56 34
REMARK SMILES IDX 57 35 70 37 90 38 59 39 44 40 45 41 53 42 46 43 52 44 47 45
REMARK SMILES IDX 48 46 49 47 50 48 51 49 74 50 75 51 83 52 76 53 82 54 77 55
REMARK SMILES IDX 78 56 79 57 80 58 81 59 60 60 61 61 69 62 62 63 68 64 63 65
REMARK SMILES IDX 64 66 65 67 66 68 67 69 7 70 8 71 9 72 10 74 11 75 12 76
REMARK SMILES IDX 15 77 13 78 14 80 16 81 17 82 18 83 34 84 19 86 21 87 20 88
REMARK SMILES IDX 22 89 23 90 24 91 25 92 33 93 26 94 32 95 27 96 31 97 28 98
REMARK SMILES IDX 30 99 29 100
REMARK H PARENT 3 7 88 25 58 36 8 73 12 79 17 85
REMARK Flexibility Score: inf
ROOT
ATOM      1  C   UNL A   1      39.006  22.701  26.250  1.00  0.00     0.023 C 
ENDROOT
BRANCH   1   2
ATOM      2  C   UNL A   1      39.151  21.271  25.730  1.00  0.00     0.023 C 
BRANCH   2   3
ATOM      3  C   UNL A   1      39.868  20.291  26.652  1.00  0.00     0.116 C 
BRANCH   3   4
ATOM      4  N   UNL A   1      41.030  19.664  26.040  1.00  0.00    -0.352 N 
ATOM      5  O   UNL A   1      43.107  19.502  25.187  1.00  0.00    -0.269 OA
ATOM      6  C   UNL A   1      42.282  20.178  25.795  1.00  0.00     0.251 C 
ATOM      7  H   UNL A   1      40.900  18.730  25.757  1.00  0.00     0.163 HD
BRANCH   6   8
ATOM      8  C   UNL A   1      42.625  21.551  26.231  1.00  0.00     0.039 A 
ATOM      9  C   UNL A   1      42.631  22.613  25.326  1.00  0.00     0.014 A 
ATOM     10  C   UNL A   1      42.953  21.773  27.572  1.00  0.00     0.014 A 
ATOM     11  C   UNL A   1      43.116  23.857  25.725  1.00  0.00     0.010 A 
ATOM     12  C   UNL A   1      43.378  23.040  27.987  1.00  0.00     0.010 A 
ATOM     13  C   UNL A   1      43.512  24.079  27.055  1.00  0.00    -0.014 A 
BRANCH  13  14
ATOM     14  C   UNL A   1      44.076  25.400  27.431  1.00  0.00     0.031 A 
ATOM     15  C   UNL A   1      45.474  25.786  27.024  1.00  0.00     0.074 A 
ATOM     16  C   UNL A   1      43.301  26.289  28.080  1.00  0.00     0.049 A 
ATOM     17  N   UNL A   1      46.083  26.937  27.169  1.00  0.00    -0.248 NA
ATOM     18  C   UNL A   1      46.298  24.751  26.381  1.00  0.00     0.031 C 
ATOM     19  C   UNL A   1      41.936  26.036  28.546  1.00  0.00     0.029 A 
ATOM     20  N   UNL A   1      43.535  27.596  28.424  1.00  0.00    -0.354 N 
ATOM     21  C   UNL A   1      47.365  26.758  26.664  1.00  0.00     0.074 A 
ATOM     22  C   UNL A   1      47.450  25.384  26.215  1.00  0.00     0.031 C 
ATOM     23  C   UNL A   1      41.429  27.171  29.052  1.00  0.00     0.029 A 
ATOM     24  C   UNL A   1      42.442  28.221  28.971  1.00  0.00     0.049 A 
ATOM     25  H   UNL A   1      44.403  28.042  28.293  1.00  0.00     0.167 HD
ATOM     26  C   UNL A   1      48.381  27.651  26.578  1.00  0.00     0.031 A 
ATOM     27  C   UNL A   1      42.258  29.501  29.343  1.00  0.00     0.031 A 
ATOM     28  C   UNL A   1      48.298  29.025  26.993  1.00  0.00     0.049 A 
ATOM     29  C   UNL A   1      43.372  30.492  29.174  1.00  0.00     0.074 A 
ATOM     30  C   UNL A   1      49.273  30.006  26.928  1.00  0.00     0.029 A 
ATOM     31  N   UNL A   1      47.172  29.616  27.540  1.00  0.00    -0.354 N 
ATOM     32  N   UNL A   1      44.571  30.300  28.681  1.00  0.00    -0.248 NA
ATOM     33  C   UNL A   1      43.103  31.869  29.607  1.00  0.00     0.031 C 
ATOM     34  C   UNL A   1      48.736  31.193  27.446  1.00  0.00     0.029 A 
ATOM     35  C   UNL A   1      47.424  30.949  27.816  1.00  0.00     0.049 A 
ATOM     36  H   UNL A   1      46.318  29.157  27.708  1.00  0.00     0.167 HD
ATOM     37  C   UNL A   1      45.203  31.536  28.745  1.00  0.00     0.074 A 
ATOM     38  C   UNL A   1      44.247  32.470  29.304  1.00  0.00     0.031 C 
ATOM     39  C   UNL A   1      46.465  31.864  28.376  1.00  0.00     0.031 A 
BRANCH  26  40
ATOM     40  C   UNL A   1      49.683  27.149  26.025  1.00  0.00    -0.014 A 
ATOM     41  C   UNL A   1      50.609  26.485  26.847  1.00  0.00     0.010 A 
ATOM     42  C   UNL A   1      49.980  27.336  24.664  1.00  0.00     0.010 A 
ATOM     43  C   UNL A   1      51.831  26.051  26.326  1.00  0.00     0.020 A 
ATOM     44  C   UNL A   1      51.196  26.892  24.137  1.00  0.00     0.020 A 
ATOM     45  C   UNL A   1      52.122  26.271  24.977  1.00  0.00     0.054 A 
BRANCH  45  46
ATOM     46  S   UNL A   1      53.714  25.709  24.311  1.00  0.00     0.124 S 
ATOM     47  O   UNL A   1      53.560  26.000  22.887  1.00  0.00    -0.237 OA
ATOM     48  O   UNL A   1      54.682  26.544  25.020  1.00  0.00    -0.237 OA
ATOM     49  O   UNL A   1      53.749  24.291  24.660  1.00  0.00    -0.744 OA
ENDBRANCH  45  46
ENDBRANCH  26  40
BRANCH  27  50
ATOM     50  C   UNL A   1      40.937  29.922  29.870  1.00  0.00    -0.014 A 
ATOM     51  C   UNL A   1      39.862  30.125  28.990  1.00  0.00     0.010 A 
ATOM     52  C   UNL A   1      40.734  30.061  31.252  1.00  0.00     0.010 A 
ATOM     53  C   UNL A   1      38.599  30.457  29.484  1.00  0.00     0.020 A 
ATOM     54  C   UNL A   1      39.469  30.380  31.752  1.00  0.00     0.020 A 
ATOM     55  C   UNL A   1      38.409  30.579  30.863  1.00  0.00     0.054 A 
BRANCH  55  56
ATOM     56  S   UNL A   1      36.747  30.913  31.510  1.00  0.00     0.124 S 
ATOM     57  O   UNL A   1      37.010  31.953  32.498  1.00  0.00    -0.237 OA
ATOM     58  O   UNL A   1      36.013  31.341  30.321  1.00  0.00    -0.237 OA
ATOM     59  O   UNL A   1      36.336  29.619  32.049  1.00  0.00    -0.744 OA
ENDBRANCH  55  56
ENDBRANCH  27  50
BRANCH  39  60
ATOM     60  C   UNL A   1      46.878  33.293  28.570  1.00  0.00    -0.014 A 
ATOM     61  C   UNL A   1      47.480  33.706  29.771  1.00  0.00     0.010 A 
ATOM     62  C   UNL A   1      46.679  34.227  27.538  1.00  0.00     0.010 A 
ATOM     63  C   UNL A   1      47.852  35.041  29.950  1.00  0.00     0.020 A 
ATOM     64  C   UNL A   1      47.060  35.560  27.711  1.00  0.00     0.020 A 
ATOM     65  C   UNL A   1      47.630  35.962  28.922  1.00  0.00     0.054 A 
BRANCH  65  66
ATOM     66  S   UNL A   1      48.137  37.688  29.153  1.00  0.00     0.124 S 
ATOM     67  O   UNL A   1      48.349  37.751  30.597  1.00  0.00    -0.237 OA
ATOM     68  O   UNL A   1      49.343  37.792  28.336  1.00  0.00    -0.237 OA
ATOM     69  O   UNL A   1      46.991  38.447  28.656  1.00  0.00    -0.744 OA
ENDBRANCH  65  66
ENDBRANCH  39  60
ENDBRANCH  13  14
ENDBRANCH   6   8
ENDBRANCH   3   4
ENDBRANCH   2   3
ENDBRANCH   1   2
BRANCH   1  70
ATOM     70  C   UNL A   1      37.691  23.401  25.916  1.00  0.00     0.116 C 
BRANCH  70  71
ATOM     71  N   UNL A   1      37.436  23.480  24.489  1.00  0.00    -0.351 N 
ATOM     72  C   UNL A   1      36.413  22.940  23.755  1.00  0.00     0.269 C 
ATOM     73  H   UNL A   1      38.094  23.999  23.972  1.00  0.00     0.163 HD
ATOM     74  O   UNL A   1      36.489  22.971  22.528  1.00  0.00    -0.268 OA
BRANCH  72  75
ATOM     75  C   UNL A   1      35.323  22.297  24.430  1.00  0.00     0.131 A 
ATOM     76  N   UNL A   1      35.528  21.558  25.563  1.00  0.00    -0.272 N 
ATOM     77  C   UNL A   1      33.969  22.168  24.141  1.00  0.00     0.057 A 
ATOM     78  N   UNL A   1      34.398  21.106  26.128  1.00  0.00    -0.183 NA
ATOM     79  H   UNL A   1      36.423  21.375  25.931  1.00  0.00     0.190 HD
ATOM     80  C   UNL A   1      33.452  21.474  25.261  1.00  0.00     0.145 A 
BRANCH  77  81
ATOM     81  C   UNL A   1      33.234  22.667  22.939  1.00  0.00     0.303 C 
BRANCH  81  82
ATOM     82  N   UNL A   1      32.465  23.895  23.156  1.00  0.00    -0.330 N 
ATOM     83  C   UNL A   1      32.589  24.885  22.085  1.00  0.00     0.262 C 
ATOM     84  C   UNL A   1      31.082  23.686  23.570  1.00  0.00     0.274 C 
ATOM     85  H   UNL A   1      32.926  24.311  23.965  1.00  0.00     0.348 HD
ATOM     86  C   UNL A   1      32.072  26.242  22.554  1.00  0.00     0.062 C 
ATOM     87  C   UNL A   1      30.439  24.978  24.084  1.00  0.00     0.116 C 
ATOM     88  C   UNL A   1      30.666  26.171  23.149  1.00  0.00     0.023 C 
BRANCH  87  89
ATOM     89  C   UNL A   1      30.751  25.256  25.555  1.00  0.00     0.171 C 
ATOM     90  O   UNL A   1      30.172  24.662  26.465  1.00  0.00    -0.294 OA
BRANCH  89  91
ATOM     91  C   UNL A   1      31.784  26.242  25.928  1.00  0.00     0.019 A 
ATOM     92  C   UNL A   1      33.131  25.891  25.864  1.00  0.00     0.012 A 
ATOM     93  C   UNL A   1      31.403  27.542  26.272  1.00  0.00     0.020 A 
ATOM     94  C   UNL A   1      34.103  26.823  26.226  1.00  0.00     0.009 A 
ATOM     95  C   UNL A   1      32.373  28.492  26.628  1.00  0.00    -0.018 A 
ATOM     96  C   UNL A   1      33.740  28.123  26.618  1.00  0.00    -0.018 A 
ATOM     97  C   UNL A   1      32.021  29.802  26.994  1.00  0.00     0.009 A 
ATOM     98  C   UNL A   1      34.710  29.067  26.990  1.00  0.00     0.009 A 
ATOM     99  C   UNL A   1      32.998  30.730  27.359  1.00  0.00     0.001 A 
ATOM    100  C   UNL A   1      34.341  30.362  27.359  1.00  0.00     0.001 A 
ENDBRANCH  89  91
ENDBRANCH  87  89
ENDBRANCH  81  82
ENDBRANCH  77  81
ENDBRANCH  72  75
ENDBRANCH  70  71
ENDBRANCH   1  70
TORSDOF 18
ENDMDL
