MODEL 1
REMARK VINA RESULT:     -11.3      0.000      0.000
REMARK SMILES C[C@H](C(=O)NCCCCNC(=O)c1ccc(-c2c3nc(c(-c4ccc(S(=O)(=O)[O-])cc4)c4ccc([nH]4)c(-c4ccc(S(=O)(=O)[O-])cc4)c4nc(c(-c5ccc(S(=O)(=O)[O-])cc5)c5ccc2[nH]5)C=C4)C=C3)cc1)c1ccc2c(c1)OCCO2
REMARK SMILES IDX 8 1 7 2 6 3 5 4 3 5 4 6 2 8 1 9 73 10 74 11 78 12 75 13
REMARK SMILES IDX 77 14 76 15 79 16 82 17 80 18 81 19 9 20 10 21 11 22 12 24
REMARK SMILES IDX 13 25 14 26 72 27 15 28 71 29 16 30 17 31 18 32 65 33 19 34
REMARK SMILES IDX 70 35 64 36 66 37 20 38 69 39 63 40 62 41 21 43 51 44 32 45
REMARK SMILES IDX 50 46 33 47 36 48 49 49 67 50 34 51 35 52 48 54 68 55 37 56
REMARK SMILES IDX 22 57 23 58 31 59 24 60 30 61 25 62 26 63 27 64 28 65 29 66
REMARK SMILES IDX 52 67 53 68 61 69 54 70 60 71 55 72 56 73 57 74 58 75 59 76
REMARK SMILES IDX 38 77 39 78 47 79 40 80 46 81 41 82 42 83 43 84 44 85 45 86
REMARK H PARENT 5 7 10 23 66 42 36 53
REMARK Flexibility Score: inf
ROOT
ATOM      1  C   UNL A   1      33.528  28.497  25.749  1.00  0.00     0.023 C 
ENDROOT
BRANCH   1   2
ATOM      2  C   UNL A   1      32.877  29.635  24.961  1.00  0.00     0.023 C 
BRANCH   2   3
ATOM      3  C   UNL A   1      31.355  29.687  25.054  1.00  0.00     0.116 C 
BRANCH   3   4
ATOM      4  N   UNL A   1      30.720  29.649  23.751  1.00  0.00    -0.356 N 
ATOM      5  C   UNL A   1      30.187  28.578  23.092  1.00  0.00     0.227 C 
ATOM      6  O   UNL A   1      29.676  28.763  21.986  1.00  0.00    -0.274 OA
ATOM      7  H   UNL A   1      30.667  30.511  23.278  1.00  0.00     0.163 HD
BRANCH   5   8
ATOM      8  C   UNL A   1      30.239  27.206  23.756  1.00  0.00     0.105 C 
ATOM      9  C   UNL A   1      28.838  26.577  23.834  1.00  0.00     0.023 C 
BRANCH   8  10
ATOM     10  C   UNL A   1      31.158  26.235  23.031  1.00  0.00    -0.032 A 
ATOM     11  C   UNL A   1      32.326  26.693  22.398  1.00  0.00     0.008 A 
ATOM     12  C   UNL A   1      30.948  24.855  23.176  1.00  0.00     0.055 A 
ATOM     13  C   UNL A   1      33.336  25.796  22.050  1.00  0.00     0.051 A 
ATOM     14  C   UNL A   1      31.993  23.980  22.932  1.00  0.00     0.161 A 
ATOM     15  C   UNL A   1      33.196  24.462  22.412  1.00  0.00     0.161 A 
ATOM     16  O   UNL A   1      31.824  22.698  23.379  1.00  0.00    -0.486 OA
ATOM     17  O   UNL A   1      34.322  23.673  22.405  1.00  0.00    -0.486 OA
ATOM     18  C   UNL A   1      33.056  22.022  23.651  1.00  0.00     0.271 C 
ATOM     19  C   UNL A   1      34.283  22.928  23.631  1.00  0.00     0.271 C 
ENDBRANCH   8  10
ENDBRANCH   5   8
ENDBRANCH   3   4
ENDBRANCH   2   3
ENDBRANCH   1   2
BRANCH   1  20
ATOM     20  C   UNL A   1      33.546  28.674  27.263  1.00  0.00     0.116 C 
BRANCH  20  21
ATOM     21  N   UNL A   1      33.594  30.067  27.682  1.00  0.00    -0.352 N 
ATOM     22  C   UNL A   1      34.636  30.758  28.254  1.00  0.00     0.251 C 
ATOM     23  H   UNL A   1      32.770  30.585  27.535  1.00  0.00     0.163 HD
ATOM     24  O   UNL A   1      34.476  31.914  28.635  1.00  0.00    -0.269 OA
BRANCH  22  25
ATOM     25  C   UNL A   1      35.934  30.079  28.450  1.00  0.00     0.039 A 
ATOM     26  C   UNL A   1      36.854  30.075  27.400  1.00  0.00     0.014 A 
ATOM     27  C   UNL A   1      36.265  29.515  29.685  1.00  0.00     0.014 A 
ATOM     28  C   UNL A   1      38.145  29.592  27.619  1.00  0.00     0.010 A 
ATOM     29  C   UNL A   1      37.570  29.091  29.919  1.00  0.00     0.010 A 
ATOM     30  C   UNL A   1      38.529  29.148  28.895  1.00  0.00    -0.014 A 
BRANCH  30  31
ATOM     31  C   UNL A   1      39.945  28.817  29.200  1.00  0.00     0.031 A 
ATOM     32  C   UNL A   1      40.867  29.857  29.773  1.00  0.00     0.074 A 
ATOM     33  C   UNL A   1      40.420  27.597  28.872  1.00  0.00     0.049 A 
ATOM     34  N   UNL A   1      42.149  29.770  30.020  1.00  0.00    -0.248 NA
ATOM     35  C   UNL A   1      40.282  31.170  30.091  1.00  0.00     0.031 C 
ATOM     36  C   UNL A   1      39.636  26.518  28.264  1.00  0.00     0.029 A 
ATOM     37  N   UNL A   1      41.680  27.065  28.985  1.00  0.00    -0.354 N 
ATOM     38  C   UNL A   1      42.527  31.016  30.505  1.00  0.00     0.074 A 
ATOM     39  C   UNL A   1      41.347  31.852  30.489  1.00  0.00     0.031 C 
ATOM     40  C   UNL A   1      40.429  25.453  28.068  1.00  0.00     0.029 A 
ATOM     41  C   UNL A   1      41.785  25.783  28.493  1.00  0.00     0.049 A 
ATOM     42  H   UNL A   1      42.438  27.553  29.380  1.00  0.00     0.167 HD
ATOM     43  C   UNL A   1      43.746  31.420  30.935  1.00  0.00     0.031 A 
ATOM     44  C   UNL A   1      42.854  24.972  28.375  1.00  0.00     0.031 A 
ATOM     45  C   UNL A   1      44.914  30.580  30.964  1.00  0.00     0.049 A 
ATOM     46  C   UNL A   1      44.199  25.457  28.843  1.00  0.00     0.074 A 
ATOM     47  C   UNL A   1      46.171  30.878  31.463  1.00  0.00     0.029 A 
ATOM     48  N   UNL A   1      44.976  29.287  30.469  1.00  0.00    -0.354 N 
ATOM     49  N   UNL A   1      44.513  26.607  29.390  1.00  0.00    -0.248 NA
ATOM     50  C   UNL A   1      45.331  24.535  28.681  1.00  0.00     0.031 C 
ATOM     51  C   UNL A   1      47.009  29.787  31.214  1.00  0.00     0.029 A 
ATOM     52  C   UNL A   1      46.261  28.789  30.612  1.00  0.00     0.049 A 
ATOM     53  H   UNL A   1      44.221  28.796  30.075  1.00  0.00     0.167 HD
ATOM     54  C   UNL A   1      45.877  26.540  29.648  1.00  0.00     0.074 A 
ATOM     55  C   UNL A   1      46.323  25.229  29.226  1.00  0.00     0.031 C 
ATOM     56  C   UNL A   1      46.691  27.483  30.183  1.00  0.00     0.031 A 
BRANCH  43  57
ATOM     57  C   UNL A   1      43.894  32.840  31.411  1.00  0.00    -0.014 A 
ATOM     58  C   UNL A   1      44.158  33.884  30.507  1.00  0.00     0.010 A 
ATOM     59  C   UNL A   1      43.665  33.147  32.765  1.00  0.00     0.010 A 
ATOM     60  C   UNL A   1      44.205  35.207  30.951  1.00  0.00     0.020 A 
ATOM     61  C   UNL A   1      43.689  34.473  33.209  1.00  0.00     0.020 A 
ATOM     62  C   UNL A   1      43.966  35.493  32.299  1.00  0.00     0.054 A 
BRANCH  62  63
ATOM     63  S   UNL A   1      43.968  37.228  32.831  1.00  0.00     0.124 S 
ATOM     64  O   UNL A   1      45.277  37.346  33.469  1.00  0.00    -0.237 OA
ATOM     65  O   UNL A   1      43.818  37.949  31.569  1.00  0.00    -0.237 OA
ATOM     66  O   UNL A   1      42.825  37.316  33.736  1.00  0.00    -0.744 OA
ENDBRANCH  62  63
ENDBRANCH  43  57
BRANCH  44  67
ATOM     67  C   UNL A   1      42.709  23.623  27.761  1.00  0.00    -0.014 A 
ATOM     68  C   UNL A   1      42.305  22.521  28.536  1.00  0.00     0.010 A 
ATOM     69  C   UNL A   1      43.001  23.429  26.398  1.00  0.00     0.010 A 
ATOM     70  C   UNL A   1      42.230  21.246  27.968  1.00  0.00     0.020 A 
ATOM     71  C   UNL A   1      42.898  22.160  25.820  1.00  0.00     0.020 A 
ATOM     72  C   UNL A   1      42.531  21.073  26.615  1.00  0.00     0.054 A 
BRANCH  72  73
ATOM     73  S   UNL A   1      42.410  19.413  25.893  1.00  0.00     0.124 S 
ATOM     74  O   UNL A   1      43.295  19.521  24.738  1.00  0.00    -0.237 OA
ATOM     75  O   UNL A   1      42.886  18.559  26.978  1.00  0.00    -0.237 OA
ATOM     76  O   UNL A   1      40.987  19.279  25.584  1.00  0.00    -0.744 OA
ENDBRANCH  72  73
ENDBRANCH  44  67
BRANCH  56  77
ATOM     77  C   UNL A   1      48.144  27.130  30.353  1.00  0.00    -0.014 A 
ATOM     78  C   UNL A   1      49.099  27.522  29.398  1.00  0.00     0.010 A 
ATOM     79  C   UNL A   1      48.568  26.449  31.509  1.00  0.00     0.010 A 
ATOM     80  C   UNL A   1      50.449  27.219  29.584  1.00  0.00     0.020 A 
ATOM     81  C   UNL A   1      49.921  26.168  31.711  1.00  0.00     0.020 A 
ATOM     82  C   UNL A   1      50.852  26.544  30.741  1.00  0.00     0.054 A 
BRANCH  82  83
ATOM     83  S   UNL A   1      52.618  26.209  30.984  1.00  0.00     0.124 S 
ATOM     84  O   UNL A   1      52.588  24.981  31.774  1.00  0.00    -0.237 OA
ATOM     85  O   UNL A   1      53.108  26.064  29.616  1.00  0.00    -0.237 OA
ATOM     86  O   UNL A   1      53.102  27.392  31.691  1.00  0.00    -0.744 OA
ENDBRANCH  82  83
ENDBRANCH  56  77
ENDBRANCH  30  31
ENDBRANCH  22  25
ENDBRANCH  20  21
ENDBRANCH   1  20
TORSDOF 15
ENDMDL
MODEL 2
REMARK VINA RESULT:     -10.8      3.328      9.517
REMARK SMILES C[C@H](C(=O)NCCCCNC(=O)c1ccc(-c2c3nc(c(-c4ccc(S(=O)(=O)[O-])cc4)c4ccc([nH]4)c(-c4ccc(S(=O)(=O)[O-])cc4)c4nc(c(-c5ccc(S(=O)(=O)[O-])cc5)c5ccc2[nH]5)C=C4)C=C3)cc1)c1ccc2c(c1)OCCO2
REMARK SMILES IDX 8 1 7 2 6 3 5 4 3 5 4 6 2 8 1 9 73 10 74 11 78 12 75 13
REMARK SMILES IDX 77 14 76 15 79 16 82 17 80 18 81 19 9 20 10 21 11 22 12 24
REMARK SMILES IDX 13 25 14 26 72 27 15 28 71 29 16 30 17 31 18 32 65 33 19 34
REMARK SMILES IDX 70 35 64 36 66 37 20 38 69 39 63 40 62 41 21 43 51 44 32 45
REMARK SMILES IDX 50 46 33 47 36 48 49 49 67 50 34 51 35 52 48 54 68 55 37 56
REMARK SMILES IDX 22 57 23 58 31 59 24 60 30 61 25 62 26 63 27 64 28 65 29 66
REMARK SMILES IDX 52 67 53 68 61 69 54 70 60 71 55 72 56 73 57 74 58 75 59 76
REMARK SMILES IDX 38 77 39 78 47 79 40 80 46 81 41 82 42 83 43 84 44 85 45 86
REMARK H PARENT 5 7 10 23 66 42 36 53
REMARK Flexibility Score: inf
ROOT
ATOM      1  C   UNL A   1      36.076  23.826  25.879  1.00  0.00     0.023 C 
ENDROOT
BRANCH   1   2
ATOM      2  C   UNL A   1      35.049  24.859  25.415  1.00  0.00     0.023 C 
BRANCH   2   3
ATOM      3  C   UNL A   1      34.084  24.364  24.342  1.00  0.00     0.116 C 
BRANCH   3   4
ATOM      4  N   UNL A   1      32.755  24.118  24.865  1.00  0.00    -0.356 N 
ATOM      5  C   UNL A   1      32.278  23.002  25.492  1.00  0.00     0.227 C 
ATOM      6  O   UNL A   1      31.107  22.998  25.876  1.00  0.00    -0.274 OA
ATOM      7  H   UNL A   1      32.109  24.852  24.752  1.00  0.00     0.163 HD
BRANCH   5   8
ATOM      8  C   UNL A   1      33.214  21.815  25.696  1.00  0.00     0.105 C 
ATOM      9  C   UNL A   1      33.384  21.497  27.192  1.00  0.00     0.023 C 
BRANCH   8  10
ATOM     10  C   UNL A   1      32.733  20.556  24.993  1.00  0.00    -0.032 A 
ATOM     11  C   UNL A   1      32.397  20.584  23.628  1.00  0.00     0.008 A 
ATOM     12  C   UNL A   1      32.828  19.323  25.655  1.00  0.00     0.055 A 
ATOM     13  C   UNL A   1      32.304  19.396  22.903  1.00  0.00     0.051 A 
ATOM     14  C   UNL A   1      32.844  18.154  24.914  1.00  0.00     0.161 A 
ATOM     15  C   UNL A   1      32.626  18.201  23.535  1.00  0.00     0.161 A 
ATOM     16  O   UNL A   1      33.241  17.025  25.576  1.00  0.00    -0.486 OA
ATOM     17  O   UNL A   1      32.891  17.108  22.746  1.00  0.00    -0.486 OA
ATOM     18  C   UNL A   1      33.802  16.027  24.715  1.00  0.00     0.271 C 
ATOM     19  C   UNL A   1      34.074  16.510  23.294  1.00  0.00     0.271 C 
ENDBRANCH   8  10
ENDBRANCH   5   8
ENDBRANCH   3   4
ENDBRANCH   2   3
ENDBRANCH   1   2
BRANCH   1  20
ATOM     20  C   UNL A   1      37.250  23.597  24.932  1.00  0.00     0.116 C 
BRANCH  20  21
ATOM     21  N   UNL A   1      38.241  22.669  25.457  1.00  0.00    -0.352 N 
ATOM     22  C   UNL A   1      39.284  22.918  26.317  1.00  0.00     0.251 C 
ATOM     23  H   UNL A   1      38.154  21.736  25.154  1.00  0.00     0.163 HD
ATOM     24  O   UNL A   1      40.090  22.032  26.585  1.00  0.00    -0.269 OA
BRANCH  22  25
ATOM     25  C   UNL A   1      39.453  24.276  26.875  1.00  0.00     0.039 A 
ATOM     26  C   UNL A   1      38.956  24.542  28.153  1.00  0.00     0.014 A 
ATOM     27  C   UNL A   1      40.159  25.255  26.171  1.00  0.00     0.014 A 
ATOM     28  C   UNL A   1      39.253  25.761  28.766  1.00  0.00     0.010 A 
ATOM     29  C   UNL A   1      40.505  26.444  26.807  1.00  0.00     0.010 A 
ATOM     30  C   UNL A   1      40.076  26.697  28.120  1.00  0.00    -0.014 A 
BRANCH  30  31
ATOM     31  C   UNL A   1      40.566  27.909  28.828  1.00  0.00     0.031 A 
ATOM     32  C   UNL A   1      41.908  27.909  29.504  1.00  0.00     0.074 A 
ATOM     33  C   UNL A   1      39.752  28.981  28.935  1.00  0.00     0.049 A 
ATOM     34  N   UNL A   1      42.457  28.843  30.238  1.00  0.00    -0.248 NA
ATOM     35  C   UNL A   1      42.733  26.699  29.357  1.00  0.00     0.031 C 
ATOM     36  C   UNL A   1      38.406  29.083  28.364  1.00  0.00     0.029 A 
ATOM     37  N   UNL A   1      39.930  30.181  29.577  1.00  0.00    -0.354 N 
ATOM     38  C   UNL A   1      43.680  28.330  30.653  1.00  0.00     0.074 A 
ATOM     39  C   UNL A   1      43.781  26.991  30.116  1.00  0.00     0.031 C 
ATOM     40  C   UNL A   1      37.886  30.282  28.673  1.00  0.00     0.029 A 
ATOM     41  C   UNL A   1      38.839  31.017  29.498  1.00  0.00     0.049 A 
ATOM     42  H   UNL A   1      40.759  30.421  30.050  1.00  0.00     0.167 HD
ATOM     43  C   UNL A   1      44.634  28.928  31.404  1.00  0.00     0.031 A 
ATOM     44  C   UNL A   1      38.618  32.227  30.046  1.00  0.00     0.031 A 
ATOM     45  C   UNL A   1      44.537  30.267  31.923  1.00  0.00     0.049 A 
ATOM     46  C   UNL A   1      39.691  32.856  30.892  1.00  0.00     0.074 A 
ATOM     47  C   UNL A   1      45.491  30.986  32.622  1.00  0.00     0.029 A 
ATOM     48  N   UNL A   1      43.423  31.083  31.811  1.00  0.00    -0.354 N 
ATOM     49  N   UNL A   1      40.881  32.393  31.191  1.00  0.00    -0.248 NA
ATOM     50  C   UNL A   1      39.393  34.173  31.473  1.00  0.00     0.031 C 
ATOM     51  C   UNL A   1      44.932  32.214  32.986  1.00  0.00     0.029 A 
ATOM     52  C   UNL A   1      43.651  32.283  32.465  1.00  0.00     0.049 A 
ATOM     53  H   UNL A   1      42.593  30.847  31.339  1.00  0.00     0.167 HD
ATOM     54  C   UNL A   1      41.477  33.367  31.982  1.00  0.00     0.074 A 
ATOM     55  C   UNL A   1      40.530  34.457  32.094  1.00  0.00     0.031 C 
ATOM     56  C   UNL A   1      42.698  33.357  32.571  1.00  0.00     0.031 A 
BRANCH  43  57
ATOM     57  C   UNL A   1      45.879  28.144  31.721  1.00  0.00    -0.014 A 
ATOM     58  C   UNL A   1      45.959  27.347  32.877  1.00  0.00     0.010 A 
ATOM     59  C   UNL A   1      46.943  28.125  30.800  1.00  0.00     0.010 A 
ATOM     60  C   UNL A   1      47.086  26.556  33.113  1.00  0.00     0.020 A 
ATOM     61  C   UNL A   1      48.063  27.318  31.022  1.00  0.00     0.020 A 
ATOM     62  C   UNL A   1      48.129  26.544  32.182  1.00  0.00     0.054 A 
BRANCH  62  63
ATOM     63  S   UNL A   1      49.549  25.456  32.484  1.00  0.00     0.124 S 
ATOM     64  O   UNL A   1      50.523  26.383  33.056  1.00  0.00    -0.237 OA
ATOM     65  O   UNL A   1      49.003  24.468  33.412  1.00  0.00    -0.237 OA
ATOM     66  O   UNL A   1      49.884  24.943  31.158  1.00  0.00    -0.744 OA
ENDBRANCH  62  63
ENDBRANCH  43  57
BRANCH  44  67
ATOM     67  C   UNL A   1      37.315  32.919  29.839  1.00  0.00    -0.014 A 
ATOM     68  C   UNL A   1      36.273  32.778  30.771  1.00  0.00     0.010 A 
ATOM     69  C   UNL A   1      37.104  33.703  28.691  1.00  0.00     0.010 A 
ATOM     70  C   UNL A   1      35.032  33.379  30.542  1.00  0.00     0.020 A 
ATOM     71  C   UNL A   1      35.874  34.331  28.472  1.00  0.00     0.020 A 
ATOM     72  C   UNL A   1      34.839  34.149  29.391  1.00  0.00     0.054 A 
BRANCH  72  73
ATOM     73  S   UNL A   1      33.227  34.935  29.121  1.00  0.00     0.124 S 
ATOM     74  O   UNL A   1      33.613  36.277  28.695  1.00  0.00    -0.237 OA
ATOM     75  O   UNL A   1      32.630  34.091  28.089  1.00  0.00    -0.237 OA
ATOM     76  O   UNL A   1      32.583  34.853  30.430  1.00  0.00    -0.744 OA
ENDBRANCH  72  73
ENDBRANCH  44  67
BRANCH  56  77
ATOM     77  C   UNL A   1      43.087  34.565  33.380  1.00  0.00    -0.014 A 
ATOM     78  C   UNL A   1      42.658  34.713  34.711  1.00  0.00     0.010 A 
ATOM     79  C   UNL A   1      43.940  35.535  32.822  1.00  0.00     0.010 A 
ATOM     80  C   UNL A   1      43.054  35.821  35.462  1.00  0.00     0.020 A 
ATOM     81  C   UNL A   1      44.361  36.632  33.579  1.00  0.00     0.020 A 
ATOM     82  C   UNL A   1      43.904  36.774  34.891  1.00  0.00     0.054 A 
BRANCH  82  83
ATOM     83  S   UNL A   1      44.448  38.176  35.905  1.00  0.00     0.124 S 
ATOM     84  O   UNL A   1      45.901  38.071  35.815  1.00  0.00    -0.237 OA
ATOM     85  O   UNL A   1      43.856  39.319  35.215  1.00  0.00    -0.237 OA
ATOM     86  O   UNL A   1      43.883  37.891  37.223  1.00  0.00    -0.744 OA
ENDBRANCH  82  83
ENDBRANCH  56  77
ENDBRANCH  30  31
ENDBRANCH  22  25
ENDBRANCH  20  21
ENDBRANCH   1  20
TORSDOF 15
ENDMDL
MODEL 3
REMARK VINA RESULT:     -10.8      3.265      6.382
REMARK SMILES C[C@H](C(=O)NCCCCNC(=O)c1ccc(-c2c3nc(c(-c4ccc(S(=O)(=O)[O-])cc4)c4ccc([nH]4)c(-c4ccc(S(=O)(=O)[O-])cc4)c4nc(c(-c5ccc(S(=O)(=O)[O-])cc5)c5ccc2[nH]5)C=C4)C=C3)cc1)c1ccc2c(c1)OCCO2
REMARK SMILES IDX 8 1 7 2 6 3 5 4 3 5 4 6 2 8 1 9 73 10 74 11 78 12 75 13
REMARK SMILES IDX 77 14 76 15 79 16 82 17 80 18 81 19 9 20 10 21 11 22 12 24
REMARK SMILES IDX 13 25 14 26 72 27 15 28 71 29 16 30 17 31 18 32 65 33 19 34
REMARK SMILES IDX 70 35 64 36 66 37 20 38 69 39 63 40 62 41 21 43 51 44 32 45
REMARK SMILES IDX 50 46 33 47 36 48 49 49 67 50 34 51 35 52 48 54 68 55 37 56
REMARK SMILES IDX 22 57 23 58 31 59 24 60 30 61 25 62 26 63 27 64 28 65 29 66
REMARK SMILES IDX 52 67 53 68 61 69 54 70 60 71 55 72 56 73 57 74 58 75 59 76
REMARK SMILES IDX 38 77 39 78 47 79 40 80 46 81 41 82 42 83 43 84 44 85 45 86
REMARK H PARENT 5 7 10 23 66 42 36 53
REMARK Flexibility Score: inf
ROOT
ATOM      1  C   UNL A   1      35.148  33.029  27.859  1.00  0.00     0.023 C 
ENDROOT
BRANCH   1   2
ATOM      2  C   UNL A   1      36.199  33.849  28.608  1.00  0.00     0.023 C 
BRANCH   2   3
ATOM      3  C   UNL A   1      37.417  33.055  29.072  1.00  0.00     0.116 C 
BRANCH   3   4
ATOM      4  N   UNL A   1      38.244  33.802  29.998  1.00  0.00    -0.356 N 
ATOM      5  C   UNL A   1      38.253  33.757  31.363  1.00  0.00     0.227 C 
ATOM      6  O   UNL A   1      39.052  34.471  31.971  1.00  0.00    -0.274 OA
ATOM      7  H   UNL A   1      38.886  34.427  29.588  1.00  0.00     0.163 HD
BRANCH   5   8
ATOM      8  C   UNL A   1      37.281  32.820  32.074  1.00  0.00     0.105 C 
ATOM      9  C   UNL A   1      37.962  32.115  33.259  1.00  0.00     0.023 C 
BRANCH   8  10
ATOM     10  C   UNL A   1      36.044  33.536  32.592  1.00  0.00    -0.032 A 
ATOM     11  C   UNL A   1      36.081  34.237  33.810  1.00  0.00     0.008 A 
ATOM     12  C   UNL A   1      34.930  33.674  31.751  1.00  0.00     0.055 A 
ATOM     13  C   UNL A   1      35.093  35.173  34.114  1.00  0.00     0.051 A 
ATOM     14  C   UNL A   1      34.011  34.679  32.001  1.00  0.00     0.161 A 
ATOM     15  C   UNL A   1      34.123  35.452  33.159  1.00  0.00     0.161 A 
ATOM     16  O   UNL A   1      33.130  34.956  30.991  1.00  0.00    -0.486 OA
ATOM     17  O   UNL A   1      33.394  36.608  33.302  1.00  0.00    -0.486 OA
ATOM     18  C   UNL A   1      32.632  36.298  31.021  1.00  0.00     0.271 C 
ATOM     19  C   UNL A   1      33.361  37.212  32.001  1.00  0.00     0.271 C 
ENDBRANCH   8  10
ENDBRANCH   5   8
ENDBRANCH   3   4
ENDBRANCH   2   3
ENDBRANCH   1   2
BRANCH   1  20
ATOM     20  C   UNL A   1      34.289  32.115  28.726  1.00  0.00     0.116 C 
BRANCH  20  21
ATOM     21  N   UNL A   1      33.908  30.878  28.060  1.00  0.00    -0.352 N 
ATOM     22  C   UNL A   1      34.682  29.777  27.781  1.00  0.00     0.251 C 
ATOM     23  H   UNL A   1      32.969  30.823  27.769  1.00  0.00     0.163 HD
ATOM     24  O   UNL A   1      34.223  28.849  27.122  1.00  0.00    -0.269 OA
BRANCH  22  25
ATOM     25  C   UNL A   1      36.086  29.744  28.241  1.00  0.00     0.039 A 
ATOM     26  C   UNL A   1      36.349  29.432  29.576  1.00  0.00     0.014 A 
ATOM     27  C   UNL A   1      37.136  29.950  27.341  1.00  0.00     0.014 A 
ATOM     28  C   UNL A   1      37.666  29.229  29.989  1.00  0.00     0.010 A 
ATOM     29  C   UNL A   1      38.444  29.687  27.740  1.00  0.00     0.010 A 
ATOM     30  C   UNL A   1      38.719  29.300  29.061  1.00  0.00    -0.014 A 
BRANCH  30  31
ATOM     31  C   UNL A   1      40.100  28.895  29.433  1.00  0.00     0.031 A 
ATOM     32  C   UNL A   1      41.031  29.871  30.094  1.00  0.00     0.074 A 
ATOM     33  C   UNL A   1      40.539  27.666  29.086  1.00  0.00     0.049 A 
ATOM     34  N   UNL A   1      42.291  29.719  30.408  1.00  0.00    -0.248 NA
ATOM     35  C   UNL A   1      40.485  31.198  30.427  1.00  0.00     0.031 C 
ATOM     36  C   UNL A   1      39.745  26.645  28.396  1.00  0.00     0.029 A 
ATOM     37  N   UNL A   1      41.767  27.075  29.249  1.00  0.00    -0.354 N 
ATOM     38  C   UNL A   1      42.694  30.929  30.959  1.00  0.00     0.074 A 
ATOM     39  C   UNL A   1      41.554  31.818  30.908  1.00  0.00     0.031 C 
ATOM     40  C   UNL A   1      40.502  25.553  28.205  1.00  0.00     0.029 A 
ATOM     41  C   UNL A   1      41.844  25.807  28.717  1.00  0.00     0.049 A 
ATOM     42  H   UNL A   1      42.521  27.515  29.704  1.00  0.00     0.167 HD
ATOM     43  C   UNL A   1      43.903  31.263  31.470  1.00  0.00     0.031 A 
ATOM     44  C   UNL A   1      42.883  24.953  28.629  1.00  0.00     0.031 A 
ATOM     45  C   UNL A   1      45.031  30.370  31.534  1.00  0.00     0.049 A 
ATOM     46  C   UNL A   1      44.218  25.361  29.188  1.00  0.00     0.074 A 
ATOM     47  C   UNL A   1      46.268  30.594  32.112  1.00  0.00     0.029 A 
ATOM     48  N   UNL A   1      45.065  29.094  30.996  1.00  0.00    -0.354 N 
ATOM     49  N   UNL A   1      44.550  26.476  29.794  1.00  0.00    -0.248 NA
ATOM     50  C   UNL A   1      45.318  24.395  29.056  1.00  0.00     0.031 C 
ATOM     51  C   UNL A   1      47.072  29.476  31.870  1.00  0.00     0.029 A 
ATOM     52  C   UNL A   1      46.317  28.534  31.191  1.00  0.00     0.049 A 
ATOM     53  H   UNL A   1      44.313  28.651  30.542  1.00  0.00     0.167 HD
ATOM     54  C   UNL A   1      45.893  26.339  30.126  1.00  0.00     0.074 A 
ATOM     55  C   UNL A   1      46.305  25.025  29.680  1.00  0.00     0.031 C 
ATOM     56  C   UNL A   1      46.714  27.226  30.739  1.00  0.00     0.031 A 
BRANCH  43  57
ATOM     57  C   UNL A   1      44.084  32.657  32.006  1.00  0.00    -0.014 A 
ATOM     58  C   UNL A   1      44.617  33.680  31.201  1.00  0.00     0.010 A 
ATOM     59  C   UNL A   1      43.621  32.972  33.297  1.00  0.00     0.010 A 
ATOM     60  C   UNL A   1      44.697  34.989  31.683  1.00  0.00     0.020 A 
ATOM     61  C   UNL A   1      43.679  34.285  33.775  1.00  0.00     0.020 A 
ATOM     62  C   UNL A   1      44.224  35.283  32.965  1.00  0.00     0.054 A 
BRANCH  62  63
ATOM     63  S   UNL A   1      44.281  37.005  33.536  1.00  0.00     0.124 S 
ATOM     64  O   UNL A   1      44.748  37.703  32.342  1.00  0.00    -0.237 OA
ATOM     65  O   UNL A   1      42.893  37.262  33.913  1.00  0.00    -0.237 OA
ATOM     66  O   UNL A   1      45.228  36.971  34.648  1.00  0.00    -0.744 OA
ENDBRANCH  62  63
ENDBRANCH  43  57
BRANCH  44  67
ATOM     67  C   UNL A   1      42.715  23.634  27.958  1.00  0.00    -0.014 A 
ATOM     68  C   UNL A   1      42.176  22.539  28.655  1.00  0.00     0.010 A 
ATOM     69  C   UNL A   1      43.121  23.461  26.622  1.00  0.00     0.010 A 
ATOM     70  C   UNL A   1      42.078  21.287  28.040  1.00  0.00     0.020 A 
ATOM     71  C   UNL A   1      42.997  22.219  25.994  1.00  0.00     0.020 A 
ATOM     72  C   UNL A   1      42.493  21.134  26.714  1.00  0.00     0.054 A 
BRANCH  72  73
ATOM     73  S   UNL A   1      42.341  19.507  25.928  1.00  0.00     0.124 S 
ATOM     74  O   UNL A   1      42.834  18.618  26.976  1.00  0.00    -0.237 OA
ATOM     75  O   UNL A   1      40.910  19.421  25.648  1.00  0.00    -0.237 OA
ATOM     76  O   UNL A   1      43.193  19.617  24.746  1.00  0.00    -0.744 OA
ENDBRANCH  72  73
ENDBRANCH  44  67
BRANCH  56  77
ATOM     77  C   UNL A   1      48.139  26.803  30.976  1.00  0.00    -0.014 A 
ATOM     78  C   UNL A   1      49.162  27.183  30.090  1.00  0.00     0.010 A 
ATOM     79  C   UNL A   1      48.466  26.065  32.129  1.00  0.00     0.010 A 
ATOM     80  C   UNL A   1      50.485  26.813  30.340  1.00  0.00     0.020 A 
ATOM     81  C   UNL A   1      49.793  25.716  32.396  1.00  0.00     0.020 A 
ATOM     82  C   UNL A   1      50.793  26.082  31.492  1.00  0.00     0.054 A 
BRANCH  82  83
ATOM     83  S   UNL A   1      52.526  25.660  31.820  1.00  0.00     0.124 S 
ATOM     84  O   UNL A   1      52.864  26.583  32.900  1.00  0.00    -0.237 OA
ATOM     85  O   UNL A   1      52.447  24.251  32.199  1.00  0.00    -0.237 OA
ATOM     86  O   UNL A   1      53.194  25.920  30.547  1.00  0.00    -0.744 OA
ENDBRANCH  82  83
ENDBRANCH  56  77
ENDBRANCH  30  31
ENDBRANCH  22  25
ENDBRANCH  20  21
ENDBRANCH   1  20
TORSDOF 15
ENDMDL
