MODEL 1
REMARK VINA RESULT:     -10.6      0.000      0.000
REMARK SMILES CC(C)=CC(=O)Nc1ccc(C(=O)NCCCCNC(=O)c2ccc(-c3c4nc(c(-c5ccc(S(=O)(=O)[O-])cc5)c5ccc([nH]5)c(-c5ccc(S(=O)(=O)[O-])cc5)c5nc(c(-c6ccc(S(=O)(=O)[O-])cc6)c6ccc3[nH]6)C=C5)C=C4)cc2)cc1
REMARK SMILES IDX 17 1 16 2 15 3 14 4 12 5 13 6 11 8 8 9 9 10 83 11 10 12
REMARK SMILES IDX 82 13 7 14 5 15 6 16 4 18 1 19 2 20 3 21 18 22 19 23 20 24
REMARK SMILES IDX 21 26 22 27 23 28 81 29 24 30 80 31 25 32 26 33 27 34 74 35
REMARK SMILES IDX 28 36 79 37 73 38 75 39 29 40 78 41 72 42 71 43 30 45 60 46
REMARK SMILES IDX 41 47 59 48 42 49 45 50 58 51 76 52 43 53 44 54 57 56 77 57
REMARK SMILES IDX 46 58 31 59 32 60 40 61 33 62 39 63 34 64 35 65 36 66 37 67
REMARK SMILES IDX 38 68 61 69 62 70 70 71 63 72 69 73 64 74 65 75 66 76 67 77
REMARK SMILES IDX 68 78 47 79 48 80 56 81 49 82 55 83 50 84 51 85 52 86 53 87
REMARK SMILES IDX 54 88
REMARK H PARENT 14 7 7 17 19 25 75 44 45 55
REMARK Flexibility Score: inf
ROOT
ATOM      1  C   UNL A   1      33.504  27.937  25.729  1.00  0.00     0.023 C 
ENDROOT
BRANCH   1   2
ATOM      2  C   UNL A   1      33.631  29.142  24.796  1.00  0.00     0.023 C 
BRANCH   2   3
ATOM      3  C   UNL A   1      33.580  28.787  23.309  1.00  0.00     0.116 C 
BRANCH   3   4
ATOM      4  N   UNL A   1      32.383  29.335  22.695  1.00  0.00    -0.352 N 
ATOM      5  C   UNL A   1      31.161  28.776  22.413  1.00  0.00     0.251 C 
ATOM      6  O   UNL A   1      30.299  29.481  21.891  1.00  0.00    -0.269 OA
ATOM      7  H   UNL A   1      32.463  30.281  22.434  1.00  0.00     0.163 HD
BRANCH   5   8
ATOM      8  C   UNL A   1      30.813  27.386  22.813  1.00  0.00     0.039 A 
ATOM      9  C   UNL A   1      30.473  24.881  23.996  1.00  0.00     0.041 A 
ATOM     10  C   UNL A   1      29.763  25.976  24.489  1.00  0.00     0.027 A 
ATOM     11  C   UNL A   1      31.183  24.995  22.805  1.00  0.00     0.027 A 
ATOM     12  C   UNL A   1      29.965  27.234  23.920  1.00  0.00     0.016 A 
ATOM     13  C   UNL A   1      31.317  26.241  22.195  1.00  0.00     0.016 A 
BRANCH   9  14
ATOM     14  N   UNL A   1      30.496  23.719  24.770  1.00  0.00    -0.323 N 
ATOM     15  C   UNL A   1      31.547  23.127  25.411  1.00  0.00     0.248 C 
ATOM     16  O   UNL A   1      31.420  21.991  25.870  1.00  0.00    -0.270 OA
ATOM     17  H   UNL A   1      29.631  23.259  24.867  1.00  0.00     0.170 HD
BRANCH  15  18
ATOM     18  C   UNL A   1      32.845  23.832  25.622  1.00  0.00     0.070 C 
ATOM     19  C   UNL A   1      34.257  22.848  23.739  1.00  0.00     0.039 C 
ATOM     20  C   UNL A   1      33.992  23.750  24.913  1.00  0.00    -0.071 C 
ATOM     21  C   UNL A   1      35.153  24.656  25.240  1.00  0.00     0.039 C 
ENDBRANCH  15  18
ENDBRANCH   9  14
ENDBRANCH   5   8
ENDBRANCH   3   4
ENDBRANCH   2   3
ENDBRANCH   1   2
BRANCH   1  22
ATOM     22  C   UNL A   1      33.748  28.240  27.202  1.00  0.00     0.116 C 
BRANCH  22  23
ATOM     23  N   UNL A   1      33.597  29.651  27.521  1.00  0.00    -0.352 N 
ATOM     24  C   UNL A   1      34.503  30.507  28.095  1.00  0.00     0.251 C 
ATOM     25  H   UNL A   1      32.725  30.046  27.294  1.00  0.00     0.163 HD
ATOM     26  O   UNL A   1      34.149  31.641  28.414  1.00  0.00    -0.269 OA
BRANCH  24  27
ATOM     27  C   UNL A   1      35.886  30.055  28.354  1.00  0.00     0.039 A 
ATOM     28  C   UNL A   1      36.814  30.101  27.312  1.00  0.00     0.014 A 
ATOM     29  C   UNL A   1      36.270  29.590  29.615  1.00  0.00     0.014 A 
ATOM     30  C   UNL A   1      38.137  29.723  27.547  1.00  0.00     0.010 A 
ATOM     31  C   UNL A   1      37.606  29.294  29.869  1.00  0.00     0.010 A 
ATOM     32  C   UNL A   1      38.551  29.340  28.834  1.00  0.00    -0.014 A 
BRANCH  32  33
ATOM     33  C   UNL A   1      39.964  28.967  29.098  1.00  0.00     0.031 A 
ATOM     34  C   UNL A   1      40.899  29.951  29.750  1.00  0.00     0.074 A 
ATOM     35  C   UNL A   1      40.412  27.752  28.725  1.00  0.00     0.049 A 
ATOM     36  N   UNL A   1      42.157  29.798  30.078  1.00  0.00    -0.248 NA
ATOM     37  C   UNL A   1      40.362  31.288  30.052  1.00  0.00     0.031 C 
ATOM     38  C   UNL A   1      39.620  26.729  28.037  1.00  0.00     0.029 A 
ATOM     39  N   UNL A   1      41.645  27.168  28.878  1.00  0.00    -0.354 N 
ATOM     40  C   UNL A   1      42.561  31.017  30.612  1.00  0.00     0.074 A 
ATOM     41  C   UNL A   1      41.434  31.917  30.507  1.00  0.00     0.031 C 
ATOM     42  C   UNL A   1      40.373  25.631  27.866  1.00  0.00     0.029 A 
ATOM     43  C   UNL A   1      41.708  25.881  28.398  1.00  0.00     0.049 A 
ATOM     44  H   UNL A   1      42.411  27.626  29.293  1.00  0.00     0.167 HD
ATOM     45  C   UNL A   1      43.751  31.352  31.163  1.00  0.00     0.031 A 
ATOM     46  C   UNL A   1      42.725  24.996  28.396  1.00  0.00     0.031 A 
ATOM     47  C   UNL A   1      44.869  30.452  31.273  1.00  0.00     0.049 A 
ATOM     48  C   UNL A   1      44.035  25.388  29.023  1.00  0.00     0.074 A 
ATOM     49  C   UNL A   1      46.101  30.676  31.861  1.00  0.00     0.029 A 
ATOM     50  N   UNL A   1      44.891  29.154  30.783  1.00  0.00    -0.354 N 
ATOM     51  N   UNL A   1      44.373  26.523  29.588  1.00  0.00    -0.248 NA
ATOM     52  C   UNL A   1      45.093  24.369  29.032  1.00  0.00     0.031 C 
ATOM     53  C   UNL A   1      46.887  29.532  31.682  1.00  0.00     0.029 A 
ATOM     54  C   UNL A   1      46.121  28.572  31.039  1.00  0.00     0.049 A 
ATOM     55  H   UNL A   1      44.141  28.711  30.323  1.00  0.00     0.167 HD
ATOM     56  C   UNL A   1      45.674  26.343  30.047  1.00  0.00     0.074 A 
ATOM     57  C   UNL A   1      46.050  24.985  29.711  1.00  0.00     0.031 C 
ATOM     58  C   UNL A   1      46.484  27.222  30.689  1.00  0.00     0.031 A 
BRANCH  45  59
ATOM     59  C   UNL A   1      43.904  32.757  31.688  1.00  0.00    -0.014 A 
ATOM     60  C   UNL A   1      43.687  33.052  33.048  1.00  0.00     0.010 A 
ATOM     61  C   UNL A   1      44.301  33.790  30.821  1.00  0.00     0.010 A 
ATOM     62  C   UNL A   1      43.820  34.362  33.518  1.00  0.00     0.020 A 
ATOM     63  C   UNL A   1      44.465  35.095  31.295  1.00  0.00     0.020 A 
ATOM     64  C   UNL A   1      44.205  35.376  32.638  1.00  0.00     0.054 A 
BRANCH  64  65
ATOM     65  S   UNL A   1      44.388  37.061  33.282  1.00  0.00     0.124 S 
ATOM     66  O   UNL A   1      42.997  37.488  33.406  1.00  0.00    -0.237 OA
ATOM     67  O   UNL A   1      45.094  36.848  34.541  1.00  0.00    -0.237 OA
ATOM     68  O   UNL A   1      45.160  37.746  32.246  1.00  0.00    -0.744 OA
ENDBRANCH  64  65
ENDBRANCH  45  59
BRANCH  46  69
ATOM     69  C   UNL A   1      42.533  23.642  27.808  1.00  0.00    -0.014 A 
ATOM     70  C   UNL A   1      42.080  22.573  28.602  1.00  0.00     0.010 A 
ATOM     71  C   UNL A   1      42.797  23.415  26.445  1.00  0.00     0.010 A 
ATOM     72  C   UNL A   1      41.918  21.298  28.051  1.00  0.00     0.020 A 
ATOM     73  C   UNL A   1      42.607  22.149  25.883  1.00  0.00     0.020 A 
ATOM     74  C   UNL A   1      42.181  21.094  26.694  1.00  0.00     0.054 A 
BRANCH  74  75
ATOM     75  S   UNL A   1      41.920  19.443  25.990  1.00  0.00     0.124 S 
ATOM     76  O   UNL A   1      40.484  19.448  25.729  1.00  0.00    -0.237 OA
ATOM     77  O   UNL A   1      42.778  19.465  24.809  1.00  0.00    -0.237 OA
ATOM     78  O   UNL A   1      42.360  18.544  27.055  1.00  0.00    -0.744 OA
ENDBRANCH  74  75
ENDBRANCH  46  69
BRANCH  58  79
ATOM     79  C   UNL A   1      47.845  26.724  31.103  1.00  0.00    -0.014 A 
ATOM     80  C   UNL A   1      48.043  26.057  32.325  1.00  0.00     0.010 A 
ATOM     81  C   UNL A   1      48.943  26.919  30.244  1.00  0.00     0.010 A 
ATOM     82  C   UNL A   1      49.323  25.647  32.707  1.00  0.00     0.020 A 
ATOM     83  C   UNL A   1      50.218  26.480  30.607  1.00  0.00     0.020 A 
ATOM     84  C   UNL A   1      50.404  25.868  31.848  1.00  0.00     0.054 A 
BRANCH  84  85
ATOM     85  S   UNL A   1      52.056  25.329  32.365  1.00  0.00     0.124 S 
ATOM     86  O   UNL A   1      52.265  26.114  33.579  1.00  0.00    -0.237 OA
ATOM     87  O   UNL A   1      51.877  23.893  32.568  1.00  0.00    -0.237 OA
ATOM     88  O   UNL A   1      52.909  25.690  31.234  1.00  0.00    -0.744 OA
ENDBRANCH  84  85
ENDBRANCH  58  79
ENDBRANCH  32  33
ENDBRANCH  24  27
ENDBRANCH  22  23
ENDBRANCH   1  22
TORSDOF 16
ENDMDL
MODEL 2
REMARK VINA RESULT:     -10.3      3.218      4.184
REMARK SMILES CC(C)=CC(=O)Nc1ccc(C(=O)NCCCCNC(=O)c2ccc(-c3c4nc(c(-c5ccc(S(=O)(=O)[O-])cc5)c5ccc([nH]5)c(-c5ccc(S(=O)(=O)[O-])cc5)c5nc(c(-c6ccc(S(=O)(=O)[O-])cc6)c6ccc3[nH]6)C=C5)C=C4)cc2)cc1
REMARK SMILES IDX 17 1 16 2 15 3 14 4 12 5 13 6 11 8 8 9 9 10 83 11 10 12
REMARK SMILES IDX 82 13 7 14 5 15 6 16 4 18 1 19 2 20 3 21 18 22 19 23 20 24
REMARK SMILES IDX 21 26 22 27 23 28 81 29 24 30 80 31 25 32 26 33 27 34 74 35
REMARK SMILES IDX 28 36 79 37 73 38 75 39 29 40 78 41 72 42 71 43 30 45 60 46
REMARK SMILES IDX 41 47 59 48 42 49 45 50 58 51 76 52 43 53 44 54 57 56 77 57
REMARK SMILES IDX 46 58 31 59 32 60 40 61 33 62 39 63 34 64 35 65 36 66 37 67
REMARK SMILES IDX 38 68 61 69 62 70 70 71 63 72 69 73 64 74 65 75 66 76 67 77
REMARK SMILES IDX 68 78 47 79 48 80 56 81 49 82 55 83 50 84 51 85 52 86 53 87
REMARK SMILES IDX 54 88
REMARK H PARENT 14 7 7 17 19 25 75 44 45 55
REMARK Flexibility Score: inf
ROOT
ATOM      1  C   UNL A   1      35.219  32.190  27.977  1.00  0.00     0.023 C 
ENDROOT
BRANCH   1   2
ATOM      2  C   UNL A   1      34.648  30.813  27.638  1.00  0.00     0.023 C 
BRANCH   2   3
ATOM      3  C   UNL A   1      33.187  30.840  27.181  1.00  0.00     0.116 C 
BRANCH   3   4
ATOM      4  N   UNL A   1      32.493  29.645  27.625  1.00  0.00    -0.352 N 
ATOM      5  C   UNL A   1      32.028  28.549  26.940  1.00  0.00     0.251 C 
ATOM      6  O   UNL A   1      31.475  27.652  27.574  1.00  0.00    -0.269 OA
ATOM      7  H   UNL A   1      32.325  29.614  28.595  1.00  0.00     0.163 HD
BRANCH   5   8
ATOM      8  C   UNL A   1      32.265  28.364  25.483  1.00  0.00     0.039 A 
ATOM      9  C   UNL A   1      32.479  27.533  22.828  1.00  0.00     0.041 A 
ATOM     10  C   UNL A   1      31.251  27.986  23.309  1.00  0.00     0.027 A 
ATOM     11  C   UNL A   1      33.625  27.686  23.601  1.00  0.00     0.027 A 
ATOM     12  C   UNL A   1      31.138  28.364  24.648  1.00  0.00     0.016 A 
ATOM     13  C   UNL A   1      33.519  28.141  24.914  1.00  0.00     0.016 A 
BRANCH   9  14
ATOM     14  N   UNL A   1      32.491  26.872  21.598  1.00  0.00    -0.323 N 
ATOM     15  C   UNL A   1      32.860  25.589  21.309  1.00  0.00     0.248 C 
ATOM     16  O   UNL A   1      33.007  25.245  20.135  1.00  0.00    -0.270 OA
ATOM     17  H   UNL A   1      32.192  27.407  20.828  1.00  0.00     0.170 HD
BRANCH  15  18
ATOM     18  C   UNL A   1      33.048  24.560  22.373  1.00  0.00     0.070 C 
ATOM     19  C   UNL A   1      30.653  24.254  23.198  1.00  0.00     0.039 C 
ATOM     20  C   UNL A   1      32.129  23.963  23.163  1.00  0.00    -0.071 C 
ATOM     21  C   UNL A   1      32.536  22.849  24.095  1.00  0.00     0.039 C 
ENDBRANCH  15  18
ENDBRANCH   9  14
ENDBRANCH   5   8
ENDBRANCH   3   4
ENDBRANCH   2   3
ENDBRANCH   1   2
BRANCH   1  22
ATOM     22  C   UNL A   1      36.338  32.182  29.010  1.00  0.00     0.116 C 
BRANCH  22  23
ATOM     23  N   UNL A   1      35.986  31.449  30.217  1.00  0.00    -0.352 N 
ATOM     24  C   UNL A   1      36.642  30.401  30.811  1.00  0.00     0.251 C 
ATOM     25  H   UNL A   1      35.165  31.747  30.669  1.00  0.00     0.163 HD
ATOM     26  O   UNL A   1      36.120  29.817  31.759  1.00  0.00    -0.269 OA
BRANCH  24  27
ATOM     27  C   UNL A   1      37.954  29.960  30.293  1.00  0.00     0.039 A 
ATOM     28  C   UNL A   1      38.134  29.865  28.911  1.00  0.00     0.014 A 
ATOM     29  C   UNL A   1      39.004  29.642  31.160  1.00  0.00     0.014 A 
ATOM     30  C   UNL A   1      39.379  29.495  28.401  1.00  0.00     0.010 A 
ATOM     31  C   UNL A   1      40.266  29.356  30.648  1.00  0.00     0.010 A 
ATOM     32  C   UNL A   1      40.463  29.262  29.263  1.00  0.00    -0.014 A 
BRANCH  32  33
ATOM     33  C   UNL A   1      41.799  28.898  28.724  1.00  0.00     0.031 A 
ATOM     34  C   UNL A   1      42.886  29.937  28.626  1.00  0.00     0.074 A 
ATOM     35  C   UNL A   1      42.024  27.641  28.296  1.00  0.00     0.049 A 
ATOM     36  N   UNL A   1      44.117  29.803  28.203  1.00  0.00    -0.248 NA
ATOM     37  C   UNL A   1      42.540  31.308  29.033  1.00  0.00     0.031 C 
ATOM     38  C   UNL A   1      41.037  26.557  28.288  1.00  0.00     0.029 A 
ATOM     39  N   UNL A   1      43.159  27.058  27.790  1.00  0.00    -0.354 N 
ATOM     40  C   UNL A   1      44.685  31.069  28.283  1.00  0.00     0.074 A 
ATOM     41  C   UNL A   1      43.648  31.969  28.735  1.00  0.00     0.031 C 
ATOM     42  C   UNL A   1      41.621  25.434  27.841  1.00  0.00     0.029 A 
ATOM     43  C   UNL A   1      43.010  25.722  27.500  1.00  0.00     0.049 A 
ATOM     44  H   UNL A   1      44.000  27.549  27.650  1.00  0.00     0.167 HD
ATOM     45  C   UNL A   1      45.961  31.446  28.029  1.00  0.00     0.031 A 
ATOM     46  C   UNL A   1      43.896  24.827  27.020  1.00  0.00     0.031 A 
ATOM     47  C   UNL A   1      46.993  30.547  27.586  1.00  0.00     0.049 A 
ATOM     48  C   UNL A   1      45.309  25.267  26.754  1.00  0.00     0.074 A 
ATOM     49  C   UNL A   1      48.330  30.817  27.350  1.00  0.00     0.029 A 
ATOM     50  N   UNL A   1      46.805  29.199  27.312  1.00  0.00    -0.354 N 
ATOM     51  N   UNL A   1      45.846  26.455  26.906  1.00  0.00    -0.248 NA
ATOM     52  C   UNL A   1      46.242  24.238  26.275  1.00  0.00     0.031 C 
ATOM     53  C   UNL A   1      48.938  29.647  26.883  1.00  0.00     0.029 A 
ATOM     54  C   UNL A   1      47.996  28.631  26.890  1.00  0.00     0.049 A 
ATOM     55  H   UNL A   1      45.951  28.718  27.403  1.00  0.00     0.167 HD
ATOM     56  C   UNL A   1      47.187  26.308  26.568  1.00  0.00     0.074 A 
ATOM     57  C   UNL A   1      47.382  24.914  26.227  1.00  0.00     0.031 C 
ATOM     58  C   UNL A   1      48.170  27.243  26.544  1.00  0.00     0.031 A 
BRANCH  45  59
ATOM     59  C   UNL A   1      46.308  32.900  28.222  1.00  0.00    -0.014 A 
ATOM     60  C   UNL A   1      46.168  33.827  27.170  1.00  0.00     0.010 A 
ATOM     61  C   UNL A   1      46.748  33.356  29.477  1.00  0.00     0.010 A 
ATOM     62  C   UNL A   1      46.505  35.169  27.360  1.00  0.00     0.020 A 
ATOM     63  C   UNL A   1      47.056  34.705  29.679  1.00  0.00     0.020 A 
ATOM     64  C   UNL A   1      46.950  35.600  28.612  1.00  0.00     0.054 A 
BRANCH  64  65
ATOM     65  S   UNL A   1      47.361  37.352  28.832  1.00  0.00     0.124 S 
ATOM     66  O   UNL A   1      46.776  37.951  27.636  1.00  0.00    -0.237 OA
ATOM     67  O   UNL A   1      46.696  37.681  30.089  1.00  0.00    -0.237 OA
ATOM     68  O   UNL A   1      48.822  37.363  28.882  1.00  0.00    -0.744 OA
ENDBRANCH  64  65
ENDBRANCH  45  59
BRANCH  46  69
ATOM     69  C   UNL A   1      43.478  23.415  26.791  1.00  0.00    -0.014 A 
ATOM     70  C   UNL A   1      43.113  22.592  27.871  1.00  0.00     0.010 A 
ATOM     71  C   UNL A   1      43.438  22.888  25.488  1.00  0.00     0.010 A 
ATOM     72  C   UNL A   1      42.739  21.262  27.655  1.00  0.00     0.020 A 
ATOM     73  C   UNL A   1      43.036  21.568  25.265  1.00  0.00     0.020 A 
ATOM     74  C   UNL A   1      42.702  20.759  26.353  1.00  0.00     0.054 A 
BRANCH  74  75
ATOM     75  S   UNL A   1      42.169  19.045  26.092  1.00  0.00     0.124 S 
ATOM     76  O   UNL A   1      43.043  18.617  25.003  1.00  0.00    -0.237 OA
ATOM     77  O   UNL A   1      42.430  18.432  27.392  1.00  0.00    -0.237 OA
ATOM     78  O   UNL A   1      40.755  19.174  25.746  1.00  0.00    -0.744 OA
ENDBRANCH  74  75
ENDBRANCH  46  69
BRANCH  58  79
ATOM     79  C   UNL A   1      49.553  26.775  26.171  1.00  0.00    -0.014 A 
ATOM     80  C   UNL A   1      50.398  26.157  27.109  1.00  0.00     0.010 A 
ATOM     81  C   UNL A   1      50.009  26.948  24.850  1.00  0.00     0.010 A 
ATOM     82  C   UNL A   1      51.694  25.774  26.751  1.00  0.00     0.020 A 
ATOM     83  C   UNL A   1      51.290  26.536  24.479  1.00  0.00     0.020 A 
ATOM     84  C   UNL A   1      52.134  25.973  25.438  1.00  0.00     0.054 A 
BRANCH  84  85
ATOM     85  S   UNL A   1      53.818  25.470  24.995  1.00  0.00     0.124 S 
ATOM     86  O   UNL A   1      54.628  26.363  25.820  1.00  0.00    -0.237 OA
ATOM     87  O   UNL A   1      53.845  24.061  25.381  1.00  0.00    -0.237 OA
ATOM     88  O   UNL A   1      53.887  25.717  23.556  1.00  0.00    -0.744 OA
ENDBRANCH  84  85
ENDBRANCH  58  79
ENDBRANCH  32  33
ENDBRANCH  24  27
ENDBRANCH  22  23
ENDBRANCH   1  22
TORSDOF 16
ENDMDL
MODEL 3
REMARK VINA RESULT:     -10.2      2.610      9.181
REMARK SMILES CC(C)=CC(=O)Nc1ccc(C(=O)NCCCCNC(=O)c2ccc(-c3c4nc(c(-c5ccc(S(=O)(=O)[O-])cc5)c5ccc([nH]5)c(-c5ccc(S(=O)(=O)[O-])cc5)c5nc(c(-c6ccc(S(=O)(=O)[O-])cc6)c6ccc3[nH]6)C=C5)C=C4)cc2)cc1
REMARK SMILES IDX 17 1 16 2 15 3 14 4 12 5 13 6 11 8 8 9 9 10 83 11 10 12
REMARK SMILES IDX 82 13 7 14 5 15 6 16 4 18 1 19 2 20 3 21 18 22 19 23 20 24
REMARK SMILES IDX 21 26 22 27 23 28 81 29 24 30 80 31 25 32 26 33 27 34 74 35
REMARK SMILES IDX 28 36 79 37 73 38 75 39 29 40 78 41 72 42 71 43 30 45 60 46
REMARK SMILES IDX 41 47 59 48 42 49 45 50 58 51 76 52 43 53 44 54 57 56 77 57
REMARK SMILES IDX 46 58 31 59 32 60 40 61 33 62 39 63 34 64 35 65 36 66 37 67
REMARK SMILES IDX 38 68 61 69 62 70 70 71 63 72 69 73 64 74 65 75 66 76 67 77
REMARK SMILES IDX 68 78 47 79 48 80 56 81 49 82 55 83 50 84 51 85 52 86 53 87
REMARK SMILES IDX 54 88
REMARK H PARENT 14 7 7 17 19 25 75 44 45 55
REMARK Flexibility Score: inf
ROOT
ATOM      1  C   UNL A   1      35.541  23.447  26.229  1.00  0.00     0.023 C 
ENDROOT
BRANCH   1   2
ATOM      2  C   UNL A   1      34.263  24.206  25.871  1.00  0.00     0.023 C 
BRANCH   2   3
ATOM      3  C   UNL A   1      33.042  23.308  25.662  1.00  0.00     0.116 C 
BRANCH   3   4
ATOM      4  N   UNL A   1      33.085  22.689  24.349  1.00  0.00    -0.352 N 
ATOM      5  C   UNL A   1      32.513  23.044  23.152  1.00  0.00     0.251 C 
ATOM      6  O   UNL A   1      32.725  22.336  22.168  1.00  0.00    -0.269 OA
ATOM      7  H   UNL A   1      33.620  21.864  24.310  1.00  0.00     0.163 HD
BRANCH   5   8
ATOM      8  C   UNL A   1      31.743  24.305  22.983  1.00  0.00     0.039 A 
ATOM      9  C   UNL A   1      30.671  26.882  22.999  1.00  0.00     0.041 A 
ATOM     10  C   UNL A   1      31.795  26.610  22.219  1.00  0.00     0.027 A 
ATOM     11  C   UNL A   1      29.975  25.837  23.599  1.00  0.00     0.027 A 
ATOM     12  C   UNL A   1      32.351  25.330  22.243  1.00  0.00     0.016 A 
ATOM     13  C   UNL A   1      30.493  24.544  23.554  1.00  0.00     0.016 A 
BRANCH   9  14
ATOM     14  N   UNL A   1      30.330  28.221  23.203  1.00  0.00    -0.323 N 
ATOM     15  C   UNL A   1      30.865  29.127  24.073  1.00  0.00     0.248 C 
ATOM     16  O   UNL A   1      30.295  30.202  24.263  1.00  0.00    -0.270 OA
ATOM     17  H   UNL A   1      29.597  28.560  22.640  1.00  0.00     0.170 HD
BRANCH  15  18
ATOM     18  C   UNL A   1      32.158  28.882  24.777  1.00  0.00     0.070 C 
ATOM     19  C   UNL A   1      31.413  27.334  26.662  1.00  0.00     0.039 C 
ATOM     20  C   UNL A   1      32.417  28.108  25.854  1.00  0.00    -0.071 C 
ATOM     21  C   UNL A   1      33.837  27.912  26.324  1.00  0.00     0.039 C 
ENDBRANCH  15  18
ENDBRANCH   9  14
ENDBRANCH   5   8
ENDBRANCH   3   4
ENDBRANCH   2   3
ENDBRANCH   1   2
BRANCH   1  22
ATOM     22  C   UNL A   1      36.772  23.855  25.432  1.00  0.00     0.116 C 
BRANCH  22  23
ATOM     23  N   UNL A   1      37.856  22.889  25.533  1.00  0.00    -0.352 N 
ATOM     24  C   UNL A   1      39.104  23.048  26.079  1.00  0.00     0.251 C 
ATOM     25  H   UNL A   1      37.666  21.999  25.157  1.00  0.00     0.163 HD
ATOM     26  O   UNL A   1      39.941  22.155  25.953  1.00  0.00    -0.269 OA
BRANCH  24  27
ATOM     27  C   UNL A   1      39.447  24.298  26.789  1.00  0.00     0.039 A 
ATOM     28  C   UNL A   1      39.029  24.457  28.111  1.00  0.00     0.014 A 
ATOM     29  C   UNL A   1      40.179  25.309  26.158  1.00  0.00     0.014 A 
ATOM     30  C   UNL A   1      39.382  25.610  28.814  1.00  0.00     0.010 A 
ATOM     31  C   UNL A   1      40.601  26.418  26.886  1.00  0.00     0.010 A 
ATOM     32  C   UNL A   1      40.193  26.589  28.216  1.00  0.00    -0.014 A 
BRANCH  32  33
ATOM     33  C   UNL A   1      40.599  27.804  28.969  1.00  0.00     0.031 A 
ATOM     34  C   UNL A   1      41.958  27.878  29.613  1.00  0.00     0.074 A 
ATOM     35  C   UNL A   1      39.733  28.828  29.097  1.00  0.00     0.049 A 
ATOM     36  N   UNL A   1      42.496  28.860  30.291  1.00  0.00    -0.248 NA
ATOM     37  C   UNL A   1      42.818  26.688  29.503  1.00  0.00     0.031 C 
ATOM     38  C   UNL A   1      38.367  28.856  28.566  1.00  0.00     0.029 A 
ATOM     39  N   UNL A   1      39.874  30.048  29.710  1.00  0.00    -0.354 N 
ATOM     40  C   UNL A   1      43.745  28.403  30.695  1.00  0.00     0.074 A 
ATOM     41  C   UNL A   1      43.861  27.036  30.240  1.00  0.00     0.031 C 
ATOM     42  C   UNL A   1      37.813  30.047  28.840  1.00  0.00     0.029 A 
ATOM     43  C   UNL A   1      38.767  30.855  29.593  1.00  0.00     0.049 A 
ATOM     44  H   UNL A   1      40.691  30.319  30.187  1.00  0.00     0.167 HD
ATOM     45  C   UNL A   1      44.720  29.068  31.360  1.00  0.00     0.031 A 
ATOM     46  C   UNL A   1      38.547  32.109  30.036  1.00  0.00     0.031 A 
ATOM     47  C   UNL A   1      44.604  30.431  31.805  1.00  0.00     0.049 A 
ATOM     48  C   UNL A   1      39.648  32.830  30.765  1.00  0.00     0.074 A 
ATOM     49  C   UNL A   1      45.552  31.213  32.442  1.00  0.00     0.029 A 
ATOM     50  N   UNL A   1      43.470  31.218  31.660  1.00  0.00    -0.354 N 
ATOM     51  N   UNL A   1      40.850  32.404  31.073  1.00  0.00    -0.248 NA
ATOM     52  C   UNL A   1      39.368  34.209  31.183  1.00  0.00     0.031 C 
ATOM     53  C   UNL A   1      44.975  32.455  32.728  1.00  0.00     0.029 A 
ATOM     54  C   UNL A   1      43.689  32.469  32.212  1.00  0.00     0.049 A 
ATOM     55  H   UNL A   1      42.634  30.929  31.228  1.00  0.00     0.167 HD
ATOM     56  C   UNL A   1      41.481  33.476  31.697  1.00  0.00     0.074 A 
ATOM     57  C   UNL A   1      40.534  34.572  31.700  1.00  0.00     0.031 C 
ATOM     58  C   UNL A   1      42.732  33.547  32.218  1.00  0.00     0.031 A 
BRANCH  45  59
ATOM     59  C   UNL A   1      45.997  28.321  31.650  1.00  0.00    -0.014 A 
ATOM     60  C   UNL A   1      46.160  27.596  32.846  1.00  0.00     0.010 A 
ATOM     61  C   UNL A   1      47.037  28.317  30.704  1.00  0.00     0.010 A 
ATOM     62  C   UNL A   1      47.354  26.919  33.107  1.00  0.00     0.020 A 
ATOM     63  C   UNL A   1      48.221  27.615  30.948  1.00  0.00     0.020 A 
ATOM     64  C   UNL A   1      48.379  26.936  32.158  1.00  0.00     0.054 A 
BRANCH  64  65
ATOM     65  S   UNL A   1      49.909  26.032  32.517  1.00  0.00     0.124 S 
ATOM     66  O   UNL A   1      50.755  27.083  33.078  1.00  0.00    -0.237 OA
ATOM     67  O   UNL A   1      49.465  25.013  33.463  1.00  0.00    -0.237 OA
ATOM     68  O   UNL A   1      50.329  25.527  31.211  1.00  0.00    -0.744 OA
ENDBRANCH  64  65
ENDBRANCH  45  59
BRANCH  46  69
ATOM     69  C   UNL A   1      37.241  32.774  29.772  1.00  0.00    -0.014 A 
ATOM     70  C   UNL A   1      36.283  32.902  30.793  1.00  0.00     0.010 A 
ATOM     71  C   UNL A   1      36.950  33.288  28.495  1.00  0.00     0.010 A 
ATOM     72  C   UNL A   1      35.050  33.510  30.537  1.00  0.00     0.020 A 
ATOM     73  C   UNL A   1      35.731  33.923  28.243  1.00  0.00     0.020 A 
ATOM     74  C   UNL A   1      34.782  34.018  29.264  1.00  0.00     0.054 A 
BRANCH  74  75
ATOM     75  S   UNL A   1      33.195  34.844  28.967  1.00  0.00     0.124 S 
ATOM     76  O   UNL A   1      33.620  36.161  28.503  1.00  0.00    -0.237 OA
ATOM     77  O   UNL A   1      32.576  33.986  27.960  1.00  0.00    -0.237 OA
ATOM     78  O   UNL A   1      32.547  34.821  30.277  1.00  0.00    -0.744 OA
ENDBRANCH  74  75
ENDBRANCH  46  69
BRANCH  58  79
ATOM     79  C   UNL A   1      43.158  34.869  32.801  1.00  0.00    -0.014 A 
ATOM     80  C   UNL A   1      42.977  35.163  34.164  1.00  0.00     0.010 A 
ATOM     81  C   UNL A   1      43.762  35.830  31.968  1.00  0.00     0.010 A 
ATOM     82  C   UNL A   1      43.338  36.415  34.671  1.00  0.00     0.020 A 
ATOM     83  C   UNL A   1      44.156  37.069  32.478  1.00  0.00     0.020 A 
ATOM     84  C   UNL A   1      43.919  37.363  33.822  1.00  0.00     0.054 A 
BRANCH  84  85
ATOM     85  S   UNL A   1      44.378  38.980  34.502  1.00  0.00     0.124 S 
ATOM     86  O   UNL A   1      43.370  39.854  33.910  1.00  0.00    -0.237 OA
ATOM     87  O   UNL A   1      44.259  38.769  35.943  1.00  0.00    -0.237 OA
ATOM     88  O   UNL A   1      45.742  39.184  34.019  1.00  0.00    -0.744 OA
ENDBRANCH  84  85
ENDBRANCH  58  79
ENDBRANCH  32  33
ENDBRANCH  24  27
ENDBRANCH  22  23
ENDBRANCH   1  22
TORSDOF 16
ENDMDL
