MODEL 1
REMARK VINA RESULT:     -10.0      0.000      0.000
REMARK SMILES C=C(C)CN(CC)c1ccc(F)cc1C(=O)NCCCCNC(=O)c1ccc(-c2c3nc(c(-c4ccc(S(=O)(=O)[O-])cc4)c4ccc([nH]4)c(-c4ccc(S(=O)(=O)[O-])cc4)c4nc(c(-c5ccc(S(=O)(=O)[O-])cc5)c5ccc2[nH]5)C=C4)C=C3)cc1
REMARK SMILES IDX 19 1 18 2 17 3 15 4 16 5 14 7 8 8 9 9 10 10 13 11 11 12
REMARK SMILES IDX 12 13 5 14 4 15 2 16 1 17 3 18 6 19 7 20 20 21 21 22 22 23
REMARK SMILES IDX 23 24 24 26 25 27 26 28 84 29 27 30 83 31 28 32 29 33 30 34
REMARK SMILES IDX 77 35 31 36 82 37 76 38 78 39 32 40 81 41 75 42 74 43 33 45
REMARK SMILES IDX 63 46 44 47 62 48 45 49 48 50 61 51 79 52 46 53 47 54 60 56
REMARK SMILES IDX 80 57 49 58 34 59 35 60 43 61 36 62 42 63 37 64 38 65 39 66
REMARK SMILES IDX 40 67 41 68 64 69 65 70 73 71 66 72 72 73 67 74 68 75 69 76
REMARK SMILES IDX 70 77 71 78 50 79 51 80 59 81 52 82 58 83 53 84 54 85 55 86
REMARK SMILES IDX 56 87 57 88
REMARK H PARENT 17 6 22 25 78 44 48 55
REMARK Flexibility Score: inf
ROOT
ATOM      1  C   UNL A   1      31.649  27.083  26.081  1.00  0.00     0.023 C 
ENDROOT
BRANCH   1   2
ATOM      2  C   UNL A   1      32.608  25.947  25.750  1.00  0.00     0.116 C 
BRANCH   2   3
ATOM      3  N   UNL A   1      32.485  24.756  26.542  1.00  0.00    -0.352 N 
ATOM      4  C   UNL A   1      33.276  23.632  26.518  1.00  0.00     0.253 C 
ATOM      5  O   UNL A   1      33.033  22.752  27.349  1.00  0.00    -0.269 OA
ATOM      6  H   UNL A   1      31.740  24.743  27.185  1.00  0.00     0.163 HD
BRANCH   4   7
ATOM      7  C   UNL A   1      34.342  23.359  25.499  1.00  0.00     0.066 A 
ATOM      8  C   UNL A   1      34.191  22.875  24.172  1.00  0.00     0.050 A 
ATOM      9  C   UNL A   1      35.351  22.836  23.359  1.00  0.00     0.030 A 
ATOM     10  C   UNL A   1      36.606  23.232  23.818  1.00  0.00     0.041 A 
ATOM     11  C   UNL A   1      35.620  23.776  25.940  1.00  0.00     0.055 A 
ATOM     12  C   UNL A   1      36.727  23.704  25.109  1.00  0.00     0.124 A 
ATOM     13  F   UNL A   1      37.923  24.117  25.550  1.00  0.00    -0.207 F 
BRANCH   8  14
ATOM     14  N   UNL A   1      32.981  22.509  23.583  1.00  0.00    -0.367 N 
BRANCH  14  15
ATOM     15  C   UNL A   1      32.757  21.101  23.203  1.00  0.00     0.146 C 
BRANCH  15  16
ATOM     16  C   UNL A   1      32.973  20.082  24.293  1.00  0.00    -0.061 C 
ATOM     17  C   UNL A   1      33.814  19.040  24.181  1.00  0.00     0.009 C 
ATOM     18  C   UNL A   1      32.082  20.245  25.496  1.00  0.00     0.041 C 
ENDBRANCH  15  16
ENDBRANCH  14  15
BRANCH  14  19
ATOM     19  C   UNL A   1      32.184  23.547  22.916  1.00  0.00     0.113 C 
ATOM     20  C   UNL A   1      30.783  23.703  23.488  1.00  0.00     0.027 C 
ENDBRANCH  14  19
ENDBRANCH   8  14
ENDBRANCH   4   7
ENDBRANCH   2   3
ENDBRANCH   1   2
BRANCH   1  21
ATOM     21  C   UNL A   1      32.270  28.481  26.166  1.00  0.00     0.023 C 
BRANCH  21  22
ATOM     22  C   UNL A   1      33.289  28.727  27.280  1.00  0.00     0.116 C 
BRANCH  22  23
ATOM     23  N   UNL A   1      33.404  30.116  27.704  1.00  0.00    -0.352 N 
ATOM     24  C   UNL A   1      34.467  30.813  28.235  1.00  0.00     0.251 C 
ATOM     25  H   UNL A   1      32.582  30.646  27.593  1.00  0.00     0.163 HD
ATOM     26  O   UNL A   1      34.312  31.986  28.567  1.00  0.00    -0.269 OA
BRANCH  24  27
ATOM     27  C   UNL A   1      35.773  30.151  28.463  1.00  0.00     0.039 A 
ATOM     28  C   UNL A   1      36.683  30.087  27.403  1.00  0.00     0.014 A 
ATOM     29  C   UNL A   1      36.120  29.616  29.704  1.00  0.00     0.014 A 
ATOM     30  C   UNL A   1      37.978  29.608  27.623  1.00  0.00     0.010 A 
ATOM     31  C   UNL A   1      37.434  29.214  29.944  1.00  0.00     0.010 A 
ATOM     32  C   UNL A   1      38.387  29.235  28.915  1.00  0.00    -0.014 A 
BRANCH  32  33
ATOM     33  C   UNL A   1      39.814  28.945  29.223  1.00  0.00     0.031 A 
ATOM     34  C   UNL A   1      40.710  30.003  29.806  1.00  0.00     0.074 A 
ATOM     35  C   UNL A   1      40.331  27.746  28.884  1.00  0.00     0.049 A 
ATOM     36  N   UNL A   1      41.997  29.950  30.047  1.00  0.00    -0.248 NA
ATOM     37  C   UNL A   1      40.088  31.292  30.141  1.00  0.00     0.031 C 
ATOM     38  C   UNL A   1      39.586  26.644  28.268  1.00  0.00     0.029 A 
ATOM     39  N   UNL A   1      41.608  27.254  28.996  1.00  0.00    -0.354 N 
ATOM     40  C   UNL A   1      42.342  31.201  30.543  1.00  0.00     0.074 A 
ATOM     41  C   UNL A   1      41.137  32.004  30.533  1.00  0.00     0.031 C 
ATOM     42  C   UNL A   1      40.411  25.603  28.079  1.00  0.00     0.029 A 
ATOM     43  C   UNL A   1      41.753  25.974  28.512  1.00  0.00     0.049 A 
ATOM     44  H   UNL A   1      42.352  27.769  29.385  1.00  0.00     0.167 HD
ATOM     45  C   UNL A   1      43.548  31.640  30.979  1.00  0.00     0.031 A 
ATOM     46  C   UNL A   1      42.842  25.187  28.413  1.00  0.00     0.031 A 
ATOM     47  C   UNL A   1      44.746  30.842  30.997  1.00  0.00     0.049 A 
ATOM     48  C   UNL A   1      44.172  25.700  28.890  1.00  0.00     0.074 A 
ATOM     49  C   UNL A   1      45.998  31.182  31.480  1.00  0.00     0.029 A 
ATOM     50  N   UNL A   1      44.845  29.548  30.510  1.00  0.00    -0.354 N 
ATOM     51  N   UNL A   1      44.462  26.865  29.418  1.00  0.00    -0.248 NA
ATOM     52  C   UNL A   1      45.319  24.790  28.763  1.00  0.00     0.031 C 
ATOM     53  C   UNL A   1      46.867  30.112  31.239  1.00  0.00     0.029 A 
ATOM     54  C   UNL A   1      46.144  29.086  30.655  1.00  0.00     0.049 A 
ATOM     55  H   UNL A   1      44.104  29.034  30.117  1.00  0.00     0.167 HD
ATOM     56  C   UNL A   1      45.821  26.821  29.705  1.00  0.00     0.074 A 
ATOM     57  C   UNL A   1      46.292  25.510  29.307  1.00  0.00     0.031 C 
ATOM     58  C   UNL A   1      46.605  27.782  30.251  1.00  0.00     0.031 A 
BRANCH  45  59
ATOM     59  C   UNL A   1      43.633  33.062  31.469  1.00  0.00    -0.014 A 
ATOM     60  C   UNL A   1      43.443  33.373  32.827  1.00  0.00     0.010 A 
ATOM     61  C   UNL A   1      43.948  34.095  30.567  1.00  0.00     0.010 A 
ATOM     62  C   UNL A   1      43.520  34.697  33.267  1.00  0.00     0.020 A 
ATOM     63  C   UNL A   1      44.052  35.418  31.008  1.00  0.00     0.020 A 
ATOM     64  C   UNL A   1      43.818  35.712  32.353  1.00  0.00     0.054 A 
BRANCH  64  65
ATOM     65  S   UNL A   1      43.923  37.420  32.954  1.00  0.00     0.124 S 
ATOM     66  O   UNL A   1      45.275  37.460  33.508  1.00  0.00    -0.237 OA
ATOM     67  O   UNL A   1      43.722  38.202  31.737  1.00  0.00    -0.237 OA
ATOM     68  O   UNL A   1      42.844  37.510  33.935  1.00  0.00    -0.744 OA
ENDBRANCH  64  65
ENDBRANCH  45  59
BRANCH  46  69
ATOM     69  C   UNL A   1      42.716  23.819  27.838  1.00  0.00    -0.014 A 
ATOM     70  C   UNL A   1      42.386  22.730  28.661  1.00  0.00     0.010 A 
ATOM     71  C   UNL A   1      42.905  23.605  26.460  1.00  0.00     0.010 A 
ATOM     72  C   UNL A   1      42.256  21.447  28.121  1.00  0.00     0.020 A 
ATOM     73  C   UNL A   1      42.751  22.328  25.911  1.00  0.00     0.020 A 
ATOM     74  C   UNL A   1      42.436  21.256  26.748  1.00  0.00     0.054 A 
BRANCH  74  75
ATOM     75  S   UNL A   1      42.200  19.594  26.058  1.00  0.00     0.124 S 
ATOM     76  O   UNL A   1      40.779  19.603  25.725  1.00  0.00    -0.237 OA
ATOM     77  O   UNL A   1      43.118  19.589  24.921  1.00  0.00    -0.237 OA
ATOM     78  O   UNL A   1      42.581  18.711  27.159  1.00  0.00    -0.744 OA
ENDBRANCH  74  75
ENDBRANCH  46  69
BRANCH  58  79
ATOM     79  C   UNL A   1      48.056  27.449  30.476  1.00  0.00    -0.014 A 
ATOM     80  C   UNL A   1      48.481  26.806  31.652  1.00  0.00     0.010 A 
ATOM     81  C   UNL A   1      48.998  27.730  29.469  1.00  0.00     0.010 A 
ATOM     82  C   UNL A   1      49.826  26.469  31.827  1.00  0.00     0.020 A 
ATOM     83  C   UNL A   1      50.340  27.374  29.630  1.00  0.00     0.020 A 
ATOM     84  C   UNL A   1      50.747  26.755  30.814  1.00  0.00     0.054 A 
BRANCH  84  85
ATOM     85  S   UNL A   1      52.477  26.259  31.041  1.00  0.00     0.124 S 
ATOM     86  O   UNL A   1      52.343  25.038  31.829  1.00  0.00    -0.237 OA
ATOM     87  O   UNL A   1      52.942  26.074  29.668  1.00  0.00    -0.237 OA
ATOM     88  O   UNL A   1      53.073  27.394  31.745  1.00  0.00    -0.744 OA
ENDBRANCH  84  85
ENDBRANCH  58  79
ENDBRANCH  32  33
ENDBRANCH  24  27
ENDBRANCH  22  23
ENDBRANCH  21  22
ENDBRANCH   1  21
TORSDOF 18
ENDMDL
MODEL 2
REMARK VINA RESULT:      -9.9      2.777      9.326
REMARK SMILES C=C(C)CN(CC)c1ccc(F)cc1C(=O)NCCCCNC(=O)c1ccc(-c2c3nc(c(-c4ccc(S(=O)(=O)[O-])cc4)c4ccc([nH]4)c(-c4ccc(S(=O)(=O)[O-])cc4)c4nc(c(-c5ccc(S(=O)(=O)[O-])cc5)c5ccc2[nH]5)C=C4)C=C3)cc1
REMARK SMILES IDX 19 1 18 2 17 3 15 4 16 5 14 7 8 8 9 9 10 10 13 11 11 12
REMARK SMILES IDX 12 13 5 14 4 15 2 16 1 17 3 18 6 19 7 20 20 21 21 22 22 23
REMARK SMILES IDX 23 24 24 26 25 27 26 28 84 29 27 30 83 31 28 32 29 33 30 34
REMARK SMILES IDX 77 35 31 36 82 37 76 38 78 39 32 40 81 41 75 42 74 43 33 45
REMARK SMILES IDX 63 46 44 47 62 48 45 49 48 50 61 51 79 52 46 53 47 54 60 56
REMARK SMILES IDX 80 57 49 58 34 59 35 60 43 61 36 62 42 63 37 64 38 65 39 66
REMARK SMILES IDX 40 67 41 68 64 69 65 70 73 71 66 72 72 73 67 74 68 75 69 76
REMARK SMILES IDX 70 77 71 78 50 79 51 80 59 81 52 82 58 83 53 84 54 85 55 86
REMARK SMILES IDX 56 87 57 88
REMARK H PARENT 17 6 22 25 78 44 48 55
REMARK Flexibility Score: inf
ROOT
ATOM      1  C   UNL A   1      35.031  22.935  23.412  1.00  0.00     0.023 C 
ENDROOT
BRANCH   1   2
ATOM      2  C   UNL A   1      34.505  24.282  23.890  1.00  0.00     0.116 C 
BRANCH   2   3
ATOM      3  N   UNL A   1      34.152  25.228  22.869  1.00  0.00    -0.352 N 
ATOM      4  C   UNL A   1      33.507  26.435  23.012  1.00  0.00     0.253 C 
ATOM      5  O   UNL A   1      33.375  27.128  21.999  1.00  0.00    -0.269 OA
ATOM      6  H   UNL A   1      34.403  24.982  21.950  1.00  0.00     0.163 HD
BRANCH   4   7
ATOM      7  C   UNL A   1      32.873  26.919  24.282  1.00  0.00     0.066 A 
ATOM      8  C   UNL A   1      31.520  26.797  24.695  1.00  0.00     0.050 A 
ATOM      9  C   UNL A   1      31.201  27.217  26.010  1.00  0.00     0.030 A 
ATOM     10  C   UNL A   1      32.151  27.749  26.881  1.00  0.00     0.041 A 
ATOM     11  C   UNL A   1      33.827  27.443  25.188  1.00  0.00     0.055 A 
ATOM     12  C   UNL A   1      33.461  27.853  26.459  1.00  0.00     0.124 A 
ATOM     13  F   UNL A   1      34.387  28.334  27.300  1.00  0.00    -0.207 F 
BRANCH   8  14
ATOM     14  N   UNL A   1      30.497  26.226  23.939  1.00  0.00    -0.367 N 
BRANCH  14  15
ATOM     15  C   UNL A   1      29.130  26.772  24.039  1.00  0.00     0.146 C 
BRANCH  15  16
ATOM     16  C   UNL A   1      28.843  27.991  23.199  1.00  0.00    -0.061 C 
ATOM     17  C   UNL A   1      27.609  28.476  22.990  1.00  0.00     0.009 C 
ATOM     18  C   UNL A   1      30.044  28.575  22.503  1.00  0.00     0.041 C 
ENDBRANCH  15  16
ENDBRANCH  14  15
BRANCH  14  19
ATOM     19  C   UNL A   1      30.664  24.847  23.461  1.00  0.00     0.113 C 
ATOM     20  C   UNL A   1      30.820  23.828  24.580  1.00  0.00     0.027 C 
ENDBRANCH  14  19
ENDBRANCH   8  14
ENDBRANCH   4   7
ENDBRANCH   2   3
ENDBRANCH   1   2
BRANCH   1  21
ATOM     21  C   UNL A   1      36.529  22.691  23.618  1.00  0.00     0.023 C 
BRANCH  21  22
ATOM     22  C   UNL A   1      37.151  23.208  24.917  1.00  0.00     0.116 C 
BRANCH  22  23
ATOM     23  N   UNL A   1      38.236  22.390  25.440  1.00  0.00    -0.352 N 
ATOM     24  C   UNL A   1      39.294  22.712  26.262  1.00  0.00     0.251 C 
ATOM     25  H   UNL A   1      38.210  21.447  25.158  1.00  0.00     0.163 HD
ATOM     26  O   UNL A   1      40.127  21.851  26.537  1.00  0.00    -0.269 OA
BRANCH  24  27
ATOM     27  C   UNL A   1      39.471  24.093  26.769  1.00  0.00     0.039 A 
ATOM     28  C   UNL A   1      39.001  24.398  28.050  1.00  0.00     0.014 A 
ATOM     29  C   UNL A   1      40.108  25.078  26.015  1.00  0.00     0.014 A 
ATOM     30  C   UNL A   1      39.284  25.643  28.620  1.00  0.00     0.010 A 
ATOM     31  C   UNL A   1      40.461  26.290  26.611  1.00  0.00     0.010 A 
ATOM     32  C   UNL A   1      40.080  26.574  27.930  1.00  0.00    -0.014 A 
BRANCH  32  33
ATOM     33  C   UNL A   1      40.590  27.803  28.598  1.00  0.00     0.031 A 
ATOM     34  C   UNL A   1      41.974  27.849  29.184  1.00  0.00     0.074 A 
ATOM     35  C   UNL A   1      39.761  28.855  28.762  1.00  0.00     0.049 A 
ATOM     36  N   UNL A   1      42.542  28.802  29.880  1.00  0.00    -0.248 NA
ATOM     37  C   UNL A   1      42.822  26.664  28.982  1.00  0.00     0.031 C 
ATOM     38  C   UNL A   1      38.377  28.929  28.284  1.00  0.00     0.029 A 
ATOM     39  N   UNL A   1      39.956  30.063  29.387  1.00  0.00    -0.354 N 
ATOM     40  C   UNL A   1      43.804  28.327  30.216  1.00  0.00     0.074 A 
ATOM     41  C   UNL A   1      43.904  26.986  29.679  1.00  0.00     0.031 C 
ATOM     42  C   UNL A   1      37.858  30.121  28.614  1.00  0.00     0.029 A 
ATOM     43  C   UNL A   1      38.849  30.882  29.366  1.00  0.00     0.049 A 
ATOM     44  H   UNL A   1      40.806  30.319  29.812  1.00  0.00     0.167 HD
ATOM     45  C   UNL A   1      44.795  28.952  30.897  1.00  0.00     0.031 A 
ATOM     46  C   UNL A   1      38.645  32.101  29.901  1.00  0.00     0.031 A 
ATOM     47  C   UNL A   1      44.700  30.288  31.426  1.00  0.00     0.049 A 
ATOM     48  C   UNL A   1      39.753  32.769  30.665  1.00  0.00     0.074 A 
ATOM     49  C   UNL A   1      45.675  31.027  32.075  1.00  0.00     0.029 A 
ATOM     50  N   UNL A   1      43.567  31.086  31.372  1.00  0.00    -0.354 N 
ATOM     51  N   UNL A   1      40.963  32.327  30.913  1.00  0.00    -0.248 NA
ATOM     52  C   UNL A   1      39.471  34.102  31.216  1.00  0.00     0.031 C 
ATOM     53  C   UNL A   1      45.117  32.251  32.457  1.00  0.00     0.029 A 
ATOM     54  C   UNL A   1      43.810  32.297  32.000  1.00  0.00     0.049 A 
ATOM     55  H   UNL A   1      42.716  30.828  30.951  1.00  0.00     0.167 HD
ATOM     56  C   UNL A   1      41.593  33.337  31.631  1.00  0.00     0.074 A 
ATOM     57  C   UNL A   1      40.636  34.417  31.765  1.00  0.00     0.031 C 
ATOM     58  C   UNL A   1      42.852  33.364  32.133  1.00  0.00     0.031 A 
BRANCH  45  59
ATOM     59  C   UNL A   1      46.074  28.189  31.119  1.00  0.00    -0.014 A 
ATOM     60  C   UNL A   1      46.249  27.384  32.259  1.00  0.00     0.010 A 
ATOM     61  C   UNL A   1      47.098  28.244  30.156  1.00  0.00     0.010 A 
ATOM     62  C   UNL A   1      47.442  26.684  32.455  1.00  0.00     0.020 A 
ATOM     63  C   UNL A   1      48.283  27.524  30.335  1.00  0.00     0.020 A 
ATOM     64  C   UNL A   1      48.455  26.763  31.494  1.00  0.00     0.054 A 
BRANCH  64  65
ATOM     65  S   UNL A   1      49.989  25.836  31.768  1.00  0.00     0.124 S 
ATOM     66  O   UNL A   1      49.578  24.873  32.788  1.00  0.00    -0.237 OA
ATOM     67  O   UNL A   1      50.265  25.272  30.449  1.00  0.00    -0.237 OA
ATOM     68  O   UNL A   1      50.935  26.855  32.218  1.00  0.00    -0.744 OA
ENDBRANCH  64  65
ENDBRANCH  45  59
BRANCH  46  69
ATOM     69  C   UNL A   1      37.328  32.773  29.726  1.00  0.00    -0.014 A 
ATOM     70  C   UNL A   1      36.380  32.760  30.764  1.00  0.00     0.010 A 
ATOM     71  C   UNL A   1      37.025  33.448  28.529  1.00  0.00     0.010 A 
ATOM     72  C   UNL A   1      35.148  33.400  30.605  1.00  0.00     0.020 A 
ATOM     73  C   UNL A   1      35.803  34.110  28.376  1.00  0.00     0.020 A 
ATOM     74  C   UNL A   1      34.869  34.074  29.413  1.00  0.00     0.054 A 
BRANCH  74  75
ATOM     75  S   UNL A   1      33.289  34.953  29.254  1.00  0.00     0.124 S 
ATOM     76  O   UNL A   1      32.603  34.161  28.238  1.00  0.00    -0.237 OA
ATOM     77  O   UNL A   1      32.740  34.865  30.604  1.00  0.00    -0.237 OA
ATOM     78  O   UNL A   1      33.688  36.297  28.838  1.00  0.00    -0.744 OA
ENDBRANCH  74  75
ENDBRANCH  46  69
BRANCH  58  79
ATOM     79  C   UNL A   1      43.284  34.611  32.856  1.00  0.00    -0.014 A 
ATOM     80  C   UNL A   1      43.964  35.642  32.184  1.00  0.00     0.010 A 
ATOM     81  C   UNL A   1      42.953  34.778  34.213  1.00  0.00     0.010 A 
ATOM     82  C   UNL A   1      44.323  36.811  32.862  1.00  0.00     0.020 A 
ATOM     83  C   UNL A   1      43.290  35.955  34.888  1.00  0.00     0.020 A 
ATOM     84  C   UNL A   1      43.983  36.959  34.210  1.00  0.00     0.054 A 
BRANCH  84  85
ATOM     85  S   UNL A   1      44.412  38.507  35.054  1.00  0.00     0.124 S 
ATOM     86  O   UNL A   1      44.194  38.160  36.455  1.00  0.00    -0.237 OA
ATOM     87  O   UNL A   1      45.805  38.710  34.666  1.00  0.00    -0.237 OA
ATOM     88  O   UNL A   1      43.471  39.477  34.497  1.00  0.00    -0.744 OA
ENDBRANCH  84  85
ENDBRANCH  58  79
ENDBRANCH  32  33
ENDBRANCH  24  27
ENDBRANCH  22  23
ENDBRANCH  21  22
ENDBRANCH   1  21
TORSDOF 18
ENDMDL
MODEL 3
REMARK VINA RESULT:      -9.7      3.187      4.412
REMARK SMILES C=C(C)CN(CC)c1ccc(F)cc1C(=O)NCCCCNC(=O)c1ccc(-c2c3nc(c(-c4ccc(S(=O)(=O)[O-])cc4)c4ccc([nH]4)c(-c4ccc(S(=O)(=O)[O-])cc4)c4nc(c(-c5ccc(S(=O)(=O)[O-])cc5)c5ccc2[nH]5)C=C4)C=C3)cc1
REMARK SMILES IDX 19 1 18 2 17 3 15 4 16 5 14 7 8 8 9 9 10 10 13 11 11 12
REMARK SMILES IDX 12 13 5 14 4 15 2 16 1 17 3 18 6 19 7 20 20 21 21 22 22 23
REMARK SMILES IDX 23 24 24 26 25 27 26 28 84 29 27 30 83 31 28 32 29 33 30 34
REMARK SMILES IDX 77 35 31 36 82 37 76 38 78 39 32 40 81 41 75 42 74 43 33 45
REMARK SMILES IDX 63 46 44 47 62 48 45 49 48 50 61 51 79 52 46 53 47 54 60 56
REMARK SMILES IDX 80 57 49 58 34 59 35 60 43 61 36 62 42 63 37 64 38 65 39 66
REMARK SMILES IDX 40 67 41 68 64 69 65 70 73 71 66 72 72 73 67 74 68 75 69 76
REMARK SMILES IDX 70 77 71 78 50 79 51 80 59 81 52 82 58 83 53 84 54 85 55 86
REMARK SMILES IDX 56 87 57 88
REMARK H PARENT 17 6 22 25 78 44 48 55
REMARK Flexibility Score: inf
ROOT
ATOM      1  C   UNL A   1      35.185  29.481  27.267  1.00  0.00     0.023 C 
ENDROOT
BRANCH   1   2
ATOM      2  C   UNL A   1      34.091  28.702  26.548  1.00  0.00     0.116 C 
BRANCH   2   3
ATOM      3  N   UNL A   1      32.919  28.390  27.317  1.00  0.00    -0.352 N 
ATOM      4  C   UNL A   1      31.727  27.863  26.878  1.00  0.00     0.253 C 
ATOM      5  O   UNL A   1      30.876  27.600  27.732  1.00  0.00    -0.269 OA
ATOM      6  H   UNL A   1      32.977  28.575  28.282  1.00  0.00     0.163 HD
BRANCH   4   7
ATOM      7  C   UNL A   1      31.355  27.679  25.436  1.00  0.00     0.066 A 
ATOM      8  C   UNL A   1      31.184  26.466  24.717  1.00  0.00     0.050 A 
ATOM      9  C   UNL A   1      30.690  26.559  23.392  1.00  0.00     0.030 A 
ATOM     10  C   UNL A   1      30.391  27.778  22.785  1.00  0.00     0.041 A 
ATOM     11  C   UNL A   1      31.026  28.905  24.810  1.00  0.00     0.055 A 
ATOM     12  C   UNL A   1      30.560  28.943  23.505  1.00  0.00     0.124 A 
ATOM     13  F   UNL A   1      30.245  30.117  22.942  1.00  0.00    -0.207 F 
BRANCH   8  14
ATOM     14  N   UNL A   1      31.390  25.188  25.237  1.00  0.00    -0.367 N 
BRANCH  14  15
ATOM     15  C   UNL A   1      32.266  24.245  24.515  1.00  0.00     0.146 C 
BRANCH  15  16
ATOM     16  C   UNL A   1      33.747  24.509  24.619  1.00  0.00    -0.061 C 
ATOM     17  C   UNL A   1      34.327  25.080  25.687  1.00  0.00     0.009 C 
ATOM     18  C   UNL A   1      34.535  24.189  23.376  1.00  0.00     0.041 C 
ENDBRANCH  15  16
ENDBRANCH  14  15
BRANCH  14  19
ATOM     19  C   UNL A   1      30.396  24.642  26.170  1.00  0.00     0.113 C 
ATOM     20  C   UNL A   1      30.720  23.236  26.654  1.00  0.00     0.027 C 
ENDBRANCH  14  19
ENDBRANCH   8  14
ENDBRANCH   4   7
ENDBRANCH   2   3
ENDBRANCH   1   2
BRANCH   1  21
ATOM     21  C   UNL A   1      34.854  30.937  27.610  1.00  0.00     0.023 C 
BRANCH  21  22
ATOM     22  C   UNL A   1      35.640  31.583  28.753  1.00  0.00     0.116 C 
BRANCH  22  23
ATOM     23  N   UNL A   1      35.571  30.866  30.019  1.00  0.00    -0.352 N 
ATOM     24  C   UNL A   1      36.549  30.227  30.749  1.00  0.00     0.251 C 
ATOM     25  H   UNL A   1      34.674  30.832  30.422  1.00  0.00     0.163 HD
ATOM     26  O   UNL A   1      36.242  29.639  31.784  1.00  0.00    -0.269 OA
BRANCH  24  27
ATOM     27  C   UNL A   1      37.952  30.190  30.273  1.00  0.00     0.039 A 
ATOM     28  C   UNL A   1      38.978  30.171  31.223  1.00  0.00     0.014 A 
ATOM     29  C   UNL A   1      38.268  30.153  28.915  1.00  0.00     0.014 A 
ATOM     30  C   UNL A   1      40.303  29.983  30.816  1.00  0.00     0.010 A 
ATOM     31  C   UNL A   1      39.577  29.885  28.513  1.00  0.00     0.010 A 
ATOM     32  C   UNL A   1      40.605  29.766  29.461  1.00  0.00    -0.014 A 
BRANCH  32  33
ATOM     33  C   UNL A   1      41.962  29.335  29.029  1.00  0.00     0.031 A 
ATOM     34  C   UNL A   1      43.091  30.323  28.920  1.00  0.00     0.074 A 
ATOM     35  C   UNL A   1      42.155  28.057  28.639  1.00  0.00     0.049 A 
ATOM     36  N   UNL A   1      44.307  30.138  28.472  1.00  0.00    -0.248 NA
ATOM     37  C   UNL A   1      42.812  31.702  29.348  1.00  0.00     0.031 C 
ATOM     38  C   UNL A   1      41.136  27.004  28.649  1.00  0.00     0.029 A 
ATOM     39  N   UNL A   1      43.272  27.427  28.146  1.00  0.00    -0.354 N 
ATOM     40  C   UNL A   1      44.933  31.376  28.545  1.00  0.00     0.074 A 
ATOM     41  C   UNL A   1      43.949  32.313  29.046  1.00  0.00     0.031 C 
ATOM     42  C   UNL A   1      41.678  25.859  28.206  1.00  0.00     0.029 A 
ATOM     43  C   UNL A   1      43.068  26.102  27.835  1.00  0.00     0.049 A 
ATOM     44  H   UNL A   1      44.137  27.881  28.024  1.00  0.00     0.167 HD
ATOM     45  C   UNL A   1      46.212  31.703  28.237  1.00  0.00     0.031 A 
ATOM     46  C   UNL A   1      43.896  25.185  27.299  1.00  0.00     0.031 A 
ATOM     47  C   UNL A   1      47.193  30.771  27.746  1.00  0.00     0.049 A 
ATOM     48  C   UNL A   1      45.305  25.574  26.951  1.00  0.00     0.074 A 
ATOM     49  C   UNL A   1      48.530  30.999  27.467  1.00  0.00     0.029 A 
ATOM     50  N   UNL A   1      46.948  29.438  27.457  1.00  0.00    -0.354 N 
ATOM     51  N   UNL A   1      45.895  26.737  27.092  1.00  0.00    -0.248 NA
ATOM     52  C   UNL A   1      46.162  24.526  26.379  1.00  0.00     0.031 C 
ATOM     53  C   UNL A   1      49.081  29.816  26.962  1.00  0.00     0.029 A 
ATOM     54  C   UNL A   1      48.101  28.838  26.977  1.00  0.00     0.049 A 
ATOM     55  H   UNL A   1      46.082  28.985  27.574  1.00  0.00     0.167 HD
ATOM     56  C   UNL A   1      47.199  26.555  26.645  1.00  0.00     0.074 A 
ATOM     57  C   UNL A   1      47.315  25.167  26.243  1.00  0.00     0.031 C 
ATOM     58  C   UNL A   1      48.207  27.458  26.575  1.00  0.00     0.031 A 
BRANCH  45  59
ATOM     59  C   UNL A   1      46.622  33.141  28.415  1.00  0.00    -0.014 A 
ATOM     60  C   UNL A   1      47.247  33.575  29.599  1.00  0.00     0.010 A 
ATOM     61  C   UNL A   1      46.418  34.062  27.372  1.00  0.00     0.010 A 
ATOM     62  C   UNL A   1      47.618  34.913  29.753  1.00  0.00     0.020 A 
ATOM     63  C   UNL A   1      46.813  35.396  27.513  1.00  0.00     0.020 A 
ATOM     64  C   UNL A   1      47.394  35.817  28.711  1.00  0.00     0.054 A 
BRANCH  64  65
ATOM     65  S   UNL A   1      47.896  37.545  28.934  1.00  0.00     0.124 S 
ATOM     66  O   UNL A   1      47.147  38.214  27.872  1.00  0.00    -0.237 OA
ATOM     67  O   UNL A   1      47.450  37.837  30.294  1.00  0.00    -0.237 OA
ATOM     68  O   UNL A   1      49.345  37.512  28.750  1.00  0.00    -0.744 OA
ENDBRANCH  64  65
ENDBRANCH  45  59
BRANCH  46  69
ATOM     69  C   UNL A   1      43.408  23.798  27.061  1.00  0.00    -0.014 A 
ATOM     70  C   UNL A   1      43.274  22.900  28.133  1.00  0.00     0.010 A 
ATOM     71  C   UNL A   1      43.057  23.378  25.765  1.00  0.00     0.010 A 
ATOM     72  C   UNL A   1      42.806  21.600  27.913  1.00  0.00     0.020 A 
ATOM     73  C   UNL A   1      42.565  22.088  25.545  1.00  0.00     0.020 A 
ATOM     74  C   UNL A   1      42.451  21.205  26.620  1.00  0.00     0.054 A 
BRANCH  74  75
ATOM     75  S   UNL A   1      41.786  19.536  26.368  1.00  0.00     0.124 S 
ATOM     76  O   UNL A   1      42.208  18.853  27.587  1.00  0.00    -0.237 OA
ATOM     77  O   UNL A   1      40.351  19.781  26.243  1.00  0.00    -0.237 OA
ATOM     78  O   UNL A   1      42.442  19.090  25.140  1.00  0.00    -0.744 OA
ENDBRANCH  74  75
ENDBRANCH  46  69
BRANCH  58  79
ATOM     79  C   UNL A   1      49.538  26.974  26.066  1.00  0.00    -0.014 A 
ATOM     80  C   UNL A   1      49.938  27.209  24.739  1.00  0.00     0.010 A 
ATOM     81  C   UNL A   1      50.425  26.327  26.946  1.00  0.00     0.010 A 
ATOM     82  C   UNL A   1      51.194  26.787  24.294  1.00  0.00     0.020 A 
ATOM     83  C   UNL A   1      51.691  25.924  26.512  1.00  0.00     0.020 A 
ATOM     84  C   UNL A   1      52.063  26.147  25.185  1.00  0.00     0.054 A 
BRANCH  84  85
ATOM     85  S   UNL A   1      53.709  25.658  24.599  1.00  0.00     0.124 S 
ATOM     86  O   UNL A   1      53.704  24.219  24.846  1.00  0.00    -0.237 OA
ATOM     87  O   UNL A   1      53.682  26.055  23.194  1.00  0.00    -0.237 OA
ATOM     88  O   UNL A   1      54.620  26.432  25.440  1.00  0.00    -0.744 OA
ENDBRANCH  84  85
ENDBRANCH  58  79
ENDBRANCH  32  33
ENDBRANCH  24  27
ENDBRANCH  22  23
ENDBRANCH  21  22
ENDBRANCH   1  21
TORSDOF 18
ENDMDL
