MODEL 1
REMARK VINA RESULT:     -10.1      0.000      0.000
REMARK SMILES O=C(CNS(=O)(=O)c1ccc(F)c(F)c1)NCCCCNC(=O)c1ccc(-c2c3nc(c(-c4ccc(S(=O)(=O)[O-])cc4)c4ccc([nH]4)c(-c4ccc(S(=O)(=O)[O-])cc4)c4nc(c(-c5ccc(S(=O)(=O)[O-])cc5)c5ccc2[nH]5)C=C4)C=C3)cc1
REMARK SMILES IDX 18 1 17 2 16 3 1 4 2 5 3 7 4 8 5 10 6 11 7 12 8 13 9 14
REMARK SMILES IDX 15 15 10 16 13 17 11 18 14 19 12 20 19 21 20 22 21 23 22 24
REMARK SMILES IDX 23 26 24 27 25 28 83 29 26 30 82 31 27 32 28 33 29 34 76 35
REMARK SMILES IDX 30 36 81 37 75 38 77 39 31 40 80 41 74 42 73 43 32 45 62 46
REMARK SMILES IDX 43 47 61 48 44 49 47 50 60 51 78 52 45 53 46 54 59 56 79 57
REMARK SMILES IDX 48 58 33 59 34 60 42 61 35 62 41 63 36 64 37 65 38 66 39 67
REMARK SMILES IDX 40 68 63 69 64 70 72 71 65 72 71 73 66 74 67 75 68 76 69 77
REMARK SMILES IDX 70 78 49 79 50 80 58 81 51 82 57 83 52 84 53 85 54 86 55 87
REMARK SMILES IDX 56 88
REMARK H PARENT 16 6 4 9 21 25 77 44 47 55
REMARK Flexibility Score: inf
ROOT
ATOM      1  C   UNL A   1      45.729  22.679  25.494  1.00  0.00     0.023 C 
ENDROOT
BRANCH   1   2
ATOM      2  C   UNL A   1      45.710  21.159  25.354  1.00  0.00     0.116 C 
BRANCH   2   3
ATOM      3  N   UNL A   1      44.415  20.584  25.654  1.00  0.00    -0.355 N 
ATOM      4  O   UNL A   1      44.863  18.506  24.780  1.00  0.00    -0.274 OA
ATOM      5  C   UNL A   1      44.105  19.267  25.373  1.00  0.00     0.235 C 
ATOM      6  H   UNL A   1      43.729  21.152  26.073  1.00  0.00     0.163 HD
BRANCH   5   7
ATOM      7  C   UNL A   1      42.721  18.824  25.834  1.00  0.00     0.198 C 
BRANCH   7   8
ATOM      8  N   UNL A   1      41.698  19.862  25.569  1.00  0.00    -0.202 NA
ATOM      9  H   UNL A   1      40.871  19.397  25.194  1.00  0.00     0.141 HD
BRANCH   8  10
ATOM     10  S   UNL A   1      41.215  20.781  26.900  1.00  0.00     0.241 S 
ATOM     11  O   UNL A   1      40.793  19.869  27.937  1.00  0.00    -0.207 OA
ATOM     12  O   UNL A   1      42.273  21.744  27.105  1.00  0.00    -0.207 OA
BRANCH  10  13
ATOM     13  C   UNL A   1      39.791  21.686  26.364  1.00  0.00     0.085 A 
ATOM     14  C   UNL A   1      38.802  21.106  25.562  1.00  0.00     0.025 A 
ATOM     15  C   UNL A   1      39.670  23.010  26.804  1.00  0.00     0.064 A 
ATOM     16  C   UNL A   1      37.677  21.857  25.208  1.00  0.00     0.044 A 
ATOM     17  C   UNL A   1      38.548  23.744  26.439  1.00  0.00     0.160 A 
ATOM     18  C   UNL A   1      37.556  23.173  25.651  1.00  0.00     0.158 A 
ATOM     19  F   UNL A   1      38.426  25.010  26.864  1.00  0.00    -0.204 F 
ATOM     20  F   UNL A   1      36.469  23.880  25.318  1.00  0.00    -0.204 F 
ENDBRANCH  10  13
ENDBRANCH   8  10
ENDBRANCH   7   8
ENDBRANCH   5   7
ENDBRANCH   2   3
ENDBRANCH   1   2
BRANCH   1  21
ATOM     21  C   UNL A   1      45.662  23.202  26.932  1.00  0.00     0.023 C 
BRANCH  21  22
ATOM     22  C   UNL A   1      44.556  24.214  27.227  1.00  0.00     0.116 C 
BRANCH  22  23
ATOM     23  N   UNL A   1      43.741  24.537  26.068  1.00  0.00    -0.352 N 
ATOM     24  C   UNL A   1      42.706  25.435  25.945  1.00  0.00     0.251 C 
ATOM     25  H   UNL A   1      43.964  24.039  25.248  1.00  0.00     0.163 HD
ATOM     26  O   UNL A   1      42.074  25.487  24.893  1.00  0.00    -0.269 OA
BRANCH  24  27
ATOM     27  C   UNL A   1      42.324  26.311  27.079  1.00  0.00     0.039 A 
ATOM     28  C   UNL A   1      41.379  25.840  27.998  1.00  0.00     0.014 A 
ATOM     29  C   UNL A   1      42.875  27.584  27.240  1.00  0.00     0.014 A 
ATOM     30  C   UNL A   1      41.049  26.612  29.117  1.00  0.00     0.010 A 
ATOM     31  C   UNL A   1      42.588  28.328  28.386  1.00  0.00     0.010 A 
ATOM     32  C   UNL A   1      41.680  27.846  29.341  1.00  0.00    -0.014 A 
BRANCH  32  33
ATOM     33  C   UNL A   1      41.425  28.632  30.578  1.00  0.00     0.031 A 
ATOM     34  C   UNL A   1      40.295  29.624  30.635  1.00  0.00     0.074 A 
ATOM     35  C   UNL A   1      42.259  28.508  31.629  1.00  0.00     0.049 A 
ATOM     36  N   UNL A   1      39.978  30.455  31.594  1.00  0.00    -0.248 NA
ATOM     37  C   UNL A   1      39.422  29.705  29.453  1.00  0.00     0.031 C 
ATOM     38  C   UNL A   1      43.417  27.612  31.692  1.00  0.00     0.029 A 
ATOM     39  N   UNL A   1      42.270  29.148  32.843  1.00  0.00    -0.354 N 
ATOM     40  C   UNL A   1      38.883  31.173  31.127  1.00  0.00     0.074 A 
ATOM     41  C   UNL A   1      38.615  30.703  29.784  1.00  0.00     0.031 C 
ATOM     42  C   UNL A   1      44.015  27.750  32.886  1.00  0.00     0.029 A 
ATOM     43  C   UNL A   1      43.309  28.766  33.660  1.00  0.00     0.049 A 
ATOM     44  H   UNL A   1      41.598  29.818  33.105  1.00  0.00     0.167 HD
ATOM     45  C   UNL A   1      38.157  32.126  31.759  1.00  0.00     0.031 A 
ATOM     46  C   UNL A   1      43.661  29.189  34.889  1.00  0.00     0.031 A 
ATOM     47  C   UNL A   1      38.411  32.588  33.098  1.00  0.00     0.049 A 
ATOM     48  C   UNL A   1      42.838  30.242  35.575  1.00  0.00     0.074 A 
ATOM     49  C   UNL A   1      37.700  33.518  33.839  1.00  0.00     0.029 A 
ATOM     50  N   UNL A   1      39.457  32.155  33.900  1.00  0.00    -0.354 N 
ATOM     51  N   UNL A   1      41.777  30.874  35.132  1.00  0.00    -0.248 NA
ATOM     52  C   UNL A   1      43.251  30.630  36.931  1.00  0.00     0.031 C 
ATOM     53  C   UNL A   1      38.337  33.671  35.075  1.00  0.00     0.029 A 
ATOM     54  C   UNL A   1      39.418  32.807  35.121  1.00  0.00     0.049 A 
ATOM     55  H   UNL A   1      40.127  31.483  33.639  1.00  0.00     0.167 HD
ATOM     56  C   UNL A   1      41.386  31.721  36.163  1.00  0.00     0.074 A 
ATOM     57  C   UNL A   1      42.314  31.510  37.255  1.00  0.00     0.031 C 
ATOM     58  C   UNL A   1      40.348  32.592  36.200  1.00  0.00     0.031 A 
BRANCH  45  59
ATOM     59  C   UNL A   1      37.012  32.739  30.998  1.00  0.00    -0.014 A 
ATOM     60  C   UNL A   1      37.236  33.753  30.050  1.00  0.00     0.010 A 
ATOM     61  C   UNL A   1      35.700  32.281  31.216  1.00  0.00     0.010 A 
ATOM     62  C   UNL A   1      36.163  34.333  29.368  1.00  0.00     0.020 A 
ATOM     63  C   UNL A   1      34.627  32.841  30.517  1.00  0.00     0.020 A 
ATOM     64  C   UNL A   1      34.864  33.879  29.612  1.00  0.00     0.054 A 
BRANCH  64  65
ATOM     65  S   UNL A   1      33.487  34.645  28.713  1.00  0.00     0.124 S 
ATOM     66  O   UNL A   1      34.138  35.798  28.096  1.00  0.00    -0.237 OA
ATOM     67  O   UNL A   1      33.077  33.589  27.790  1.00  0.00    -0.237 OA
ATOM     68  O   UNL A   1      32.522  34.960  29.762  1.00  0.00    -0.744 OA
ENDBRANCH  64  65
ENDBRANCH  45  59
BRANCH  46  69
ATOM     69  C   UNL A   1      44.852  28.600  35.556  1.00  0.00    -0.014 A 
ATOM     70  C   UNL A   1      44.725  27.449  36.352  1.00  0.00     0.010 A 
ATOM     71  C   UNL A   1      46.125  29.174  35.377  1.00  0.00     0.010 A 
ATOM     72  C   UNL A   1      45.847  26.885  36.964  1.00  0.00     0.020 A 
ATOM     73  C   UNL A   1      47.252  28.600  35.970  1.00  0.00     0.020 A 
ATOM     74  C   UNL A   1      47.104  27.463  36.769  1.00  0.00     0.054 A 
BRANCH  74  75
ATOM     75  S   UNL A   1      48.560  26.676  37.515  1.00  0.00     0.124 S 
ATOM     76  O   UNL A   1      47.987  25.462  38.086  1.00  0.00    -0.237 OA
ATOM     77  O   UNL A   1      49.440  26.482  36.366  1.00  0.00    -0.237 OA
ATOM     78  O   UNL A   1      49.023  27.670  38.481  1.00  0.00    -0.744 OA
ENDBRANCH  74  75
ENDBRANCH  46  69
BRANCH  58  79
ATOM     79  C   UNL A   1      40.142  33.367  37.472  1.00  0.00    -0.014 A 
ATOM     80  C   UNL A   1      40.848  34.556  37.720  1.00  0.00     0.010 A 
ATOM     81  C   UNL A   1      39.190  32.925  38.409  1.00  0.00     0.010 A 
ATOM     82  C   UNL A   1      40.627  35.277  38.896  1.00  0.00     0.020 A 
ATOM     83  C   UNL A   1      38.949  33.654  39.576  1.00  0.00     0.020 A 
ATOM     84  C   UNL A   1      39.680  34.820  39.819  1.00  0.00     0.054 A 
BRANCH  84  85
ATOM     85  S   UNL A   1      39.373  35.794  41.318  1.00  0.00     0.124 S 
ATOM     86  O   UNL A   1      38.544  36.882  40.808  1.00  0.00    -0.237 OA
ATOM     87  O   UNL A   1      38.691  34.840  42.190  1.00  0.00    -0.237 OA
ATOM     88  O   UNL A   1      40.711  36.183  41.757  1.00  0.00    -0.744 OA
ENDBRANCH  84  85
ENDBRANCH  58  79
ENDBRANCH  32  33
ENDBRANCH  24  27
ENDBRANCH  22  23
ENDBRANCH  21  22
ENDBRANCH   1  21
TORSDOF 17
ENDMDL
MODEL 2
REMARK VINA RESULT:     -10.0      4.990     10.479
REMARK SMILES O=C(CNS(=O)(=O)c1ccc(F)c(F)c1)NCCCCNC(=O)c1ccc(-c2c3nc(c(-c4ccc(S(=O)(=O)[O-])cc4)c4ccc([nH]4)c(-c4ccc(S(=O)(=O)[O-])cc4)c4nc(c(-c5ccc(S(=O)(=O)[O-])cc5)c5ccc2[nH]5)C=C4)C=C3)cc1
REMARK SMILES IDX 18 1 17 2 16 3 1 4 2 5 3 7 4 8 5 10 6 11 7 12 8 13 9 14
REMARK SMILES IDX 15 15 10 16 13 17 11 18 14 19 12 20 19 21 20 22 21 23 22 24
REMARK SMILES IDX 23 26 24 27 25 28 83 29 26 30 82 31 27 32 28 33 29 34 76 35
REMARK SMILES IDX 30 36 81 37 75 38 77 39 31 40 80 41 74 42 73 43 32 45 62 46
REMARK SMILES IDX 43 47 61 48 44 49 47 50 60 51 78 52 45 53 46 54 59 56 79 57
REMARK SMILES IDX 48 58 33 59 34 60 42 61 35 62 41 63 36 64 37 65 38 66 39 67
REMARK SMILES IDX 40 68 63 69 64 70 72 71 65 72 71 73 66 74 67 75 68 76 69 77
REMARK SMILES IDX 70 78 49 79 50 80 58 81 51 82 57 83 52 84 53 85 54 86 55 87
REMARK SMILES IDX 56 88
REMARK H PARENT 16 6 4 9 21 25 77 44 47 55
REMARK Flexibility Score: inf
ROOT
ATOM      1  C   UNL A   1      31.602  27.657  25.540  1.00  0.00     0.023 C 
ENDROOT
BRANCH   1   2
ATOM      2  C   UNL A   1      31.002  26.612  26.477  1.00  0.00     0.116 C 
BRANCH   2   3
ATOM      3  N   UNL A   1      30.771  25.339  25.825  1.00  0.00    -0.355 N 
ATOM      4  O   UNL A   1      32.227  24.130  27.129  1.00  0.00    -0.274 OA
ATOM      5  C   UNL A   1      31.384  24.172  26.238  1.00  0.00     0.235 C 
ATOM      6  H   UNL A   1      30.154  25.304  25.059  1.00  0.00     0.163 HD
BRANCH   5   7
ATOM      7  C   UNL A   1      30.954  22.922  25.480  1.00  0.00     0.198 C 
BRANCH   7   8
ATOM      8  N   UNL A   1      31.655  21.713  25.975  1.00  0.00    -0.202 NA
ATOM      9  H   UNL A   1      30.966  21.119  26.434  1.00  0.00     0.141 HD
BRANCH   8  10
ATOM     10  S   UNL A   1      32.442  20.784  24.806  1.00  0.00     0.241 S 
ATOM     11  O   UNL A   1      32.153  19.395  25.078  1.00  0.00    -0.207 OA
ATOM     12  O   UNL A   1      32.120  21.404  23.542  1.00  0.00    -0.207 OA
BRANCH  10  13
ATOM     13  C   UNL A   1      34.173  21.039  25.080  1.00  0.00     0.085 A 
ATOM     14  C   UNL A   1      35.116  20.029  24.857  1.00  0.00     0.025 A 
ATOM     15  C   UNL A   1      34.574  22.313  25.500  1.00  0.00     0.064 A 
ATOM     16  C   UNL A   1      36.474  20.304  25.046  1.00  0.00     0.044 A 
ATOM     17  C   UNL A   1      35.927  22.568  25.689  1.00  0.00     0.160 A 
ATOM     18  C   UNL A   1      36.872  21.574  25.460  1.00  0.00     0.158 A 
ATOM     19  F   UNL A   1      36.314  23.788  26.086  1.00  0.00    -0.204 F 
ATOM     20  F   UNL A   1      38.174  21.832  25.627  1.00  0.00    -0.204 F 
ENDBRANCH  10  13
ENDBRANCH   8  10
ENDBRANCH   7   8
ENDBRANCH   5   7
ENDBRANCH   2   3
ENDBRANCH   1   2
BRANCH   1  21
ATOM     21  C   UNL A   1      33.065  28.019  25.819  1.00  0.00     0.023 C 
BRANCH  21  22
ATOM     22  C   UNL A   1      33.398  28.398  27.261  1.00  0.00     0.116 C 
BRANCH  22  23
ATOM     23  N   UNL A   1      33.363  29.830  27.508  1.00  0.00    -0.352 N 
ATOM     24  C   UNL A   1      34.337  30.657  28.019  1.00  0.00     0.251 C 
ATOM     25  H   UNL A   1      32.517  30.274  27.274  1.00  0.00     0.163 HD
ATOM     26  O   UNL A   1      34.071  31.834  28.245  1.00  0.00    -0.269 OA
BRANCH  24  27
ATOM     27  C   UNL A   1      35.688  30.132  28.333  1.00  0.00     0.039 A 
ATOM     28  C   UNL A   1      36.651  30.115  27.317  1.00  0.00     0.014 A 
ATOM     29  C   UNL A   1      36.011  29.653  29.604  1.00  0.00     0.014 A 
ATOM     30  C   UNL A   1      37.954  29.691  27.598  1.00  0.00     0.010 A 
ATOM     31  C   UNL A   1      37.326  29.285  29.898  1.00  0.00     0.010 A 
ATOM     32  C   UNL A   1      38.313  29.310  28.901  1.00  0.00    -0.014 A 
BRANCH  32  33
ATOM     33  C   UNL A   1      39.717  28.962  29.246  1.00  0.00     0.031 A 
ATOM     34  C   UNL A   1      40.621  29.978  29.890  1.00  0.00     0.074 A 
ATOM     35  C   UNL A   1      40.205  27.752  28.909  1.00  0.00     0.049 A 
ATOM     36  N   UNL A   1      41.893  29.881  30.181  1.00  0.00    -0.248 NA
ATOM     37  C   UNL A   1      40.021  31.277  30.233  1.00  0.00     0.031 C 
ATOM     38  C   UNL A   1      39.450  26.687  28.245  1.00  0.00     0.029 A 
ATOM     39  N   UNL A   1      41.460  27.217  29.068  1.00  0.00    -0.354 N 
ATOM     40  C   UNL A   1      42.253  31.110  30.722  1.00  0.00     0.074 A 
ATOM     41  C   UNL A   1      41.072  31.947  30.684  1.00  0.00     0.031 C 
ATOM     42  C   UNL A   1      40.251  25.624  28.067  1.00  0.00     0.029 A 
ATOM     43  C   UNL A   1      41.584  25.941  28.570  1.00  0.00     0.049 A 
ATOM     44  H   UNL A   1      42.202  27.701  29.497  1.00  0.00     0.167 HD
ATOM     45  C   UNL A   1      43.450  31.504  31.218  1.00  0.00     0.031 A 
ATOM     46  C   UNL A   1      42.649  25.119  28.514  1.00  0.00     0.031 A 
ATOM     47  C   UNL A   1      44.623  30.673  31.270  1.00  0.00     0.049 A 
ATOM     48  C   UNL A   1      43.967  25.574  29.076  1.00  0.00     0.074 A 
ATOM     49  C   UNL A   1      45.869  30.970  31.797  1.00  0.00     0.029 A 
ATOM     50  N   UNL A   1      44.698  29.377  30.779  1.00  0.00    -0.354 N 
ATOM     51  N   UNL A   1      44.272  26.725  29.626  1.00  0.00    -0.248 NA
ATOM     52  C   UNL A   1      45.079  24.615  29.022  1.00  0.00     0.031 C 
ATOM     53  C   UNL A   1      46.705  29.867  31.594  1.00  0.00     0.029 A 
ATOM     54  C   UNL A   1      45.970  28.868  30.980  1.00  0.00     0.049 A 
ATOM     55  H   UNL A   1      43.955  28.892  30.352  1.00  0.00     0.167 HD
ATOM     56  C   UNL A   1      45.607  26.621  30.000  1.00  0.00     0.074 A 
ATOM     57  C   UNL A   1      46.046  25.291  29.627  1.00  0.00     0.031 C 
ATOM     58  C   UNL A   1      46.396  27.545  30.602  1.00  0.00     0.031 A 
BRANCH  45  59
ATOM     59  C   UNL A   1      43.549  32.911  31.744  1.00  0.00    -0.014 A 
ATOM     60  C   UNL A   1      43.308  33.195  33.099  1.00  0.00     0.010 A 
ATOM     61  C   UNL A   1      43.911  33.960  30.877  1.00  0.00     0.010 A 
ATOM     62  C   UNL A   1      43.378  34.508  33.570  1.00  0.00     0.020 A 
ATOM     63  C   UNL A   1      44.006  35.271  31.351  1.00  0.00     0.020 A 
ATOM     64  C   UNL A   1      43.718  35.539  32.691  1.00  0.00     0.054 A 
BRANCH  64  65
ATOM     65  S   UNL A   1      43.805  37.237  33.326  1.00  0.00     0.124 S 
ATOM     66  O   UNL A   1      42.623  37.297  34.182  1.00  0.00    -0.237 OA
ATOM     67  O   UNL A   1      45.087  37.254  34.027  1.00  0.00    -0.237 OA
ATOM     68  O   UNL A   1      43.746  38.060  32.122  1.00  0.00    -0.744 OA
ENDBRANCH  64  65
ENDBRANCH  45  59
BRANCH  46  69
ATOM     69  C   UNL A   1      42.507  23.769  27.908  1.00  0.00    -0.014 A 
ATOM     70  C   UNL A   1      42.133  22.670  28.702  1.00  0.00     0.010 A 
ATOM     71  C   UNL A   1      42.718  23.581  26.530  1.00  0.00     0.010 A 
ATOM     72  C   UNL A   1      41.981  21.405  28.129  1.00  0.00     0.020 A 
ATOM     73  C   UNL A   1      42.545  22.322  25.951  1.00  0.00     0.020 A 
ATOM     74  C   UNL A   1      42.186  21.238  26.757  1.00  0.00     0.054 A 
BRANCH  74  75
ATOM     75  S   UNL A   1      41.915  19.602  26.019  1.00  0.00     0.124 S 
ATOM     76  O   UNL A   1      42.807  19.640  24.865  1.00  0.00    -0.237 OA
ATOM     77  O   UNL A   1      42.310  18.698  27.096  1.00  0.00    -0.237 OA
ATOM     78  O   UNL A   1      40.486  19.603  25.712  1.00  0.00    -0.744 OA
ENDBRANCH  74  75
ENDBRANCH  46  69
BRANCH  58  79
ATOM     79  C   UNL A   1      47.810  27.143  30.920  1.00  0.00    -0.014 A 
ATOM     80  C   UNL A   1      48.164  26.683  32.200  1.00  0.00     0.010 A 
ATOM     81  C   UNL A   1      48.786  27.178  29.907  1.00  0.00     0.010 A 
ATOM     82  C   UNL A   1      49.477  26.290  32.471  1.00  0.00     0.020 A 
ATOM     83  C   UNL A   1      50.095  26.765  30.168  1.00  0.00     0.020 A 
ATOM     84  C   UNL A   1      50.436  26.336  31.453  1.00  0.00     0.054 A 
BRANCH  84  85
ATOM     85  S   UNL A   1      52.124  25.779  31.812  1.00  0.00     0.124 S 
ATOM     86  O   UNL A   1      51.943  24.337  31.954  1.00  0.00    -0.237 OA
ATOM     87  O   UNL A   1      52.865  26.205  30.627  1.00  0.00    -0.237 OA
ATOM     88  O   UNL A   1      52.469  26.488  33.042  1.00  0.00    -0.744 OA
ENDBRANCH  84  85
ENDBRANCH  58  79
ENDBRANCH  32  33
ENDBRANCH  24  27
ENDBRANCH  22  23
ENDBRANCH  21  22
ENDBRANCH   1  21
TORSDOF 17
ENDMDL
MODEL 3
REMARK VINA RESULT:     -10.0      6.076     13.944
REMARK SMILES O=C(CNS(=O)(=O)c1ccc(F)c(F)c1)NCCCCNC(=O)c1ccc(-c2c3nc(c(-c4ccc(S(=O)(=O)[O-])cc4)c4ccc([nH]4)c(-c4ccc(S(=O)(=O)[O-])cc4)c4nc(c(-c5ccc(S(=O)(=O)[O-])cc5)c5ccc2[nH]5)C=C4)C=C3)cc1
REMARK SMILES IDX 18 1 17 2 16 3 1 4 2 5 3 7 4 8 5 10 6 11 7 12 8 13 9 14
REMARK SMILES IDX 15 15 10 16 13 17 11 18 14 19 12 20 19 21 20 22 21 23 22 24
REMARK SMILES IDX 23 26 24 27 25 28 83 29 26 30 82 31 27 32 28 33 29 34 76 35
REMARK SMILES IDX 30 36 81 37 75 38 77 39 31 40 80 41 74 42 73 43 32 45 62 46
REMARK SMILES IDX 43 47 61 48 44 49 47 50 60 51 78 52 45 53 46 54 59 56 79 57
REMARK SMILES IDX 48 58 33 59 34 60 42 61 35 62 41 63 36 64 37 65 38 66 39 67
REMARK SMILES IDX 40 68 63 69 64 70 72 71 65 72 71 73 66 74 67 75 68 76 69 77
REMARK SMILES IDX 70 78 49 79 50 80 58 81 51 82 57 83 52 84 53 85 54 86 55 87
REMARK SMILES IDX 56 88
REMARK H PARENT 16 6 4 9 21 25 77 44 47 55
REMARK Flexibility Score: inf
ROOT
ATOM      1  C   UNL A   1      36.837  34.067  28.950  1.00  0.00     0.023 C 
ENDROOT
BRANCH   1   2
ATOM      2  C   UNL A   1      35.392  33.794  29.360  1.00  0.00     0.116 C 
BRANCH   2   3
ATOM      3  N   UNL A   1      34.679  34.998  29.740  1.00  0.00    -0.355 N 
ATOM      4  O   UNL A   1      32.760  34.524  28.568  1.00  0.00    -0.274 OA
ATOM      5  C   UNL A   1      33.382  35.250  29.338  1.00  0.00     0.235 C 
ATOM      6  H   UNL A   1      35.136  35.660  30.306  1.00  0.00     0.163 HD
BRANCH   5   7
ATOM      7  C   UNL A   1      32.775  36.529  29.903  1.00  0.00     0.198 C 
BRANCH   7   8
ATOM      8  N   UNL A   1      33.718  37.230  30.805  1.00  0.00    -0.202 NA
ATOM      9  H   UNL A   1      33.671  38.226  30.593  1.00  0.00     0.141 HD
BRANCH   8  10
ATOM     10  S   UNL A   1      33.438  37.040  32.459  1.00  0.00     0.241 S 
ATOM     11  O   UNL A   1      34.131  38.104  33.149  1.00  0.00    -0.207 OA
ATOM     12  O   UNL A   1      32.013  36.839  32.586  1.00  0.00    -0.207 OA
BRANCH  10  13
ATOM     13  C   UNL A   1      34.216  35.513  32.902  1.00  0.00     0.085 A 
ATOM     14  C   UNL A   1      33.497  34.315  32.999  1.00  0.00     0.025 A 
ATOM     15  C   UNL A   1      35.598  35.538  33.123  1.00  0.00     0.064 A 
ATOM     16  C   UNL A   1      34.175  33.131  33.308  1.00  0.00     0.044 A 
ATOM     17  C   UNL A   1      36.255  34.354  33.434  1.00  0.00     0.160 A 
ATOM     18  C   UNL A   1      35.552  33.157  33.522  1.00  0.00     0.158 A 
ATOM     19  F   UNL A   1      37.580  34.373  33.640  1.00  0.00    -0.204 F 
ATOM     20  F   UNL A   1      36.194  32.017  33.805  1.00  0.00    -0.204 F 
ENDBRANCH  10  13
ENDBRANCH   8  10
ENDBRANCH   7   8
ENDBRANCH   5   7
ENDBRANCH   2   3
ENDBRANCH   1   2
BRANCH   1  21
ATOM     21  C   UNL A   1      37.768  32.851  28.997  1.00  0.00     0.023 C 
BRANCH  21  22
ATOM     22  C   UNL A   1      37.403  31.766  30.011  1.00  0.00     0.116 C 
BRANCH  22  23
ATOM     23  N   UNL A   1      36.540  30.731  29.467  1.00  0.00    -0.352 N 
ATOM     24  C   UNL A   1      36.867  29.604  28.748  1.00  0.00     0.251 C 
ATOM     25  H   UNL A   1      35.579  30.855  29.638  1.00  0.00     0.163 HD
ATOM     26  O   UNL A   1      35.971  28.901  28.289  1.00  0.00    -0.269 OA
BRANCH  24  27
ATOM     27  C   UNL A   1      38.285  29.252  28.494  1.00  0.00     0.039 A 
ATOM     28  C   UNL A   1      38.789  29.404  27.197  1.00  0.00     0.014 A 
ATOM     29  C   UNL A   1      39.115  28.770  29.508  1.00  0.00     0.014 A 
ATOM     30  C   UNL A   1      40.139  29.148  26.938  1.00  0.00     0.010 A 
ATOM     31  C   UNL A   1      40.474  28.570  29.262  1.00  0.00     0.010 A 
ATOM     32  C   UNL A   1      41.002  28.766  27.977  1.00  0.00    -0.014 A 
BRANCH  32  33
ATOM     33  C   UNL A   1      42.462  28.596  27.746  1.00  0.00     0.031 A 
ATOM     34  C   UNL A   1      43.410  29.744  27.961  1.00  0.00     0.074 A 
ATOM     35  C   UNL A   1      42.929  27.425  27.269  1.00  0.00     0.049 A 
ATOM     36  N   UNL A   1      44.696  29.806  27.729  1.00  0.00    -0.248 NA
ATOM     37  C   UNL A   1      42.832  30.992  28.486  1.00  0.00     0.031 C 
ATOM     38  C   UNL A   1      42.114  26.242  26.979  1.00  0.00     0.029 A 
ATOM     39  N   UNL A   1      44.202  27.041  26.931  1.00  0.00    -0.354 N 
ATOM     40  C   UNL A   1      45.080  31.100  28.058  1.00  0.00     0.074 A 
ATOM     41  C   UNL A   1      43.883  31.801  28.472  1.00  0.00     0.031 C 
ATOM     42  C   UNL A   1      42.909  25.262  26.521  1.00  0.00     0.029 A 
ATOM     43  C   UNL A   1      44.282  25.754  26.450  1.00  0.00     0.049 A 
ATOM     44  H   UNL A   1      44.985  27.630  27.022  1.00  0.00     0.167 HD
ATOM     45  C   UNL A   1      46.317  31.653  28.033  1.00  0.00     0.031 A 
ATOM     46  C   UNL A   1      45.335  25.050  25.995  1.00  0.00     0.031 A 
ATOM     47  C   UNL A   1      47.511  30.958  27.635  1.00  0.00     0.049 A 
ATOM     48  C   UNL A   1      46.699  25.681  25.982  1.00  0.00     0.074 A 
ATOM     49  C   UNL A   1      48.816  31.423  27.621  1.00  0.00     0.029 A 
ATOM     50  N   UNL A   1      47.551  29.648  27.181  1.00  0.00    -0.354 N 
ATOM     51  N   UNL A   1      47.047  26.893  26.343  1.00  0.00    -0.248 NA
ATOM     52  C   UNL A   1      47.814  24.846  25.512  1.00  0.00     0.031 C 
ATOM     53  C   UNL A   1      49.639  30.405  27.127  1.00  0.00     0.029 A 
ATOM     54  C   UNL A   1      48.854  29.293  26.873  1.00  0.00     0.049 A 
ATOM     55  H   UNL A   1      46.768  29.058  27.091  1.00  0.00     0.167 HD
ATOM     56  C   UNL A   1      48.424  26.959  26.162  1.00  0.00     0.074 A 
ATOM     57  C   UNL A   1      48.846  25.662  25.673  1.00  0.00     0.031 C 
ATOM     58  C   UNL A   1      49.262  28.001  26.385  1.00  0.00     0.031 A 
BRANCH  45  59
ATOM     59  C   UNL A   1      46.435  33.095  28.448  1.00  0.00    -0.014 A 
ATOM     60  C   UNL A   1      46.672  33.444  29.789  1.00  0.00     0.010 A 
ATOM     61  C   UNL A   1      46.331  34.114  27.483  1.00  0.00     0.010 A 
ATOM     62  C   UNL A   1      46.754  34.787  30.167  1.00  0.00     0.020 A 
ATOM     63  C   UNL A   1      46.438  35.457  27.853  1.00  0.00     0.020 A 
ATOM     64  C   UNL A   1      46.628  35.785  29.198  1.00  0.00     0.054 A 
BRANCH  64  65
ATOM     65  S   UNL A   1      46.741  37.521  29.712  1.00  0.00     0.124 S 
ATOM     66  O   UNL A   1      47.931  37.969  28.995  1.00  0.00    -0.237 OA
ATOM     67  O   UNL A   1      45.476  38.081  29.238  1.00  0.00    -0.237 OA
ATOM     68  O   UNL A   1      46.878  37.444  31.164  1.00  0.00    -0.744 OA
ENDBRANCH  64  65
ENDBRANCH  45  59
BRANCH  46  69
ATOM     69  C   UNL A   1      45.139  23.654  25.523  1.00  0.00    -0.014 A 
ATOM     70  C   UNL A   1      44.858  23.394  24.170  1.00  0.00     0.010 A 
ATOM     71  C   UNL A   1      45.259  22.576  26.419  1.00  0.00     0.010 A 
ATOM     72  C   UNL A   1      44.693  22.081  23.723  1.00  0.00     0.020 A 
ATOM     73  C   UNL A   1      45.116  21.261  25.970  1.00  0.00     0.020 A 
ATOM     74  C   UNL A   1      44.823  21.022  24.625  1.00  0.00     0.054 A 
BRANCH  74  75
ATOM     75  S   UNL A   1      44.674  19.320  24.012  1.00  0.00     0.124 S 
ATOM     76  O   UNL A   1      44.467  19.531  22.584  1.00  0.00    -0.237 OA
ATOM     77  O   UNL A   1      45.958  18.733  24.387  1.00  0.00    -0.237 OA
ATOM     78  O   UNL A   1      43.523  18.796  24.745  1.00  0.00    -0.744 OA
ENDBRANCH  74  75
ENDBRANCH  46  69
BRANCH  58  79
ATOM     79  C   UNL A   1      50.727  27.776  26.126  1.00  0.00    -0.014 A 
ATOM     80  C   UNL A   1      51.574  27.281  27.133  1.00  0.00     0.010 A 
ATOM     81  C   UNL A   1      51.251  28.015  24.843  1.00  0.00     0.010 A 
ATOM     82  C   UNL A   1      52.927  27.054  26.868  1.00  0.00     0.020 A 
ATOM     83  C   UNL A   1      52.598  27.769  24.568  1.00  0.00     0.020 A 
ATOM     84  C   UNL A   1      53.432  27.303  25.587  1.00  0.00     0.054 A 
BRANCH  84  85
ATOM     85  S   UNL A   1      55.181  26.959  25.252  1.00  0.00     0.124 S 
ATOM     86  O   UNL A   1      55.124  25.603  24.713  1.00  0.00    -0.237 OA
ATOM     87  O   UNL A   1      55.537  28.001  24.291  1.00  0.00    -0.237 OA
ATOM     88  O   UNL A   1      55.816  27.084  26.561  1.00  0.00    -0.744 OA
ENDBRANCH  84  85
ENDBRANCH  58  79
ENDBRANCH  32  33
ENDBRANCH  24  27
ENDBRANCH  22  23
ENDBRANCH  21  22
ENDBRANCH   1  21
TORSDOF 17
ENDMDL
