MODEL 1
REMARK VINA RESULT:     -12.5      0.000      0.000
REMARK SMILES O=C(NCCCCNC(=O)[C@H]1Cc2[nH]cnc2CN1S(=O)(=O)c1cccs1)c1ccc(-c2c3nc(c(-c4ccc(S(=O)(=O)[O-])cc4)c4ccc([nH]4)c(-c4ccc(S(=O)(=O)[O-])cc4)c4nc(c(-c5ccc(S(=O)(=O)[O-])cc5)c5ccc2[nH]5)C=C4)C=C3)cc1
REMARK SMILES IDX 5 1 4 2 3 3 1 4 2 5 28 7 29 8 87 9 30 10 86 11 31 12 32 13
REMARK SMILES IDX 33 14 80 15 34 16 85 17 79 18 81 19 35 20 84 21 78 22 77 23
REMARK SMILES IDX 36 25 66 26 47 27 65 28 48 29 51 30 64 31 82 32 49 33 50 34
REMARK SMILES IDX 63 36 83 37 52 38 37 39 38 40 46 41 39 42 45 43 40 44 41 45
REMARK SMILES IDX 42 46 43 47 44 48 67 49 68 50 76 51 69 52 75 53 70 54 71 55
REMARK SMILES IDX 72 56 73 57 74 58 53 59 54 60 62 61 55 62 61 63 56 64 57 65
REMARK SMILES IDX 58 66 59 67 60 68 6 69 7 70 8 71 9 72 10 74 11 75 12 76
REMARK SMILES IDX 19 77 13 78 18 79 14 80 17 81 15 82 16 84 20 85 21 86 22 87
REMARK SMILES IDX 23 88 24 89 27 90 25 91 26 92
REMARK H PARENT 3 6 81 24 51 35 8 73 14 83
REMARK Flexibility Score: inf
ROOT
ATOM      1  C   UNL A   1      36.203  21.698  24.425  1.00  0.00     0.023 C 
ENDROOT
BRANCH   1   2
ATOM      2  C   UNL A   1      37.144  22.223  25.500  1.00  0.00     0.116 C 
BRANCH   2   3
ATOM      3  N   UNL A   1      38.525  21.805  25.415  1.00  0.00    -0.352 N 
ATOM      4  O   UNL A   1      40.469  21.172  26.310  1.00  0.00    -0.269 OA
ATOM      5  C   UNL A   1      39.577  22.020  26.266  1.00  0.00     0.251 C 
ATOM      6  H   UNL A   1      38.745  21.277  24.613  1.00  0.00     0.163 HD
BRANCH   5   7
ATOM      7  C   UNL A   1      39.764  23.302  26.985  1.00  0.00     0.039 A 
ATOM      8  C   UNL A   1      38.948  24.425  26.860  1.00  0.00     0.014 A 
ATOM      9  C   UNL A   1      40.907  23.366  27.801  1.00  0.00     0.014 A 
ATOM     10  C   UNL A   1      39.334  25.627  27.438  1.00  0.00     0.010 A 
ATOM     11  C   UNL A   1      41.286  24.559  28.395  1.00  0.00     0.010 A 
ATOM     12  C   UNL A   1      40.521  25.700  28.172  1.00  0.00    -0.014 A 
BRANCH  12  13
ATOM     13  C   UNL A   1      40.837  26.956  28.844  1.00  0.00     0.031 A 
ATOM     14  C   UNL A   1      42.026  27.662  28.286  1.00  0.00     0.074 A 
ATOM     15  C   UNL A   1      40.048  27.519  29.780  1.00  0.00     0.049 A 
ATOM     16  N   UNL A   1      43.127  27.979  28.884  1.00  0.00    -0.248 NA
ATOM     17  C   UNL A   1      42.028  27.942  26.838  1.00  0.00     0.031 C 
ATOM     18  C   UNL A   1      38.715  27.091  30.212  1.00  0.00     0.029 A 
ATOM     19  N   UNL A   1      40.230  28.683  30.465  1.00  0.00    -0.354 N 
ATOM     20  C   UNL A   1      43.890  28.665  27.942  1.00  0.00     0.074 A 
ATOM     21  C   UNL A   1      43.234  28.482  26.672  1.00  0.00     0.031 C 
ATOM     22  C   UNL A   1      38.120  28.101  30.887  1.00  0.00     0.029 A 
ATOM     23  C   UNL A   1      39.075  29.185  31.054  1.00  0.00     0.049 A 
ATOM     24  H   UNL A   1      41.104  29.131  30.535  1.00  0.00     0.167 HD
ATOM     25  C   UNL A   1      44.894  29.516  28.294  1.00  0.00     0.031 A 
ATOM     26  C   UNL A   1      38.898  30.428  31.574  1.00  0.00     0.031 A 
ATOM     27  C   UNL A   1      45.331  29.311  29.646  1.00  0.00     0.049 A 
ATOM     28  C   UNL A   1      40.244  30.989  31.844  1.00  0.00     0.074 A 
ATOM     29  C   UNL A   1      45.892  28.252  30.331  1.00  0.00     0.029 A 
ATOM     30  N   UNL A   1      44.850  30.168  30.606  1.00  0.00    -0.354 N 
ATOM     31  N   UNL A   1      41.055  30.509  32.744  1.00  0.00    -0.248 NA
ATOM     32  C   UNL A   1      40.868  31.801  30.812  1.00  0.00     0.031 C 
ATOM     33  C   UNL A   1      45.284  28.287  31.619  1.00  0.00     0.029 A 
ATOM     34  C   UNL A   1      44.445  29.402  31.669  1.00  0.00     0.049 A 
ATOM     35  H   UNL A   1      44.804  31.150  30.542  1.00  0.00     0.167 HD
ATOM     36  C   UNL A   1      42.313  30.585  32.165  1.00  0.00     0.074 A 
ATOM     37  C   UNL A   1      42.147  31.474  31.017  1.00  0.00     0.031 C 
ATOM     38  C   UNL A   1      43.306  29.711  32.508  1.00  0.00     0.031 A 
BRANCH  25  39
ATOM     39  C   UNL A   1      45.217  30.767  27.515  1.00  0.00    -0.014 A 
ATOM     40  C   UNL A   1      46.507  30.939  26.978  1.00  0.00     0.010 A 
ATOM     41  C   UNL A   1      44.370  31.897  27.522  1.00  0.00     0.010 A 
ATOM     42  C   UNL A   1      46.937  32.190  26.508  1.00  0.00     0.020 A 
ATOM     43  C   UNL A   1      44.772  33.134  27.017  1.00  0.00     0.020 A 
ATOM     44  C   UNL A   1      46.066  33.280  26.539  1.00  0.00     0.054 A 
BRANCH  44  45
ATOM     45  S   UNL A   1      46.653  34.908  26.007  1.00  0.00     0.124 S 
ATOM     46  O   UNL A   1      47.876  34.567  25.288  1.00  0.00    -0.237 OA
ATOM     47  O   UNL A   1      45.544  35.383  25.186  1.00  0.00    -0.237 OA
ATOM     48  O   UNL A   1      46.845  35.630  27.264  1.00  0.00    -0.744 OA
ENDBRANCH  44  45
ENDBRANCH  25  39
BRANCH  26  49
ATOM     49  C   UNL A   1      37.681  31.278  31.523  1.00  0.00    -0.014 A 
ATOM     50  C   UNL A   1      36.684  31.189  32.516  1.00  0.00     0.010 A 
ATOM     51  C   UNL A   1      37.636  32.386  30.653  1.00  0.00     0.010 A 
ATOM     52  C   UNL A   1      35.720  32.202  32.669  1.00  0.00     0.020 A 
ATOM     53  C   UNL A   1      36.676  33.397  30.796  1.00  0.00     0.020 A 
ATOM     54  C   UNL A   1      35.736  33.312  31.820  1.00  0.00     0.054 A 
BRANCH  54  55
ATOM     55  S   UNL A   1      34.609  34.704  32.137  1.00  0.00     0.124 S 
ATOM     56  O   UNL A   1      33.514  34.059  32.856  1.00  0.00    -0.237 OA
ATOM     57  O   UNL A   1      35.437  35.610  32.927  1.00  0.00    -0.237 OA
ATOM     58  O   UNL A   1      34.272  35.186  30.799  1.00  0.00    -0.744 OA
ENDBRANCH  54  55
ENDBRANCH  26  49
BRANCH  38  59
ATOM     59  C   UNL A   1      43.100  28.827  33.719  1.00  0.00    -0.014 A 
ATOM     60  C   UNL A   1      43.302  29.254  35.047  1.00  0.00     0.010 A 
ATOM     61  C   UNL A   1      42.535  27.558  33.507  1.00  0.00     0.010 A 
ATOM     62  C   UNL A   1      42.972  28.421  36.129  1.00  0.00     0.020 A 
ATOM     63  C   UNL A   1      42.186  26.731  34.578  1.00  0.00     0.020 A 
ATOM     64  C   UNL A   1      42.415  27.162  35.885  1.00  0.00     0.054 A 
BRANCH  64  65
ATOM     65  S   UNL A   1      41.943  26.105  37.284  1.00  0.00     0.124 S 
ATOM     66  O   UNL A   1      41.967  24.769  36.695  1.00  0.00    -0.237 OA
ATOM     67  O   UNL A   1      42.991  26.379  38.266  1.00  0.00    -0.237 OA
ATOM     68  O   UNL A   1      40.616  26.593  37.657  1.00  0.00    -0.744 OA
ENDBRANCH  64  65
ENDBRANCH  38  59
ENDBRANCH  12  13
ENDBRANCH   5   7
ENDBRANCH   2   3
ENDBRANCH   1   2
BRANCH   1  69
ATOM     69  C   UNL A   1      35.716  22.750  23.417  1.00  0.00     0.023 C 
BRANCH  69  70
ATOM     70  C   UNL A   1      35.029  23.993  23.993  1.00  0.00     0.116 C 
BRANCH  70  71
ATOM     71  N   UNL A   1      34.143  24.663  23.053  1.00  0.00    -0.355 N 
ATOM     72  C   UNL A   1      33.295  25.716  23.263  1.00  0.00     0.238 C 
ATOM     73  H   UNL A   1      34.153  24.307  22.135  1.00  0.00     0.163 HD
ATOM     74  O   UNL A   1      32.654  26.143  22.297  1.00  0.00    -0.273 OA
BRANCH  72  75
ATOM     75  C   UNL A   1      33.040  26.280  24.658  1.00  0.00     0.168 C 
ATOM     76  C   UNL A   1      33.800  27.636  24.608  1.00  0.00     0.086 C 
ATOM     77  N   UNL A   1      31.573  26.349  25.062  1.00  0.00    -0.178 NA
ATOM     78  C   UNL A   1      33.376  28.510  25.702  1.00  0.00     0.041 A 
ATOM     79  C   UNL A   1      31.259  27.245  26.261  1.00  0.00     0.161 C 
ATOM     80  N   UNL A   1      33.991  29.630  26.174  1.00  0.00    -0.348 N 
ATOM     81  C   UNL A   1      32.229  28.358  26.428  1.00  0.00     0.077 A 
ATOM     82  C   UNL A   1      33.195  30.113  27.178  1.00  0.00     0.197 A 
ATOM     83  H   UNL A   1      34.839  30.015  25.857  1.00  0.00     0.167 HD
ATOM     84  N   UNL A   1      32.129  29.360  27.363  1.00  0.00    -0.240 NA
BRANCH  77  85
ATOM     85  S   UNL A   1      30.816  24.820  25.369  1.00  0.00     0.253 S 
ATOM     86  O   UNL A   1      29.866  25.031  26.440  1.00  0.00    -0.206 OA
ATOM     87  O   UNL A   1      30.375  24.327  24.078  1.00  0.00    -0.206 OA
BRANCH  85  88
ATOM     88  C   UNL A   1      31.937  23.598  26.027  1.00  0.00     0.135 A 
ATOM     89  C   UNL A   1      32.846  23.643  27.071  1.00  0.00     0.033 A 
ATOM     90  S   UNL A   1      31.852  22.012  25.380  1.00  0.00    -0.131 S 
ATOM     91  C   UNL A   1      33.647  22.468  27.156  1.00  0.00     0.013 A 
ATOM     92  C   UNL A   1      33.205  21.490  26.295  1.00  0.00     0.066 A 
ENDBRANCH  85  88
ENDBRANCH  77  85
ENDBRANCH  72  75
ENDBRANCH  70  71
ENDBRANCH  69  70
ENDBRANCH   1  69
TORSDOF 16
ENDMDL
MODEL 2
REMARK VINA RESULT:     -12.3      1.433      3.064
REMARK SMILES O=C(NCCCCNC(=O)[C@H]1Cc2[nH]cnc2CN1S(=O)(=O)c1cccs1)c1ccc(-c2c3nc(c(-c4ccc(S(=O)(=O)[O-])cc4)c4ccc([nH]4)c(-c4ccc(S(=O)(=O)[O-])cc4)c4nc(c(-c5ccc(S(=O)(=O)[O-])cc5)c5ccc2[nH]5)C=C4)C=C3)cc1
REMARK SMILES IDX 5 1 4 2 3 3 1 4 2 5 28 7 29 8 87 9 30 10 86 11 31 12 32 13
REMARK SMILES IDX 33 14 80 15 34 16 85 17 79 18 81 19 35 20 84 21 78 22 77 23
REMARK SMILES IDX 36 25 66 26 47 27 65 28 48 29 51 30 64 31 82 32 49 33 50 34
REMARK SMILES IDX 63 36 83 37 52 38 37 39 38 40 46 41 39 42 45 43 40 44 41 45
REMARK SMILES IDX 42 46 43 47 44 48 67 49 68 50 76 51 69 52 75 53 70 54 71 55
REMARK SMILES IDX 72 56 73 57 74 58 53 59 54 60 62 61 55 62 61 63 56 64 57 65
REMARK SMILES IDX 58 66 59 67 60 68 6 69 7 70 8 71 9 72 10 74 11 75 12 76
REMARK SMILES IDX 19 77 13 78 18 79 14 80 17 81 15 82 16 84 20 85 21 86 22 87
REMARK SMILES IDX 23 88 24 89 27 90 25 91 26 92
REMARK H PARENT 3 6 81 24 51 35 8 73 14 83
REMARK Flexibility Score: inf
ROOT
ATOM      1  C   UNL A   1      36.832  23.151  23.947  1.00  0.00     0.023 C 
ENDROOT
BRANCH   1   2
ATOM      2  C   UNL A   1      37.216  22.410  25.219  1.00  0.00     0.116 C 
BRANCH   2   3
ATOM      3  N   UNL A   1      38.566  21.896  25.289  1.00  0.00    -0.352 N 
ATOM      4  O   UNL A   1      40.354  21.149  26.397  1.00  0.00    -0.269 OA
ATOM      5  C   UNL A   1      39.534  22.055  26.247  1.00  0.00     0.251 C 
ATOM      6  H   UNL A   1      38.833  21.340  24.522  1.00  0.00     0.163 HD
BRANCH   5   7
ATOM      7  C   UNL A   1      39.732  23.335  26.966  1.00  0.00     0.039 A 
ATOM      8  C   UNL A   1      38.925  24.465  26.843  1.00  0.00     0.014 A 
ATOM      9  C   UNL A   1      40.877  23.389  27.780  1.00  0.00     0.014 A 
ATOM     10  C   UNL A   1      39.322  25.664  27.421  1.00  0.00     0.010 A 
ATOM     11  C   UNL A   1      41.267  24.579  28.374  1.00  0.00     0.010 A 
ATOM     12  C   UNL A   1      40.511  25.726  28.154  1.00  0.00    -0.014 A 
BRANCH  12  13
ATOM     13  C   UNL A   1      40.839  26.979  28.826  1.00  0.00     0.031 A 
ATOM     14  C   UNL A   1      42.041  27.669  28.276  1.00  0.00     0.074 A 
ATOM     15  C   UNL A   1      40.050  27.554  29.755  1.00  0.00     0.049 A 
ATOM     16  N   UNL A   1      43.142  27.971  28.882  1.00  0.00    -0.248 NA
ATOM     17  C   UNL A   1      42.057  27.946  26.828  1.00  0.00     0.031 C 
ATOM     18  C   UNL A   1      38.708  27.144  30.178  1.00  0.00     0.029 A 
ATOM     19  N   UNL A   1      40.242  28.717  30.439  1.00  0.00    -0.354 N 
ATOM     20  C   UNL A   1      43.921  28.646  27.945  1.00  0.00     0.074 A 
ATOM     21  C   UNL A   1      43.272  28.470  26.670  1.00  0.00     0.031 C 
ATOM     22  C   UNL A   1      38.121  28.164  30.846  1.00  0.00     0.029 A 
ATOM     23  C   UNL A   1      39.089  29.235  31.019  1.00  0.00     0.049 A 
ATOM     24  H   UNL A   1      41.122  29.154  30.516  1.00  0.00     0.167 HD
ATOM     25  C   UNL A   1      44.933  29.484  28.303  1.00  0.00     0.031 A 
ATOM     26  C   UNL A   1      38.925  30.481  31.535  1.00  0.00     0.031 A 
ATOM     27  C   UNL A   1      45.357  29.276  29.659  1.00  0.00     0.049 A 
ATOM     28  C   UNL A   1      40.276  31.025  31.815  1.00  0.00     0.074 A 
ATOM     29  C   UNL A   1      45.899  28.210  30.350  1.00  0.00     0.029 A 
ATOM     30  N   UNL A   1      44.880  30.141  30.613  1.00  0.00    -0.354 N 
ATOM     31  N   UNL A   1      41.074  30.535  32.722  1.00  0.00    -0.248 NA
ATOM     32  C   UNL A   1      40.918  31.826  30.786  1.00  0.00     0.031 C 
ATOM     33  C   UNL A   1      45.282  28.256  31.633  1.00  0.00     0.029 A 
ATOM     34  C   UNL A   1      44.457  29.382  31.674  1.00  0.00     0.049 A 
ATOM     35  H   UNL A   1      44.848  31.123  30.548  1.00  0.00     0.167 HD
ATOM     36  C   UNL A   1      42.337  30.594  32.152  1.00  0.00     0.074 A 
ATOM     37  C   UNL A   1      42.191  31.483  31.001  1.00  0.00     0.031 C 
ATOM     38  C   UNL A   1      43.315  29.707  32.504  1.00  0.00     0.031 A 
BRANCH  25  39
ATOM     39  C   UNL A   1      45.279  30.729  27.525  1.00  0.00    -0.014 A 
ATOM     40  C   UNL A   1      46.608  30.948  27.114  1.00  0.00     0.010 A 
ATOM     41  C   UNL A   1      44.387  31.819  27.414  1.00  0.00     0.010 A 
ATOM     42  C   UNL A   1      47.029  32.205  26.654  1.00  0.00     0.020 A 
ATOM     43  C   UNL A   1      44.784  33.060  26.917  1.00  0.00     0.020 A 
ATOM     44  C   UNL A   1      46.112  33.255  26.566  1.00  0.00     0.054 A 
BRANCH  44  45
ATOM     45  S   UNL A   1      46.679  34.894  26.049  1.00  0.00     0.124 S 
ATOM     46  O   UNL A   1      47.714  34.562  25.076  1.00  0.00    -0.237 OA
ATOM     47  O   UNL A   1      45.460  35.485  25.504  1.00  0.00    -0.237 OA
ATOM     48  O   UNL A   1      47.156  35.499  27.291  1.00  0.00    -0.744 OA
ENDBRANCH  44  45
ENDBRANCH  25  39
BRANCH  26  49
ATOM     49  C   UNL A   1      37.719  31.347  31.474  1.00  0.00    -0.014 A 
ATOM     50  C   UNL A   1      36.634  31.155  32.352  1.00  0.00     0.010 A 
ATOM     51  C   UNL A   1      37.758  32.551  30.741  1.00  0.00     0.010 A 
ATOM     52  C   UNL A   1      35.662  32.155  32.535  1.00  0.00     0.020 A 
ATOM     53  C   UNL A   1      36.791  33.550  30.914  1.00  0.00     0.020 A 
ATOM     54  C   UNL A   1      35.760  33.357  31.829  1.00  0.00     0.054 A 
BRANCH  54  55
ATOM     55  S   UNL A   1      34.610  34.717  32.204  1.00  0.00     0.124 S 
ATOM     56  O   UNL A   1      34.222  35.171  30.873  1.00  0.00    -0.237 OA
ATOM     57  O   UNL A   1      33.567  34.047  32.975  1.00  0.00    -0.237 OA
ATOM     58  O   UNL A   1      35.429  35.659  32.966  1.00  0.00    -0.744 OA
ENDBRANCH  54  55
ENDBRANCH  26  49
BRANCH  38  59
ATOM     59  C   UNL A   1      43.089  28.828  33.715  1.00  0.00    -0.014 A 
ATOM     60  C   UNL A   1      43.189  29.282  35.046  1.00  0.00     0.010 A 
ATOM     61  C   UNL A   1      42.608  27.527  33.490  1.00  0.00     0.010 A 
ATOM     62  C   UNL A   1      42.843  28.445  36.120  1.00  0.00     0.020 A 
ATOM     63  C   UNL A   1      42.244  26.695  34.552  1.00  0.00     0.020 A 
ATOM     64  C   UNL A   1      42.372  27.155  35.864  1.00  0.00     0.054 A 
BRANCH  64  65
ATOM     65  S   UNL A   1      41.879  26.090  37.249  1.00  0.00     0.124 S 
ATOM     66  O   UNL A   1      42.977  26.270  38.195  1.00  0.00    -0.237 OA
ATOM     67  O   UNL A   1      40.597  26.662  37.658  1.00  0.00    -0.237 OA
ATOM     68  O   UNL A   1      41.789  24.759  36.652  1.00  0.00    -0.744 OA
ENDBRANCH  64  65
ENDBRANCH  38  59
ENDBRANCH  12  13
ENDBRANCH   5   7
ENDBRANCH   2   3
ENDBRANCH   1   2
BRANCH   1  69
ATOM     69  C   UNL A   1      35.375  23.634  23.890  1.00  0.00     0.023 C 
BRANCH  69  70
ATOM     70  C   UNL A   1      34.594  23.323  22.609  1.00  0.00     0.116 C 
BRANCH  70  71
ATOM     71  N   UNL A   1      33.403  24.141  22.435  1.00  0.00    -0.355 N 
ATOM     72  C   UNL A   1      32.153  23.973  22.964  1.00  0.00     0.238 C 
ATOM     73  H   UNL A   1      33.512  24.927  21.853  1.00  0.00     0.163 HD
ATOM     74  O   UNL A   1      31.294  24.820  22.699  1.00  0.00    -0.273 OA
BRANCH  72  75
ATOM     75  C   UNL A   1      31.773  22.724  23.755  1.00  0.00     0.168 C 
ATOM     76  C   UNL A   1      32.202  21.581  22.793  1.00  0.00     0.086 C 
ATOM     77  N   UNL A   1      32.344  22.662  25.166  1.00  0.00    -0.178 NA
ATOM     78  C   UNL A   1      32.277  20.304  23.504  1.00  0.00     0.041 A 
ATOM     79  C   UNL A   1      32.310  21.286  25.833  1.00  0.00     0.161 C 
ATOM     80  N   UNL A   1      32.327  19.048  22.979  1.00  0.00    -0.348 N 
ATOM     81  C   UNL A   1      32.353  20.164  24.860  1.00  0.00     0.077 A 
ATOM     82  C   UNL A   1      32.422  18.189  24.041  1.00  0.00     0.197 A 
ATOM     83  H   UNL A   1      32.299  18.806  22.025  1.00  0.00     0.167 HD
ATOM     84  N   UNL A   1      32.429  18.833  25.191  1.00  0.00    -0.240 NA
BRANCH  77  85
ATOM     85  S   UNL A   1      31.653  23.782  26.296  1.00  0.00     0.253 S 
ATOM     86  O   UNL A   1      30.264  23.947  25.927  1.00  0.00    -0.206 OA
ATOM     87  O   UNL A   1      32.014  23.291  27.613  1.00  0.00    -0.206 OA
BRANCH  85  88
ATOM     88  C   UNL A   1      32.331  25.427  26.160  1.00  0.00     0.135 A 
ATOM     89  C   UNL A   1      33.628  25.883  26.004  1.00  0.00     0.033 A 
ATOM     90  S   UNL A   1      31.226  26.737  26.080  1.00  0.00    -0.131 S 
ATOM     91  C   UNL A   1      33.729  27.301  26.088  1.00  0.00     0.013 A 
ATOM     92  C   UNL A   1      32.489  27.896  26.122  1.00  0.00     0.066 A 
ENDBRANCH  85  88
ENDBRANCH  77  85
ENDBRANCH  72  75
ENDBRANCH  70  71
ENDBRANCH  69  70
ENDBRANCH   1  69
TORSDOF 16
ENDMDL
MODEL 3
REMARK VINA RESULT:     -12.3      2.459      9.295
REMARK SMILES O=C(NCCCCNC(=O)[C@H]1Cc2[nH]cnc2CN1S(=O)(=O)c1cccs1)c1ccc(-c2c3nc(c(-c4ccc(S(=O)(=O)[O-])cc4)c4ccc([nH]4)c(-c4ccc(S(=O)(=O)[O-])cc4)c4nc(c(-c5ccc(S(=O)(=O)[O-])cc5)c5ccc2[nH]5)C=C4)C=C3)cc1
REMARK SMILES IDX 5 1 4 2 3 3 1 4 2 5 28 7 29 8 87 9 30 10 86 11 31 12 32 13
REMARK SMILES IDX 33 14 80 15 34 16 85 17 79 18 81 19 35 20 84 21 78 22 77 23
REMARK SMILES IDX 36 25 66 26 47 27 65 28 48 29 51 30 64 31 82 32 49 33 50 34
REMARK SMILES IDX 63 36 83 37 52 38 37 39 38 40 46 41 39 42 45 43 40 44 41 45
REMARK SMILES IDX 42 46 43 47 44 48 67 49 68 50 76 51 69 52 75 53 70 54 71 55
REMARK SMILES IDX 72 56 73 57 74 58 53 59 54 60 62 61 55 62 61 63 56 64 57 65
REMARK SMILES IDX 58 66 59 67 60 68 6 69 7 70 8 71 9 72 10 74 11 75 12 76
REMARK SMILES IDX 19 77 13 78 18 79 14 80 17 81 15 82 16 84 20 85 21 86 22 87
REMARK SMILES IDX 23 88 24 89 27 90 25 91 26 92
REMARK H PARENT 3 6 81 24 51 35 8 73 14 83
REMARK Flexibility Score: inf
ROOT
ATOM      1  C   UNL A   1      31.830  29.372  26.870  1.00  0.00     0.023 C 
ENDROOT
BRANCH   1   2
ATOM      2  C   UNL A   1      33.245  29.920  26.989  1.00  0.00     0.116 C 
BRANCH   2   3
ATOM      3  N   UNL A   1      33.428  31.066  27.851  1.00  0.00    -0.352 N 
ATOM      4  O   UNL A   1      34.382  33.007  28.402  1.00  0.00    -0.269 OA
ATOM      5  C   UNL A   1      34.542  31.823  28.107  1.00  0.00     0.251 C 
ATOM      6  H   UNL A   1      32.617  31.350  28.333  1.00  0.00     0.163 HD
BRANCH   5   7
ATOM      7  C   UNL A   1      35.894  31.227  28.218  1.00  0.00     0.039 A 
ATOM      8  C   UNL A   1      36.229  29.915  27.888  1.00  0.00     0.014 A 
ATOM      9  C   UNL A   1      36.874  32.073  28.766  1.00  0.00     0.014 A 
ATOM     10  C   UNL A   1      37.484  29.419  28.215  1.00  0.00     0.010 A 
ATOM     11  C   UNL A   1      38.134  31.588  29.077  1.00  0.00     0.010 A 
ATOM     12  C   UNL A   1      38.420  30.246  28.843  1.00  0.00    -0.014 A 
BRANCH  12  13
ATOM     13  C   UNL A   1      39.758  29.715  29.078  1.00  0.00     0.031 A 
ATOM     14  C   UNL A   1      40.141  29.643  30.518  1.00  0.00     0.074 A 
ATOM     15  C   UNL A   1      40.531  29.185  28.109  1.00  0.00     0.049 A 
ATOM     16  N   UNL A   1      41.125  30.228  31.118  1.00  0.00    -0.248 NA
ATOM     17  C   UNL A   1      39.229  28.920  31.424  1.00  0.00     0.031 C 
ATOM     18  C   UNL A   1      40.172  28.922  26.713  1.00  0.00     0.029 A 
ATOM     19  N   UNL A   1      41.781  28.653  28.207  1.00  0.00    -0.354 N 
ATOM     20  C   UNL A   1      41.073  29.800  32.443  1.00  0.00     0.074 A 
ATOM     21  C   UNL A   1      39.811  29.123  32.605  1.00  0.00     0.031 C 
ATOM     22  C   UNL A   1      41.075  28.071  26.174  1.00  0.00     0.029 A 
ATOM     23  C   UNL A   1      42.142  27.843  27.135  1.00  0.00     0.049 A 
ATOM     24  H   UNL A   1      42.378  28.825  28.971  1.00  0.00     0.167 HD
ATOM     25  C   UNL A   1      42.156  29.840  33.267  1.00  0.00     0.031 A 
ATOM     26  C   UNL A   1      43.201  26.995  27.074  1.00  0.00     0.031 A 
ATOM     27  C   UNL A   1      43.181  30.716  32.774  1.00  0.00     0.049 A 
ATOM     28  C   UNL A   1      44.164  27.414  28.122  1.00  0.00     0.074 A 
ATOM     29  C   UNL A   1      43.249  32.068  32.501  1.00  0.00     0.029 A 
ATOM     30  N   UNL A   1      44.243  30.145  32.116  1.00  0.00    -0.354 N 
ATOM     31  N   UNL A   1      44.812  28.545  28.091  1.00  0.00    -0.248 NA
ATOM     32  C   UNL A   1      44.074  26.782  29.428  1.00  0.00     0.031 C 
ATOM     33  C   UNL A   1      44.031  32.162  31.314  1.00  0.00     0.029 A 
ATOM     34  C   UNL A   1      44.452  30.875  30.974  1.00  0.00     0.049 A 
ATOM     35  H   UNL A   1      44.757  29.358  32.410  1.00  0.00     0.167 HD
ATOM     36  C   UNL A   1      44.831  28.979  29.408  1.00  0.00     0.074 A 
ATOM     37  C   UNL A   1      44.446  27.810  30.196  1.00  0.00     0.031 C 
ATOM     38  C   UNL A   1      44.891  30.309  29.715  1.00  0.00     0.031 A 
BRANCH  25  39
ATOM     39  C   UNL A   1      42.416  28.802  34.330  1.00  0.00    -0.014 A 
ATOM     40  C   UNL A   1      42.602  29.203  35.666  1.00  0.00     0.010 A 
ATOM     41  C   UNL A   1      42.745  27.466  34.011  1.00  0.00     0.010 A 
ATOM     42  C   UNL A   1      43.128  28.321  36.623  1.00  0.00     0.020 A 
ATOM     43  C   UNL A   1      43.227  26.568  34.963  1.00  0.00     0.020 A 
ATOM     44  C   UNL A   1      43.443  27.011  36.260  1.00  0.00     0.054 A 
BRANCH  44  45
ATOM     45  S   UNL A   1      44.196  25.904  37.479  1.00  0.00     0.124 S 
ATOM     46  O   UNL A   1      43.558  24.630  37.164  1.00  0.00    -0.237 OA
ATOM     47  O   UNL A   1      45.616  26.003  37.150  1.00  0.00    -0.237 OA
ATOM     48  O   UNL A   1      43.817  26.497  38.760  1.00  0.00    -0.744 OA
ENDBRANCH  44  45
ENDBRANCH  25  39
BRANCH  26  49
ATOM     49  C   UNL A   1      43.271  25.662  26.422  1.00  0.00    -0.014 A 
ATOM     50  C   UNL A   1      44.015  25.463  25.242  1.00  0.00     0.010 A 
ATOM     51  C   UNL A   1      42.842  24.515  27.122  1.00  0.00     0.010 A 
ATOM     52  C   UNL A   1      44.367  24.169  24.814  1.00  0.00     0.020 A 
ATOM     53  C   UNL A   1      43.184  23.224  26.700  1.00  0.00     0.020 A 
ATOM     54  C   UNL A   1      43.967  23.058  25.560  1.00  0.00     0.054 A 
BRANCH  54  55
ATOM     55  S   UNL A   1      44.579  21.405  25.110  1.00  0.00     0.124 S 
ATOM     56  O   UNL A   1      44.463  21.417  23.656  1.00  0.00    -0.237 OA
ATOM     57  O   UNL A   1      45.940  21.415  25.637  1.00  0.00    -0.237 OA
ATOM     58  O   UNL A   1      43.659  20.499  25.797  1.00  0.00    -0.744 OA
ENDBRANCH  54  55
ENDBRANCH  26  49
BRANCH  38  59
ATOM     59  C   UNL A   1      45.206  31.291  28.607  1.00  0.00    -0.014 A 
ATOM     60  C   UNL A   1      44.305  31.629  27.576  1.00  0.00     0.010 A 
ATOM     61  C   UNL A   1      46.410  32.010  28.702  1.00  0.00     0.010 A 
ATOM     62  C   UNL A   1      44.616  32.640  26.653  1.00  0.00     0.020 A 
ATOM     63  C   UNL A   1      46.717  33.031  27.798  1.00  0.00     0.020 A 
ATOM     64  C   UNL A   1      45.823  33.335  26.771  1.00  0.00     0.054 A 
BRANCH  64  65
ATOM     65  S   UNL A   1      46.202  34.676  25.607  1.00  0.00     0.124 S 
ATOM     66  O   UNL A   1      47.614  34.449  25.310  1.00  0.00    -0.237 OA
ATOM     67  O   UNL A   1      45.279  34.419  24.503  1.00  0.00    -0.237 OA
ATOM     68  O   UNL A   1      45.918  35.891  26.369  1.00  0.00    -0.744 OA
ENDBRANCH  64  65
ENDBRANCH  38  59
ENDBRANCH  12  13
ENDBRANCH   5   7
ENDBRANCH   2   3
ENDBRANCH   1   2
BRANCH   1  69
ATOM     69  C   UNL A   1      31.632  27.956  27.430  1.00  0.00     0.023 C 
BRANCH  69  70
ATOM     70  C   UNL A   1      32.378  26.822  26.720  1.00  0.00     0.116 C 
BRANCH  70  71
ATOM     71  N   UNL A   1      31.612  25.589  26.618  1.00  0.00    -0.355 N 
ATOM     72  C   UNL A   1      31.979  24.383  26.086  1.00  0.00     0.238 C 
ATOM     73  H   UNL A   1      30.699  25.628  26.983  1.00  0.00     0.163 HD
ATOM     74  O   UNL A   1      31.164  23.457  26.137  1.00  0.00    -0.273 OA
BRANCH  72  75
ATOM     75  C   UNL A   1      33.297  24.199  25.338  1.00  0.00     0.168 C 
ATOM     76  C   UNL A   1      34.170  23.457  26.389  1.00  0.00     0.086 C 
ATOM     77  N   UNL A   1      33.172  23.529  23.977  1.00  0.00    -0.178 NA
ATOM     78  C   UNL A   1      35.341  22.849  25.755  1.00  0.00     0.041 A 
ATOM     79  C   UNL A   1      34.475  22.988  23.384  1.00  0.00     0.161 C 
ATOM     80  N   UNL A   1      36.473  22.377  26.350  1.00  0.00    -0.348 N 
ATOM     81  C   UNL A   1      35.474  22.611  24.417  1.00  0.00     0.077 A 
ATOM     82  C   UNL A   1      37.256  21.877  25.344  1.00  0.00     0.197 A 
ATOM     83  H   UNL A   1      36.685  22.394  27.311  1.00  0.00     0.167 HD
ATOM     84  N   UNL A   1      36.685  22.015  24.165  1.00  0.00    -0.240 NA
BRANCH  77  85
ATOM     85  S   UNL A   1      32.424  24.489  22.742  1.00  0.00     0.253 S 
ATOM     86  O   UNL A   1      33.122  24.204  21.508  1.00  0.00    -0.206 OA
ATOM     87  O   UNL A   1      30.998  24.244  22.857  1.00  0.00    -0.206 OA
BRANCH  85  88
ATOM     88  C   UNL A   1      32.661  26.242  22.973  1.00  0.00     0.135 A 
ATOM     89  C   UNL A   1      33.798  27.001  23.189  1.00  0.00     0.033 A 
ATOM     90  S   UNL A   1      31.292  27.260  22.789  1.00  0.00    -0.131 S 
ATOM     91  C   UNL A   1      33.506  28.367  23.466  1.00  0.00     0.013 A 
ATOM     92  C   UNL A   1      32.173  28.649  23.273  1.00  0.00     0.066 A 
ENDBRANCH  85  88
ENDBRANCH  77  85
ENDBRANCH  72  75
ENDBRANCH  70  71
ENDBRANCH  69  70
ENDBRANCH   1  69
TORSDOF 16
ENDMDL
