MODEL 1
REMARK VINA RESULT:     -11.8      0.000      0.000
REMARK SMILES Cc1ccc2c(c1C)O[C@@H](C(=O)NCCCCNC(=O)c1ccc(-c3c4nc(c(-c5ccc(S(=O)(=O)[O-])cc5)c5ccc([nH]5)c(-c5ccc(S(=O)(=O)[O-])cc5)c5nc(c(-c6ccc(S(=O)(=O)[O-])cc6)c6ccc3[nH]6)C=C5)C=C4)cc1)CC2=O
REMARK SMILES IDX 17 1 16 2 15 3 14 4 13 5 11 6 12 7 10 9 1 10 2 11 3 12 7 13
REMARK SMILES IDX 4 14 6 15 8 16 5 17 9 18 82 19 81 20 83 21 18 22 19 23 20 25
REMARK SMILES IDX 21 26 22 27 80 28 23 29 79 30 24 31 25 32 26 33 73 34 27 35
REMARK SMILES IDX 78 36 72 37 74 38 28 39 77 40 71 41 70 42 29 44 59 45 40 46
REMARK SMILES IDX 58 47 41 48 44 49 57 50 75 51 42 52 43 53 56 55 76 56 45 57
REMARK SMILES IDX 30 58 31 59 39 60 32 61 38 62 33 63 34 64 35 65 36 66 37 67
REMARK SMILES IDX 60 68 61 69 69 70 62 71 68 72 63 73 64 74 65 75 66 76 67 77
REMARK SMILES IDX 46 78 47 79 55 80 48 81 54 82 49 83 50 84 51 85 52 86 53 87
REMARK H PARENT 13 8 18 24 74 43 44 54
REMARK Flexibility Score: inf
ROOT
ATOM      1  C   UNL A   1      33.335  28.609  27.304  1.00  0.00     0.116 C 
ENDROOT
BRANCH   1   2
ATOM      2  C   UNL A   1      31.940  27.999  27.212  1.00  0.00     0.023 C 
BRANCH   2   3
ATOM      3  C   UNL A   1      31.609  27.339  25.873  1.00  0.00     0.023 C 
BRANCH   3   4
ATOM      4  C   UNL A   1      30.548  26.240  25.965  1.00  0.00     0.116 C 
BRANCH   4   5
ATOM      5  N   UNL A   1      30.993  25.109  26.751  1.00  0.00    -0.353 N 
ATOM      6  C   UNL A   1      31.964  24.180  26.561  1.00  0.00     0.261 C 
ATOM      7  O   UNL A   1      32.140  23.377  27.486  1.00  0.00    -0.271 OA
ATOM      8  H   UNL A   1      30.492  24.989  27.591  1.00  0.00     0.163 HD
BRANCH   6   9
ATOM      9  C   UNL A   1      32.787  24.030  25.257  1.00  0.00     0.269 C 
ATOM     10  C   UNL A   1      34.403  18.185  24.431  1.00  0.00     0.045 C 
ATOM     11  C   UNL A   1      34.616  19.662  24.637  1.00  0.00    -0.044 A 
ATOM     12  C   UNL A   1      35.856  20.097  25.130  1.00  0.00     0.005 A 
ATOM     13  C   UNL A   1      33.612  20.611  24.347  1.00  0.00    -0.005 A 
ATOM     14  C   UNL A   1      36.089  21.449  25.372  1.00  0.00     0.016 A 
ATOM     15  C   UNL A   1      33.829  21.964  24.680  1.00  0.00     0.134 A 
ATOM     16  C   UNL A   1      32.276  20.202  23.775  1.00  0.00     0.049 C 
ATOM     17  C   UNL A   1      35.066  22.376  25.163  1.00  0.00     0.060 A 
ATOM     18  O   UNL A   1      32.752  22.794  24.568  1.00  0.00    -0.479 OA
ATOM     19  C   UNL A   1      35.276  23.785  25.524  1.00  0.00     0.170 C 
ATOM     20  C   UNL A   1      34.134  24.729  25.337  1.00  0.00     0.136 C 
ATOM     21  O   UNL A   1      36.371  24.169  25.926  1.00  0.00    -0.294 OA
ENDBRANCH   6   9
ENDBRANCH   4   5
ENDBRANCH   3   4
ENDBRANCH   2   3
ENDBRANCH   1   2
BRANCH   1  22
ATOM     22  N   UNL A   1      33.340  30.043  27.559  1.00  0.00    -0.352 N 
ATOM     23  C   UNL A   1      34.399  30.799  28.012  1.00  0.00     0.251 C 
ATOM     24  H   UNL A   1      32.497  30.522  27.390  1.00  0.00     0.163 HD
ATOM     25  O   UNL A   1      34.277  32.000  28.230  1.00  0.00    -0.269 OA
BRANCH  23  26
ATOM     26  C   UNL A   1      35.679  30.110  28.268  1.00  0.00     0.039 A 
ATOM     27  C   UNL A   1      36.661  30.117  27.276  1.00  0.00     0.014 A 
ATOM     28  C   UNL A   1      35.942  29.581  29.535  1.00  0.00     0.014 A 
ATOM     29  C   UNL A   1      37.945  29.660  27.581  1.00  0.00     0.010 A 
ATOM     30  C   UNL A   1      37.234  29.169  29.849  1.00  0.00     0.010 A 
ATOM     31  C   UNL A   1      38.249  29.219  28.880  1.00  0.00    -0.014 A 
BRANCH  31  32
ATOM     32  C   UNL A   1      39.627  28.818  29.250  1.00  0.00     0.031 A 
ATOM     33  C   UNL A   1      40.514  29.780  29.984  1.00  0.00     0.074 A 
ATOM     34  C   UNL A   1      40.102  27.614  28.870  1.00  0.00     0.049 A 
ATOM     35  N   UNL A   1      41.767  29.642  30.329  1.00  0.00    -0.248 NA
ATOM     36  C   UNL A   1      39.921  31.073  30.362  1.00  0.00     0.031 C 
ATOM     37  C   UNL A   1      39.351  26.603  28.121  1.00  0.00     0.029 A 
ATOM     38  N   UNL A   1      41.335  27.041  29.059  1.00  0.00    -0.354 N 
ATOM     39  C   UNL A   1      42.119  30.834  30.947  1.00  0.00     0.074 A 
ATOM     40  C   UNL A   1      40.957  31.696  30.903  1.00  0.00     0.031 C 
ATOM     41  C   UNL A   1      40.133  25.526  27.935  1.00  0.00     0.029 A 
ATOM     42  C   UNL A   1      41.445  25.779  28.526  1.00  0.00     0.049 A 
ATOM     43  H   UNL A   1      42.071  27.492  29.531  1.00  0.00     0.167 HD
ATOM     44  C   UNL A   1      43.298  31.176  31.518  1.00  0.00     0.031 A 
ATOM     45  C   UNL A   1      42.482  24.919  28.516  1.00  0.00     0.031 A 
ATOM     46  C   UNL A   1      44.445  30.315  31.588  1.00  0.00     0.049 A 
ATOM     47  C   UNL A   1      43.776  25.312  29.170  1.00  0.00     0.074 A 
ATOM     48  C   UNL A   1      45.668  30.561  32.184  1.00  0.00     0.029 A 
ATOM     49  N   UNL A   1      44.507  29.038  31.053  1.00  0.00    -0.354 N 
ATOM     50  N   UNL A   1      44.080  26.436  29.774  1.00  0.00    -0.248 NA
ATOM     51  C   UNL A   1      44.864  24.324  29.146  1.00  0.00     0.031 C 
ATOM     52  C   UNL A   1      46.479  29.438  31.992  1.00  0.00     0.029 A 
ATOM     53  C   UNL A   1      45.749  28.485  31.301  1.00  0.00     0.049 A 
ATOM     54  H   UNL A   1      43.775  28.592  30.568  1.00  0.00     0.167 HD
ATOM     55  C   UNL A   1      45.388  26.284  30.217  1.00  0.00     0.074 A 
ATOM     56  C   UNL A   1      45.819  24.961  29.815  1.00  0.00     0.031 C 
ATOM     57  C   UNL A   1      46.160  27.165  30.896  1.00  0.00     0.031 A 
BRANCH  44  58
ATOM     58  C   UNL A   1      43.396  32.549  32.119  1.00  0.00    -0.014 A 
ATOM     59  C   UNL A   1      42.990  32.780  33.445  1.00  0.00     0.010 A 
ATOM     60  C   UNL A   1      43.924  33.610  31.363  1.00  0.00     0.010 A 
ATOM     61  C   UNL A   1      43.077  34.060  33.994  1.00  0.00     0.020 A 
ATOM     62  C   UNL A   1      44.029  34.888  31.916  1.00  0.00     0.020 A 
ATOM     63  C   UNL A   1      43.594  35.107  33.224  1.00  0.00     0.054 A 
BRANCH  63  64
ATOM     64  S   UNL A   1      43.694  36.757  33.970  1.00  0.00     0.124 S 
ATOM     65  O   UNL A   1      45.015  36.728  34.593  1.00  0.00    -0.237 OA
ATOM     66  O   UNL A   1      43.566  37.636  32.810  1.00  0.00    -0.237 OA
ATOM     67  O   UNL A   1      42.569  36.788  34.901  1.00  0.00    -0.744 OA
ENDBRANCH  63  64
ENDBRANCH  44  58
BRANCH  45  68
ATOM     68  C   UNL A   1      42.322  23.585  27.884  1.00  0.00    -0.014 A 
ATOM     69  C   UNL A   1      42.874  23.336  26.616  1.00  0.00     0.010 A 
ATOM     70  C   UNL A   1      41.661  22.546  28.563  1.00  0.00     0.010 A 
ATOM     71  C   UNL A   1      42.770  22.068  26.037  1.00  0.00     0.020 A 
ATOM     72  C   UNL A   1      41.566  21.273  27.993  1.00  0.00     0.020 A 
ATOM     73  C   UNL A   1      42.125  21.042  26.733  1.00  0.00     0.054 A 
BRANCH  73  74
ATOM     74  S   UNL A   1      42.064  19.390  25.984  1.00  0.00     0.124 S 
ATOM     75  O   UNL A   1      40.638  19.221  25.729  1.00  0.00    -0.237 OA
ATOM     76  O   UNL A   1      42.904  19.558  24.800  1.00  0.00    -0.237 OA
ATOM     77  O   UNL A   1      42.623  18.522  27.018  1.00  0.00    -0.744 OA
ENDBRANCH  73  74
ENDBRANCH  45  68
BRANCH  57  78
ATOM     78  C   UNL A   1      47.549  26.735  31.271  1.00  0.00    -0.014 A 
ATOM     79  C   UNL A   1      47.770  25.942  32.410  1.00  0.00     0.010 A 
ATOM     80  C   UNL A   1      48.624  27.031  30.413  1.00  0.00     0.010 A 
ATOM     81  C   UNL A   1      49.048  25.447  32.682  1.00  0.00     0.020 A 
ATOM     82  C   UNL A   1      49.899  26.527  30.677  1.00  0.00     0.020 A 
ATOM     83  C   UNL A   1      50.102  25.735  31.809  1.00  0.00     0.054 A 
BRANCH  83  84
ATOM     84  S   UNL A   1      51.731  25.013  32.150  1.00  0.00     0.124 S 
ATOM     85  O   UNL A   1      51.448  23.581  32.102  1.00  0.00    -0.237 OA
ATOM     86  O   UNL A   1      52.542  25.531  31.051  1.00  0.00    -0.237 OA
ATOM     87  O   UNL A   1      52.074  25.534  33.471  1.00  0.00    -0.744 OA
ENDBRANCH  83  84
ENDBRANCH  57  78
ENDBRANCH  31  32
ENDBRANCH  23  26
ENDBRANCH   1  22
TORSDOF 14
ENDMDL
MODEL 2
REMARK VINA RESULT:     -11.6      1.389      1.981
REMARK SMILES Cc1ccc2c(c1C)O[C@@H](C(=O)NCCCCNC(=O)c1ccc(-c3c4nc(c(-c5ccc(S(=O)(=O)[O-])cc5)c5ccc([nH]5)c(-c5ccc(S(=O)(=O)[O-])cc5)c5nc(c(-c6ccc(S(=O)(=O)[O-])cc6)c6ccc3[nH]6)C=C5)C=C4)cc1)CC2=O
REMARK SMILES IDX 17 1 16 2 15 3 14 4 13 5 11 6 12 7 10 9 1 10 2 11 3 12 7 13
REMARK SMILES IDX 4 14 6 15 8 16 5 17 9 18 82 19 81 20 83 21 18 22 19 23 20 25
REMARK SMILES IDX 21 26 22 27 80 28 23 29 79 30 24 31 25 32 26 33 73 34 27 35
REMARK SMILES IDX 78 36 72 37 74 38 28 39 77 40 71 41 70 42 29 44 59 45 40 46
REMARK SMILES IDX 58 47 41 48 44 49 57 50 75 51 42 52 43 53 56 55 76 56 45 57
REMARK SMILES IDX 30 58 31 59 39 60 32 61 38 62 33 63 34 64 35 65 36 66 37 67
REMARK SMILES IDX 60 68 61 69 69 70 62 71 68 72 63 73 64 74 65 75 66 76 67 77
REMARK SMILES IDX 46 78 47 79 55 80 48 81 54 82 49 83 50 84 51 85 52 86 53 87
REMARK H PARENT 13 8 18 24 74 43 44 54
REMARK Flexibility Score: inf
ROOT
ATOM      1  C   UNL A   1      33.530  28.582  27.181  1.00  0.00     0.116 C 
ENDROOT
BRANCH   1   2
ATOM      2  C   UNL A   1      33.673  28.476  25.665  1.00  0.00     0.023 C 
BRANCH   2   3
ATOM      3  C   UNL A   1      33.659  27.051  25.111  1.00  0.00     0.023 C 
BRANCH   3   4
ATOM      4  C   UNL A   1      32.626  26.136  25.773  1.00  0.00     0.116 C 
BRANCH   4   5
ATOM      5  N   UNL A   1      31.269  26.487  25.414  1.00  0.00    -0.353 N 
ATOM      6  C   UNL A   1      30.408  26.002  24.484  1.00  0.00     0.261 C 
ATOM      7  O   UNL A   1      29.268  26.485  24.492  1.00  0.00    -0.271 OA
ATOM      8  H   UNL A   1      30.896  27.225  25.949  1.00  0.00     0.163 HD
BRANCH   6   9
ATOM      9  C   UNL A   1      30.785  24.962  23.400  1.00  0.00     0.269 C 
ATOM     10  C   UNL A   1      34.872  20.979  25.611  1.00  0.00     0.045 C 
ATOM     11  C   UNL A   1      34.342  22.048  24.692  1.00  0.00    -0.044 A 
ATOM     12  C   UNL A   1      35.260  22.830  23.974  1.00  0.00     0.005 A 
ATOM     13  C   UNL A   1      32.958  22.280  24.533  1.00  0.00    -0.005 A 
ATOM     14  C   UNL A   1      34.821  23.854  23.139  1.00  0.00     0.016 A 
ATOM     15  C   UNL A   1      32.530  23.377  23.756  1.00  0.00     0.134 A 
ATOM     16  C   UNL A   1      31.926  21.442  25.248  1.00  0.00     0.049 C 
ATOM     17  C   UNL A   1      33.457  24.136  23.049  1.00  0.00     0.060 A 
ATOM     18  O   UNL A   1      31.200  23.672  23.808  1.00  0.00    -0.479 OA
ATOM     19  C   UNL A   1      33.002  25.288  22.257  1.00  0.00     0.170 C 
ATOM     20  C   UNL A   1      31.538  25.585  22.235  1.00  0.00     0.136 C 
ATOM     21  O   UNL A   1      33.803  25.951  21.604  1.00  0.00    -0.294 OA
ENDBRANCH   6   9
ENDBRANCH   4   5
ENDBRANCH   3   4
ENDBRANCH   2   3
ENDBRANCH   1   2
BRANCH   1  22
ATOM     22  N   UNL A   1      33.454  29.949  27.676  1.00  0.00    -0.352 N 
ATOM     23  C   UNL A   1      34.470  30.678  28.253  1.00  0.00     0.251 C 
ATOM     24  H   UNL A   1      32.583  30.400  27.589  1.00  0.00     0.163 HD
ATOM     25  O   UNL A   1      34.280  31.815  28.671  1.00  0.00    -0.269 OA
BRANCH  23  26
ATOM     26  C   UNL A   1      35.790  30.032  28.391  1.00  0.00     0.039 A 
ATOM     27  C   UNL A   1      36.681  30.078  27.317  1.00  0.00     0.014 A 
ATOM     28  C   UNL A   1      36.180  29.506  29.626  1.00  0.00     0.014 A 
ATOM     29  C   UNL A   1      38.001  29.664  27.505  1.00  0.00     0.010 A 
ATOM     30  C   UNL A   1      37.508  29.136  29.822  1.00  0.00     0.010 A 
ATOM     31  C   UNL A   1      38.432  29.226  28.768  1.00  0.00    -0.014 A 
BRANCH  31  32
ATOM     32  C   UNL A   1      39.850  28.871  29.014  1.00  0.00     0.031 A 
ATOM     33  C   UNL A   1      40.786  29.888  29.597  1.00  0.00     0.074 A 
ATOM     34  C   UNL A   1      40.310  27.656  28.653  1.00  0.00     0.049 A 
ATOM     35  N   UNL A   1      42.071  29.792  29.816  1.00  0.00    -0.248 NA
ATOM     36  C   UNL A   1      40.205  31.191  29.963  1.00  0.00     0.031 C 
ATOM     37  C   UNL A   1      39.510  26.590  28.044  1.00  0.00     0.029 A 
ATOM     38  N   UNL A   1      41.570  27.115  28.743  1.00  0.00    -0.354 N 
ATOM     39  C   UNL A   1      42.457  31.024  30.328  1.00  0.00     0.074 A 
ATOM     40  C   UNL A   1      41.278  31.861  30.358  1.00  0.00     0.031 C 
ATOM     41  C   UNL A   1      40.293  25.518  27.836  1.00  0.00     0.029 A 
ATOM     42  C   UNL A   1      41.652  25.827  28.272  1.00  0.00     0.049 A 
ATOM     43  H   UNL A   1      42.340  27.605  29.110  1.00  0.00     0.167 HD
ATOM     44  C   UNL A   1      43.680  31.418  30.752  1.00  0.00     0.031 A 
ATOM     45  C   UNL A   1      42.703  24.987  28.200  1.00  0.00     0.031 A 
ATOM     46  C   UNL A   1      44.848  30.582  30.748  1.00  0.00     0.049 A 
ATOM     47  C   UNL A   1      44.048  25.438  28.693  1.00  0.00     0.074 A 
ATOM     48  C   UNL A   1      46.121  30.882  31.199  1.00  0.00     0.029 A 
ATOM     49  N   UNL A   1      44.884  29.278  30.281  1.00  0.00    -0.354 N 
ATOM     50  N   UNL A   1      44.387  26.600  29.199  1.00  0.00    -0.248 NA
ATOM     51  C   UNL A   1      45.151  24.470  28.609  1.00  0.00     0.031 C 
ATOM     52  C   UNL A   1      46.933  29.764  30.985  1.00  0.00     0.029 A 
ATOM     53  C   UNL A   1      46.158  28.761  30.428  1.00  0.00     0.049 A 
ATOM     54  H   UNL A   1      44.116  28.793  29.901  1.00  0.00     0.167 HD
ATOM     55  C   UNL A   1      45.737  26.497  29.510  1.00  0.00     0.074 A 
ATOM     56  C   UNL A   1      46.155  25.160  29.138  1.00  0.00     0.031 C 
ATOM     57  C   UNL A   1      46.555  27.427  30.055  1.00  0.00     0.031 A 
BRANCH  44  58
ATOM     58  C   UNL A   1      43.809  32.824  31.263  1.00  0.00    -0.014 A 
ATOM     59  C   UNL A   1      44.066  33.886  30.378  1.00  0.00     0.010 A 
ATOM     60  C   UNL A   1      43.643  33.090  32.633  1.00  0.00     0.010 A 
ATOM     61  C   UNL A   1      44.191  35.189  30.861  1.00  0.00     0.020 A 
ATOM     62  C   UNL A   1      43.749  34.396  33.117  1.00  0.00     0.020 A 
ATOM     63  C   UNL A   1      44.035  35.435  32.229  1.00  0.00     0.054 A 
BRANCH  63  64
ATOM     64  S   UNL A   1      44.204  37.141  32.823  1.00  0.00     0.124 S 
ATOM     65  O   UNL A   1      45.467  37.083  33.555  1.00  0.00    -0.237 OA
ATOM     66  O   UNL A   1      44.233  37.907  31.580  1.00  0.00    -0.237 OA
ATOM     67  O   UNL A   1      43.017  37.341  33.651  1.00  0.00    -0.744 OA
ENDBRANCH  63  64
ENDBRANCH  44  58
BRANCH  45  68
ATOM     68  C   UNL A   1      42.509  23.615  27.663  1.00  0.00    -0.014 A 
ATOM     69  C   UNL A   1      42.746  23.353  26.303  1.00  0.00     0.010 A 
ATOM     70  C   UNL A   1      42.134  22.560  28.513  1.00  0.00     0.010 A 
ATOM     71  C   UNL A   1      42.614  22.055  25.801  1.00  0.00     0.020 A 
ATOM     72  C   UNL A   1      42.014  21.258  28.017  1.00  0.00     0.020 A 
ATOM     73  C   UNL A   1      42.257  21.014  26.663  1.00  0.00     0.054 A 
BRANCH  73  74
ATOM     74  S   UNL A   1      42.158  19.330  25.995  1.00  0.00     0.124 S 
ATOM     75  O   UNL A   1      42.680  18.531  27.100  1.00  0.00    -0.237 OA
ATOM     76  O   UNL A   1      40.729  19.187  25.730  1.00  0.00    -0.237 OA
ATOM     77  O   UNL A   1      43.004  19.381  24.805  1.00  0.00    -0.744 OA
ENDBRANCH  73  74
ENDBRANCH  45  68
BRANCH  57  78
ATOM     78  C   UNL A   1      47.985  27.044  30.306  1.00  0.00    -0.014 A 
ATOM     79  C   UNL A   1      48.993  27.402  29.395  1.00  0.00     0.010 A 
ATOM     80  C   UNL A   1      48.335  26.422  31.519  1.00  0.00     0.010 A 
ATOM     81  C   UNL A   1      50.333  27.148  29.696  1.00  0.00     0.020 A 
ATOM     82  C   UNL A   1      49.675  26.179  31.827  1.00  0.00     0.020 A 
ATOM     83  C   UNL A   1      50.667  26.546  30.914  1.00  0.00     0.054 A 
BRANCH  83  84
ATOM     84  S   UNL A   1      52.420  26.301  31.308  1.00  0.00     0.124 S 
ATOM     85  O   UNL A   1      52.736  27.507  32.067  1.00  0.00    -0.237 OA
ATOM     86  O   UNL A   1      52.399  25.060  32.078  1.00  0.00    -0.237 OA
ATOM     87  O   UNL A   1      53.061  26.205  29.998  1.00  0.00    -0.744 OA
ENDBRANCH  83  84
ENDBRANCH  57  78
ENDBRANCH  31  32
ENDBRANCH  23  26
ENDBRANCH   1  22
TORSDOF 14
ENDMDL
MODEL 3
REMARK VINA RESULT:     -11.5      2.699      9.643
REMARK SMILES Cc1ccc2c(c1C)O[C@@H](C(=O)NCCCCNC(=O)c1ccc(-c3c4nc(c(-c5ccc(S(=O)(=O)[O-])cc5)c5ccc([nH]5)c(-c5ccc(S(=O)(=O)[O-])cc5)c5nc(c(-c6ccc(S(=O)(=O)[O-])cc6)c6ccc3[nH]6)C=C5)C=C4)cc1)CC2=O
REMARK SMILES IDX 17 1 16 2 15 3 14 4 13 5 11 6 12 7 10 9 1 10 2 11 3 12 7 13
REMARK SMILES IDX 4 14 6 15 8 16 5 17 9 18 82 19 81 20 83 21 18 22 19 23 20 25
REMARK SMILES IDX 21 26 22 27 80 28 23 29 79 30 24 31 25 32 26 33 73 34 27 35
REMARK SMILES IDX 78 36 72 37 74 38 28 39 77 40 71 41 70 42 29 44 59 45 40 46
REMARK SMILES IDX 58 47 41 48 44 49 57 50 75 51 42 52 43 53 56 55 76 56 45 57
REMARK SMILES IDX 30 58 31 59 39 60 32 61 38 62 33 63 34 64 35 65 36 66 37 67
REMARK SMILES IDX 60 68 61 69 69 70 62 71 68 72 63 73 64 74 65 75 66 76 67 77
REMARK SMILES IDX 46 78 47 79 55 80 48 81 54 82 49 83 50 84 51 85 52 86 53 87
REMARK H PARENT 13 8 18 24 74 43 44 54
REMARK Flexibility Score: inf
ROOT
ATOM      1  C   UNL A   1      37.135  23.485  25.133  1.00  0.00     0.116 C 
ENDROOT
BRANCH   1   2
ATOM      2  C   UNL A   1      36.277  22.998  23.969  1.00  0.00     0.023 C 
BRANCH   2   3
ATOM      3  C   UNL A   1      35.283  21.891  24.317  1.00  0.00     0.023 C 
BRANCH   3   4
ATOM      4  C   UNL A   1      33.826  22.240  24.008  1.00  0.00     0.116 C 
BRANCH   4   5
ATOM      5  N   UNL A   1      33.192  22.964  25.090  1.00  0.00    -0.353 N 
ATOM      6  C   UNL A   1      32.991  24.286  25.320  1.00  0.00     0.261 C 
ATOM      7  O   UNL A   1      32.329  24.570  26.327  1.00  0.00    -0.271 OA
ATOM      8  H   UNL A   1      32.837  22.381  25.800  1.00  0.00     0.163 HD
BRANCH   6   9
ATOM      9  C   UNL A   1      33.590  25.425  24.458  1.00  0.00     0.269 C 
ATOM     10  C   UNL A   1      32.244  30.870  26.905  1.00  0.00     0.045 C 
ATOM     11  C   UNL A   1      32.253  29.792  25.854  1.00  0.00    -0.044 A 
ATOM     12  C   UNL A   1      31.271  29.825  24.852  1.00  0.00     0.005 A 
ATOM     13  C   UNL A   1      33.218  28.761  25.847  1.00  0.00    -0.005 A 
ATOM     14  C   UNL A   1      31.215  28.832  23.878  1.00  0.00     0.016 A 
ATOM     15  C   UNL A   1      33.096  27.713  24.910  1.00  0.00     0.134 A 
ATOM     16  C   UNL A   1      34.322  28.701  26.874  1.00  0.00     0.049 C 
ATOM     17  C   UNL A   1      32.118  27.768  23.923  1.00  0.00     0.060 A 
ATOM     18  O   UNL A   1      33.929  26.647  25.085  1.00  0.00    -0.479 OA
ATOM     19  C   UNL A   1      31.988  26.662  22.964  1.00  0.00     0.170 C 
ATOM     20  C   UNL A   1      32.941  25.518  23.086  1.00  0.00     0.136 C 
ATOM     21  O   UNL A   1      31.148  26.707  22.069  1.00  0.00    -0.294 OA
ENDBRANCH   6   9
ENDBRANCH   4   5
ENDBRANCH   3   4
ENDBRANCH   2   3
ENDBRANCH   1   2
BRANCH   1  22
ATOM     22  N   UNL A   1      38.185  22.556  25.526  1.00  0.00    -0.352 N 
ATOM     23  C   UNL A   1      39.283  22.832  26.311  1.00  0.00     0.251 C 
ATOM     24  H   UNL A   1      38.101  21.633  25.195  1.00  0.00     0.163 HD
ATOM     25  O   UNL A   1      40.129  21.976  26.546  1.00  0.00    -0.269 OA
BRANCH  23  26
ATOM     26  C   UNL A   1      39.433  24.206  26.829  1.00  0.00     0.039 A 
ATOM     27  C   UNL A   1      39.023  24.485  28.134  1.00  0.00     0.014 A 
ATOM     28  C   UNL A   1      40.100  25.168  26.064  1.00  0.00     0.014 A 
ATOM     29  C   UNL A   1      39.353  25.715  28.706  1.00  0.00     0.010 A 
ATOM     30  C   UNL A   1      40.467  26.374  26.653  1.00  0.00     0.010 A 
ATOM     31  C   UNL A   1      40.110  26.652  27.983  1.00  0.00    -0.014 A 
BRANCH  31  32
ATOM     32  C   UNL A   1      40.550  27.924  28.603  1.00  0.00     0.031 A 
ATOM     33  C   UNL A   1      41.953  28.057  29.120  1.00  0.00     0.074 A 
ATOM     34  C   UNL A   1      39.673  28.936  28.758  1.00  0.00     0.049 A 
ATOM     35  N   UNL A   1      42.502  29.058  29.757  1.00  0.00    -0.248 NA
ATOM     36  C   UNL A   1      42.849  26.907  28.912  1.00  0.00     0.031 C 
ATOM     37  C   UNL A   1      38.271  28.918  28.331  1.00  0.00     0.029 A 
ATOM     38  N   UNL A   1      39.831  30.176  29.326  1.00  0.00    -0.354 N 
ATOM     39  C   UNL A   1      43.799  28.654  30.042  1.00  0.00     0.074 A 
ATOM     40  C   UNL A   1      43.947  27.307  29.536  1.00  0.00     0.031 C 
ATOM     41  C   UNL A   1      37.707  30.100  28.631  1.00  0.00     0.029 A 
ATOM     42  C   UNL A   1      38.694  30.947  29.295  1.00  0.00     0.049 A 
ATOM     43  H   UNL A   1      40.680  30.483  29.719  1.00  0.00     0.167 HD
ATOM     44  C   UNL A   1      44.787  29.349  30.653  1.00  0.00     0.031 A 
ATOM     45  C   UNL A   1      38.470  32.197  29.745  1.00  0.00     0.031 A 
ATOM     46  C   UNL A   1      44.653  30.696  31.133  1.00  0.00     0.049 A 
ATOM     47  C   UNL A   1      39.585  32.956  30.406  1.00  0.00     0.074 A 
ATOM     48  C   UNL A   1      45.613  31.495  31.728  1.00  0.00     0.029 A 
ATOM     49  N   UNL A   1      43.491  31.447  31.063  1.00  0.00    -0.354 N 
ATOM     50  N   UNL A   1      40.815  32.566  30.642  1.00  0.00    -0.248 NA
ATOM     51  C   UNL A   1      39.287  34.324  30.857  1.00  0.00     0.031 C 
ATOM     52  C   UNL A   1      45.024  32.725  32.037  1.00  0.00     0.029 A 
ATOM     53  C   UNL A   1      43.707  32.699  31.608  1.00  0.00     0.049 A 
ATOM     54  H   UNL A   1      42.638  31.135  30.683  1.00  0.00     0.167 HD
ATOM     55  C   UNL A   1      41.442  33.644  31.254  1.00  0.00     0.074 A 
ATOM     56  C   UNL A   1      40.460  34.705  31.351  1.00  0.00     0.031 C 
ATOM     57  C   UNL A   1      42.719  33.744  31.694  1.00  0.00     0.031 A 
BRANCH  44  58
ATOM     58  C   UNL A   1      46.106  28.654  30.830  1.00  0.00    -0.014 A 
ATOM     59  C   UNL A   1      47.113  28.772  29.856  1.00  0.00     0.010 A 
ATOM     60  C   UNL A   1      46.352  27.901  31.991  1.00  0.00     0.010 A 
ATOM     61  C   UNL A   1      48.334  28.117  30.023  1.00  0.00     0.020 A 
ATOM     62  C   UNL A   1      47.580  27.259  32.170  1.00  0.00     0.020 A 
ATOM     63  C   UNL A   1      48.558  27.362  31.179  1.00  0.00     0.054 A 
BRANCH  63  64
ATOM     64  S   UNL A   1      50.156  26.525  31.364  1.00  0.00     0.124 S 
ATOM     65  O   UNL A   1      50.931  27.513  32.111  1.00  0.00    -0.237 OA
ATOM     66  O   UNL A   1      49.797  25.318  32.105  1.00  0.00    -0.237 OA
ATOM     67  O   UNL A   1      50.596  26.304  29.989  1.00  0.00    -0.744 OA
ENDBRANCH  63  64
ENDBRANCH  44  58
BRANCH  45  68
ATOM     68  C   UNL A   1      37.134  32.816  29.556  1.00  0.00    -0.014 A 
ATOM     69  C   UNL A   1      36.295  33.031  30.664  1.00  0.00     0.010 A 
ATOM     70  C   UNL A   1      36.712  33.234  28.282  1.00  0.00     0.010 A 
ATOM     71  C   UNL A   1      35.057  33.658  30.500  1.00  0.00     0.020 A 
ATOM     72  C   UNL A   1      35.480  33.874  28.117  1.00  0.00     0.020 A 
ATOM     73  C   UNL A   1      34.661  34.084  29.229  1.00  0.00     0.054 A 
BRANCH  73  74
ATOM     74  S   UNL A   1      33.078  34.954  29.060  1.00  0.00     0.124 S 
ATOM     75  O   UNL A   1      32.524  34.848  30.406  1.00  0.00    -0.237 OA
ATOM     76  O   UNL A   1      33.503  36.291  28.654  1.00  0.00    -0.237 OA
ATOM     77  O   UNL A   1      32.374  34.192  28.031  1.00  0.00    -0.744 OA
ENDBRANCH  73  74
ENDBRANCH  45  68
BRANCH  57  78
ATOM     78  C   UNL A   1      43.149  35.044  32.309  1.00  0.00    -0.014 A 
ATOM     79  C   UNL A   1      43.699  36.064  31.515  1.00  0.00     0.010 A 
ATOM     80  C   UNL A   1      42.892  35.288  33.671  1.00  0.00     0.010 A 
ATOM     81  C   UNL A   1      43.983  37.313  32.074  1.00  0.00     0.020 A 
ATOM     82  C   UNL A   1      43.163  36.539  34.229  1.00  0.00     0.020 A 
ATOM     83  C   UNL A   1      43.705  37.545  33.425  1.00  0.00     0.054 A 
BRANCH  83  84
ATOM     84  S   UNL A   1      44.012  39.200  34.101  1.00  0.00     0.124 S 
ATOM     85  O   UNL A   1      42.829  39.936  33.662  1.00  0.00    -0.237 OA
ATOM     86  O   UNL A   1      44.098  38.943  35.536  1.00  0.00    -0.237 OA
ATOM     87  O   UNL A   1      45.266  39.607  33.470  1.00  0.00    -0.744 OA
ENDBRANCH  83  84
ENDBRANCH  57  78
ENDBRANCH  31  32
ENDBRANCH  23  26
ENDBRANCH   1  22
TORSDOF 14
ENDMDL
