MODEL 1
REMARK VINA RESULT:     -12.2      0.000      0.000
REMARK SMILES O=C(NCCCCNC(=O)c1ccc(-c2c3nc(c(-c4ccc(S(=O)(=O)[O-])cc4)c4ccc([nH]4)c(-c4ccc(S(=O)(=O)[O-])cc4)c4nc(c(-c5ccc(S(=O)(=O)[O-])cc5)c5ccc2[nH]5)C=C4)C=C3)cc1)c1ccc(NC(=O)c2ccccc2NC(=O)C2CC2)cc1
REMARK SMILES IDX 5 1 4 2 3 3 1 4 2 5 71 7 72 8 91 9 73 10 90 11 74 12 75 13
REMARK SMILES IDX 76 14 77 16 78 17 79 18 83 19 80 20 82 21 81 22 84 23 85 24
REMARK SMILES IDX 86 26 87 27 88 28 89 29 6 30 7 31 8 32 9 33 10 35 11 36
REMARK SMILES IDX 12 37 70 38 13 39 69 40 14 41 15 42 16 43 63 44 17 45 68 46
REMARK SMILES IDX 62 47 64 48 18 49 67 50 61 51 60 52 19 54 49 55 30 56 48 57
REMARK SMILES IDX 31 58 34 59 47 60 65 61 32 62 33 63 46 65 66 66 35 67 20 68
REMARK SMILES IDX 21 69 29 70 22 71 28 72 23 73 24 74 25 75 26 76 27 77 50 78
REMARK SMILES IDX 51 79 59 80 52 81 58 82 53 83 54 84 55 85 56 86 57 87 36 88
REMARK SMILES IDX 37 89 45 90 38 91 44 92 39 93 40 94 41 95 42 96 43 97
REMARK H PARENT 3 6 75 15 84 25 8 34 64 53 34 64
REMARK Flexibility Score: inf
ROOT
ATOM      1  C   UNL A   1      37.163  22.613  25.311  1.00  0.00     0.023 C 
ENDROOT
BRANCH   1   2
ATOM      2  C   UNL A   1      35.674  22.407  25.503  1.00  0.00     0.116 C 
BRANCH   2   3
ATOM      3  N   UNL A   1      35.188  21.108  25.053  1.00  0.00    -0.352 N 
ATOM      4  O   UNL A   1      33.658  19.569  24.406  1.00  0.00    -0.269 OA
ATOM      5  C   UNL A   1      33.926  20.747  24.627  1.00  0.00     0.251 C 
ATOM      6  H   UNL A   1      35.857  20.386  25.053  1.00  0.00     0.163 HD
BRANCH   5   7
ATOM      7  C   UNL A   1      32.886  21.784  24.439  1.00  0.00     0.039 A 
ATOM      8  C   UNL A   1      32.841  22.497  23.249  1.00  0.00     0.016 A 
ATOM      9  C   UNL A   1      31.958  22.077  25.438  1.00  0.00     0.016 A 
ATOM     10  C   UNL A   1      32.014  23.594  23.110  1.00  0.00     0.027 A 
ATOM     11  C   UNL A   1      31.010  23.092  25.227  1.00  0.00     0.027 A 
ATOM     12  C   UNL A   1      31.015  23.832  24.035  1.00  0.00     0.041 A 
BRANCH  12  13
ATOM     13  N   UNL A   1      29.973  24.740  23.797  1.00  0.00    -0.322 N 
ATOM     14  C   UNL A   1      29.817  26.074  24.115  1.00  0.00     0.257 C 
ATOM     15  H   UNL A   1      29.209  24.353  23.312  1.00  0.00     0.170 HD
ATOM     16  O   UNL A   1      28.731  26.610  23.878  1.00  0.00    -0.269 OA
BRANCH  14  17
ATOM     17  C   UNL A   1      30.873  26.920  24.736  1.00  0.00     0.063 A 
ATOM     18  C   UNL A   1      31.395  26.405  25.938  1.00  0.00     0.016 A 
ATOM     19  C   UNL A   1      31.369  28.142  24.214  1.00  0.00     0.054 A 
ATOM     20  C   UNL A   1      32.395  27.087  26.628  1.00  0.00     0.001 A 
ATOM     21  C   UNL A   1      32.305  28.849  24.977  1.00  0.00     0.027 A 
ATOM     22  C   UNL A   1      32.833  28.317  26.157  1.00  0.00     0.002 A 
BRANCH  19  23
ATOM     23  N   UNL A   1      30.973  28.587  22.935  1.00  0.00    -0.325 N 
ATOM     24  C   UNL A   1      30.000  29.465  22.508  1.00  0.00     0.227 C 
ATOM     25  H   UNL A   1      31.496  28.190  22.201  1.00  0.00     0.169 HD
ATOM     26  O   UNL A   1      29.919  29.704  21.304  1.00  0.00    -0.274 OA
BRANCH  24  27
ATOM     27  C   UNL A   1      29.045  30.148  23.427  1.00  0.00     0.079 C 
ATOM     28  C   UNL A   1      28.184  31.345  23.088  1.00  0.00     0.014 C 
ATOM     29  C   UNL A   1      27.555  29.993  23.147  1.00  0.00     0.014 C 
ENDBRANCH  24  27
ENDBRANCH  19  23
ENDBRANCH  14  17
ENDBRANCH  12  13
ENDBRANCH   5   7
ENDBRANCH   2   3
ENDBRANCH   1   2
BRANCH   1  30
ATOM     30  C   UNL A   1      37.979  21.334  25.267  1.00  0.00     0.023 C 
BRANCH  30  31
ATOM     31  C   UNL A   1      39.232  21.334  26.135  1.00  0.00     0.116 C 
BRANCH  31  32
ATOM     32  N   UNL A   1      39.998  20.095  26.061  1.00  0.00    -0.352 N 
ATOM     33  C   UNL A   1      41.361  19.911  26.122  1.00  0.00     0.251 C 
ATOM     34  H   UNL A   1      39.465  19.275  25.951  1.00  0.00     0.163 HD
ATOM     35  O   UNL A   1      41.846  18.800  25.936  1.00  0.00    -0.269 OA
BRANCH  33  36
ATOM     36  C   UNL A   1      42.231  21.077  26.373  1.00  0.00     0.039 A 
ATOM     37  C   UNL A   1      42.654  21.851  25.292  1.00  0.00     0.014 A 
ATOM     38  C   UNL A   1      42.553  21.449  27.680  1.00  0.00     0.014 A 
ATOM     39  C   UNL A   1      43.317  23.057  25.530  1.00  0.00     0.010 A 
ATOM     40  C   UNL A   1      43.128  22.691  27.918  1.00  0.00     0.010 A 
ATOM     41  C   UNL A   1      43.509  23.512  26.845  1.00  0.00    -0.014 A 
BRANCH  41  42
ATOM     42  C   UNL A   1      44.071  24.859  27.123  1.00  0.00     0.031 A 
ATOM     43  C   UNL A   1      43.179  25.972  27.594  1.00  0.00     0.074 A 
ATOM     44  C   UNL A   1      45.373  25.099  26.867  1.00  0.00     0.049 A 
ATOM     45  N   UNL A   1      43.480  27.222  27.835  1.00  0.00    -0.248 NA
ATOM     46  C   UNL A   1      41.758  25.646  27.791  1.00  0.00     0.031 C 
ATOM     47  C   UNL A   1      46.331  24.121  26.346  1.00  0.00     0.029 A 
ATOM     48  N   UNL A   1      46.113  26.248  26.998  1.00  0.00    -0.354 N 
ATOM     49  C   UNL A   1      42.286  27.834  28.195  1.00  0.00     0.074 A 
ATOM     50  C   UNL A   1      41.249  26.832  28.084  1.00  0.00     0.031 C 
ATOM     51  C   UNL A   1      47.535  24.702  26.229  1.00  0.00     0.029 A 
ATOM     52  C   UNL A   1      47.429  26.102  26.624  1.00  0.00     0.049 A 
ATOM     53  H   UNL A   1      45.739  27.096  27.331  1.00  0.00     0.167 HD
ATOM     54  C   UNL A   1      42.073  29.109  28.603  1.00  0.00     0.031 A 
ATOM     55  C   UNL A   1      48.436  26.996  26.591  1.00  0.00     0.031 A 
ATOM     56  C   UNL A   1      43.106  30.103  28.707  1.00  0.00     0.049 A 
ATOM     57  C   UNL A   1      48.182  28.406  27.042  1.00  0.00     0.074 A 
ATOM     58  C   UNL A   1      43.006  31.403  29.170  1.00  0.00     0.029 A 
ATOM     59  N   UNL A   1      44.429  29.913  28.332  1.00  0.00    -0.354 N 
ATOM     60  N   UNL A   1      47.062  28.945  27.464  1.00  0.00    -0.248 NA
ATOM     61  C   UNL A   1      49.326  29.327  27.023  1.00  0.00     0.031 C 
ATOM     62  C   UNL A   1      44.255  32.017  29.021  1.00  0.00     0.029 A 
ATOM     63  C   UNL A   1      45.149  31.082  28.521  1.00  0.00     0.049 A 
ATOM     64  H   UNL A   1      44.801  29.071  27.982  1.00  0.00     0.167 HD
ATOM     65  C   UNL A   1      47.370  30.265  27.774  1.00  0.00     0.074 A 
ATOM     66  C   UNL A   1      48.785  30.436  27.511  1.00  0.00     0.031 C 
ATOM     67  C   UNL A   1      46.553  31.244  28.235  1.00  0.00     0.031 A 
BRANCH  54  68
ATOM     68  C   UNL A   1      40.656  29.491  28.947  1.00  0.00    -0.014 A 
ATOM     69  C   UNL A   1      40.251  29.657  30.286  1.00  0.00     0.010 A 
ATOM     70  C   UNL A   1      39.714  29.683  27.922  1.00  0.00     0.010 A 
ATOM     71  C   UNL A   1      38.919  29.938  30.594  1.00  0.00     0.020 A 
ATOM     72  C   UNL A   1      38.385  29.997  28.223  1.00  0.00     0.020 A 
ATOM     73  C   UNL A   1      37.991  30.097  29.560  1.00  0.00     0.054 A 
BRANCH  73  74
ATOM     74  S   UNL A   1      36.263  30.441  29.988  1.00  0.00     0.124 S 
ATOM     75  O   UNL A   1      36.261  31.899  30.077  1.00  0.00    -0.237 OA
ATOM     76  O   UNL A   1      35.533  29.881  28.854  1.00  0.00    -0.237 OA
ATOM     77  O   UNL A   1      36.073  29.740  31.256  1.00  0.00    -0.744 OA
ENDBRANCH  73  74
ENDBRANCH  54  68
BRANCH  55  78
ATOM     78  C   UNL A   1      49.782  26.562  26.126  1.00  0.00    -0.014 A 
ATOM     79  C   UNL A   1      50.213  26.846  24.819  1.00  0.00     0.010 A 
ATOM     80  C   UNL A   1      50.665  25.917  27.013  1.00  0.00     0.010 A 
ATOM     81  C   UNL A   1      51.503  26.500  24.408  1.00  0.00     0.020 A 
ATOM     82  C   UNL A   1      51.964  25.592  26.614  1.00  0.00     0.020 A 
ATOM     83  C   UNL A   1      52.374  25.884  25.311  1.00  0.00     0.054 A 
BRANCH  83  84
ATOM     84  S   UNL A   1      54.076  25.533  24.785  1.00  0.00     0.124 S 
ATOM     85  O   UNL A   1      54.056  25.954  23.389  1.00  0.00    -0.237 OA
ATOM     86  O   UNL A   1      54.862  26.370  25.689  1.00  0.00    -0.237 OA
ATOM     87  O   UNL A   1      54.212  24.095  25.005  1.00  0.00    -0.744 OA
ENDBRANCH  83  84
ENDBRANCH  55  78
BRANCH  67  88
ATOM     88  C   UNL A   1      47.170  32.594  28.490  1.00  0.00    -0.014 A 
ATOM     89  C   UNL A   1      47.762  32.901  29.728  1.00  0.00     0.010 A 
ATOM     90  C   UNL A   1      47.204  33.551  27.459  1.00  0.00     0.010 A 
ATOM     91  C   UNL A   1      48.352  34.150  29.940  1.00  0.00     0.020 A 
ATOM     92  C   UNL A   1      47.818  34.790  27.657  1.00  0.00     0.020 A 
ATOM     93  C   UNL A   1      48.376  35.087  28.901  1.00  0.00     0.054 A 
BRANCH  93  94
ATOM     94  S   UNL A   1      49.187  36.684  29.187  1.00  0.00     0.124 S 
ATOM     95  O   UNL A   1      49.738  36.984  27.868  1.00  0.00    -0.237 OA
ATOM     96  O   UNL A   1      48.079  37.535  29.614  1.00  0.00    -0.237 OA
ATOM     97  O   UNL A   1      50.176  36.390  30.223  1.00  0.00    -0.744 OA
ENDBRANCH  93  94
ENDBRANCH  67  88
ENDBRANCH  41  42
ENDBRANCH  33  36
ENDBRANCH  31  32
ENDBRANCH  30  31
ENDBRANCH   1  30
TORSDOF 18
ENDMDL
MODEL 2
REMARK VINA RESULT:     -12.2      0.568      7.964
REMARK SMILES O=C(NCCCCNC(=O)c1ccc(-c2c3nc(c(-c4ccc(S(=O)(=O)[O-])cc4)c4ccc([nH]4)c(-c4ccc(S(=O)(=O)[O-])cc4)c4nc(c(-c5ccc(S(=O)(=O)[O-])cc5)c5ccc2[nH]5)C=C4)C=C3)cc1)c1ccc(NC(=O)c2ccccc2NC(=O)C2CC2)cc1
REMARK SMILES IDX 5 1 4 2 3 3 1 4 2 5 71 7 72 8 91 9 73 10 90 11 74 12 75 13
REMARK SMILES IDX 76 14 77 16 78 17 79 18 83 19 80 20 82 21 81 22 84 23 85 24
REMARK SMILES IDX 86 26 87 27 88 28 89 29 6 30 7 31 8 32 9 33 10 35 11 36
REMARK SMILES IDX 12 37 70 38 13 39 69 40 14 41 15 42 16 43 63 44 17 45 68 46
REMARK SMILES IDX 62 47 64 48 18 49 67 50 61 51 60 52 19 54 49 55 30 56 48 57
REMARK SMILES IDX 31 58 34 59 47 60 65 61 32 62 33 63 46 65 66 66 35 67 20 68
REMARK SMILES IDX 21 69 29 70 22 71 28 72 23 73 24 74 25 75 26 76 27 77 50 78
REMARK SMILES IDX 51 79 59 80 52 81 58 82 53 83 54 84 55 85 56 86 57 87 36 88
REMARK SMILES IDX 37 89 45 90 38 91 44 92 39 93 40 94 41 95 42 96 43 97
REMARK H PARENT 3 6 75 15 84 25 8 34 64 53 34 64
REMARK Flexibility Score: inf
ROOT
ATOM      1  C   UNL A   1      37.284  22.585  24.876  1.00  0.00     0.023 C 
ENDROOT
BRANCH   1   2
ATOM      2  C   UNL A   1      35.772  22.556  24.787  1.00  0.00     0.116 C 
BRANCH   2   3
ATOM      3  N   UNL A   1      35.204  21.215  24.710  1.00  0.00    -0.352 N 
ATOM      4  O   UNL A   1      33.573  19.643  24.695  1.00  0.00    -0.269 OA
ATOM      5  C   UNL A   1      33.881  20.829  24.619  1.00  0.00     0.251 C 
ATOM      6  H   UNL A   1      35.858  20.479  24.724  1.00  0.00     0.163 HD
BRANCH   5   7
ATOM      7  C   UNL A   1      32.826  21.852  24.434  1.00  0.00     0.039 A 
ATOM      8  C   UNL A   1      32.841  22.648  23.297  1.00  0.00     0.016 A 
ATOM      9  C   UNL A   1      31.825  22.048  25.384  1.00  0.00     0.016 A 
ATOM     10  C   UNL A   1      31.993  23.732  23.179  1.00  0.00     0.027 A 
ATOM     11  C   UNL A   1      30.864  23.051  25.180  1.00  0.00     0.027 A 
ATOM     12  C   UNL A   1      30.928  23.877  24.046  1.00  0.00     0.041 A 
BRANCH  12  13
ATOM     13  N   UNL A   1      29.878  24.774  23.802  1.00  0.00    -0.322 N 
ATOM     14  C   UNL A   1      29.721  26.115  24.086  1.00  0.00     0.257 C 
ATOM     15  H   UNL A   1      29.107  24.370  23.340  1.00  0.00     0.170 HD
ATOM     16  O   UNL A   1      28.629  26.641  23.853  1.00  0.00    -0.269 OA
BRANCH  14  17
ATOM     17  C   UNL A   1      30.783  26.982  24.666  1.00  0.00     0.063 A 
ATOM     18  C   UNL A   1      31.382  26.464  25.831  1.00  0.00     0.016 A 
ATOM     19  C   UNL A   1      31.217  28.226  24.141  1.00  0.00     0.054 A 
ATOM     20  C   UNL A   1      32.396  27.164  26.480  1.00  0.00     0.001 A 
ATOM     21  C   UNL A   1      32.170  28.948  24.866  1.00  0.00     0.027 A 
ATOM     22  C   UNL A   1      32.775  28.414  26.008  1.00  0.00     0.002 A 
BRANCH  19  23
ATOM     23  N   UNL A   1      30.742  28.680  22.891  1.00  0.00    -0.325 N 
ATOM     24  C   UNL A   1      29.885  29.696  22.527  1.00  0.00     0.227 C 
ATOM     25  H   UNL A   1      31.093  28.167  22.128  1.00  0.00     0.169 HD
ATOM     26  O   UNL A   1      29.693  29.894  21.329  1.00  0.00    -0.274 OA
BRANCH  24  27
ATOM     27  C   UNL A   1      29.184  30.574  23.507  1.00  0.00     0.079 C 
ATOM     28  C   UNL A   1      28.479  31.876  23.192  1.00  0.00     0.014 C 
ATOM     29  C   UNL A   1      27.664  30.649  23.433  1.00  0.00     0.014 C 
ENDBRANCH  24  27
ENDBRANCH  19  23
ENDBRANCH  14  17
ENDBRANCH  12  13
ENDBRANCH   5   7
ENDBRANCH   2   3
ENDBRANCH   1   2
BRANCH   1  30
ATOM     30  C   UNL A   1      37.932  21.230  25.093  1.00  0.00     0.023 C 
BRANCH  30  31
ATOM     31  C   UNL A   1      39.056  21.206  26.123  1.00  0.00     0.116 C 
BRANCH  31  32
ATOM     32  N   UNL A   1      39.890  20.012  26.054  1.00  0.00    -0.352 N 
ATOM     33  C   UNL A   1      41.260  19.903  26.130  1.00  0.00     0.251 C 
ATOM     34  H   UNL A   1      39.405  19.163  25.935  1.00  0.00     0.163 HD
ATOM     35  O   UNL A   1      41.808  18.821  25.947  1.00  0.00    -0.269 OA
BRANCH  33  36
ATOM     36  C   UNL A   1      42.062  21.114  26.394  1.00  0.00     0.039 A 
ATOM     37  C   UNL A   1      42.572  21.837  25.314  1.00  0.00     0.014 A 
ATOM     38  C   UNL A   1      42.231  21.577  27.700  1.00  0.00     0.014 A 
ATOM     39  C   UNL A   1      43.168  23.080  25.542  1.00  0.00     0.010 A 
ATOM     40  C   UNL A   1      42.739  22.853  27.915  1.00  0.00     0.010 A 
ATOM     41  C   UNL A   1      43.204  23.621  26.837  1.00  0.00    -0.014 A 
BRANCH  41  42
ATOM     42  C   UNL A   1      43.692  25.003  27.084  1.00  0.00     0.031 A 
ATOM     43  C   UNL A   1      45.139  25.346  26.873  1.00  0.00     0.074 A 
ATOM     44  C   UNL A   1      42.845  25.926  27.580  1.00  0.00     0.049 A 
ATOM     45  N   UNL A   1      45.757  26.479  27.086  1.00  0.00    -0.248 NA
ATOM     46  C   UNL A   1      46.014  24.267  26.387  1.00  0.00     0.031 C 
ATOM     47  C   UNL A   1      41.430  25.702  27.889  1.00  0.00     0.029 A 
ATOM     48  N   UNL A   1      43.054  27.239  27.925  1.00  0.00    -0.354 N 
ATOM     49  C   UNL A   1      47.091  26.246  26.778  1.00  0.00     0.074 A 
ATOM     50  C   UNL A   1      47.202  24.849  26.419  1.00  0.00     0.031 C 
ATOM     51  C   UNL A   1      40.894  26.843  28.350  1.00  0.00     0.029 A 
ATOM     52  C   UNL A   1      41.931  27.867  28.412  1.00  0.00     0.049 A 
ATOM     53  H   UNL A   1      43.925  27.689  27.831  1.00  0.00     0.167 HD
ATOM     54  C   UNL A   1      48.128  27.119  26.772  1.00  0.00     0.031 A 
ATOM     55  C   UNL A   1      41.755  29.123  28.867  1.00  0.00     0.031 A 
ATOM     56  C   UNL A   1      48.013  28.506  27.134  1.00  0.00     0.049 A 
ATOM     57  C   UNL A   1      42.916  30.076  28.857  1.00  0.00     0.074 A 
ATOM     58  C   UNL A   1      48.988  29.487  27.100  1.00  0.00     0.029 A 
ATOM     59  N   UNL A   1      46.856  29.108  27.608  1.00  0.00    -0.354 N 
ATOM     60  N   UNL A   1      44.155  29.860  28.478  1.00  0.00    -0.248 NA
ATOM     61  C   UNL A   1      42.657  31.444  29.327  1.00  0.00     0.031 C 
ATOM     62  C   UNL A   1      48.436  30.669  27.608  1.00  0.00     0.029 A 
ATOM     63  C   UNL A   1      47.100  30.440  27.902  1.00  0.00     0.049 A 
ATOM     64  H   UNL A   1      45.989  28.654  27.720  1.00  0.00     0.167 HD
ATOM     65  C   UNL A   1      44.819  31.069  28.650  1.00  0.00     0.074 A 
ATOM     66  C   UNL A   1      43.841  32.016  29.147  1.00  0.00     0.031 C 
ATOM     67  C   UNL A   1      46.122  31.366  28.417  1.00  0.00     0.031 A 
BRANCH  54  68
ATOM     68  C   UNL A   1      49.477  26.578  26.375  1.00  0.00    -0.014 A 
ATOM     69  C   UNL A   1      50.295  25.906  27.304  1.00  0.00     0.010 A 
ATOM     70  C   UNL A   1      49.938  26.746  25.057  1.00  0.00     0.010 A 
ATOM     71  C   UNL A   1      51.573  25.476  26.941  1.00  0.00     0.020 A 
ATOM     72  C   UNL A   1      51.204  26.287  24.680  1.00  0.00     0.020 A 
ATOM     73  C   UNL A   1      52.024  25.679  25.633  1.00  0.00     0.054 A 
BRANCH  73  74
ATOM     74  S   UNL A   1      53.695  25.128  25.195  1.00  0.00     0.124 S 
ATOM     75  O   UNL A   1      53.572  23.677  25.305  1.00  0.00    -0.237 OA
ATOM     76  O   UNL A   1      53.858  25.643  23.838  1.00  0.00    -0.237 OA
ATOM     77  O   UNL A   1      54.544  25.759  26.204  1.00  0.00    -0.744 OA
ENDBRANCH  73  74
ENDBRANCH  54  68
BRANCH  55  78
ATOM     78  C   UNL A   1      40.412  29.543  29.350  1.00  0.00    -0.014 A 
ATOM     79  C   UNL A   1      40.131  29.592  30.726  1.00  0.00     0.010 A 
ATOM     80  C   UNL A   1      39.426  29.958  28.435  1.00  0.00     0.010 A 
ATOM     81  C   UNL A   1      38.892  30.053  31.180  1.00  0.00     0.020 A 
ATOM     82  C   UNL A   1      38.196  30.443  28.885  1.00  0.00     0.020 A 
ATOM     83  C   UNL A   1      37.935  30.486  30.257  1.00  0.00     0.054 A 
BRANCH  83  84
ATOM     84  S   UNL A   1      36.372  31.173  30.873  1.00  0.00     0.124 S 
ATOM     85  O   UNL A   1      35.901  30.112  31.756  1.00  0.00    -0.237 OA
ATOM     86  O   UNL A   1      36.809  32.401  31.532  1.00  0.00    -0.237 OA
ATOM     87  O   UNL A   1      35.585  31.374  29.658  1.00  0.00    -0.744 OA
ENDBRANCH  83  84
ENDBRANCH  55  78
BRANCH  67  88
ATOM     88  C   UNL A   1      46.569  32.777  28.693  1.00  0.00    -0.014 A 
ATOM     89  C   UNL A   1      47.106  33.139  29.941  1.00  0.00     0.010 A 
ATOM     90  C   UNL A   1      46.499  33.742  27.671  1.00  0.00     0.010 A 
ATOM     91  C   UNL A   1      47.539  34.447  30.172  1.00  0.00     0.020 A 
ATOM     92  C   UNL A   1      46.957  35.044  27.889  1.00  0.00     0.020 A 
ATOM     93  C   UNL A   1      47.461  35.392  29.143  1.00  0.00     0.054 A 
BRANCH  93  94
ATOM     94  S   UNL A   1      48.071  37.072  29.454  1.00  0.00     0.124 S 
ATOM     95  O   UNL A   1      46.844  37.859  29.377  1.00  0.00    -0.237 OA
ATOM     96  O   UNL A   1      48.662  36.957  30.785  1.00  0.00    -0.237 OA
ATOM     97  O   UNL A   1      49.027  37.299  28.372  1.00  0.00    -0.744 OA
ENDBRANCH  93  94
ENDBRANCH  67  88
ENDBRANCH  41  42
ENDBRANCH  33  36
ENDBRANCH  31  32
ENDBRANCH  30  31
ENDBRANCH   1  30
TORSDOF 18
ENDMDL
MODEL 3
REMARK VINA RESULT:     -12.1      5.919     10.397
REMARK SMILES O=C(NCCCCNC(=O)c1ccc(-c2c3nc(c(-c4ccc(S(=O)(=O)[O-])cc4)c4ccc([nH]4)c(-c4ccc(S(=O)(=O)[O-])cc4)c4nc(c(-c5ccc(S(=O)(=O)[O-])cc5)c5ccc2[nH]5)C=C4)C=C3)cc1)c1ccc(NC(=O)c2ccccc2NC(=O)C2CC2)cc1
REMARK SMILES IDX 5 1 4 2 3 3 1 4 2 5 71 7 72 8 91 9 73 10 90 11 74 12 75 13
REMARK SMILES IDX 76 14 77 16 78 17 79 18 83 19 80 20 82 21 81 22 84 23 85 24
REMARK SMILES IDX 86 26 87 27 88 28 89 29 6 30 7 31 8 32 9 33 10 35 11 36
REMARK SMILES IDX 12 37 70 38 13 39 69 40 14 41 15 42 16 43 63 44 17 45 68 46
REMARK SMILES IDX 62 47 64 48 18 49 67 50 61 51 60 52 19 54 49 55 30 56 48 57
REMARK SMILES IDX 31 58 34 59 47 60 65 61 32 62 33 63 46 65 66 66 35 67 20 68
REMARK SMILES IDX 21 69 29 70 22 71 28 72 23 73 24 74 25 75 26 76 27 77 50 78
REMARK SMILES IDX 51 79 59 80 52 81 58 82 53 83 54 84 55 85 56 86 57 87 36 88
REMARK SMILES IDX 37 89 45 90 38 91 44 92 39 93 40 94 41 95 42 96 43 97
REMARK H PARENT 3 6 75 15 84 25 8 34 64 53 34 64
REMARK Flexibility Score: inf
ROOT
ATOM      1  C   UNL A   1      37.501  24.069  26.204  1.00  0.00     0.023 C 
ENDROOT
BRANCH   1   2
ATOM      2  C   UNL A   1      36.078  23.698  25.839  1.00  0.00     0.116 C 
BRANCH   2   3
ATOM      3  N   UNL A   1      35.913  22.314  25.410  1.00  0.00    -0.352 N 
ATOM      4  O   UNL A   1      34.797  20.471  24.710  1.00  0.00    -0.269 OA
ATOM      5  C   UNL A   1      34.796  21.685  24.898  1.00  0.00     0.251 C 
ATOM      6  H   UNL A   1      36.713  21.748  25.497  1.00  0.00     0.163 HD
BRANCH   5   7
ATOM      7  C   UNL A   1      33.585  22.476  24.579  1.00  0.00     0.039 A 
ATOM      8  C   UNL A   1      32.484  22.406  25.421  1.00  0.00     0.016 A 
ATOM      9  C   UNL A   1      33.517  23.279  23.442  1.00  0.00     0.016 A 
ATOM     10  C   UNL A   1      31.278  22.975  25.061  1.00  0.00     0.027 A 
ATOM     11  C   UNL A   1      32.336  23.987  23.164  1.00  0.00     0.027 A 
ATOM     12  C   UNL A   1      31.218  23.862  24.003  1.00  0.00     0.041 A 
BRANCH  12  13
ATOM     13  N   UNL A   1      30.106  24.686  23.777  1.00  0.00    -0.322 N 
ATOM     14  C   UNL A   1      29.856  26.008  24.084  1.00  0.00     0.257 C 
ATOM     15  H   UNL A   1      29.364  24.237  23.311  1.00  0.00     0.170 HD
ATOM     16  O   UNL A   1      28.729  26.459  23.862  1.00  0.00    -0.269 OA
BRANCH  14  17
ATOM     17  C   UNL A   1      30.857  26.938  24.675  1.00  0.00     0.063 A 
ATOM     18  C   UNL A   1      31.459  26.467  25.857  1.00  0.00     0.016 A 
ATOM     19  C   UNL A   1      31.233  28.199  24.144  1.00  0.00     0.054 A 
ATOM     20  C   UNL A   1      32.419  27.228  26.519  1.00  0.00     0.001 A 
ATOM     21  C   UNL A   1      32.130  28.980  24.880  1.00  0.00     0.027 A 
ATOM     22  C   UNL A   1      32.738  28.492  26.040  1.00  0.00     0.002 A 
BRANCH  19  23
ATOM     23  N   UNL A   1      30.760  28.612  22.879  1.00  0.00    -0.325 N 
ATOM     24  C   UNL A   1      29.761  29.478  22.490  1.00  0.00     0.227 C 
ATOM     25  H   UNL A   1      31.240  28.197  22.126  1.00  0.00     0.169 HD
ATOM     26  O   UNL A   1      29.608  29.687  21.287  1.00  0.00    -0.274 OA
BRANCH  24  27
ATOM     27  C   UNL A   1      28.861  30.184  23.446  1.00  0.00     0.079 C 
ATOM     28  C   UNL A   1      28.863  31.667  23.743  1.00  0.00     0.014 C 
ATOM     29  C   UNL A   1      27.793  31.103  22.869  1.00  0.00     0.014 C 
ENDBRANCH  24  27
ENDBRANCH  19  23
ENDBRANCH  14  17
ENDBRANCH  12  13
ENDBRANCH   5   7
ENDBRANCH   2   3
ENDBRANCH   1   2
BRANCH   1  30
ATOM     30  C   UNL A   1      38.421  22.887  26.447  1.00  0.00     0.023 C 
BRANCH  30  31
ATOM     31  C   UNL A   1      39.791  23.239  27.017  1.00  0.00     0.116 C 
BRANCH  31  32
ATOM     32  N   UNL A   1      40.679  23.881  26.055  1.00  0.00    -0.352 N 
ATOM     33  C   UNL A   1      41.376  25.063  26.169  1.00  0.00     0.251 C 
ATOM     34  H   UNL A   1      40.797  23.401  25.203  1.00  0.00     0.163 HD
ATOM     35  O   UNL A   1      42.000  25.509  25.212  1.00  0.00    -0.269 OA
BRANCH  33  36
ATOM     36  C   UNL A   1      41.326  25.804  27.444  1.00  0.00     0.039 A 
ATOM     37  C   UNL A   1      42.441  26.542  27.842  1.00  0.00     0.014 A 
ATOM     38  C   UNL A   1      40.149  25.836  28.196  1.00  0.00     0.014 A 
ATOM     39  C   UNL A   1      42.342  27.394  28.945  1.00  0.00     0.010 A 
ATOM     40  C   UNL A   1      40.024  26.751  29.234  1.00  0.00     0.010 A 
ATOM     41  C   UNL A   1      41.116  27.547  29.613  1.00  0.00    -0.014 A 
BRANCH  41  42
ATOM     42  C   UNL A   1      40.943  28.557  30.688  1.00  0.00     0.031 A 
ATOM     43  C   UNL A   1      41.775  28.487  31.937  1.00  0.00     0.074 A 
ATOM     44  C   UNL A   1      39.974  29.488  30.575  1.00  0.00     0.049 A 
ATOM     45  N   UNL A   1      41.728  29.246  33.002  1.00  0.00    -0.248 NA
ATOM     46  C   UNL A   1      42.770  27.406  32.012  1.00  0.00     0.031 C 
ATOM     47  C   UNL A   1      39.055  29.622  29.441  1.00  0.00     0.029 A 
ATOM     48  N   UNL A   1      39.591  30.490  31.431  1.00  0.00    -0.354 N 
ATOM     49  C   UNL A   1      42.672  28.724  33.878  1.00  0.00     0.074 A 
ATOM     50  C   UNL A   1      43.234  27.552  33.244  1.00  0.00     0.031 C 
ATOM     51  C   UNL A   1      38.236  30.663  29.660  1.00  0.00     0.029 A 
ATOM     52  C   UNL A   1      38.539  31.243  30.964  1.00  0.00     0.049 A 
ATOM     53  H   UNL A   1      40.029  30.656  32.297  1.00  0.00     0.167 HD
ATOM     54  C   UNL A   1      43.054  29.190  35.092  1.00  0.00     0.031 A 
ATOM     55  C   UNL A   1      37.883  32.278  31.523  1.00  0.00     0.031 A 
ATOM     56  C   UNL A   1      42.490  30.354  35.721  1.00  0.00     0.049 A 
ATOM     57  C   UNL A   1      38.317  32.779  32.872  1.00  0.00     0.074 A 
ATOM     58  C   UNL A   1      42.851  30.946  36.918  1.00  0.00     0.029 A 
ATOM     59  N   UNL A   1      41.436  31.099  35.209  1.00  0.00    -0.354 N 
ATOM     60  N   UNL A   1      39.273  32.326  33.649  1.00  0.00    -0.248 NA
ATOM     61  C   UNL A   1      37.592  33.935  33.415  1.00  0.00     0.031 C 
ATOM     62  C   UNL A   1      41.978  32.013  37.159  1.00  0.00     0.029 A 
ATOM     63  C   UNL A   1      41.111  32.124  36.082  1.00  0.00     0.049 A 
ATOM     64  H   UNL A   1      40.985  30.923  34.352  1.00  0.00     0.167 HD
ATOM     65  C   UNL A   1      39.274  33.151  34.768  1.00  0.00     0.074 A 
ATOM     66  C   UNL A   1      38.238  34.142  34.557  1.00  0.00     0.031 C 
ATOM     67  C   UNL A   1      40.063  33.091  35.869  1.00  0.00     0.031 A 
BRANCH  54  68
ATOM     68  C   UNL A   1      44.126  28.417  35.817  1.00  0.00    -0.014 A 
ATOM     69  C   UNL A   1      45.489  28.738  35.659  1.00  0.00     0.010 A 
ATOM     70  C   UNL A   1      43.770  27.353  36.664  1.00  0.00     0.010 A 
ATOM     71  C   UNL A   1      46.474  27.967  36.278  1.00  0.00     0.020 A 
ATOM     72  C   UNL A   1      44.752  26.599  37.312  1.00  0.00     0.020 A 
ATOM     73  C   UNL A   1      46.100  26.895  37.093  1.00  0.00     0.054 A 
BRANCH  73  74
ATOM     74  S   UNL A   1      47.401  25.897  37.869  1.00  0.00     0.124 S 
ATOM     75  O   UNL A   1      46.650  25.160  38.882  1.00  0.00    -0.237 OA
ATOM     76  O   UNL A   1      47.901  25.098  36.754  1.00  0.00    -0.237 OA
ATOM     77  O   UNL A   1      48.337  26.892  38.389  1.00  0.00    -0.744 OA
ENDBRANCH  73  74
ENDBRANCH  54  68
BRANCH  55  78
ATOM     78  C   UNL A   1      36.757  32.914  30.786  1.00  0.00    -0.014 A 
ATOM     79  C   UNL A   1      35.425  32.589  31.098  1.00  0.00     0.010 A 
ATOM     80  C   UNL A   1      37.012  33.896  29.811  1.00  0.00     0.010 A 
ATOM     81  C   UNL A   1      34.369  33.238  30.453  1.00  0.00     0.020 A 
ATOM     82  C   UNL A   1      35.959  34.565  29.182  1.00  0.00     0.020 A 
ATOM     83  C   UNL A   1      34.642  34.230  29.506  1.00  0.00     0.054 A 
BRANCH  83  84
ATOM     84  S   UNL A   1      33.255  35.128  28.754  1.00  0.00     0.124 S 
ATOM     85  O   UNL A   1      33.943  36.140  27.961  1.00  0.00    -0.237 OA
ATOM     86  O   UNL A   1      32.578  34.080  27.996  1.00  0.00    -0.237 OA
ATOM     87  O   UNL A   1      32.510  35.632  29.906  1.00  0.00    -0.744 OA
ENDBRANCH  83  84
ENDBRANCH  55  78
BRANCH  67  88
ATOM     88  C   UNL A   1      39.840  34.131  36.935  1.00  0.00    -0.014 A 
ATOM     89  C   UNL A   1      39.048  33.857  38.064  1.00  0.00     0.010 A 
ATOM     90  C   UNL A   1      40.476  35.382  36.831  1.00  0.00     0.010 A 
ATOM     91  C   UNL A   1      38.873  34.826  39.057  1.00  0.00     0.020 A 
ATOM     92  C   UNL A   1      40.326  36.343  37.835  1.00  0.00     0.020 A 
ATOM     93  C   UNL A   1      39.514  36.063  38.934  1.00  0.00     0.054 A 
BRANCH  93  94
ATOM     94  S   UNL A   1      39.306  37.287  40.257  1.00  0.00     0.124 S 
ATOM     95  O   UNL A   1      38.592  36.518  41.273  1.00  0.00    -0.237 OA
ATOM     96  O   UNL A   1      40.685  37.638  40.589  1.00  0.00    -0.237 OA
ATOM     97  O   UNL A   1      38.532  38.354  39.625  1.00  0.00    -0.744 OA
ENDBRANCH  93  94
ENDBRANCH  67  88
ENDBRANCH  41  42
ENDBRANCH  33  36
ENDBRANCH  31  32
ENDBRANCH  30  31
ENDBRANCH   1  30
TORSDOF 18
ENDMDL
