MODEL 1
REMARK VINA RESULT:     -11.9      0.000      0.000
REMARK SMILES Cc1c(Cl)cc2c(c1C)O[C@H](C(F)(F)F)C(C(=O)NCCCCNC(=O)c1ccc(-c3c4nc(c(-c5ccc(S(=O)(=O)[O-])cc5)c5ccc([nH]5)c(-c5ccc(S(=O)(=O)[O-])cc5)c5nc(c(-c6ccc(S(=O)(=O)[O-])cc6)c6ccc3[nH]6)C=C5)C=C4)cc1)=C2
REMARK SMILES IDX 22 1 21 2 20 3 19 4 17 5 18 6 16 8 1 9 2 10 3 11 8 12 4 13
REMARK SMILES IDX 5 14 7 15 9 16 6 17 10 18 87 19 11 20 12 21 13 22 14 23
REMARK SMILES IDX 15 24 23 25 24 26 25 27 26 29 27 30 28 31 86 32 29 33 85 34
REMARK SMILES IDX 30 35 31 36 32 37 79 38 33 39 84 40 78 41 80 42 34 43 83 44
REMARK SMILES IDX 77 45 76 46 35 48 65 49 46 50 64 51 47 52 50 53 63 54 81 55
REMARK SMILES IDX 48 56 49 57 62 59 82 60 51 61 36 62 37 63 45 64 38 65 44 66
REMARK SMILES IDX 39 67 40 68 41 69 42 70 43 71 66 72 67 73 75 74 68 75 74 76
REMARK SMILES IDX 69 77 70 78 71 79 72 80 73 81 52 82 53 83 61 84 54 85 60 86
REMARK SMILES IDX 55 87 56 88 57 89 58 90 59 91
REMARK H PARENT 19 7 24 28 80 47 50 58
REMARK Flexibility Score: inf
ROOT
ATOM      1  C   UNL A   1      33.942  28.075  25.887  1.00  0.00     0.023 C 
ENDROOT
BRANCH   1   2
ATOM      2  C   UNL A   1      33.001  28.453  24.739  1.00  0.00     0.023 C 
BRANCH   2   3
ATOM      3  C   UNL A   1      32.155  27.293  24.220  1.00  0.00     0.116 C 
BRANCH   3   4
ATOM      4  N   UNL A   1      31.355  26.691  25.272  1.00  0.00    -0.352 N 
ATOM      5  C   UNL A   1      31.285  25.493  25.896  1.00  0.00     0.251 C 
ATOM      6  O   UNL A   1      30.414  25.402  26.767  1.00  0.00    -0.270 OA
ATOM      7  H   UNL A   1      30.686  27.323  25.623  1.00  0.00     0.163 HD
BRANCH   5   8
ATOM      8  C   UNL A   1      32.162  24.319  25.612  1.00  0.00     0.067 C 
ATOM      9  C   UNL A   1      37.065  20.019  25.028  1.00  0.00     0.046 C 
ATOM     10  C   UNL A   1      36.135  21.180  25.272  1.00  0.00    -0.026 A 
ATOM     11  C   UNL A   1      36.616  22.438  25.690  1.00  0.00     0.045 A 
ATOM     12  C   UNL A   1      34.743  21.029  25.053  1.00  0.00    -0.004 A 
ATOM     13  Cl  UNL A   1      38.300  22.748  25.940  1.00  0.00    -0.084 Cl
ATOM     14  C   UNL A   1      35.743  23.507  25.924  1.00  0.00     0.032 A 
ATOM     15  C   UNL A   1      33.884  22.119  25.298  1.00  0.00     0.131 A 
ATOM     16  C   UNL A   1      34.127  19.738  24.566  1.00  0.00     0.049 C 
ATOM     17  C   UNL A   1      34.373  23.349  25.735  1.00  0.00     0.019 A 
ATOM     18  O   UNL A   1      32.541  21.904  25.139  1.00  0.00    -0.475 OA
ATOM     19  C   UNL A   1      33.443  24.437  26.012  1.00  0.00     0.025 C 
ATOM     20  C   UNL A   1      31.721  23.078  24.890  1.00  0.00     0.314 C 
BRANCH  20  21
ATOM     21  C   UNL A   1      31.583  23.288  23.371  1.00  0.00     0.429 C 
ATOM     22  F   UNL A   1      31.550  22.092  22.730  1.00  0.00    -0.167 F 
ATOM     23  F   UNL A   1      30.444  23.935  23.036  1.00  0.00    -0.167 F 
ATOM     24  F   UNL A   1      32.609  23.997  22.847  1.00  0.00    -0.167 F 
ENDBRANCH  20  21
ENDBRANCH   5   8
ENDBRANCH   3   4
ENDBRANCH   2   3
ENDBRANCH   1   2
BRANCH   1  25
ATOM     25  C   UNL A   1      33.431  28.402  27.289  1.00  0.00     0.116 C 
BRANCH  25  26
ATOM     26  N   UNL A   1      33.342  29.830  27.561  1.00  0.00    -0.352 N 
ATOM     27  C   UNL A   1      34.322  30.661  28.049  1.00  0.00     0.251 C 
ATOM     28  H   UNL A   1      32.473  30.251  27.373  1.00  0.00     0.163 HD
ATOM     29  O   UNL A   1      34.073  31.833  28.309  1.00  0.00    -0.269 OA
BRANCH  27  30
ATOM     30  C   UNL A   1      35.667  30.106  28.291  1.00  0.00     0.039 A 
ATOM     31  C   UNL A   1      36.603  30.133  27.256  1.00  0.00     0.014 A 
ATOM     32  C   UNL A   1      36.012  29.620  29.555  1.00  0.00     0.014 A 
ATOM     33  C   UNL A   1      37.916  29.734  27.508  1.00  0.00     0.010 A 
ATOM     34  C   UNL A   1      37.332  29.274  29.819  1.00  0.00     0.010 A 
ATOM     35  C   UNL A   1      38.296  29.334  28.799  1.00  0.00    -0.014 A 
BRANCH  35  36
ATOM     36  C   UNL A   1      39.696  28.960  29.111  1.00  0.00     0.031 A 
ATOM     37  C   UNL A   1      40.608  29.967  29.753  1.00  0.00     0.074 A 
ATOM     38  C   UNL A   1      40.160  27.745  28.761  1.00  0.00     0.049 A 
ATOM     39  N   UNL A   1      41.888  29.877  30.002  1.00  0.00    -0.248 NA
ATOM     40  C   UNL A   1      40.004  31.251  30.143  1.00  0.00     0.031 C 
ATOM     41  C   UNL A   1      39.374  26.688  28.119  1.00  0.00     0.029 A 
ATOM     42  N   UNL A   1      41.410  27.197  28.890  1.00  0.00    -0.354 N 
ATOM     43  C   UNL A   1      42.247  31.096  30.564  1.00  0.00     0.074 A 
ATOM     44  C   UNL A   1      41.059  31.922  30.580  1.00  0.00     0.031 C 
ATOM     45  C   UNL A   1      40.156  25.611  27.935  1.00  0.00     0.029 A 
ATOM     46  C   UNL A   1      41.504  25.915  28.405  1.00  0.00     0.049 A 
ATOM     47  H   UNL A   1      42.170  27.679  29.293  1.00  0.00     0.167 HD
ATOM     48  C   UNL A   1      43.452  31.487  31.040  1.00  0.00     0.031 A 
ATOM     49  C   UNL A   1      42.559  25.080  28.341  1.00  0.00     0.031 A 
ATOM     50  C   UNL A   1      44.628  30.660  31.032  1.00  0.00     0.049 A 
ATOM     51  C   UNL A   1      43.893  25.543  28.858  1.00  0.00     0.074 A 
ATOM     52  C   UNL A   1      45.892  30.956  31.510  1.00  0.00     0.029 A 
ATOM     53  N   UNL A   1      44.682  29.369  30.528  1.00  0.00    -0.354 N 
ATOM     54  N   UNL A   1      44.212  26.699  29.392  1.00  0.00    -0.248 NA
ATOM     55  C   UNL A   1      45.006  24.590  28.765  1.00  0.00     0.031 C 
ATOM     56  C   UNL A   1      46.720  29.853  31.267  1.00  0.00     0.029 A 
ATOM     57  C   UNL A   1      45.959  28.857  30.676  1.00  0.00     0.049 A 
ATOM     58  H   UNL A   1      43.924  28.888  30.126  1.00  0.00     0.167 HD
ATOM     59  C   UNL A   1      45.561  26.605  29.713  1.00  0.00     0.074 A 
ATOM     60  C   UNL A   1      45.993  25.276  29.328  1.00  0.00     0.031 C 
ATOM     61  C   UNL A   1      46.370  27.535  30.277  1.00  0.00     0.031 A 
BRANCH  48  62
ATOM     62  C   UNL A   1      43.549  32.876  31.607  1.00  0.00    -0.014 A 
ATOM     63  C   UNL A   1      43.369  33.105  32.983  1.00  0.00     0.010 A 
ATOM     64  C   UNL A   1      43.840  33.962  30.762  1.00  0.00     0.010 A 
ATOM     65  C   UNL A   1      43.437  34.402  33.499  1.00  0.00     0.020 A 
ATOM     66  C   UNL A   1      43.933  35.258  31.278  1.00  0.00     0.020 A 
ATOM     67  C   UNL A   1      43.713  35.471  32.641  1.00  0.00     0.054 A 
BRANCH  67  68
ATOM     68  S   UNL A   1      43.810  37.141  33.340  1.00  0.00     0.124 S 
ATOM     69  O   UNL A   1      42.599  37.195  34.157  1.00  0.00    -0.237 OA
ATOM     70  O   UNL A   1      45.066  37.107  34.083  1.00  0.00    -0.237 OA
ATOM     71  O   UNL A   1      43.806  38.009  32.165  1.00  0.00    -0.744 OA
ENDBRANCH  67  68
ENDBRANCH  48  62
BRANCH  49  72
ATOM     72  C   UNL A   1      42.390  23.713  27.784  1.00  0.00    -0.014 A 
ATOM     73  C   UNL A   1      42.593  23.480  26.412  1.00  0.00     0.010 A 
ATOM     74  C   UNL A   1      42.050  22.634  28.619  1.00  0.00     0.010 A 
ATOM     75  C   UNL A   1      42.454  22.195  25.884  1.00  0.00     0.020 A 
ATOM     76  C   UNL A   1      41.929  21.343  28.097  1.00  0.00     0.020 A 
ATOM     77  C   UNL A   1      42.127  21.132  26.731  1.00  0.00     0.054 A 
BRANCH  77  78
ATOM     78  S   UNL A   1      42.017  19.460  26.033  1.00  0.00     0.124 S 
ATOM     79  O   UNL A   1      40.588  19.332  25.770  1.00  0.00    -0.237 OA
ATOM     80  O   UNL A   1      42.874  19.554  24.854  1.00  0.00    -0.237 OA
ATOM     81  O   UNL A   1      42.537  18.610  27.102  1.00  0.00    -0.744 OA
ENDBRANCH  77  78
ENDBRANCH  49  72
BRANCH  61  82
ATOM     82  C   UNL A   1      47.800  27.143  30.526  1.00  0.00    -0.014 A 
ATOM     83  C   UNL A   1      48.812  27.482  29.613  1.00  0.00     0.010 A 
ATOM     84  C   UNL A   1      48.139  26.468  31.713  1.00  0.00     0.010 A 
ATOM     85  C   UNL A   1      50.138  27.130  29.870  1.00  0.00     0.020 A 
ATOM     86  C   UNL A   1      49.467  26.133  31.983  1.00  0.00     0.020 A 
ATOM     87  C   UNL A   1      50.458  26.455  31.052  1.00  0.00     0.054 A 
BRANCH  87  88
ATOM     88  S   UNL A   1      52.194  26.042  31.382  1.00  0.00     0.124 S 
ATOM     89  O   UNL A   1      52.081  24.711  31.974  1.00  0.00    -0.237 OA
ATOM     90  O   UNL A   1      52.793  26.089  30.051  1.00  0.00    -0.237 OA
ATOM     91  O   UNL A   1      52.632  27.095  32.293  1.00  0.00    -0.744 OA
ENDBRANCH  87  88
ENDBRANCH  61  82
ENDBRANCH  35  36
ENDBRANCH  27  30
ENDBRANCH  25  26
ENDBRANCH   1  25
TORSDOF 15
ENDMDL
MODEL 2
REMARK VINA RESULT:     -11.4      2.777      9.214
REMARK SMILES Cc1c(Cl)cc2c(c1C)O[C@H](C(F)(F)F)C(C(=O)NCCCCNC(=O)c1ccc(-c3c4nc(c(-c5ccc(S(=O)(=O)[O-])cc5)c5ccc([nH]5)c(-c5ccc(S(=O)(=O)[O-])cc5)c5nc(c(-c6ccc(S(=O)(=O)[O-])cc6)c6ccc3[nH]6)C=C5)C=C4)cc1)=C2
REMARK SMILES IDX 22 1 21 2 20 3 19 4 17 5 18 6 16 8 1 9 2 10 3 11 8 12 4 13
REMARK SMILES IDX 5 14 7 15 9 16 6 17 10 18 87 19 11 20 12 21 13 22 14 23
REMARK SMILES IDX 15 24 23 25 24 26 25 27 26 29 27 30 28 31 86 32 29 33 85 34
REMARK SMILES IDX 30 35 31 36 32 37 79 38 33 39 84 40 78 41 80 42 34 43 83 44
REMARK SMILES IDX 77 45 76 46 35 48 65 49 46 50 64 51 47 52 50 53 63 54 81 55
REMARK SMILES IDX 48 56 49 57 62 59 82 60 51 61 36 62 37 63 45 64 38 65 44 66
REMARK SMILES IDX 39 67 40 68 41 69 42 70 43 71 66 72 67 73 75 74 68 75 74 76
REMARK SMILES IDX 69 77 70 78 71 79 72 80 73 81 52 82 53 83 61 84 54 85 60 86
REMARK SMILES IDX 55 87 56 88 57 89 58 90 59 91
REMARK H PARENT 19 7 24 28 80 47 50 58
REMARK Flexibility Score: inf
ROOT
ATOM      1  C   UNL A   1      35.850  23.140  24.382  1.00  0.00     0.023 C 
ENDROOT
BRANCH   1   2
ATOM      2  C   UNL A   1      34.749  22.394  25.141  1.00  0.00     0.023 C 
BRANCH   2   3
ATOM      3  C   UNL A   1      33.374  22.479  24.485  1.00  0.00     0.116 C 
BRANCH   3   4
ATOM      4  N   UNL A   1      33.458  22.913  23.102  1.00  0.00    -0.352 N 
ATOM      5  C   UNL A   1      33.199  24.042  22.404  1.00  0.00     0.251 C 
ATOM      6  O   UNL A   1      33.413  23.973  21.189  1.00  0.00    -0.270 OA
ATOM      7  H   UNL A   1      33.791  22.193  22.517  1.00  0.00     0.163 HD
BRANCH   5   8
ATOM      8  C   UNL A   1      32.693  25.321  22.986  1.00  0.00     0.067 C 
ATOM      9  C   UNL A   1      31.829  30.955  26.206  1.00  0.00     0.046 C 
ATOM     10  C   UNL A   1      32.277  29.649  25.600  1.00  0.00    -0.026 A 
ATOM     11  C   UNL A   1      33.445  28.992  26.042  1.00  0.00     0.045 A 
ATOM     12  C   UNL A   1      31.503  29.039  24.583  1.00  0.00    -0.004 A 
ATOM     13  Cl  UNL A   1      34.438  29.621  27.311  1.00  0.00    -0.084 Cl
ATOM     14  C   UNL A   1      33.859  27.785  25.465  1.00  0.00     0.032 A 
ATOM     15  C   UNL A   1      31.942  27.826  24.017  1.00  0.00     0.131 A 
ATOM     16  C   UNL A   1      30.216  29.637  24.066  1.00  0.00     0.049 C 
ATOM     17  C   UNL A   1      33.111  27.201  24.446  1.00  0.00     0.019 A 
ATOM     18  O   UNL A   1      31.197  27.310  22.989  1.00  0.00    -0.475 OA
ATOM     19  C   UNL A   1      33.545  25.965  23.806  1.00  0.00     0.025 C 
ATOM     20  C   UNL A   1      31.321  25.881  22.751  1.00  0.00     0.314 C 
BRANCH  20  21
ATOM     21  C   UNL A   1      30.228  25.139  23.543  1.00  0.00     0.429 C 
ATOM     22  F   UNL A   1      29.933  23.957  22.946  1.00  0.00    -0.167 F 
ATOM     23  F   UNL A   1      30.608  24.848  24.807  1.00  0.00    -0.167 F 
ATOM     24  F   UNL A   1      29.077  25.845  23.628  1.00  0.00    -0.167 F 
ENDBRANCH  20  21
ENDBRANCH   5   8
ENDBRANCH   3   4
ENDBRANCH   2   3
ENDBRANCH   1   2
BRANCH   1  25
ATOM     25  C   UNL A   1      36.985  23.690  25.245  1.00  0.00     0.116 C 
BRANCH  25  26
ATOM     26  N   UNL A   1      38.035  22.720  25.520  1.00  0.00    -0.352 N 
ATOM     27  C   UNL A   1      39.209  22.915  26.207  1.00  0.00     0.251 C 
ATOM     28  H   UNL A   1      37.886  21.812  25.170  1.00  0.00     0.163 HD
ATOM     29  O   UNL A   1      40.042  22.020  26.286  1.00  0.00    -0.269 OA
BRANCH  27  30
ATOM     30  C   UNL A   1      39.465  24.236  26.813  1.00  0.00     0.039 A 
ATOM     31  C   UNL A   1      39.012  24.480  28.110  1.00  0.00     0.014 A 
ATOM     32  C   UNL A   1      40.202  25.198  26.119  1.00  0.00     0.014 A 
ATOM     33  C   UNL A   1      39.360  25.673  28.744  1.00  0.00     0.010 A 
ATOM     34  C   UNL A   1      40.594  26.362  26.770  1.00  0.00     0.010 A 
ATOM     35  C   UNL A   1      40.181  26.607  28.090  1.00  0.00    -0.014 A 
BRANCH  35  36
ATOM     36  C   UNL A   1      40.615  27.856  28.758  1.00  0.00     0.031 A 
ATOM     37  C   UNL A   1      41.997  27.946  29.340  1.00  0.00     0.074 A 
ATOM     38  C   UNL A   1      39.749  28.878  28.898  1.00  0.00     0.049 A 
ATOM     39  N   UNL A   1      42.528  28.900  30.058  1.00  0.00    -0.248 NA
ATOM     40  C   UNL A   1      42.890  26.800  29.100  1.00  0.00     0.031 C 
ATOM     41  C   UNL A   1      38.375  28.904  28.389  1.00  0.00     0.029 A 
ATOM     42  N   UNL A   1      39.896  30.093  29.517  1.00  0.00    -0.354 N 
ATOM     43  C   UNL A   1      43.810  28.466  30.369  1.00  0.00     0.074 A 
ATOM     44  C   UNL A   1      43.962  27.146  29.797  1.00  0.00     0.031 C 
ATOM     45  C   UNL A   1      37.816  30.086  28.696  1.00  0.00     0.029 A 
ATOM     46  C   UNL A   1      38.773  30.884  29.456  1.00  0.00     0.049 A 
ATOM     47  H   UNL A   1      40.728  30.372  29.963  1.00  0.00     0.167 HD
ATOM     48  C   UNL A   1      44.781  29.114  31.055  1.00  0.00     0.031 A 
ATOM     49  C   UNL A   1      38.540  32.110  29.962  1.00  0.00     0.031 A 
ATOM     50  C   UNL A   1      44.632  30.430  31.613  1.00  0.00     0.049 A 
ATOM     51  C   UNL A   1      39.626  32.803  30.736  1.00  0.00     0.074 A 
ATOM     52  C   UNL A   1      45.562  31.183  32.307  1.00  0.00     0.029 A 
ATOM     53  N   UNL A   1      43.477  31.195  31.534  1.00  0.00    -0.354 N 
ATOM     54  N   UNL A   1      40.836  32.378  31.016  1.00  0.00    -0.248 NA
ATOM     55  C   UNL A   1      39.316  34.138  31.261  1.00  0.00     0.031 C 
ATOM     56  C   UNL A   1      44.960  32.392  32.674  1.00  0.00     0.029 A 
ATOM     57  C   UNL A   1      43.668  32.408  32.171  1.00  0.00     0.049 A 
ATOM     58  H   UNL A   1      42.645  30.916  31.088  1.00  0.00     0.167 HD
ATOM     59  C   UNL A   1      41.437  33.403  31.737  1.00  0.00     0.074 A 
ATOM     60  C   UNL A   1      40.464  34.473  31.837  1.00  0.00     0.031 C 
ATOM     61  C   UNL A   1      42.683  33.455  32.268  1.00  0.00     0.031 A 
BRANCH  48  62
ATOM     62  C   UNL A   1      46.091  28.398  31.235  1.00  0.00    -0.014 A 
ATOM     63  C   UNL A   1      46.295  27.539  32.330  1.00  0.00     0.010 A 
ATOM     64  C   UNL A   1      47.122  28.569  30.294  1.00  0.00     0.010 A 
ATOM     65  C   UNL A   1      47.523  26.895  32.504  1.00  0.00     0.020 A 
ATOM     66  C   UNL A   1      48.343  27.907  30.451  1.00  0.00     0.020 A 
ATOM     67  C   UNL A   1      48.542  27.088  31.565  1.00  0.00     0.054 A 
BRANCH  67  68
ATOM     68  S   UNL A   1      50.120  26.230  31.808  1.00  0.00     0.124 S 
ATOM     69  O   UNL A   1      50.047  25.862  33.221  1.00  0.00    -0.237 OA
ATOM     70  O   UNL A   1      50.029  25.117  30.866  1.00  0.00    -0.237 OA
ATOM     71  O   UNL A   1      51.120  27.242  31.480  1.00  0.00    -0.744 OA
ENDBRANCH  67  68
ENDBRANCH  48  62
BRANCH  49  72
ATOM     72  C   UNL A   1      37.227  32.769  29.732  1.00  0.00    -0.014 A 
ATOM     73  C   UNL A   1      36.273  32.820  30.763  1.00  0.00     0.010 A 
ATOM     74  C   UNL A   1      36.932  33.369  28.495  1.00  0.00     0.010 A 
ATOM     75  C   UNL A   1      35.045  33.453  30.561  1.00  0.00     0.020 A 
ATOM     76  C   UNL A   1      35.712  34.021  28.296  1.00  0.00     0.020 A 
ATOM     77  C   UNL A   1      34.773  34.054  29.329  1.00  0.00     0.054 A 
BRANCH  77  78
ATOM     78  S   UNL A   1      33.198  34.930  29.112  1.00  0.00     0.124 S 
ATOM     79  O   UNL A   1      33.641  36.248  28.671  1.00  0.00    -0.237 OA
ATOM     80  O   UNL A   1      32.523  34.117  28.103  1.00  0.00    -0.237 OA
ATOM     81  O   UNL A   1      32.595  34.881  30.442  1.00  0.00    -0.744 OA
ENDBRANCH  77  78
ENDBRANCH  49  72
BRANCH  61  82
ATOM     82  C   UNL A   1      43.071  34.714  32.991  1.00  0.00    -0.014 A 
ATOM     83  C   UNL A   1      42.902  34.831  34.380  1.00  0.00     0.010 A 
ATOM     84  C   UNL A   1      43.655  35.775  32.275  1.00  0.00     0.010 A 
ATOM     85  C   UNL A   1      43.288  36.000  35.040  1.00  0.00     0.020 A 
ATOM     86  C   UNL A   1      44.062  36.937  32.935  1.00  0.00     0.020 A 
ATOM     87  C   UNL A   1      43.863  37.047  34.313  1.00  0.00     0.054 A 
BRANCH  87  88
ATOM     88  S   UNL A   1      44.391  38.540  35.198  1.00  0.00     0.124 S 
ATOM     89  O   UNL A   1      43.898  38.282  36.549  1.00  0.00    -0.237 OA
ATOM     90  O   UNL A   1      45.843  38.509  35.042  1.00  0.00    -0.237 OA
ATOM     91  O   UNL A   1      43.717  39.621  34.484  1.00  0.00    -0.744 OA
ENDBRANCH  87  88
ENDBRANCH  61  82
ENDBRANCH  35  36
ENDBRANCH  27  30
ENDBRANCH  25  26
ENDBRANCH   1  25
TORSDOF 15
ENDMDL
MODEL 3
REMARK VINA RESULT:     -11.1      1.514      2.178
REMARK SMILES Cc1c(Cl)cc2c(c1C)O[C@H](C(F)(F)F)C(C(=O)NCCCCNC(=O)c1ccc(-c3c4nc(c(-c5ccc(S(=O)(=O)[O-])cc5)c5ccc([nH]5)c(-c5ccc(S(=O)(=O)[O-])cc5)c5nc(c(-c6ccc(S(=O)(=O)[O-])cc6)c6ccc3[nH]6)C=C5)C=C4)cc1)=C2
REMARK SMILES IDX 22 1 21 2 20 3 19 4 17 5 18 6 16 8 1 9 2 10 3 11 8 12 4 13
REMARK SMILES IDX 5 14 7 15 9 16 6 17 10 18 87 19 11 20 12 21 13 22 14 23
REMARK SMILES IDX 15 24 23 25 24 26 25 27 26 29 27 30 28 31 86 32 29 33 85 34
REMARK SMILES IDX 30 35 31 36 32 37 79 38 33 39 84 40 78 41 80 42 34 43 83 44
REMARK SMILES IDX 77 45 76 46 35 48 65 49 46 50 64 51 47 52 50 53 63 54 81 55
REMARK SMILES IDX 48 56 49 57 62 59 82 60 51 61 36 62 37 63 45 64 38 65 44 66
REMARK SMILES IDX 39 67 40 68 41 69 42 70 43 71 66 72 67 73 75 74 68 75 74 76
REMARK SMILES IDX 69 77 70 78 71 79 72 80 73 81 52 82 53 83 61 84 54 85 60 86
REMARK SMILES IDX 55 87 56 88 57 89 58 90 59 91
REMARK H PARENT 19 7 24 28 80 47 50 58
REMARK Flexibility Score: inf
ROOT
ATOM      1  C   UNL A   1      34.048  28.373  25.729  1.00  0.00     0.023 C 
ENDROOT
BRANCH   1   2
ATOM      2  C   UNL A   1      33.283  29.045  24.586  1.00  0.00     0.023 C 
BRANCH   2   3
ATOM      3  C   UNL A   1      33.672  28.545  23.197  1.00  0.00     0.116 C 
BRANCH   3   4
ATOM      4  N   UNL A   1      32.523  28.056  22.455  1.00  0.00    -0.352 N 
ATOM      5  C   UNL A   1      31.798  26.916  22.396  1.00  0.00     0.251 C 
ATOM      6  O   UNL A   1      30.867  26.923  21.584  1.00  0.00    -0.270 OA
ATOM      7  H   UNL A   1      32.183  28.735  21.829  1.00  0.00     0.163 HD
BRANCH   5   8
ATOM      8  C   UNL A   1      32.041  25.694  23.220  1.00  0.00     0.067 C 
ATOM      9  C   UNL A   1      33.049  19.639  25.496  1.00  0.00     0.046 C 
ATOM     10  C   UNL A   1      32.788  20.905  24.720  1.00  0.00    -0.026 A 
ATOM     11  C   UNL A   1      32.402  20.875  23.364  1.00  0.00     0.045 A 
ATOM     12  C   UNL A   1      32.901  22.163  25.362  1.00  0.00    -0.004 A 
ATOM     13  Cl  UNL A   1      32.186  19.394  22.496  1.00  0.00    -0.084 Cl
ATOM     14  C   UNL A   1      32.172  22.057  22.649  1.00  0.00     0.032 A 
ATOM     15  C   UNL A   1      32.667  23.338  24.620  1.00  0.00     0.131 A 
ATOM     16  C   UNL A   1      33.268  22.308  26.820  1.00  0.00     0.049 C 
ATOM     17  C   UNL A   1      32.310  23.293  23.274  1.00  0.00     0.019 A 
ATOM     18  O   UNL A   1      32.856  24.533  25.265  1.00  0.00    -0.475 OA
ATOM     19  C   UNL A   1      32.114  24.536  22.537  1.00  0.00     0.025 C 
ATOM     20  C   UNL A   1      32.158  25.684  24.716  1.00  0.00     0.314 C 
BRANCH  20  21
ATOM     21  C   UNL A   1      30.799  25.837  25.423  1.00  0.00     0.429 C 
ATOM     22  F   UNL A   1      29.786  25.555  24.566  1.00  0.00    -0.167 F 
ATOM     23  F   UNL A   1      30.660  24.998  26.474  1.00  0.00    -0.167 F 
ATOM     24  F   UNL A   1      30.593  27.091  25.889  1.00  0.00    -0.167 F 
ENDBRANCH  20  21
ENDBRANCH   5   8
ENDBRANCH   3   4
ENDBRANCH   2   3
ENDBRANCH   1   2
BRANCH   1  25
ATOM     25  C   UNL A   1      33.468  28.593  27.126  1.00  0.00     0.116 C 
BRANCH  25  26
ATOM     26  N   UNL A   1      33.341  29.997  27.492  1.00  0.00    -0.352 N 
ATOM     27  C   UNL A   1      34.286  30.809  28.072  1.00  0.00     0.251 C 
ATOM     28  H   UNL A   1      32.471  30.415  27.302  1.00  0.00     0.163 HD
ATOM     29  O   UNL A   1      34.005  31.955  28.403  1.00  0.00    -0.269 OA
BRANCH  27  30
ATOM     30  C   UNL A   1      35.633  30.262  28.323  1.00  0.00     0.039 A 
ATOM     31  C   UNL A   1      36.597  30.357  27.318  1.00  0.00     0.014 A 
ATOM     32  C   UNL A   1      35.950  29.717  29.570  1.00  0.00     0.014 A 
ATOM     33  C   UNL A   1      37.909  29.965  27.587  1.00  0.00     0.010 A 
ATOM     34  C   UNL A   1      37.268  29.377  29.853  1.00  0.00     0.010 A 
ATOM     35  C   UNL A   1      38.259  29.504  28.866  1.00  0.00    -0.014 A 
BRANCH  35  36
ATOM     36  C   UNL A   1      39.655  29.135  29.199  1.00  0.00     0.031 A 
ATOM     37  C   UNL A   1      40.554  30.145  29.856  1.00  0.00     0.074 A 
ATOM     38  C   UNL A   1      40.129  27.922  28.854  1.00  0.00     0.049 A 
ATOM     39  N   UNL A   1      41.830  30.060  30.124  1.00  0.00    -0.248 NA
ATOM     40  C   UNL A   1      39.939  31.426  30.238  1.00  0.00     0.031 C 
ATOM     41  C   UNL A   1      39.358  26.863  28.200  1.00  0.00     0.029 A 
ATOM     42  N   UNL A   1      41.380  27.380  29.002  1.00  0.00    -0.354 N 
ATOM     43  C   UNL A   1      42.176  31.279  30.693  1.00  0.00     0.074 A 
ATOM     44  C   UNL A   1      40.985  32.101  30.692  1.00  0.00     0.031 C 
ATOM     45  C   UNL A   1      40.147  25.790  28.026  1.00  0.00     0.029 A 
ATOM     46  C   UNL A   1      41.486  26.098  28.516  1.00  0.00     0.049 A 
ATOM     47  H   UNL A   1      42.131  27.863  29.416  1.00  0.00     0.167 HD
ATOM     48  C   UNL A   1      43.372  31.674  31.187  1.00  0.00     0.031 A 
ATOM     49  C   UNL A   1      42.546  25.268  28.467  1.00  0.00     0.031 A 
ATOM     50  C   UNL A   1      44.552  30.852  31.196  1.00  0.00     0.049 A 
ATOM     51  C   UNL A   1      43.869  25.735  29.005  1.00  0.00     0.074 A 
ATOM     52  C   UNL A   1      45.807  31.152  31.693  1.00  0.00     0.029 A 
ATOM     53  N   UNL A   1      44.618  29.562  30.691  1.00  0.00    -0.354 N 
ATOM     54  N   UNL A   1      44.176  26.891  29.544  1.00  0.00    -0.248 NA
ATOM     55  C   UNL A   1      44.988  24.787  28.927  1.00  0.00     0.031 C 
ATOM     56  C   UNL A   1      46.643  30.053  31.462  1.00  0.00     0.029 A 
ATOM     57  C   UNL A   1      45.895  29.054  30.858  1.00  0.00     0.049 A 
ATOM     58  H   UNL A   1      43.868  29.079  30.277  1.00  0.00     0.167 HD
ATOM     59  C   UNL A   1      45.520  26.803  29.886  1.00  0.00     0.074 A 
ATOM     60  C   UNL A   1      45.963  25.475  29.505  1.00  0.00     0.031 C 
ATOM     61  C   UNL A   1      46.317  27.735  30.463  1.00  0.00     0.031 A 
BRANCH  48  62
ATOM     62  C   UNL A   1      43.455  33.063  31.757  1.00  0.00    -0.014 A 
ATOM     63  C   UNL A   1      43.197  33.297  33.120  1.00  0.00     0.010 A 
ATOM     64  C   UNL A   1      43.810  34.143  30.930  1.00  0.00     0.010 A 
ATOM     65  C   UNL A   1      43.253  34.593  33.638  1.00  0.00     0.020 A 
ATOM     66  C   UNL A   1      43.891  35.438  31.449  1.00  0.00     0.020 A 
ATOM     67  C   UNL A   1      43.595  35.657  32.797  1.00  0.00     0.054 A 
BRANCH  67  68
ATOM     68  S   UNL A   1      43.674  37.327  33.498  1.00  0.00     0.124 S 
ATOM     69  O   UNL A   1      43.780  38.153  32.296  1.00  0.00    -0.237 OA
ATOM     70  O   UNL A   1      42.409  37.433  34.221  1.00  0.00    -0.237 OA
ATOM     71  O   UNL A   1      44.869  37.295  34.337  1.00  0.00    -0.744 OA
ENDBRANCH  67  68
ENDBRANCH  48  62
BRANCH  49  72
ATOM     72  C   UNL A   1      42.390  23.900  27.905  1.00  0.00    -0.014 A 
ATOM     73  C   UNL A   1      42.679  23.657  26.551  1.00  0.00     0.010 A 
ATOM     74  C   UNL A   1      41.977  22.832  28.721  1.00  0.00     0.010 A 
ATOM     75  C   UNL A   1      42.553  22.371  26.020  1.00  0.00     0.020 A 
ATOM     76  C   UNL A   1      41.870  21.540  28.198  1.00  0.00     0.020 A 
ATOM     77  C   UNL A   1      42.153  21.319  26.848  1.00  0.00     0.054 A 
BRANCH  77  78
ATOM     78  S   UNL A   1      42.061  19.645  26.152  1.00  0.00     0.124 S 
ATOM     79  O   UNL A   1      42.508  18.824  27.272  1.00  0.00    -0.237 OA
ATOM     80  O   UNL A   1      40.647  19.526  25.804  1.00  0.00    -0.237 OA
ATOM     81  O   UNL A   1      42.971  19.700  25.010  1.00  0.00    -0.744 OA
ENDBRANCH  77  78
ENDBRANCH  49  72
BRANCH  61  82
ATOM     82  C   UNL A   1      47.744  27.348  30.733  1.00  0.00    -0.014 A 
ATOM     83  C   UNL A   1      48.095  26.646  31.899  1.00  0.00     0.010 A 
ATOM     84  C   UNL A   1      48.738  27.648  29.784  1.00  0.00     0.010 A 
ATOM     85  C   UNL A   1      49.422  26.274  32.124  1.00  0.00     0.020 A 
ATOM     86  C   UNL A   1      50.062  27.259  29.995  1.00  0.00     0.020 A 
ATOM     87  C   UNL A   1      50.398  26.585  31.172  1.00  0.00     0.054 A 
BRANCH  87  88
ATOM     88  S   UNL A   1      52.108  26.057  31.469  1.00  0.00     0.124 S 
ATOM     89  O   UNL A   1      52.509  26.933  32.566  1.00  0.00    -0.237 OA
ATOM     90  O   UNL A   1      51.953  24.646  31.814  1.00  0.00    -0.237 OA
ATOM     91  O   UNL A   1      52.774  26.310  30.193  1.00  0.00    -0.744 OA
ENDBRANCH  87  88
ENDBRANCH  61  82
ENDBRANCH  35  36
ENDBRANCH  27  30
ENDBRANCH  25  26
ENDBRANCH   1  25
TORSDOF 15
ENDMDL
