MODEL 1
REMARK VINA RESULT:      -9.1      0.000      0.000
REMARK SMILES CC/C=C/C/C=C/C/C=C/C/C=C/CCSCCCC(=O)NCCCCNC(=O)c1ccc(-c2c3nc(c(-c4ccc(S(=O)(=O)[O-])cc4)c4ccc([nH]4)c(-c4ccc(S(=O)(=O)[O-])cc4)c4nc(c(-c5ccc(S(=O)(=O)[O-])cc5)c5ccc2[nH]5)C=C4)C=C3)cc1
REMARK SMILES IDX 17 1 16 2 15 3 14 4 13 5 12 6 11 7 10 8 9 9 8 10 7 11 6 12
REMARK SMILES IDX 5 13 4 14 3 15 2 16 1 17 18 18 19 19 20 20 21 21 22 22 23 24
REMARK SMILES IDX 24 25 25 26 26 27 27 28 28 29 29 31 30 32 31 33 89 34 32 35
REMARK SMILES IDX 88 36 33 37 34 38 35 39 82 40 36 41 87 42 81 43 83 44 37 45
REMARK SMILES IDX 86 46 80 47 79 48 38 50 68 51 49 52 67 53 50 54 53 55 66 56
REMARK SMILES IDX 84 57 51 58 52 59 65 61 85 62 54 63 39 64 40 65 48 66 41 67
REMARK SMILES IDX 47 68 42 69 43 70 44 71 45 72 46 73 69 74 70 75 78 76 71 77
REMARK SMILES IDX 77 78 72 79 73 80 74 81 75 82 76 83 55 84 56 85 64 86 57 87
REMARK SMILES IDX 63 88 58 89 59 90 60 91 61 92 62 93
REMARK H PARENT 22 23 27 30 83 49 53 60
REMARK Flexibility Score: inf
ROOT
ATOM      1  C   UNL A   1      40.741  20.255  27.151  1.00  0.00     0.070 C 
ENDROOT
BRANCH   1   2
ATOM      2  S   UNL A   1      39.810  21.711  26.500  1.00  0.00    -0.162 SA
BRANCH   2   3
ATOM      3  C   UNL A   1      38.452  21.165  25.377  1.00  0.00     0.073 C 
BRANCH   3   4
ATOM      4  C   UNL A   1      37.673  22.262  24.604  1.00  0.00     0.038 C 
BRANCH   4   5
ATOM      5  C   UNL A   1      36.465  22.822  25.303  1.00  0.00    -0.030 C 
ATOM      6  C   UNL A   1      35.897  24.033  25.165  1.00  0.00    -0.027 C 
BRANCH   6   7
ATOM      7  C   UNL A   1      34.520  24.344  25.723  1.00  0.00     0.054 C 
BRANCH   7   8
ATOM      8  C   UNL A   1      33.461  23.336  25.379  1.00  0.00    -0.027 C 
ATOM      9  C   UNL A   1      33.258  22.217  26.093  1.00  0.00    -0.027 C 
BRANCH   9  10
ATOM     10  C   UNL A   1      32.244  21.161  25.751  1.00  0.00     0.054 C 
BRANCH  10  11
ATOM     11  C   UNL A   1      32.845  20.237  24.734  1.00  0.00    -0.027 C 
ATOM     12  C   UNL A   1      32.196  19.756  23.663  1.00  0.00    -0.027 C 
BRANCH  12  13
ATOM     13  C   UNL A   1      32.741  18.661  22.793  1.00  0.00     0.054 C 
BRANCH  13  14
ATOM     14  C   UNL A   1      33.458  17.659  23.649  1.00  0.00    -0.027 C 
ATOM     15  C   UNL A   1      32.855  16.840  24.525  1.00  0.00    -0.031 C 
BRANCH  15  16
ATOM     16  C   UNL A   1      33.601  15.924  25.450  1.00  0.00     0.023 C 
ATOM     17  C   UNL A   1      32.836  14.622  25.644  1.00  0.00     0.008 C 
ENDBRANCH  15  16
ENDBRANCH  13  14
ENDBRANCH  12  13
ENDBRANCH  10  11
ENDBRANCH   9  10
ENDBRANCH   7   8
ENDBRANCH   6   7
ENDBRANCH   4   5
ENDBRANCH   3   4
ENDBRANCH   2   3
ENDBRANCH   1   2
BRANCH   1  18
ATOM     18  C   UNL A   1      42.231  19.975  26.989  1.00  0.00     0.021 C 
BRANCH  18  19
ATOM     19  C   UNL A   1      42.729  19.222  25.773  1.00  0.00     0.101 C 
BRANCH  19  20
ATOM     20  C   UNL A   1      44.225  19.158  25.510  1.00  0.00     0.220 C 
ATOM     21  O   UNL A   1      44.754  18.055  25.327  1.00  0.00    -0.275 OA
ATOM     22  N   UNL A   1      45.033  20.241  25.401  1.00  0.00    -0.356 N 
ATOM     23  H   UNL A   1      45.990  20.026  25.483  1.00  0.00     0.163 HD
BRANCH  22  24
ATOM     24  C   UNL A   1      44.774  21.653  25.189  1.00  0.00     0.116 C 
BRANCH  24  25
ATOM     25  C   UNL A   1      45.631  22.564  26.065  1.00  0.00     0.023 C 
BRANCH  25  26
ATOM     26  C   UNL A   1      45.706  23.988  25.503  1.00  0.00     0.023 C 
BRANCH  26  27
ATOM     27  C   UNL A   1      44.762  24.985  26.176  1.00  0.00     0.116 C 
BRANCH  27  28
ATOM     28  N   UNL A   1      43.531  25.186  25.427  1.00  0.00    -0.352 N 
ATOM     29  C   UNL A   1      42.368  25.823  25.809  1.00  0.00     0.251 C 
ATOM     30  H   UNL A   1      43.528  24.814  24.516  1.00  0.00     0.163 HD
ATOM     31  O   UNL A   1      41.371  25.764  25.111  1.00  0.00    -0.269 OA
BRANCH  29  32
ATOM     32  C   UNL A   1      42.333  26.553  27.098  1.00  0.00     0.039 A 
ATOM     33  C   UNL A   1      43.091  27.717  27.238  1.00  0.00     0.014 A 
ATOM     34  C   UNL A   1      41.522  26.110  28.144  1.00  0.00     0.014 A 
ATOM     35  C   UNL A   1      42.958  28.494  28.392  1.00  0.00     0.010 A 
ATOM     36  C   UNL A   1      41.338  26.920  29.263  1.00  0.00     0.010 A 
ATOM     37  C   UNL A   1      42.038  28.130  29.390  1.00  0.00    -0.014 A 
BRANCH  37  38
ATOM     38  C   UNL A   1      41.753  29.021  30.546  1.00  0.00     0.031 A 
ATOM     39  C   UNL A   1      42.541  28.888  31.821  1.00  0.00     0.074 A 
ATOM     40  C   UNL A   1      40.717  29.884  30.482  1.00  0.00     0.049 A 
ATOM     41  N   UNL A   1      42.368  29.501  32.964  1.00  0.00    -0.248 NA
ATOM     42  C   UNL A   1      43.653  27.923  31.821  1.00  0.00     0.031 C 
ATOM     43  C   UNL A   1      39.845  30.077  29.319  1.00  0.00     0.029 A 
ATOM     44  N   UNL A   1      40.206  30.747  31.420  1.00  0.00    -0.354 N 
ATOM     45  C   UNL A   1      43.326  28.978  33.824  1.00  0.00     0.074 A 
ATOM     46  C   UNL A   1      44.058  27.975  33.082  1.00  0.00     0.031 C 
ATOM     47  C   UNL A   1      38.919  31.005  29.610  1.00  0.00     0.029 A 
ATOM     48  C   UNL A   1      39.097  31.440  30.991  1.00  0.00     0.049 A 
ATOM     49  H   UNL A   1      40.598  30.860  32.317  1.00  0.00     0.167 HD
ATOM     50  C   UNL A   1      43.581  29.313  35.112  1.00  0.00     0.031 A 
ATOM     51  C   UNL A   1      38.297  32.310  31.640  1.00  0.00     0.031 A 
ATOM     52  C   UNL A   1      42.864  30.326  35.840  1.00  0.00     0.049 A 
ATOM     53  C   UNL A   1      38.596  32.655  33.074  1.00  0.00     0.074 A 
ATOM     54  C   UNL A   1      43.106  30.795  37.120  1.00  0.00     0.029 A 
ATOM     55  N   UNL A   1      41.761  31.018  35.362  1.00  0.00    -0.354 N 
ATOM     56  N   UNL A   1      39.568  32.219  33.838  1.00  0.00    -0.248 NA
ATOM     57  C   UNL A   1      37.692  33.609  33.733  1.00  0.00     0.031 C 
ATOM     58  C   UNL A   1      42.112  31.723  37.439  1.00  0.00     0.029 A 
ATOM     59  C   UNL A   1      41.288  31.880  36.337  1.00  0.00     0.049 A 
ATOM     60  H   UNL A   1      41.375  30.912  34.463  1.00  0.00     0.167 HD
ATOM     61  C   UNL A   1      39.406  32.863  35.060  1.00  0.00     0.074 A 
ATOM     62  C   UNL A   1      38.254  33.731  34.928  1.00  0.00     0.031 C 
ATOM     63  C   UNL A   1      40.143  32.742  36.191  1.00  0.00     0.031 A 
BRANCH  50  64
ATOM     64  C   UNL A   1      44.675  28.568  35.832  1.00  0.00    -0.014 A 
ATOM     65  C   UNL A   1      45.984  29.078  35.898  1.00  0.00     0.010 A 
ATOM     66  C   UNL A   1      44.371  27.374  36.512  1.00  0.00     0.010 A 
ATOM     67  C   UNL A   1      46.975  28.391  36.606  1.00  0.00     0.020 A 
ATOM     68  C   UNL A   1      45.352  26.699  37.243  1.00  0.00     0.020 A 
ATOM     69  C   UNL A   1      46.652  27.206  37.273  1.00  0.00     0.054 A 
BRANCH  69  70
ATOM     70  S   UNL A   1      47.950  26.361  38.217  1.00  0.00     0.124 S 
ATOM     71  O   UNL A   1      47.561  24.960  38.074  1.00  0.00    -0.237 OA
ATOM     72  O   UNL A   1      49.166  26.751  37.509  1.00  0.00    -0.237 OA
ATOM     73  O   UNL A   1      47.813  26.910  39.564  1.00  0.00    -0.744 OA
ENDBRANCH  69  70
ENDBRANCH  50  64
BRANCH  51  74
ATOM     74  C   UNL A   1      37.119  32.904  30.946  1.00  0.00    -0.014 A 
ATOM     75  C   UNL A   1      37.289  33.894  29.961  1.00  0.00     0.010 A 
ATOM     76  C   UNL A   1      35.816  32.486  31.273  1.00  0.00     0.010 A 
ATOM     77  C   UNL A   1      36.179  34.472  29.338  1.00  0.00     0.020 A 
ATOM     78  C   UNL A   1      34.705  33.038  30.630  1.00  0.00     0.020 A 
ATOM     79  C   UNL A   1      34.894  34.041  29.676  1.00  0.00     0.054 A 
BRANCH  79  80
ATOM     80  S   UNL A   1      33.470  34.780  28.830  1.00  0.00     0.124 S 
ATOM     81  O   UNL A   1      34.054  35.983  28.247  1.00  0.00    -0.237 OA
ATOM     82  O   UNL A   1      33.090  33.737  27.880  1.00  0.00    -0.237 OA
ATOM     83  O   UNL A   1      32.511  35.007  29.909  1.00  0.00    -0.744 OA
ENDBRANCH  79  80
ENDBRANCH  51  74
BRANCH  63  84
ATOM     84  C   UNL A   1      39.750  33.584  37.376  1.00  0.00    -0.014 A 
ATOM     85  C   UNL A   1      39.035  33.031  38.453  1.00  0.00     0.010 A 
ATOM     86  C   UNL A   1      40.178  34.922  37.451  1.00  0.00     0.010 A 
ATOM     87  C   UNL A   1      38.743  33.806  39.578  1.00  0.00     0.020 A 
ATOM     88  C   UNL A   1      39.913  35.692  38.585  1.00  0.00     0.020 A 
ATOM     89  C   UNL A   1      39.190  35.130  39.640  1.00  0.00     0.054 A 
BRANCH  89  90
ATOM     90  S   UNL A   1      38.862  36.091  41.144  1.00  0.00     0.124 S 
ATOM     91  O   UNL A   1      38.653  37.433  40.607  1.00  0.00    -0.237 OA
ATOM     92  O   UNL A   1      37.672  35.438  41.686  1.00  0.00    -0.237 OA
ATOM     93  O   UNL A   1      40.077  35.919  41.937  1.00  0.00    -0.744 OA
ENDBRANCH  89  90
ENDBRANCH  63  84
ENDBRANCH  37  38
ENDBRANCH  29  32
ENDBRANCH  27  28
ENDBRANCH  26  27
ENDBRANCH  25  26
ENDBRANCH  24  25
ENDBRANCH  22  24
ENDBRANCH  19  20
ENDBRANCH  18  19
ENDBRANCH   1  18
TORSDOF 27
ENDMDL
MODEL 2
REMARK VINA RESULT:      -8.3      2.105      3.189
REMARK SMILES CC/C=C/C/C=C/C/C=C/C/C=C/CCSCCCC(=O)NCCCCNC(=O)c1ccc(-c2c3nc(c(-c4ccc(S(=O)(=O)[O-])cc4)c4ccc([nH]4)c(-c4ccc(S(=O)(=O)[O-])cc4)c4nc(c(-c5ccc(S(=O)(=O)[O-])cc5)c5ccc2[nH]5)C=C4)C=C3)cc1
REMARK SMILES IDX 17 1 16 2 15 3 14 4 13 5 12 6 11 7 10 8 9 9 8 10 7 11 6 12
REMARK SMILES IDX 5 13 4 14 3 15 2 16 1 17 18 18 19 19 20 20 21 21 22 22 23 24
REMARK SMILES IDX 24 25 25 26 26 27 27 28 28 29 29 31 30 32 31 33 89 34 32 35
REMARK SMILES IDX 88 36 33 37 34 38 35 39 82 40 36 41 87 42 81 43 83 44 37 45
REMARK SMILES IDX 86 46 80 47 79 48 38 50 68 51 49 52 67 53 50 54 53 55 66 56
REMARK SMILES IDX 84 57 51 58 52 59 65 61 85 62 54 63 39 64 40 65 48 66 41 67
REMARK SMILES IDX 47 68 42 69 43 70 44 71 45 72 46 73 69 74 70 75 78 76 71 77
REMARK SMILES IDX 77 78 72 79 73 80 74 81 75 82 76 83 55 84 56 85 64 86 57 87
REMARK SMILES IDX 63 88 58 89 59 90 60 91 61 92 62 93
REMARK H PARENT 22 23 27 30 83 49 53 60
REMARK Flexibility Score: inf
ROOT
ATOM      1  C   UNL A   1      41.435  19.994  26.113  1.00  0.00     0.070 C 
ENDROOT
BRANCH   1   2
ATOM      2  S   UNL A   1      40.736  21.543  26.836  1.00  0.00    -0.162 SA
BRANCH   2   3
ATOM      3  C   UNL A   1      39.122  21.959  26.045  1.00  0.00     0.073 C 
BRANCH   3   4
ATOM      4  C   UNL A   1      38.432  23.282  26.471  1.00  0.00     0.038 C 
BRANCH   4   5
ATOM      5  C   UNL A   1      37.319  23.756  25.578  1.00  0.00    -0.030 C 
ATOM      6  C   UNL A   1      35.994  23.749  25.805  1.00  0.00    -0.027 C 
BRANCH   6   7
ATOM      7  C   UNL A   1      35.022  24.522  24.932  1.00  0.00     0.054 C 
BRANCH   7   8
ATOM      8  C   UNL A   1      33.751  23.790  24.608  1.00  0.00    -0.027 C 
ATOM      9  C   UNL A   1      33.482  23.298  23.388  1.00  0.00    -0.027 C 
BRANCH   9  10
ATOM     10  C   UNL A   1      32.202  22.606  23.013  1.00  0.00     0.054 C 
BRANCH  10  11
ATOM     11  C   UNL A   1      31.052  23.452  23.473  1.00  0.00    -0.027 C 
ATOM     12  C   UNL A   1      30.931  24.766  23.235  1.00  0.00    -0.027 C 
BRANCH  12  13
ATOM     13  C   UNL A   1      29.895  25.630  23.895  1.00  0.00     0.054 C 
BRANCH  13  14
ATOM     14  C   UNL A   1      30.551  26.876  24.418  1.00  0.00    -0.027 C 
ATOM     15  C   UNL A   1      31.779  26.918  24.956  1.00  0.00    -0.031 C 
BRANCH  15  16
ATOM     16  C   UNL A   1      32.371  28.151  25.573  1.00  0.00     0.023 C 
ATOM     17  C   UNL A   1      33.480  27.781  26.547  1.00  0.00     0.008 C 
ENDBRANCH  15  16
ENDBRANCH  13  14
ENDBRANCH  12  13
ENDBRANCH  10  11
ENDBRANCH   9  10
ENDBRANCH   7   8
ENDBRANCH   6   7
ENDBRANCH   4   5
ENDBRANCH   3   4
ENDBRANCH   2   3
ENDBRANCH   1   2
BRANCH   1  18
ATOM     18  C   UNL A   1      42.887  19.532  26.169  1.00  0.00     0.021 C 
BRANCH  18  19
ATOM     19  C   UNL A   1      43.820  19.834  25.015  1.00  0.00     0.101 C 
BRANCH  19  20
ATOM     20  C   UNL A   1      45.130  20.553  25.298  1.00  0.00     0.220 C 
ATOM     21  O   UNL A   1      46.156  20.174  24.721  1.00  0.00    -0.275 OA
ATOM     22  N   UNL A   1      45.254  21.634  26.105  1.00  0.00    -0.356 N 
ATOM     23  H   UNL A   1      46.183  21.817  26.376  1.00  0.00     0.163 HD
BRANCH  22  24
ATOM     24  C   UNL A   1      44.296  22.577  26.652  1.00  0.00     0.116 C 
BRANCH  24  25
ATOM     25  C   UNL A   1      44.013  23.758  25.725  1.00  0.00     0.023 C 
BRANCH  25  26
ATOM     26  C   UNL A   1      43.416  24.948  26.485  1.00  0.00     0.023 C 
BRANCH  26  27
ATOM     27  C   UNL A   1      44.095  26.288  26.199  1.00  0.00     0.116 C 
BRANCH  27  28
ATOM     28  N   UNL A   1      43.284  27.161  25.363  1.00  0.00    -0.352 N 
ATOM     29  C   UNL A   1      42.460  28.205  25.730  1.00  0.00     0.251 C 
ATOM     30  H   UNL A   1      43.331  26.980  24.396  1.00  0.00     0.163 HD
ATOM     31  O   UNL A   1      41.729  28.734  24.911  1.00  0.00    -0.269 OA
BRANCH  29  32
ATOM     32  C   UNL A   1      42.448  28.655  27.141  1.00  0.00     0.039 A 
ATOM     33  C   UNL A   1      43.206  29.771  27.502  1.00  0.00     0.014 A 
ATOM     34  C   UNL A   1      41.658  28.003  28.089  1.00  0.00     0.014 A 
ATOM     35  C   UNL A   1      43.094  30.294  28.793  1.00  0.00     0.010 A 
ATOM     36  C   UNL A   1      41.493  28.566  29.352  1.00  0.00     0.010 A 
ATOM     37  C   UNL A   1      42.193  29.729  29.712  1.00  0.00    -0.014 A 
BRANCH  37  38
ATOM     38  C   UNL A   1      41.929  30.363  31.031  1.00  0.00     0.031 A 
ATOM     39  C   UNL A   1      42.837  30.096  32.200  1.00  0.00     0.074 A 
ATOM     40  C   UNL A   1      40.811  31.102  31.202  1.00  0.00     0.049 A 
ATOM     41  N   UNL A   1      42.709  30.473  33.446  1.00  0.00    -0.248 NA
ATOM     42  C   UNL A   1      44.034  29.278  31.941  1.00  0.00     0.031 C 
ATOM     43  C   UNL A   1      39.823  31.398  30.160  1.00  0.00     0.029 A 
ATOM     44  N   UNL A   1      40.306  31.721  32.318  1.00  0.00    -0.354 N 
ATOM     45  C   UNL A   1      43.788  29.917  34.124  1.00  0.00     0.074 A 
ATOM     46  C   UNL A   1      44.544  29.150  33.158  1.00  0.00     0.031 C 
ATOM     47  C   UNL A   1      38.841  32.149  30.684  1.00  0.00     0.029 A 
ATOM     48  C   UNL A   1      39.100  32.350  32.106  1.00  0.00     0.049 A 
ATOM     49  H   UNL A   1      40.764  31.717  33.190  1.00  0.00     0.167 HD
ATOM     50  C   UNL A   1      44.124  30.045  35.430  1.00  0.00     0.031 A 
ATOM     51  C   UNL A   1      38.280  32.996  32.960  1.00  0.00     0.031 A 
ATOM     52  C   UNL A   1      43.380  30.825  36.382  1.00  0.00     0.049 A 
ATOM     53  C   UNL A   1      38.672  33.112  34.408  1.00  0.00     0.074 A 
ATOM     54  C   UNL A   1      43.690  31.084  37.707  1.00  0.00     0.029 A 
ATOM     55  N   UNL A   1      42.177  31.462  36.121  1.00  0.00    -0.354 N 
ATOM     56  N   UNL A   1      39.748  32.659  35.007  1.00  0.00    -0.248 NA
ATOM     57  C   UNL A   1      37.742  33.826  35.296  1.00  0.00     0.031 C 
ATOM     58  C   UNL A   1      42.643  31.823  38.263  1.00  0.00     0.029 A 
ATOM     59  C   UNL A   1      41.711  32.079  37.270  1.00  0.00     0.049 A 
ATOM     60  H   UNL A   1      41.722  31.475  35.248  1.00  0.00     0.167 HD
ATOM     61  C   UNL A   1      39.634  33.054  36.336  1.00  0.00     0.074 A 
ATOM     62  C   UNL A   1      38.396  33.797  36.449  1.00  0.00     0.031 C 
ATOM     63  C   UNL A   1      40.479  32.819  37.369  1.00  0.00     0.031 A 
BRANCH  50  64
ATOM     64  C   UNL A   1      45.347  29.312  35.919  1.00  0.00    -0.014 A 
ATOM     65  C   UNL A   1      46.613  29.922  35.915  1.00  0.00     0.010 A 
ATOM     66  C   UNL A   1      45.212  28.018  36.456  1.00  0.00     0.010 A 
ATOM     67  C   UNL A   1      47.728  29.240  36.411  1.00  0.00     0.020 A 
ATOM     68  C   UNL A   1      46.318  27.344  36.978  1.00  0.00     0.020 A 
ATOM     69  C   UNL A   1      47.573  27.955  36.940  1.00  0.00     0.054 A 
BRANCH  69  70
ATOM     70  S   UNL A   1      49.030  27.112  37.614  1.00  0.00     0.124 S 
ATOM     71  O   UNL A   1      48.523  25.759  37.828  1.00  0.00    -0.237 OA
ATOM     72  O   UNL A   1      50.007  27.252  36.537  1.00  0.00    -0.237 OA
ATOM     73  O   UNL A   1      49.335  27.862  38.830  1.00  0.00    -0.744 OA
ENDBRANCH  69  70
ENDBRANCH  50  64
BRANCH  51  74
ATOM     74  C   UNL A   1      36.992  33.566  32.474  1.00  0.00    -0.014 A 
ATOM     75  C   UNL A   1      36.739  34.947  32.561  1.00  0.00     0.010 A 
ATOM     76  C   UNL A   1      36.005  32.727  31.926  1.00  0.00     0.010 A 
ATOM     77  C   UNL A   1      35.515  35.472  32.136  1.00  0.00     0.020 A 
ATOM     78  C   UNL A   1      34.792  33.252  31.470  1.00  0.00     0.020 A 
ATOM     79  C   UNL A   1      34.549  34.621  31.593  1.00  0.00     0.054 A 
BRANCH  79  80
ATOM     80  S   UNL A   1      32.982  35.329  31.014  1.00  0.00     0.124 S 
ATOM     81  O   UNL A   1      32.734  34.562  29.798  1.00  0.00    -0.237 OA
ATOM     82  O   UNL A   1      32.080  35.056  32.130  1.00  0.00    -0.237 OA
ATOM     83  O   UNL A   1      33.300  36.741  30.812  1.00  0.00    -0.744 OA
ENDBRANCH  79  80
ENDBRANCH  51  74
BRANCH  63  84
ATOM     84  C   UNL A   1      40.115  33.387  38.715  1.00  0.00    -0.014 A 
ATOM     85  C   UNL A   1      40.672  34.596  39.168  1.00  0.00     0.010 A 
ATOM     86  C   UNL A   1      39.136  32.746  39.497  1.00  0.00     0.010 A 
ATOM     87  C   UNL A   1      40.266  35.147  40.386  1.00  0.00     0.020 A 
ATOM     88  C   UNL A   1      38.707  33.308  40.702  1.00  0.00     0.020 A 
ATOM     89  C   UNL A   1      39.281  34.503  41.142  1.00  0.00     0.054 A 
BRANCH  89  90
ATOM     90  S   UNL A   1      38.719  35.279  42.683  1.00  0.00     0.124 S 
ATOM     91  O   UNL A   1      37.270  35.126  42.589  1.00  0.00    -0.237 OA
ATOM     92  O   UNL A   1      39.372  34.464  43.706  1.00  0.00    -0.237 OA
ATOM     93  O   UNL A   1      39.210  36.651  42.581  1.00  0.00    -0.744 OA
ENDBRANCH  89  90
ENDBRANCH  63  84
ENDBRANCH  37  38
ENDBRANCH  29  32
ENDBRANCH  27  28
ENDBRANCH  26  27
ENDBRANCH  25  26
ENDBRANCH  24  25
ENDBRANCH  22  24
ENDBRANCH  19  20
ENDBRANCH  18  19
ENDBRANCH   1  18
TORSDOF 27
ENDMDL
MODEL 3
REMARK VINA RESULT:      -7.7      6.866      9.039
REMARK SMILES CC/C=C/C/C=C/C/C=C/C/C=C/CCSCCCC(=O)NCCCCNC(=O)c1ccc(-c2c3nc(c(-c4ccc(S(=O)(=O)[O-])cc4)c4ccc([nH]4)c(-c4ccc(S(=O)(=O)[O-])cc4)c4nc(c(-c5ccc(S(=O)(=O)[O-])cc5)c5ccc2[nH]5)C=C4)C=C3)cc1
REMARK SMILES IDX 17 1 16 2 15 3 14 4 13 5 12 6 11 7 10 8 9 9 8 10 7 11 6 12
REMARK SMILES IDX 5 13 4 14 3 15 2 16 1 17 18 18 19 19 20 20 21 21 22 22 23 24
REMARK SMILES IDX 24 25 25 26 26 27 27 28 28 29 29 31 30 32 31 33 89 34 32 35
REMARK SMILES IDX 88 36 33 37 34 38 35 39 82 40 36 41 87 42 81 43 83 44 37 45
REMARK SMILES IDX 86 46 80 47 79 48 38 50 68 51 49 52 67 53 50 54 53 55 66 56
REMARK SMILES IDX 84 57 51 58 52 59 65 61 85 62 54 63 39 64 40 65 48 66 41 67
REMARK SMILES IDX 47 68 42 69 43 70 44 71 45 72 46 73 69 74 70 75 78 76 71 77
REMARK SMILES IDX 77 78 72 79 73 80 74 81 75 82 76 83 55 84 56 85 64 86 57 87
REMARK SMILES IDX 63 88 58 89 59 90 60 91 61 92 62 93
REMARK H PARENT 22 23 27 30 83 49 53 60
REMARK Flexibility Score: inf
ROOT
ATOM      1  C   UNL A   1      38.231  21.417  25.275  1.00  0.00     0.070 C 
ENDROOT
BRANCH   1   2
ATOM      2  S   UNL A   1      36.438  20.988  25.185  1.00  0.00    -0.162 SA
BRANCH   2   3
ATOM      3  C   UNL A   1      35.411  22.513  25.036  1.00  0.00     0.073 C 
BRANCH   3   4
ATOM      4  C   UNL A   1      33.875  22.336  24.894  1.00  0.00     0.038 C 
BRANCH   4   5
ATOM      5  C   UNL A   1      33.033  23.429  25.493  1.00  0.00    -0.030 C 
ATOM      6  C   UNL A   1      33.388  24.684  25.819  1.00  0.00    -0.027 C 
BRANCH   6   7
ATOM      7  C   UNL A   1      32.361  25.753  26.144  1.00  0.00     0.054 C 
BRANCH   7   8
ATOM      8  C   UNL A   1      32.937  27.113  26.419  1.00  0.00    -0.027 C 
ATOM      9  C   UNL A   1      32.215  28.121  26.935  1.00  0.00    -0.027 C 
BRANCH   9  10
ATOM     10  C   UNL A   1      32.741  29.508  27.177  1.00  0.00     0.054 C 
BRANCH  10  11
ATOM     11  C   UNL A   1      34.235  29.435  27.296  1.00  0.00    -0.027 C 
ATOM     12  C   UNL A   1      35.004  30.398  27.825  1.00  0.00    -0.027 C 
BRANCH  12  13
ATOM     13  C   UNL A   1      36.502  30.402  27.726  1.00  0.00     0.054 C 
BRANCH  13  14
ATOM     14  C   UNL A   1      37.089  30.450  29.106  1.00  0.00    -0.027 C 
ATOM     15  C   UNL A   1      37.028  29.444  29.992  1.00  0.00    -0.031 C 
BRANCH  15  16
ATOM     16  C   UNL A   1      37.524  29.553  31.404  1.00  0.00     0.023 C 
ATOM     17  C   UNL A   1      38.254  30.872  31.614  1.00  0.00     0.008 C 
ENDBRANCH  15  16
ENDBRANCH  13  14
ENDBRANCH  12  13
ENDBRANCH  10  11
ENDBRANCH   9  10
ENDBRANCH   7   8
ENDBRANCH   6   7
ENDBRANCH   4   5
ENDBRANCH   3   4
ENDBRANCH   2   3
ENDBRANCH   1   2
BRANCH   1  18
ATOM     18  C   UNL A   1      38.928  22.214  26.373  1.00  0.00     0.021 C 
BRANCH  18  19
ATOM     19  C   UNL A   1      40.437  22.339  26.372  1.00  0.00     0.101 C 
BRANCH  19  20
ATOM     20  C   UNL A   1      41.255  21.367  27.207  1.00  0.00     0.220 C 
ATOM     21  O   UNL A   1      40.711  20.342  27.635  1.00  0.00    -0.275 OA
ATOM     22  N   UNL A   1      42.576  21.508  27.477  1.00  0.00    -0.356 N 
ATOM     23  H   UNL A   1      42.887  20.945  28.221  1.00  0.00     0.163 HD
BRANCH  22  24
ATOM     24  C   UNL A   1      43.625  22.323  26.891  1.00  0.00     0.116 C 
BRANCH  24  25
ATOM     25  C   UNL A   1      44.131  23.420  27.825  1.00  0.00     0.023 C 
BRANCH  25  26
ATOM     26  C   UNL A   1      42.984  24.272  28.379  1.00  0.00     0.023 C 
BRANCH  26  27
ATOM     27  C   UNL A   1      43.003  25.732  27.925  1.00  0.00     0.116 C 
BRANCH  27  28
ATOM     28  N   UNL A   1      43.887  25.956  26.792  1.00  0.00    -0.352 N 
ATOM     29  C   UNL A   1      44.452  27.132  26.340  1.00  0.00     0.251 C 
ATOM     30  H   UNL A   1      44.116  25.152  26.271  1.00  0.00     0.163 HD
ATOM     31  O   UNL A   1      45.046  27.166  25.277  1.00  0.00    -0.269 OA
BRANCH  29  32
ATOM     32  C   UNL A   1      44.297  28.364  27.148  1.00  0.00     0.039 A 
ATOM     33  C   UNL A   1      45.110  28.546  28.268  1.00  0.00     0.014 A 
ATOM     34  C   UNL A   1      43.384  29.351  26.772  1.00  0.00     0.014 A 
ATOM     35  C   UNL A   1      45.079  29.763  28.954  1.00  0.00     0.010 A 
ATOM     36  C   UNL A   1      43.403  30.587  27.413  1.00  0.00     0.010 A 
ATOM     37  C   UNL A   1      44.265  30.814  28.498  1.00  0.00    -0.014 A 
BRANCH  37  38
ATOM     38  C   UNL A   1      44.335  32.171  29.104  1.00  0.00     0.031 A 
ATOM     39  C   UNL A   1      45.411  33.136  28.688  1.00  0.00     0.074 A 
ATOM     40  C   UNL A   1      43.487  32.497  30.104  1.00  0.00     0.049 A 
ATOM     41  N   UNL A   1      45.692  34.317  29.176  1.00  0.00    -0.248 NA
ATOM     42  C   UNL A   1      46.302  32.711  27.595  1.00  0.00     0.031 C 
ATOM     43  C   UNL A   1      42.428  31.633  30.634  1.00  0.00     0.029 A 
ATOM     44  N   UNL A   1      43.394  33.635  30.868  1.00  0.00    -0.354 N 
ATOM     45  C   UNL A   1      46.806  34.762  28.474  1.00  0.00     0.074 A 
ATOM     46  C   UNL A   1      47.169  33.712  27.547  1.00  0.00     0.031 C 
ATOM     47  C   UNL A   1      41.788  32.275  31.624  1.00  0.00     0.029 A 
ATOM     48  C   UNL A   1      42.417  33.575  31.835  1.00  0.00     0.049 A 
ATOM     49  H   UNL A   1      43.973  34.420  30.735  1.00  0.00     0.167 HD
ATOM     50  C   UNL A   1      47.459  35.944  28.584  1.00  0.00     0.031 A 
ATOM     51  C   UNL A   1      42.077  34.454  32.800  1.00  0.00     0.031 A 
ATOM     52  C   UNL A   1      47.082  36.993  29.493  1.00  0.00     0.049 A 
ATOM     53  C   UNL A   1      42.828  35.753  32.907  1.00  0.00     0.074 A 
ATOM     54  C   UNL A   1      47.630  38.259  29.616  1.00  0.00     0.029 A 
ATOM     55  N   UNL A   1      46.074  36.900  30.441  1.00  0.00    -0.354 N 
ATOM     56  N   UNL A   1      43.817  36.194  32.167  1.00  0.00    -0.248 NA
ATOM     57  C   UNL A   1      42.416  36.676  33.976  1.00  0.00     0.031 C 
ATOM     58  C   UNL A   1      46.997  38.907  30.680  1.00  0.00     0.029 A 
ATOM     59  C   UNL A   1      46.012  38.070  31.179  1.00  0.00     0.049 A 
ATOM     60  H   UNL A   1      45.490  36.118  30.568  1.00  0.00     0.167 HD
ATOM     61  C   UNL A   1      44.130  37.454  32.668  1.00  0.00     0.074 A 
ATOM     62  C   UNL A   1      43.214  37.712  33.759  1.00  0.00     0.031 C 
ATOM     63  C   UNL A   1      45.093  38.316  32.260  1.00  0.00     0.031 A 
BRANCH  50  64
ATOM     64  C   UNL A   1      48.665  36.168  27.709  1.00  0.00    -0.014 A 
ATOM     65  C   UNL A   1      49.962  35.863  28.159  1.00  0.00     0.010 A 
ATOM     66  C   UNL A   1      48.489  36.624  26.389  1.00  0.00     0.010 A 
ATOM     67  C   UNL A   1      51.062  36.039  27.316  1.00  0.00     0.020 A 
ATOM     68  C   UNL A   1      49.584  36.775  25.534  1.00  0.00     0.020 A 
ATOM     69  C   UNL A   1      50.866  36.494  26.009  1.00  0.00     0.054 A 
BRANCH  69  70
ATOM     70  S   UNL A   1      52.310  36.673  24.926  1.00  0.00     0.124 S 
ATOM     71  O   UNL A   1      51.717  36.504  23.603  1.00  0.00    -0.237 OA
ATOM     72  O   UNL A   1      52.778  38.020  25.238  1.00  0.00    -0.237 OA
ATOM     73  O   UNL A   1      53.199  35.594  25.351  1.00  0.00    -0.744 OA
ENDBRANCH  69  70
ENDBRANCH  50  64
BRANCH  51  74
ATOM     74  C   UNL A   1      40.985  34.126  33.759  1.00  0.00    -0.014 A 
ATOM     75  C   UNL A   1      41.260  33.439  34.954  1.00  0.00     0.010 A 
ATOM     76  C   UNL A   1      39.656  34.494  33.477  1.00  0.00     0.010 A 
ATOM     77  C   UNL A   1      40.227  33.103  35.835  1.00  0.00     0.020 A 
ATOM     78  C   UNL A   1      38.624  34.189  34.369  1.00  0.00     0.020 A 
ATOM     79  C   UNL A   1      38.915  33.480  35.536  1.00  0.00     0.054 A 
BRANCH  79  80
ATOM     80  S   UNL A   1      37.595  33.066  36.709  1.00  0.00     0.124 S 
ATOM     81  O   UNL A   1      37.691  31.611  36.771  1.00  0.00    -0.237 OA
ATOM     82  O   UNL A   1      38.007  33.780  37.915  1.00  0.00    -0.237 OA
ATOM     83  O   UNL A   1      36.391  33.588  36.066  1.00  0.00    -0.744 OA
ENDBRANCH  79  80
ENDBRANCH  51  74
BRANCH  63  84
ATOM     84  C   UNL A   1      45.199  39.636  32.977  1.00  0.00    -0.014 A 
ATOM     85  C   UNL A   1      46.062  39.798  34.076  1.00  0.00     0.010 A 
ATOM     86  C   UNL A   1      44.492  40.750  32.490  1.00  0.00     0.010 A 
ATOM     87  C   UNL A   1      46.204  41.048  34.683  1.00  0.00     0.020 A 
ATOM     88  C   UNL A   1      44.653  42.008  33.076  1.00  0.00     0.020 A 
ATOM     89  C   UNL A   1      45.504  42.147  34.174  1.00  0.00     0.054 A 
BRANCH  89  90
ATOM     90  S   UNL A   1      45.764  43.774  34.934  1.00  0.00     0.124 S 
ATOM     91  O   UNL A   1      47.087  44.136  34.432  1.00  0.00    -0.237 OA
ATOM     92  O   UNL A   1      44.653  44.558  34.398  1.00  0.00    -0.237 OA
ATOM     93  O   UNL A   1      45.694  43.503  36.368  1.00  0.00    -0.744 OA
ENDBRANCH  89  90
ENDBRANCH  63  84
ENDBRANCH  37  38
ENDBRANCH  29  32
ENDBRANCH  27  28
ENDBRANCH  26  27
ENDBRANCH  25  26
ENDBRANCH  24  25
ENDBRANCH  22  24
ENDBRANCH  19  20
ENDBRANCH  18  19
ENDBRANCH   1  18
TORSDOF 27
ENDMDL
