MODEL 1
REMARK VINA RESULT:      -9.1      0.000      0.000
REMARK SMILES N#Cc1cccc(C(=O)N2CCC(CC(=O)NCCCCNC(=O)c3ccc(-c4c5nc(c(-c6ccc(S(=O)(=O)[O-])cc6)c6ccc([nH]6)c(-c6ccc(S(=O)(=O)[O-])cc6)c6nc(c(-c7ccc(S(=O)(=O)[O-])cc7)c7ccc4[nH]7)C=C6)C=C5)cc3)CC2)c1
REMARK SMILES IDX 19 1 18 2 17 3 15 4 16 5 14 7 13 8 8 9 9 10 10 11 11 12
REMARK SMILES IDX 86 13 12 14 85 15 7 16 3 17 4 18 87 19 5 20 6 21 2 22 1 23
REMARK SMILES IDX 20 24 21 25 22 26 23 27 24 29 25 30 26 31 84 32 27 33 83 34
REMARK SMILES IDX 28 35 29 36 30 37 77 38 31 39 82 40 76 41 78 42 32 43 81 44
REMARK SMILES IDX 75 45 74 46 33 48 63 49 44 50 62 51 45 52 48 53 61 54 79 55
REMARK SMILES IDX 46 56 47 57 60 59 80 60 49 61 34 62 35 63 43 64 36 65 42 66
REMARK SMILES IDX 37 67 38 68 39 69 40 70 41 71 64 72 65 73 73 74 66 75 72 76
REMARK SMILES IDX 67 77 68 78 69 79 70 80 71 81 50 82 51 83 59 84 52 85 58 86
REMARK SMILES IDX 53 87 54 88 55 89 56 90 57 91
REMARK H PARENT 17 6 22 28 78 47 48 58
REMARK Flexibility Score: inf
ROOT
ATOM      1  C   UNL A   1      42.388  22.658  25.875  1.00  0.00     0.023 C 
ENDROOT
BRANCH   1   2
ATOM      2  C   UNL A   1      43.544  22.514  24.870  1.00  0.00     0.116 C 
BRANCH   2   3
ATOM      3  N   UNL A   1      44.848  22.664  25.502  1.00  0.00    -0.356 N 
ATOM      4  C   UNL A   1      45.659  23.753  25.666  1.00  0.00     0.220 C 
ATOM      5  O   UNL A   1      46.737  23.582  26.240  1.00  0.00    -0.275 OA
ATOM      6  H   UNL A   1      45.211  21.831  25.878  1.00  0.00     0.163 HD
BRANCH   4   7
ATOM      7  C   UNL A   1      45.266  25.145  25.164  1.00  0.00     0.103 C 
BRANCH   7   8
ATOM      8  C   UNL A   1      45.069  26.213  26.269  1.00  0.00     0.002 C 
ATOM      9  C   UNL A   1      45.947  30.218  26.500  1.00  0.00     0.253 C 
ATOM     10  O   UNL A   1      46.449  30.354  25.392  1.00  0.00    -0.269 OA
ATOM     11  N   UNL A   1      45.486  29.011  26.984  1.00  0.00    -0.339 N 
ATOM     12  C   UNL A   1      46.437  28.054  27.477  1.00  0.00     0.120 C 
ATOM     13  C   UNL A   1      44.129  28.536  26.774  1.00  0.00     0.120 C 
ATOM     14  C   UNL A   1      46.414  26.827  26.609  1.00  0.00     0.026 C 
ATOM     15  C   UNL A   1      44.078  27.313  25.850  1.00  0.00     0.026 C 
BRANCH   9  16
ATOM     16  C   UNL A   1      45.910  31.336  27.490  1.00  0.00     0.041 A 
ATOM     17  C   UNL A   1      44.732  33.186  28.533  1.00  0.00     0.053 A 
ATOM     18  C   UNL A   1      45.821  33.395  29.383  1.00  0.00     0.019 A 
ATOM     19  C   UNL A   1      44.779  32.158  27.592  1.00  0.00     0.033 A 
ATOM     20  C   UNL A   1      46.948  32.575  29.291  1.00  0.00     0.002 A 
ATOM     21  C   UNL A   1      46.995  31.546  28.347  1.00  0.00     0.014 A 
BRANCH  17  22
ATOM     22  C   UNL A   1      43.563  34.008  28.610  1.00  0.00     0.099 C 
ATOM     23  N   UNL A   1      42.594  34.649  28.659  1.00  0.00    -0.192 NA
ENDBRANCH  17  22
ENDBRANCH   9  16
ENDBRANCH   7   8
ENDBRANCH   4   7
ENDBRANCH   2   3
ENDBRANCH   1   2
BRANCH   1  24
ATOM     24  C   UNL A   1      41.566  21.414  26.123  1.00  0.00     0.023 C 
BRANCH  24  25
ATOM     25  C   UNL A   1      40.318  21.686  26.922  1.00  0.00     0.116 C 
BRANCH  25  26
ATOM     26  N   UNL A   1      39.205  22.144  26.098  1.00  0.00    -0.352 N 
ATOM     27  C   UNL A   1      38.643  23.398  26.064  1.00  0.00     0.251 C 
ATOM     28  H   UNL A   1      38.809  21.475  25.494  1.00  0.00     0.163 HD
ATOM     29  O   UNL A   1      37.608  23.612  25.444  1.00  0.00    -0.269 OA
BRANCH  27  30
ATOM     30  C   UNL A   1      39.306  24.464  26.835  1.00  0.00     0.039 A 
ATOM     31  C   UNL A   1      40.107  25.390  26.172  1.00  0.00     0.014 A 
ATOM     32  C   UNL A   1      39.005  24.613  28.192  1.00  0.00     0.014 A 
ATOM     33  C   UNL A   1      40.553  26.512  26.865  1.00  0.00     0.010 A 
ATOM     34  C   UNL A   1      39.322  25.800  28.829  1.00  0.00     0.010 A 
ATOM     35  C   UNL A   1      40.126  26.748  28.184  1.00  0.00    -0.014 A 
BRANCH  35  36
ATOM     36  C   UNL A   1      40.542  27.960  28.928  1.00  0.00     0.031 A 
ATOM     37  C   UNL A   1      41.911  28.010  29.554  1.00  0.00     0.074 A 
ATOM     38  C   UNL A   1      39.681  28.985  29.075  1.00  0.00     0.049 A 
ATOM     39  N   UNL A   1      42.457  28.965  30.258  1.00  0.00    -0.248 NA
ATOM     40  C   UNL A   1      42.768  26.820  29.398  1.00  0.00     0.031 C 
ATOM     41  C   UNL A   1      38.310  29.028  28.555  1.00  0.00     0.029 A 
ATOM     42  N   UNL A   1      39.834  30.198  29.698  1.00  0.00    -0.354 N 
ATOM     43  C   UNL A   1      43.707  28.488  30.634  1.00  0.00     0.074 A 
ATOM     44  C   UNL A   1      43.809  27.130  30.152  1.00  0.00     0.031 C 
ATOM     45  C   UNL A   1      37.770  30.224  28.836  1.00  0.00     0.029 A 
ATOM     46  C   UNL A   1      38.731  31.013  29.600  1.00  0.00     0.049 A 
ATOM     47  H   UNL A   1      40.657  30.459  30.172  1.00  0.00     0.167 HD
ATOM     48  C   UNL A   1      44.697  29.131  31.292  1.00  0.00     0.031 A 
ATOM     49  C   UNL A   1      38.518  32.255  30.076  1.00  0.00     0.031 A 
ATOM     50  C   UNL A   1      44.589  30.485  31.763  1.00  0.00     0.049 A 
ATOM     51  C   UNL A   1      39.625  32.940  30.832  1.00  0.00     0.074 A 
ATOM     52  C   UNL A   1      45.548  31.250  32.400  1.00  0.00     0.029 A 
ATOM     53  N   UNL A   1      43.452  31.272  31.652  1.00  0.00    -0.354 N 
ATOM     54  N   UNL A   1      40.827  32.497  31.116  1.00  0.00    -0.248 NA
ATOM     55  C   UNL A   1      39.351  34.298  31.318  1.00  0.00     0.031 C 
ATOM     56  C   UNL A   1      44.967  32.474  32.742  1.00  0.00     0.029 A 
ATOM     57  C   UNL A   1      43.676  32.506  32.239  1.00  0.00     0.049 A 
ATOM     58  H   UNL A   1      42.612  30.995  31.222  1.00  0.00     0.167 HD
ATOM     59  C   UNL A   1      41.467  33.539  31.779  1.00  0.00     0.074 A 
ATOM     60  C   UNL A   1      40.523  34.636  31.840  1.00  0.00     0.031 C 
ATOM     61  C   UNL A   1      42.724  33.586  32.287  1.00  0.00     0.031 A 
BRANCH  48  62
ATOM     62  C   UNL A   1      45.975  28.373  31.546  1.00  0.00    -0.014 A 
ATOM     63  C   UNL A   1      46.045  27.358  32.518  1.00  0.00     0.010 A 
ATOM     64  C   UNL A   1      47.115  28.656  30.772  1.00  0.00     0.010 A 
ATOM     65  C   UNL A   1      47.238  26.668  32.739  1.00  0.00     0.020 A 
ATOM     66  C   UNL A   1      48.301  27.942  30.963  1.00  0.00     0.020 A 
ATOM     67  C   UNL A   1      48.358  26.962  31.956  1.00  0.00     0.054 A 
BRANCH  67  68
ATOM     68  S   UNL A   1      49.883  26.022  32.239  1.00  0.00     0.124 S 
ATOM     69  O   UNL A   1      49.825  25.025  31.173  1.00  0.00    -0.237 OA
ATOM     70  O   UNL A   1      50.917  27.043  32.091  1.00  0.00    -0.237 OA
ATOM     71  O   UNL A   1      49.720  25.495  33.592  1.00  0.00    -0.744 OA
ENDBRANCH  67  68
ENDBRANCH  48  62
BRANCH  49  72
ATOM     72  C   UNL A   1      37.213  32.933  29.841  1.00  0.00    -0.014 A 
ATOM     73  C   UNL A   1      36.270  33.061  30.878  1.00  0.00     0.010 A 
ATOM     74  C   UNL A   1      36.903  33.457  28.573  1.00  0.00     0.010 A 
ATOM     75  C   UNL A   1      35.036  33.675  30.644  1.00  0.00     0.020 A 
ATOM     76  C   UNL A   1      35.686  34.105  28.344  1.00  0.00     0.020 A 
ATOM     77  C   UNL A   1      34.754  34.197  29.378  1.00  0.00     0.054 A 
BRANCH  77  78
ATOM     78  S   UNL A   1      33.162  35.026  29.110  1.00  0.00     0.124 S 
ATOM     79  O   UNL A   1      32.553  34.949  30.435  1.00  0.00    -0.237 OA
ATOM     80  O   UNL A   1      33.574  36.358  28.677  1.00  0.00    -0.237 OA
ATOM     81  O   UNL A   1      32.522  34.212  28.079  1.00  0.00    -0.744 OA
ENDBRANCH  77  78
ENDBRANCH  49  72
BRANCH  61  82
ATOM     82  C   UNL A   1      43.177  34.885  32.903  1.00  0.00    -0.014 A 
ATOM     83  C   UNL A   1      42.993  35.162  34.268  1.00  0.00     0.010 A 
ATOM     84  C   UNL A   1      43.850  35.825  32.098  1.00  0.00     0.010 A 
ATOM     85  C   UNL A   1      43.437  36.371  34.809  1.00  0.00     0.020 A 
ATOM     86  C   UNL A   1      44.330  37.017  32.643  1.00  0.00     0.020 A 
ATOM     87  C   UNL A   1      44.105  37.290  33.993  1.00  0.00     0.054 A 
BRANCH  87  88
ATOM     88  S   UNL A   1      44.703  38.835  34.728  1.00  0.00     0.124 S 
ATOM     89  O   UNL A   1      45.878  39.126  33.911  1.00  0.00    -0.237 OA
ATOM     90  O   UNL A   1      43.568  39.735  34.542  1.00  0.00    -0.237 OA
ATOM     91  O   UNL A   1      44.984  38.474  36.116  1.00  0.00    -0.744 OA
ENDBRANCH  87  88
ENDBRANCH  61  82
ENDBRANCH  35  36
ENDBRANCH  27  30
ENDBRANCH  25  26
ENDBRANCH  24  25
ENDBRANCH   1  24
TORSDOF 17
ENDMDL
MODEL 2
REMARK VINA RESULT:      -9.0      3.740      7.348
REMARK SMILES N#Cc1cccc(C(=O)N2CCC(CC(=O)NCCCCNC(=O)c3ccc(-c4c5nc(c(-c6ccc(S(=O)(=O)[O-])cc6)c6ccc([nH]6)c(-c6ccc(S(=O)(=O)[O-])cc6)c6nc(c(-c7ccc(S(=O)(=O)[O-])cc7)c7ccc4[nH]7)C=C6)C=C5)cc3)CC2)c1
REMARK SMILES IDX 19 1 18 2 17 3 15 4 16 5 14 7 13 8 8 9 9 10 10 11 11 12
REMARK SMILES IDX 86 13 12 14 85 15 7 16 3 17 4 18 87 19 5 20 6 21 2 22 1 23
REMARK SMILES IDX 20 24 21 25 22 26 23 27 24 29 25 30 26 31 84 32 27 33 83 34
REMARK SMILES IDX 28 35 29 36 30 37 77 38 31 39 82 40 76 41 78 42 32 43 81 44
REMARK SMILES IDX 75 45 74 46 33 48 63 49 44 50 62 51 45 52 48 53 61 54 79 55
REMARK SMILES IDX 46 56 47 57 60 59 80 60 49 61 34 62 35 63 43 64 36 65 42 66
REMARK SMILES IDX 37 67 38 68 39 69 40 70 41 71 64 72 65 73 73 74 66 75 72 76
REMARK SMILES IDX 67 77 68 78 69 79 70 80 71 81 50 82 51 83 59 84 52 85 58 86
REMARK SMILES IDX 53 87 54 88 55 89 56 90 57 91
REMARK H PARENT 17 6 22 28 78 47 48 58
REMARK Flexibility Score: inf
ROOT
ATOM      1  C   UNL A   1      35.773  21.714  26.125  1.00  0.00     0.023 C 
ENDROOT
BRANCH   1   2
ATOM      2  C   UNL A   1      35.428  20.703  25.018  1.00  0.00     0.116 C 
BRANCH   2   3
ATOM      3  N   UNL A   1      34.244  19.917  25.337  1.00  0.00    -0.356 N 
ATOM      4  C   UNL A   1      32.974  19.941  24.830  1.00  0.00     0.220 C 
ATOM      5  O   UNL A   1      32.153  19.154  25.307  1.00  0.00    -0.275 OA
ATOM      6  H   UNL A   1      34.383  19.249  26.045  1.00  0.00     0.163 HD
BRANCH   4   7
ATOM      7  C   UNL A   1      32.561  20.899  23.710  1.00  0.00     0.103 C 
BRANCH   7   8
ATOM      8  C   UNL A   1      32.803  22.401  24.003  1.00  0.00     0.002 C 
ATOM      9  C   UNL A   1      30.394  25.723  23.851  1.00  0.00     0.253 C 
ATOM     10  O   UNL A   1      29.363  25.178  23.479  1.00  0.00    -0.269 OA
ATOM     11  N   UNL A   1      31.584  25.051  24.042  1.00  0.00    -0.339 N 
ATOM     12  C   UNL A   1      32.375  24.704  22.895  1.00  0.00     0.120 C 
ATOM     13  C   UNL A   1      31.953  24.431  25.303  1.00  0.00     0.120 C 
ATOM     14  C   UNL A   1      32.453  23.209  22.768  1.00  0.00     0.026 C 
ATOM     15  C   UNL A   1      31.990  22.900  25.209  1.00  0.00     0.026 C 
BRANCH   9  16
ATOM     16  C   UNL A   1      30.488  27.205  24.006  1.00  0.00     0.041 A 
ATOM     17  C   UNL A   1      31.403  29.150  25.139  1.00  0.00     0.053 A 
ATOM     18  C   UNL A   1      30.707  29.984  24.259  1.00  0.00     0.019 A 
ATOM     19  C   UNL A   1      31.293  27.766  25.008  1.00  0.00     0.033 A 
ATOM     20  C   UNL A   1      29.910  29.432  23.254  1.00  0.00     0.002 A 
ATOM     21  C   UNL A   1      29.799  28.045  23.125  1.00  0.00     0.014 A 
BRANCH  17  22
ATOM     22  C   UNL A   1      32.231  29.689  26.173  1.00  0.00     0.099 C 
ATOM     23  N   UNL A   1      32.892  30.161  27.006  1.00  0.00    -0.192 NA
ENDBRANCH  17  22
ENDBRANCH   9  16
ENDBRANCH   7   8
ENDBRANCH   4   7
ENDBRANCH   2   3
ENDBRANCH   1   2
BRANCH   1  24
ATOM     24  C   UNL A   1      35.738  23.172  25.727  1.00  0.00     0.023 C 
BRANCH  24  25
ATOM     25  C   UNL A   1      37.058  23.668  25.199  1.00  0.00     0.116 C 
BRANCH  25  26
ATOM     26  N   UNL A   1      38.159  22.747  25.467  1.00  0.00    -0.352 N 
ATOM     27  C   UNL A   1      39.334  23.010  26.127  1.00  0.00     0.251 C 
ATOM     28  H   UNL A   1      38.044  21.828  25.134  1.00  0.00     0.163 HD
ATOM     29  O   UNL A   1      40.247  22.193  26.146  1.00  0.00    -0.269 OA
BRANCH  27  30
ATOM     30  C   UNL A   1      39.473  24.326  26.775  1.00  0.00     0.039 A 
ATOM     31  C   UNL A   1      39.006  24.501  28.075  1.00  0.00     0.014 A 
ATOM     32  C   UNL A   1      40.199  25.332  26.129  1.00  0.00     0.014 A 
ATOM     33  C   UNL A   1      39.330  25.673  28.754  1.00  0.00     0.010 A 
ATOM     34  C   UNL A   1      40.645  26.419  26.859  1.00  0.00     0.010 A 
ATOM     35  C   UNL A   1      40.190  26.619  28.168  1.00  0.00    -0.014 A 
BRANCH  35  36
ATOM     36  C   UNL A   1      40.594  27.849  28.888  1.00  0.00     0.031 A 
ATOM     37  C   UNL A   1      41.962  27.926  29.513  1.00  0.00     0.074 A 
ATOM     38  C   UNL A   1      39.722  28.869  29.014  1.00  0.00     0.049 A 
ATOM     39  N   UNL A   1      42.498  28.901  30.197  1.00  0.00    -0.248 NA
ATOM     40  C   UNL A   1      42.831  26.742  29.380  1.00  0.00     0.031 C 
ATOM     41  C   UNL A   1      38.351  28.887  28.495  1.00  0.00     0.029 A 
ATOM     42  N   UNL A   1      39.863  30.094  29.614  1.00  0.00    -0.354 N 
ATOM     43  C   UNL A   1      43.752  28.443  30.582  1.00  0.00     0.074 A 
ATOM     44  C   UNL A   1      43.869  27.078  30.127  1.00  0.00     0.031 C 
ATOM     45  C   UNL A   1      37.799  30.083  28.752  1.00  0.00     0.029 A 
ATOM     46  C   UNL A   1      38.751  30.896  29.500  1.00  0.00     0.049 A 
ATOM     47  H   UNL A   1      40.683  30.373  30.082  1.00  0.00     0.167 HD
ATOM     48  C   UNL A   1      44.737  29.110  31.228  1.00  0.00     0.031 A 
ATOM     49  C   UNL A   1      38.526  32.145  29.951  1.00  0.00     0.031 A 
ATOM     50  C   UNL A   1      44.614  30.472  31.672  1.00  0.00     0.049 A 
ATOM     51  C   UNL A   1      39.625  32.856  30.693  1.00  0.00     0.074 A 
ATOM     52  C   UNL A   1      45.565  31.259  32.293  1.00  0.00     0.029 A 
ATOM     53  N   UNL A   1      43.469  31.244  31.545  1.00  0.00    -0.354 N 
ATOM     54  N   UNL A   1      40.832  32.431  30.986  1.00  0.00    -0.248 NA
ATOM     55  C   UNL A   1      39.338  34.221  31.152  1.00  0.00     0.031 C 
ATOM     56  C   UNL A   1      44.972  32.483  32.611  1.00  0.00     0.029 A 
ATOM     57  C   UNL A   1      43.681  32.492  32.107  1.00  0.00     0.049 A 
ATOM     58  H   UNL A   1      42.632  30.950  31.121  1.00  0.00     0.167 HD
ATOM     59  C   UNL A   1      41.461  33.493  31.627  1.00  0.00     0.074 A 
ATOM     60  C   UNL A   1      40.505  34.581  31.667  1.00  0.00     0.031 C 
ATOM     61  C   UNL A   1      42.717  33.564  32.134  1.00  0.00     0.031 A 
BRANCH  48  62
ATOM     62  C   UNL A   1      46.022  28.370  31.496  1.00  0.00    -0.014 A 
ATOM     63  C   UNL A   1      47.110  28.444  30.606  1.00  0.00     0.010 A 
ATOM     64  C   UNL A   1      46.157  27.619  32.678  1.00  0.00     0.010 A 
ATOM     65  C   UNL A   1      48.292  27.750  30.872  1.00  0.00     0.020 A 
ATOM     66  C   UNL A   1      47.351  26.953  32.966  1.00  0.00     0.020 A 
ATOM     67  C   UNL A   1      48.406  27.012  32.053  1.00  0.00     0.054 A 
BRANCH  67  68
ATOM     68  S   UNL A   1      49.968  26.153  32.390  1.00  0.00     0.124 S 
ATOM     69  O   UNL A   1      49.975  26.102  33.850  1.00  0.00    -0.237 OA
ATOM     70  O   UNL A   1      49.776  24.871  31.717  1.00  0.00    -0.237 OA
ATOM     71  O   UNL A   1      50.978  27.023  31.793  1.00  0.00    -0.744 OA
ENDBRANCH  67  68
ENDBRANCH  48  62
BRANCH  49  72
ATOM     72  C   UNL A   1      37.213  32.805  29.702  1.00  0.00    -0.014 A 
ATOM     73  C   UNL A   1      36.921  33.379  28.451  1.00  0.00     0.010 A 
ATOM     74  C   UNL A   1      36.243  32.863  30.719  1.00  0.00     0.010 A 
ATOM     75  C   UNL A   1      35.698  34.019  28.231  1.00  0.00     0.020 A 
ATOM     76  C   UNL A   1      35.004  33.469  30.492  1.00  0.00     0.020 A 
ATOM     77  C   UNL A   1      34.745  34.057  29.253  1.00  0.00     0.054 A 
BRANCH  77  78
ATOM     78  S   UNL A   1      33.149  34.857  28.932  1.00  0.00     0.124 S 
ATOM     79  O   UNL A   1      32.529  33.929  27.991  1.00  0.00    -0.237 OA
ATOM     80  O   UNL A   1      32.551  34.905  30.262  1.00  0.00    -0.237 OA
ATOM     81  O   UNL A   1      33.524  36.156  28.376  1.00  0.00    -0.744 OA
ENDBRANCH  77  78
ENDBRANCH  49  72
BRANCH  61  82
ATOM     82  C   UNL A   1      43.157  34.879  32.724  1.00  0.00    -0.014 A 
ATOM     83  C   UNL A   1      43.886  35.819  31.977  1.00  0.00     0.010 A 
ATOM     84  C   UNL A   1      42.779  35.197  34.043  1.00  0.00     0.010 A 
ATOM     85  C   UNL A   1      44.267  37.035  32.551  1.00  0.00     0.020 A 
ATOM     86  C   UNL A   1      43.123  36.426  34.607  1.00  0.00     0.020 A 
ATOM     87  C   UNL A   1      43.880  37.331  33.862  1.00  0.00     0.054 A 
BRANCH  87  88
ATOM     88  S   UNL A   1      44.355  38.931  34.571  1.00  0.00     0.124 S 
ATOM     89  O   UNL A   1      43.215  39.772  34.215  1.00  0.00    -0.237 OA
ATOM     90  O   UNL A   1      44.488  38.621  35.992  1.00  0.00    -0.237 OA
ATOM     91  O   UNL A   1      45.605  39.256  33.889  1.00  0.00    -0.744 OA
ENDBRANCH  87  88
ENDBRANCH  61  82
ENDBRANCH  35  36
ENDBRANCH  27  30
ENDBRANCH  25  26
ENDBRANCH  24  25
ENDBRANCH   1  24
TORSDOF 17
ENDMDL
MODEL 3
REMARK VINA RESULT:      -8.5      3.220     10.397
REMARK SMILES N#Cc1cccc(C(=O)N2CCC(CC(=O)NCCCCNC(=O)c3ccc(-c4c5nc(c(-c6ccc(S(=O)(=O)[O-])cc6)c6ccc([nH]6)c(-c6ccc(S(=O)(=O)[O-])cc6)c6nc(c(-c7ccc(S(=O)(=O)[O-])cc7)c7ccc4[nH]7)C=C6)C=C5)cc3)CC2)c1
REMARK SMILES IDX 19 1 18 2 17 3 15 4 16 5 14 7 13 8 8 9 9 10 10 11 11 12
REMARK SMILES IDX 86 13 12 14 85 15 7 16 3 17 4 18 87 19 5 20 6 21 2 22 1 23
REMARK SMILES IDX 20 24 21 25 22 26 23 27 24 29 25 30 26 31 84 32 27 33 83 34
REMARK SMILES IDX 28 35 29 36 30 37 77 38 31 39 82 40 76 41 78 42 32 43 81 44
REMARK SMILES IDX 75 45 74 46 33 48 63 49 44 50 62 51 45 52 48 53 61 54 79 55
REMARK SMILES IDX 46 56 47 57 60 59 80 60 49 61 34 62 35 63 43 64 36 65 42 66
REMARK SMILES IDX 37 67 38 68 39 69 40 70 41 71 64 72 65 73 73 74 66 75 72 76
REMARK SMILES IDX 67 77 68 78 69 79 70 80 71 81 50 82 51 83 59 84 52 85 58 86
REMARK SMILES IDX 53 87 54 88 55 89 56 90 57 91
REMARK H PARENT 17 6 22 28 78 47 48 58
REMARK Flexibility Score: inf
ROOT
ATOM      1  C   UNL A   1      34.802  32.246  31.054  1.00  0.00     0.023 C 
ENDROOT
BRANCH   1   2
ATOM      2  C   UNL A   1      36.270  32.480  31.449  1.00  0.00     0.116 C 
BRANCH   2   3
ATOM      3  N   UNL A   1      36.513  32.208  32.860  1.00  0.00    -0.356 N 
ATOM      4  C   UNL A   1      37.540  31.571  33.499  1.00  0.00     0.220 C 
ATOM      5  O   UNL A   1      37.477  31.473  34.727  1.00  0.00    -0.275 OA
ATOM      6  H   UNL A   1      35.811  32.544  33.461  1.00  0.00     0.163 HD
BRANCH   4   7
ATOM      7  C   UNL A   1      38.737  30.991  32.741  1.00  0.00     0.103 C 
BRANCH   7   8
ATOM      8  C   UNL A   1      39.776  30.247  33.618  1.00  0.00     0.002 C 
ATOM      9  C   UNL A   1      43.042  27.917  32.745  1.00  0.00     0.253 C 
ATOM     10  O   UNL A   1      42.971  27.960  31.524  1.00  0.00    -0.269 OA
ATOM     11  N   UNL A   1      42.133  28.529  33.583  1.00  0.00    -0.339 N 
ATOM     12  C   UNL A   1      40.860  27.900  33.800  1.00  0.00     0.120 C 
ATOM     13  C   UNL A   1      42.273  29.900  34.044  1.00  0.00     0.120 C 
ATOM     14  C   UNL A   1      39.766  28.775  33.255  1.00  0.00     0.026 C 
ATOM     15  C   UNL A   1      41.194  30.821  33.458  1.00  0.00     0.026 C 
BRANCH   9  16
ATOM     16  C   UNL A   1      44.061  27.077  33.444  1.00  0.00     0.041 A 
ATOM     17  C   UNL A   1      44.752  24.941  34.370  1.00  0.00     0.053 A 
ATOM     18  C   UNL A   1      45.993  25.490  34.702  1.00  0.00     0.019 A 
ATOM     19  C   UNL A   1      43.793  25.734  33.742  1.00  0.00     0.033 A 
ATOM     20  C   UNL A   1      46.269  26.827  34.402  1.00  0.00     0.002 A 
ATOM     21  C   UNL A   1      45.307  27.621  33.774  1.00  0.00     0.014 A 
BRANCH  17  22
ATOM     22  C   UNL A   1      44.445  23.574  34.662  1.00  0.00     0.099 C 
ATOM     23  N   UNL A   1      44.161  22.474  34.909  1.00  0.00    -0.192 NA
ENDBRANCH  17  22
ENDBRANCH   9  16
ENDBRANCH   7   8
ENDBRANCH   4   7
ENDBRANCH   2   3
ENDBRANCH   1   2
BRANCH   1  24
ATOM     24  C   UNL A   1      34.276  33.097  29.920  1.00  0.00     0.023 C 
BRANCH  24  25
ATOM     25  C   UNL A   1      34.691  32.588  28.565  1.00  0.00     0.116 C 
BRANCH  25  26
ATOM     26  N   UNL A   1      34.061  31.317  28.219  1.00  0.00    -0.352 N 
ATOM     27  C   UNL A   1      34.668  30.095  28.053  1.00  0.00     0.251 C 
ATOM     28  H   UNL A   1      33.086  31.337  28.090  1.00  0.00     0.163 HD
ATOM     29  O   UNL A   1      34.051  29.137  27.606  1.00  0.00    -0.269 OA
BRANCH  27  30
ATOM     30  C   UNL A   1      36.099  29.992  28.390  1.00  0.00     0.039 A 
ATOM     31  C   UNL A   1      36.475  29.439  29.612  1.00  0.00     0.014 A 
ATOM     32  C   UNL A   1      37.054  30.317  27.422  1.00  0.00     0.014 A 
ATOM     33  C   UNL A   1      37.819  29.149  29.833  1.00  0.00     0.010 A 
ATOM     34  C   UNL A   1      38.358  29.886  27.587  1.00  0.00     0.010 A 
ATOM     35  C   UNL A   1      38.763  29.327  28.806  1.00  0.00    -0.014 A 
BRANCH  35  36
ATOM     36  C   UNL A   1      40.190  28.977  28.997  1.00  0.00     0.031 A 
ATOM     37  C   UNL A   1      41.137  30.008  29.551  1.00  0.00     0.074 A 
ATOM     38  C   UNL A   1      40.635  27.759  28.633  1.00  0.00     0.049 A 
ATOM     39  N   UNL A   1      42.420  29.907  29.776  1.00  0.00    -0.248 NA
ATOM     40  C   UNL A   1      40.579  31.336  29.866  1.00  0.00     0.031 C 
ATOM     41  C   UNL A   1      39.819  26.695  28.037  1.00  0.00     0.029 A 
ATOM     42  N   UNL A   1      41.887  27.203  28.720  1.00  0.00    -0.354 N 
ATOM     43  C   UNL A   1      42.818  31.154  30.242  1.00  0.00     0.074 A 
ATOM     44  C   UNL A   1      41.663  32.019  30.194  1.00  0.00     0.031 C 
ATOM     45  C   UNL A   1      40.579  25.604  27.862  1.00  0.00     0.029 A 
ATOM     46  C   UNL A   1      41.945  25.901  28.281  1.00  0.00     0.049 A 
ATOM     47  H   UNL A   1      42.669  27.692  29.064  1.00  0.00     0.167 HD
ATOM     48  C   UNL A   1      44.031  31.538  30.704  1.00  0.00     0.031 A 
ATOM     49  C   UNL A   1      42.984  25.046  28.221  1.00  0.00     0.031 A 
ATOM     50  C   UNL A   1      45.173  30.669  30.754  1.00  0.00     0.049 A 
ATOM     51  C   UNL A   1      44.329  25.506  28.712  1.00  0.00     0.074 A 
ATOM     52  C   UNL A   1      46.436  30.941  31.246  1.00  0.00     0.029 A 
ATOM     53  N   UNL A   1      45.193  29.361  30.291  1.00  0.00    -0.354 N 
ATOM     54  N   UNL A   1      44.670  26.669  29.216  1.00  0.00    -0.248 NA
ATOM     55  C   UNL A   1      45.428  24.534  28.640  1.00  0.00     0.031 C 
ATOM     56  C   UNL A   1      47.241  29.823  31.013  1.00  0.00     0.029 A 
ATOM     57  C   UNL A   1      46.457  28.823  30.458  1.00  0.00     0.049 A 
ATOM     58  H   UNL A   1      44.424  28.887  29.903  1.00  0.00     0.167 HD
ATOM     59  C   UNL A   1      46.013  26.552  29.560  1.00  0.00     0.074 A 
ATOM     60  C   UNL A   1      46.416  25.204  29.217  1.00  0.00     0.031 C 
ATOM     61  C   UNL A   1      46.838  27.476  30.113  1.00  0.00     0.031 A 
BRANCH  48  62
ATOM     62  C   UNL A   1      44.177  32.961  31.180  1.00  0.00    -0.014 A 
ATOM     63  C   UNL A   1      44.499  34.002  30.291  1.00  0.00     0.010 A 
ATOM     64  C   UNL A   1      43.952  33.266  32.535  1.00  0.00     0.010 A 
ATOM     65  C   UNL A   1      44.632  35.314  30.752  1.00  0.00     0.020 A 
ATOM     66  C   UNL A   1      44.046  34.582  32.994  1.00  0.00     0.020 A 
ATOM     67  C   UNL A   1      44.400  35.595  32.101  1.00  0.00     0.054 A 
BRANCH  67  68
ATOM     68  S   UNL A   1      44.542  37.314  32.663  1.00  0.00     0.124 S 
ATOM     69  O   UNL A   1      43.313  37.481  33.435  1.00  0.00    -0.237 OA
ATOM     70  O   UNL A   1      45.776  37.292  33.444  1.00  0.00    -0.237 OA
ATOM     71  O   UNL A   1      44.606  38.081  31.422  1.00  0.00    -0.744 OA
ENDBRANCH  67  68
ENDBRANCH  48  62
BRANCH  49  72
ATOM     72  C   UNL A   1      42.788  23.668  27.687  1.00  0.00    -0.014 A 
ATOM     73  C   UNL A   1      42.391  22.618  28.535  1.00  0.00     0.010 A 
ATOM     74  C   UNL A   1      42.999  23.398  26.323  1.00  0.00     0.010 A 
ATOM     75  C   UNL A   1      42.234  21.322  28.035  1.00  0.00     0.020 A 
ATOM     76  C   UNL A   1      42.808  22.112  25.811  1.00  0.00     0.020 A 
ATOM     77  C   UNL A   1      42.440  21.078  26.674  1.00  0.00     0.054 A 
BRANCH  77  78
ATOM     78  S   UNL A   1      42.191  19.397  26.039  1.00  0.00     0.124 S 
ATOM     79  O   UNL A   1      43.037  19.393  24.850  1.00  0.00    -0.237 OA
ATOM     80  O   UNL A   1      42.656  18.572  27.151  1.00  0.00    -0.237 OA
ATOM     81  O   UNL A   1      40.753  19.336  25.786  1.00  0.00    -0.744 OA
ENDBRANCH  77  78
ENDBRANCH  49  72
BRANCH  61  82
ATOM     82  C   UNL A   1      48.245  27.046  30.440  1.00  0.00    -0.014 A 
ATOM     83  C   UNL A   1      49.321  27.315  29.577  1.00  0.00     0.010 A 
ATOM     84  C   UNL A   1      48.496  26.404  31.668  1.00  0.00     0.010 A 
ATOM     85  C   UNL A   1      50.615  26.913  29.917  1.00  0.00     0.020 A 
ATOM     86  C   UNL A   1      49.793  26.037  32.028  1.00  0.00     0.020 A 
ATOM     87  C   UNL A   1      50.843  26.279  31.142  1.00  0.00     0.054 A 
BRANCH  87  88
ATOM     88  S   UNL A   1      52.538  25.800  31.575  1.00  0.00     0.124 S 
ATOM     89  O   UNL A   1      52.350  24.447  32.090  1.00  0.00    -0.237 OA
ATOM     90  O   UNL A   1      53.230  25.896  30.293  1.00  0.00    -0.237 OA
ATOM     91  O   UNL A   1      52.936  26.795  32.568  1.00  0.00    -0.744 OA
ENDBRANCH  87  88
ENDBRANCH  61  82
ENDBRANCH  35  36
ENDBRANCH  27  30
ENDBRANCH  25  26
ENDBRANCH  24  25
ENDBRANCH   1  24
TORSDOF 17
ENDMDL
