MODEL 1
REMARK VINA RESULT:     -14.3      0.000      0.000
REMARK SMILES Cc1cc(C(=O)NCCCCNC(=O)c2ccc(-c3c4nc(c(-c5ccc(S(=O)(=O)[O-])cc5)c5ccc([nH]5)c(-c5ccc(S(=O)(=O)[O-])cc5)c5nc(c(-c6ccc(S(=O)(=O)[O-])cc6)c6ccc3[nH]6)C=C5)C=C4)cc2)ccc1NS(=O)(=O)c1ccc2c(c1)CCC2
REMARK SMILES IDX 9 1 8 2 7 3 5 4 6 5 4 7 1 8 2 9 3 10 77 11 76 12 75 13 78 14
REMARK SMILES IDX 79 16 80 17 81 18 82 19 83 20 87 21 84 22 86 23 85 24 88 25
REMARK SMILES IDX 90 26 89 27 10 28 11 29 12 30 13 31 14 33 15 34 16 35 74 36
REMARK SMILES IDX 17 37 73 38 18 39 19 40 20 41 67 42 21 43 72 44 66 45 68 46
REMARK SMILES IDX 22 47 71 48 65 49 64 50 23 52 53 53 34 54 52 55 35 56 38 57
REMARK SMILES IDX 51 58 69 59 36 60 37 61 50 63 70 64 39 65 24 66 25 67 33 68
REMARK SMILES IDX 26 69 32 70 27 71 28 72 29 73 30 74 31 75 54 76 55 77 63 78
REMARK SMILES IDX 56 79 62 80 57 81 58 82 59 83 60 84 61 85 40 86 41 87 49 88
REMARK SMILES IDX 42 89 48 90 43 91 44 92 45 93 46 94 47 95
REMARK H PARENT 7 6 78 15 12 32 68 51 38 62
REMARK Flexibility Score: inf
ROOT
ATOM      1  C   UNL A   1      32.685  29.972  25.382  1.00  0.00     0.023 C 
ENDROOT
BRANCH   1   2
ATOM      2  C   UNL A   1      31.179  29.863  25.105  1.00  0.00     0.116 C 
BRANCH   2   3
ATOM      3  N   UNL A   1      30.801  30.081  23.713  1.00  0.00    -0.352 N 
ATOM      4  C   UNL A   1      30.322  29.226  22.746  1.00  0.00     0.251 C 
ATOM      5  O   UNL A   1      30.109  29.655  21.613  1.00  0.00    -0.269 OA
ATOM      6  H   UNL A   1      30.907  31.012  23.410  1.00  0.00     0.163 HD
BRANCH   4   7
ATOM      7  C   UNL A   1      30.169  27.772  22.999  1.00  0.00     0.040 A 
ATOM      8  C   UNL A   1      32.414  24.735  22.671  1.00  0.00     0.046 C 
ATOM      9  C   UNL A   1      31.282  25.613  23.128  1.00  0.00    -0.026 A 
ATOM     10  C   UNL A   1      31.243  26.938  22.669  1.00  0.00     0.019 A 
ATOM     11  C   UNL A   1      30.268  25.173  23.995  1.00  0.00     0.052 A 
ATOM     12  C   UNL A   1      29.074  25.895  24.055  1.00  0.00     0.028 A 
ATOM     13  C   UNL A   1      29.026  27.203  23.557  1.00  0.00     0.016 A 
BRANCH  11  14
ATOM     14  N   UNL A   1      30.607  24.151  24.929  1.00  0.00    -0.279 N 
ATOM     15  H   UNL A   1      30.514  23.226  24.602  1.00  0.00     0.180 HD
BRANCH  14  16
ATOM     16  S   UNL A   1      31.140  24.308  26.500  1.00  0.00     0.261 S 
ATOM     17  O   UNL A   1      31.286  25.721  26.781  1.00  0.00    -0.201 OA
ATOM     18  O   UNL A   1      30.239  23.484  27.281  1.00  0.00    -0.201 OA
BRANCH  16  19
ATOM     19  C   UNL A   1      32.755  23.572  26.665  1.00  0.00     0.088 A 
ATOM     20  C   UNL A   1      32.969  22.343  27.309  1.00  0.00     0.022 A 
ATOM     21  C   UNL A   1      33.791  24.195  25.953  1.00  0.00     0.026 A 
ATOM     22  C   UNL A   1      34.143  21.627  27.065  1.00  0.00     0.005 A 
ATOM     23  C   UNL A   1      34.964  23.493  25.761  1.00  0.00    -0.043 A 
ATOM     24  C   UNL A   1      35.100  22.189  26.241  1.00  0.00    -0.045 A 
ATOM     25  C   UNL A   1      36.203  23.909  25.034  1.00  0.00     0.036 C 
ATOM     26  C   UNL A   1      36.350  21.552  25.717  1.00  0.00     0.036 C 
ATOM     27  C   UNL A   1      36.746  22.540  24.605  1.00  0.00     0.010 C 
ENDBRANCH  16  19
ENDBRANCH  14  16
ENDBRANCH  11  14
ENDBRANCH   4   7
ENDBRANCH   2   3
ENDBRANCH   1   2
BRANCH   1  28
ATOM     28  C   UNL A   1      33.100  30.163  26.840  1.00  0.00     0.023 C 
BRANCH  28  29
ATOM     29  C   UNL A   1      34.574  29.877  27.118  1.00  0.00     0.116 C 
BRANCH  29  30
ATOM     30  N   UNL A   1      35.322  31.038  27.589  1.00  0.00    -0.352 N 
ATOM     31  C   UNL A   1      36.543  31.068  28.248  1.00  0.00     0.251 C 
ATOM     32  H   UNL A   1      34.905  31.914  27.419  1.00  0.00     0.163 HD
ATOM     33  O   UNL A   1      36.991  32.100  28.720  1.00  0.00    -0.269 OA
BRANCH  31  34
ATOM     34  C   UNL A   1      37.334  29.818  28.285  1.00  0.00     0.039 A 
ATOM     35  C   UNL A   1      37.356  29.092  29.481  1.00  0.00     0.014 A 
ATOM     36  C   UNL A   1      38.227  29.532  27.259  1.00  0.00     0.014 A 
ATOM     37  C   UNL A   1      38.417  28.224  29.732  1.00  0.00     0.010 A 
ATOM     38  C   UNL A   1      39.334  28.764  27.553  1.00  0.00     0.010 A 
ATOM     39  C   UNL A   1      39.459  28.157  28.810  1.00  0.00    -0.014 A 
BRANCH  39  40
ATOM     40  C   UNL A   1      40.766  27.574  29.095  1.00  0.00     0.031 A 
ATOM     41  C   UNL A   1      41.048  26.165  28.732  1.00  0.00     0.074 A 
ATOM     42  C   UNL A   1      41.768  28.376  29.524  1.00  0.00     0.049 A 
ATOM     43  N   UNL A   1      42.054  25.478  29.162  1.00  0.00    -0.248 NA
ATOM     44  C   UNL A   1      40.149  25.388  27.883  1.00  0.00     0.031 C 
ATOM     45  C   UNL A   1      43.200  28.096  29.455  1.00  0.00     0.029 A 
ATOM     46  N   UNL A   1      41.691  29.530  30.310  1.00  0.00    -0.354 N 
ATOM     47  C   UNL A   1      42.120  24.328  28.402  1.00  0.00     0.074 A 
ATOM     48  C   UNL A   1      40.852  24.266  27.716  1.00  0.00     0.031 C 
ATOM     49  C   UNL A   1      43.827  28.837  30.382  1.00  0.00     0.029 A 
ATOM     50  C   UNL A   1      42.795  29.483  31.177  1.00  0.00     0.049 A 
ATOM     51  H   UNL A   1      41.002  30.233  30.264  1.00  0.00     0.167 HD
ATOM     52  C   UNL A   1      43.300  23.649  28.310  1.00  0.00     0.031 A 
ATOM     53  C   UNL A   1      42.703  29.415  32.538  1.00  0.00     0.031 A 
ATOM     54  C   UNL A   1      44.293  24.167  29.253  1.00  0.00     0.049 A 
ATOM     55  C   UNL A   1      43.403  28.209  33.123  1.00  0.00     0.074 A 
ATOM     56  C   UNL A   1      45.402  24.984  29.107  1.00  0.00     0.029 A 
ATOM     57  N   UNL A   1      44.045  24.080  30.618  1.00  0.00    -0.354 N 
ATOM     58  N   UNL A   1      43.769  27.172  32.420  1.00  0.00    -0.248 NA
ATOM     59  C   UNL A   1      43.703  28.050  34.543  1.00  0.00     0.031 C 
ATOM     60  C   UNL A   1      45.757  25.471  30.393  1.00  0.00     0.029 A 
ATOM     61  C   UNL A   1      44.888  24.921  31.319  1.00  0.00     0.049 A 
ATOM     62  H   UNL A   1      43.364  23.499  31.028  1.00  0.00     0.167 HD
ATOM     63  C   UNL A   1      44.326  26.231  33.242  1.00  0.00     0.074 A 
ATOM     64  C   UNL A   1      44.273  26.831  34.563  1.00  0.00     0.031 C 
ATOM     65  C   UNL A   1      44.775  25.034  32.767  1.00  0.00     0.031 A 
BRANCH  52  66
ATOM     66  C   UNL A   1      43.649  22.725  27.153  1.00  0.00    -0.014 A 
ATOM     67  C   UNL A   1      42.847  21.590  26.902  1.00  0.00     0.010 A 
ATOM     68  C   UNL A   1      44.791  22.851  26.340  1.00  0.00     0.010 A 
ATOM     69  C   UNL A   1      43.221  20.596  25.980  1.00  0.00     0.020 A 
ATOM     70  C   UNL A   1      45.192  21.859  25.433  1.00  0.00     0.020 A 
ATOM     71  C   UNL A   1      44.412  20.723  25.271  1.00  0.00     0.054 A 
BRANCH  71  72
ATOM     72  S   UNL A   1      44.936  19.398  24.153  1.00  0.00     0.124 S 
ATOM     73  O   UNL A   1      46.381  19.366  24.359  1.00  0.00    -0.237 OA
ATOM     74  O   UNL A   1      44.198  18.246  24.664  1.00  0.00    -0.237 OA
ATOM     75  O   UNL A   1      44.514  19.869  22.835  1.00  0.00    -0.744 OA
ENDBRANCH  71  72
ENDBRANCH  52  66
BRANCH  53  76
ATOM     76  C   UNL A   1      41.487  30.046  33.116  1.00  0.00    -0.014 A 
ATOM     77  C   UNL A   1      41.514  31.441  33.312  1.00  0.00     0.010 A 
ATOM     78  C   UNL A   1      40.245  29.388  33.037  1.00  0.00     0.010 A 
ATOM     79  C   UNL A   1      40.335  32.182  33.241  1.00  0.00     0.020 A 
ATOM     80  C   UNL A   1      39.062  30.136  32.955  1.00  0.00     0.020 A 
ATOM     81  C   UNL A   1      39.131  31.530  32.979  1.00  0.00     0.054 A 
BRANCH  81  82
ATOM     82  S   UNL A   1      37.729  32.549  32.429  1.00  0.00     0.124 S 
ATOM     83  O   UNL A   1      38.332  33.373  31.386  1.00  0.00    -0.237 OA
ATOM     84  O   UNL A   1      36.796  31.525  31.961  1.00  0.00    -0.237 OA
ATOM     85  O   UNL A   1      37.330  33.253  33.642  1.00  0.00    -0.744 OA
ENDBRANCH  81  82
ENDBRANCH  53  76
BRANCH  65  86
ATOM     86  C   UNL A   1      45.218  23.868  33.614  1.00  0.00    -0.014 A 
ATOM     87  C   UNL A   1      46.424  23.836  34.332  1.00  0.00     0.010 A 
ATOM     88  C   UNL A   1      44.318  22.795  33.816  1.00  0.00     0.010 A 
ATOM     89  C   UNL A   1      46.742  22.757  35.168  1.00  0.00     0.020 A 
ATOM     90  C   UNL A   1      44.608  21.735  34.679  1.00  0.00     0.020 A 
ATOM     91  C   UNL A   1      45.834  21.711  35.333  1.00  0.00     0.054 A 
BRANCH  91  92
ATOM     92  S   UNL A   1      46.220  20.355  36.469  1.00  0.00     0.124 S 
ATOM     93  O   UNL A   1      47.656  20.190  36.264  1.00  0.00    -0.237 OA
ATOM     94  O   UNL A   1      45.832  20.894  37.771  1.00  0.00    -0.237 OA
ATOM     95  O   UNL A   1      45.385  19.257  35.985  1.00  0.00    -0.744 OA
ENDBRANCH  91  92
ENDBRANCH  65  86
ENDBRANCH  39  40
ENDBRANCH  31  34
ENDBRANCH  29  30
ENDBRANCH  28  29
ENDBRANCH   1  28
TORSDOF 17
ENDMDL
MODEL 2
REMARK VINA RESULT:     -14.1      4.497     11.241
REMARK SMILES Cc1cc(C(=O)NCCCCNC(=O)c2ccc(-c3c4nc(c(-c5ccc(S(=O)(=O)[O-])cc5)c5ccc([nH]5)c(-c5ccc(S(=O)(=O)[O-])cc5)c5nc(c(-c6ccc(S(=O)(=O)[O-])cc6)c6ccc3[nH]6)C=C5)C=C4)cc2)ccc1NS(=O)(=O)c1ccc2c(c1)CCC2
REMARK SMILES IDX 9 1 8 2 7 3 5 4 6 5 4 7 1 8 2 9 3 10 77 11 76 12 75 13 78 14
REMARK SMILES IDX 79 16 80 17 81 18 82 19 83 20 87 21 84 22 86 23 85 24 88 25
REMARK SMILES IDX 90 26 89 27 10 28 11 29 12 30 13 31 14 33 15 34 16 35 74 36
REMARK SMILES IDX 17 37 73 38 18 39 19 40 20 41 67 42 21 43 72 44 66 45 68 46
REMARK SMILES IDX 22 47 71 48 65 49 64 50 23 52 53 53 34 54 52 55 35 56 38 57
REMARK SMILES IDX 51 58 69 59 36 60 37 61 50 63 70 64 39 65 24 66 25 67 33 68
REMARK SMILES IDX 26 69 32 70 27 71 28 72 29 73 30 74 31 75 54 76 55 77 63 78
REMARK SMILES IDX 56 79 62 80 57 81 58 82 59 83 60 84 61 85 40 86 41 87 49 88
REMARK SMILES IDX 42 89 48 90 43 91 44 92 45 93 46 94 47 95
REMARK H PARENT 7 6 78 15 12 32 68 51 38 62
REMARK Flexibility Score: inf
ROOT
ATOM      1  C   UNL A   1      36.805  21.184  25.374  1.00  0.00     0.023 C 
ENDROOT
BRANCH   1   2
ATOM      2  C   UNL A   1      35.390  21.587  25.812  1.00  0.00     0.116 C 
BRANCH   2   3
ATOM      3  N   UNL A   1      34.493  20.466  26.071  1.00  0.00    -0.352 N 
ATOM      4  C   UNL A   1      33.242  20.158  25.582  1.00  0.00     0.251 C 
ATOM      5  O   UNL A   1      32.666  19.153  25.991  1.00  0.00    -0.269 OA
ATOM      6  H   UNL A   1      34.846  19.808  26.712  1.00  0.00     0.163 HD
BRANCH   4   7
ATOM      7  C   UNL A   1      32.520  21.071  24.661  1.00  0.00     0.040 A 
ATOM      8  C   UNL A   1      30.811  24.437  25.007  1.00  0.00     0.046 C 
ATOM      9  C   UNL A   1      31.497  23.259  24.373  1.00  0.00    -0.026 A 
ATOM     10  C   UNL A   1      31.948  22.225  25.207  1.00  0.00     0.019 A 
ATOM     11  C   UNL A   1      31.714  23.147  22.990  1.00  0.00     0.052 A 
ATOM     12  C   UNL A   1      31.987  21.888  22.451  1.00  0.00     0.028 A 
ATOM     13  C   UNL A   1      32.395  20.845  23.292  1.00  0.00     0.016 A 
BRANCH  11  14
ATOM     14  N   UNL A   1      31.868  24.359  22.254  1.00  0.00    -0.279 N 
ATOM     15  H   UNL A   1      31.077  24.653  21.747  1.00  0.00     0.180 HD
BRANCH  14  16
ATOM     16  S   UNL A   1      33.206  25.344  22.136  1.00  0.00     0.261 S 
ATOM     17  O   UNL A   1      34.334  24.633  22.702  1.00  0.00    -0.201 OA
ATOM     18  O   UNL A   1      33.222  25.783  20.754  1.00  0.00    -0.201 OA
BRANCH  16  19
ATOM     19  C   UNL A   1      32.964  26.810  23.120  1.00  0.00     0.088 A 
ATOM     20  C   UNL A   1      31.941  27.737  22.866  1.00  0.00     0.022 A 
ATOM     21  C   UNL A   1      33.740  26.903  24.286  1.00  0.00     0.026 A 
ATOM     22  C   UNL A   1      31.542  28.622  23.871  1.00  0.00     0.005 A 
ATOM     23  C   UNL A   1      33.361  27.817  25.250  1.00  0.00    -0.043 A 
ATOM     24  C   UNL A   1      32.222  28.606  25.074  1.00  0.00    -0.045 A 
ATOM     25  C   UNL A   1      33.991  28.105  26.575  1.00  0.00     0.036 C 
ATOM     26  C   UNL A   1      31.880  29.341  26.333  1.00  0.00     0.036 C 
ATOM     27  C   UNL A   1      32.775  28.617  27.355  1.00  0.00     0.010 C 
ENDBRANCH  16  19
ENDBRANCH  14  16
ENDBRANCH  11  14
ENDBRANCH   4   7
ENDBRANCH   2   3
ENDBRANCH   1   2
BRANCH   1  28
ATOM     28  C   UNL A   1      37.758  22.322  25.010  1.00  0.00     0.023 C 
BRANCH  28  29
ATOM     29  C   UNL A   1      38.025  23.306  26.147  1.00  0.00     0.116 C 
BRANCH  29  30
ATOM     30  N   UNL A   1      39.248  23.028  26.893  1.00  0.00    -0.352 N 
ATOM     31  C   UNL A   1      40.111  23.929  27.501  1.00  0.00     0.251 C 
ATOM     32  H   UNL A   1      39.493  22.078  26.975  1.00  0.00     0.163 HD
ATOM     33  O   UNL A   1      41.181  23.576  27.969  1.00  0.00    -0.269 OA
BRANCH  31  34
ATOM     34  C   UNL A   1      39.653  25.329  27.643  1.00  0.00     0.039 A 
ATOM     35  C   UNL A   1      40.177  26.283  26.764  1.00  0.00     0.014 A 
ATOM     36  C   UNL A   1      38.944  25.714  28.775  1.00  0.00     0.014 A 
ATOM     37  C   UNL A   1      40.177  27.626  27.136  1.00  0.00     0.010 A 
ATOM     38  C   UNL A   1      39.046  27.024  29.195  1.00  0.00     0.010 A 
ATOM     39  C   UNL A   1      39.713  27.969  28.403  1.00  0.00    -0.014 A 
BRANCH  39  40
ATOM     40  C   UNL A   1      39.969  29.254  29.047  1.00  0.00     0.031 A 
ATOM     41  C   UNL A   1      38.952  30.331  28.990  1.00  0.00     0.074 A 
ATOM     42  C   UNL A   1      41.055  29.389  29.843  1.00  0.00     0.049 A 
ATOM     43  N   UNL A   1      39.169  31.568  29.289  1.00  0.00    -0.248 NA
ATOM     44  C   UNL A   1      37.593  30.089  28.513  1.00  0.00     0.031 C 
ATOM     45  C   UNL A   1      41.256  30.399  30.879  1.00  0.00     0.029 A 
ATOM     46  N   UNL A   1      42.302  28.766  29.737  1.00  0.00    -0.354 N 
ATOM     47  C   UNL A   1      37.941  32.190  29.373  1.00  0.00     0.074 A 
ATOM     48  C   UNL A   1      37.015  31.266  28.766  1.00  0.00     0.031 C 
ATOM     49  C   UNL A   1      42.575  30.537  31.093  1.00  0.00     0.029 A 
ATOM     50  C   UNL A   1      43.253  29.741  30.083  1.00  0.00     0.049 A 
ATOM     51  H   UNL A   1      42.478  27.834  29.472  1.00  0.00     0.167 HD
ATOM     52  C   UNL A   1      37.817  33.342  30.097  1.00  0.00     0.031 A 
ATOM     53  C   UNL A   1      44.217  30.212  29.237  1.00  0.00     0.031 A 
ATOM     54  C   UNL A   1      39.123  33.861  30.506  1.00  0.00     0.049 A 
ATOM     55  C   UNL A   1      44.158  31.711  29.043  1.00  0.00     0.074 A 
ATOM     56  C   UNL A   1      39.814  33.847  31.706  1.00  0.00     0.029 A 
ATOM     57  N   UNL A   1      40.033  34.258  29.533  1.00  0.00    -0.354 N 
ATOM     58  N   UNL A   1      43.126  32.442  29.363  1.00  0.00    -0.248 NA
ATOM     59  C   UNL A   1      45.227  32.496  28.433  1.00  0.00     0.031 C 
ATOM     60  C   UNL A   1      41.176  34.140  31.429  1.00  0.00     0.029 A 
ATOM     61  C   UNL A   1      41.302  34.367  30.070  1.00  0.00     0.049 A 
ATOM     62  H   UNL A   1      39.806  34.437  28.592  1.00  0.00     0.167 HD
ATOM     63  C   UNL A   1      43.360  33.745  29.017  1.00  0.00     0.074 A 
ATOM     64  C   UNL A   1      44.695  33.732  28.447  1.00  0.00     0.031 C 
ATOM     65  C   UNL A   1      42.430  34.723  29.221  1.00  0.00     0.031 A 
BRANCH  52  66
ATOM     66  C   UNL A   1      36.503  33.823  30.692  1.00  0.00    -0.014 A 
ATOM     67  C   UNL A   1      35.390  34.031  29.848  1.00  0.00     0.010 A 
ATOM     68  C   UNL A   1      36.315  34.181  32.040  1.00  0.00     0.010 A 
ATOM     69  C   UNL A   1      34.213  34.654  30.298  1.00  0.00     0.020 A 
ATOM     70  C   UNL A   1      35.158  34.825  32.502  1.00  0.00     0.020 A 
ATOM     71  C   UNL A   1      34.116  35.077  31.620  1.00  0.00     0.054 A 
BRANCH  71  72
ATOM     72  S   UNL A   1      32.637  35.963  32.173  1.00  0.00     0.124 S 
ATOM     73  O   UNL A   1      32.184  36.615  30.947  1.00  0.00    -0.237 OA
ATOM     74  O   UNL A   1      31.788  34.881  32.664  1.00  0.00    -0.237 OA
ATOM     75  O   UNL A   1      33.139  36.871  33.202  1.00  0.00    -0.744 OA
ENDBRANCH  71  72
ENDBRANCH  52  66
BRANCH  53  76
ATOM     76  C   UNL A   1      44.669  29.245  28.202  1.00  0.00    -0.014 A 
ATOM     77  C   UNL A   1      45.458  28.160  28.632  1.00  0.00     0.010 A 
ATOM     78  C   UNL A   1      43.983  29.152  26.976  1.00  0.00     0.010 A 
ATOM     79  C   UNL A   1      45.410  26.945  27.950  1.00  0.00     0.020 A 
ATOM     80  C   UNL A   1      43.929  27.926  26.297  1.00  0.00     0.020 A 
ATOM     81  C   UNL A   1      44.581  26.816  26.837  1.00  0.00     0.054 A 
BRANCH  81  82
ATOM     82  S   UNL A   1      44.186  25.132  26.277  1.00  0.00     0.124 S 
ATOM     83  O   UNL A   1      42.856  25.298  25.700  1.00  0.00    -0.237 OA
ATOM     84  O   UNL A   1      45.262  24.889  25.316  1.00  0.00    -0.237 OA
ATOM     85  O   UNL A   1      44.253  24.347  27.504  1.00  0.00    -0.744 OA
ENDBRANCH  81  82
ENDBRANCH  53  76
BRANCH  65  86
ATOM     86  C   UNL A   1      42.519  36.135  28.699  1.00  0.00    -0.014 A 
ATOM     87  C   UNL A   1      43.225  37.164  29.342  1.00  0.00     0.010 A 
ATOM     88  C   UNL A   1      41.980  36.421  27.422  1.00  0.00     0.010 A 
ATOM     89  C   UNL A   1      43.338  38.436  28.765  1.00  0.00     0.020 A 
ATOM     90  C   UNL A   1      42.123  37.674  26.820  1.00  0.00     0.020 A 
ATOM     91  C   UNL A   1      42.783  38.685  27.508  1.00  0.00     0.054 A 
BRANCH  91  92
ATOM     92  S   UNL A   1      42.995  40.309  26.736  1.00  0.00     0.124 S 
ATOM     93  O   UNL A   1      44.096  40.059  25.809  1.00  0.00    -0.237 OA
ATOM     94  O   UNL A   1      41.696  40.551  26.114  1.00  0.00    -0.237 OA
ATOM     95  O   UNL A   1      43.310  41.183  27.864  1.00  0.00    -0.744 OA
ENDBRANCH  91  92
ENDBRANCH  65  86
ENDBRANCH  39  40
ENDBRANCH  31  34
ENDBRANCH  29  30
ENDBRANCH  28  29
ENDBRANCH   1  28
TORSDOF 17
ENDMDL
MODEL 3
REMARK VINA RESULT:     -13.3      1.742      2.208
REMARK SMILES Cc1cc(C(=O)NCCCCNC(=O)c2ccc(-c3c4nc(c(-c5ccc(S(=O)(=O)[O-])cc5)c5ccc([nH]5)c(-c5ccc(S(=O)(=O)[O-])cc5)c5nc(c(-c6ccc(S(=O)(=O)[O-])cc6)c6ccc3[nH]6)C=C5)C=C4)cc2)ccc1NS(=O)(=O)c1ccc2c(c1)CCC2
REMARK SMILES IDX 9 1 8 2 7 3 5 4 6 5 4 7 1 8 2 9 3 10 77 11 76 12 75 13 78 14
REMARK SMILES IDX 79 16 80 17 81 18 82 19 83 20 87 21 84 22 86 23 85 24 88 25
REMARK SMILES IDX 90 26 89 27 10 28 11 29 12 30 13 31 14 33 15 34 16 35 74 36
REMARK SMILES IDX 17 37 73 38 18 39 19 40 20 41 67 42 21 43 72 44 66 45 68 46
REMARK SMILES IDX 22 47 71 48 65 49 64 50 23 52 53 53 34 54 52 55 35 56 38 57
REMARK SMILES IDX 51 58 69 59 36 60 37 61 50 63 70 64 39 65 24 66 25 67 33 68
REMARK SMILES IDX 26 69 32 70 27 71 28 72 29 73 30 74 31 75 54 76 55 77 63 78
REMARK SMILES IDX 56 79 62 80 57 81 58 82 59 83 60 84 61 85 40 86 41 87 49 88
REMARK SMILES IDX 42 89 48 90 43 91 44 92 45 93 46 94 47 95
REMARK H PARENT 7 6 78 15 12 32 68 51 38 62
REMARK Flexibility Score: inf
ROOT
ATOM      1  C   UNL A   1      32.111  30.519  26.109  1.00  0.00     0.023 C 
ENDROOT
BRANCH   1   2
ATOM      2  C   UNL A   1      32.299  29.485  24.990  1.00  0.00     0.116 C 
BRANCH   2   3
ATOM      3  N   UNL A   1      31.063  29.064  24.340  1.00  0.00    -0.352 N 
ATOM      4  C   UNL A   1      30.571  27.817  24.021  1.00  0.00     0.251 C 
ATOM      5  O   UNL A   1      29.497  27.726  23.429  1.00  0.00    -0.269 OA
ATOM      6  H   UNL A   1      30.471  29.807  24.082  1.00  0.00     0.163 HD
BRANCH   4   7
ATOM      7  C   UNL A   1      31.358  26.583  24.267  1.00  0.00     0.040 A 
ATOM      8  C   UNL A   1      32.927  23.916  22.078  1.00  0.00     0.046 C 
ATOM      9  C   UNL A   1      32.662  24.786  23.275  1.00  0.00    -0.026 A 
ATOM     10  C   UNL A   1      31.700  25.799  23.160  1.00  0.00     0.019 A 
ATOM     11  C   UNL A   1      33.335  24.636  24.499  1.00  0.00     0.052 A 
ATOM     12  C   UNL A   1      32.774  25.196  25.648  1.00  0.00     0.028 A 
ATOM     13  C   UNL A   1      31.782  26.178  25.531  1.00  0.00     0.016 A 
BRANCH  11  14
ATOM     14  N   UNL A   1      34.664  24.120  24.454  1.00  0.00    -0.279 N 
ATOM     15  H   UNL A   1      35.282  24.586  23.845  1.00  0.00     0.180 HD
BRANCH  14  16
ATOM     16  S   UNL A   1      35.312  22.835  25.292  1.00  0.00     0.261 S 
ATOM     17  O   UNL A   1      36.603  22.530  24.710  1.00  0.00    -0.201 OA
ATOM     18  O   UNL A   1      35.195  23.206  26.688  1.00  0.00    -0.201 OA
BRANCH  16  19
ATOM     19  C   UNL A   1      34.286  21.394  25.073  1.00  0.00     0.088 A 
ATOM     20  C   UNL A   1      32.914  21.472  24.786  1.00  0.00     0.022 A 
ATOM     21  C   UNL A   1      34.958  20.163  25.020  1.00  0.00     0.026 A 
ATOM     22  C   UNL A   1      32.257  20.371  24.234  1.00  0.00     0.005 A 
ATOM     23  C   UNL A   1      34.279  19.071  24.516  1.00  0.00    -0.043 A 
ATOM     24  C   UNL A   1      32.969  19.200  24.050  1.00  0.00    -0.045 A 
ATOM     25  C   UNL A   1      34.757  17.666  24.334  1.00  0.00     0.036 C 
ATOM     26  C   UNL A   1      32.526  17.957  23.342  1.00  0.00     0.036 C 
ATOM     27  C   UNL A   1      33.865  17.218  23.169  1.00  0.00     0.010 C 
ENDBRANCH  16  19
ENDBRANCH  14  16
ENDBRANCH  11  14
ENDBRANCH   4   7
ENDBRANCH   2   3
ENDBRANCH   1   2
BRANCH   1  28
ATOM     28  C   UNL A   1      32.953  30.323  27.369  1.00  0.00     0.023 C 
BRANCH  28  29
ATOM     29  C   UNL A   1      34.448  30.156  27.107  1.00  0.00     0.116 C 
BRANCH  29  30
ATOM     30  N   UNL A   1      35.250  31.304  27.517  1.00  0.00    -0.352 N 
ATOM     31  C   UNL A   1      36.497  31.311  28.128  1.00  0.00     0.251 C 
ATOM     32  H   UNL A   1      34.856  32.189  27.339  1.00  0.00     0.163 HD
ATOM     33  O   UNL A   1      36.996  32.339  28.554  1.00  0.00    -0.269 OA
BRANCH  31  34
ATOM     34  C   UNL A   1      37.248  30.037  28.169  1.00  0.00     0.039 A 
ATOM     35  C   UNL A   1      37.220  29.298  29.358  1.00  0.00     0.014 A 
ATOM     36  C   UNL A   1      38.155  29.734  27.161  1.00  0.00     0.014 A 
ATOM     37  C   UNL A   1      38.248  28.396  29.624  1.00  0.00     0.010 A 
ATOM     38  C   UNL A   1      39.231  28.930  27.471  1.00  0.00     0.010 A 
ATOM     39  C   UNL A   1      39.308  28.305  28.724  1.00  0.00    -0.014 A 
BRANCH  39  40
ATOM     40  C   UNL A   1      40.590  27.680  29.033  1.00  0.00     0.031 A 
ATOM     41  C   UNL A   1      40.827  26.258  28.687  1.00  0.00     0.074 A 
ATOM     42  C   UNL A   1      41.614  28.450  29.467  1.00  0.00     0.049 A 
ATOM     43  N   UNL A   1      41.802  25.541  29.137  1.00  0.00    -0.248 NA
ATOM     44  C   UNL A   1      39.912  25.505  27.833  1.00  0.00     0.031 C 
ATOM     45  C   UNL A   1      43.036  28.119  29.421  1.00  0.00     0.029 A 
ATOM     46  N   UNL A   1      41.567  29.614  30.241  1.00  0.00    -0.354 N 
ATOM     47  C   UNL A   1      41.837  24.382  28.389  1.00  0.00     0.074 A 
ATOM     48  C   UNL A   1      40.578  24.357  27.686  1.00  0.00     0.031 C 
ATOM     49  C   UNL A   1      43.677  28.847  30.350  1.00  0.00     0.029 A 
ATOM     50  C   UNL A   1      42.658  29.536  31.124  1.00  0.00     0.049 A 
ATOM     51  H   UNL A   1      40.905  30.340  30.180  1.00  0.00     0.167 HD
ATOM     52  C   UNL A   1      42.994  23.660  28.319  1.00  0.00     0.031 A 
ATOM     53  C   UNL A   1      42.545  29.486  32.485  1.00  0.00     0.031 A 
ATOM     54  C   UNL A   1      43.992  24.153  29.271  1.00  0.00     0.049 A 
ATOM     55  C   UNL A   1      43.194  28.261  33.090  1.00  0.00     0.074 A 
ATOM     56  C   UNL A   1      45.131  24.928  29.132  1.00  0.00     0.029 A 
ATOM     57  N   UNL A   1      43.723  24.087  30.633  1.00  0.00    -0.354 N 
ATOM     58  N   UNL A   1      43.532  27.206  32.402  1.00  0.00    -0.248 NA
ATOM     59  C   UNL A   1      43.469  28.106  34.516  1.00  0.00     0.031 C 
ATOM     60  C   UNL A   1      45.486  25.416  30.418  1.00  0.00     0.029 A 
ATOM     61  C   UNL A   1      44.586  24.905  31.338  1.00  0.00     0.049 A 
ATOM     62  H   UNL A   1      43.017  23.535  31.040  1.00  0.00     0.167 HD
ATOM     63  C   UNL A   1      44.045  26.254  33.240  1.00  0.00     0.074 A 
ATOM     64  C   UNL A   1      43.995  26.868  34.555  1.00  0.00     0.031 C 
ATOM     65  C   UNL A   1      44.457  25.036  32.783  1.00  0.00     0.031 A 
BRANCH  52  66
ATOM     66  C   UNL A   1      43.325  22.713  27.177  1.00  0.00    -0.014 A 
ATOM     67  C   UNL A   1      42.676  21.462  27.098  1.00  0.00     0.010 A 
ATOM     68  C   UNL A   1      44.322  22.939  26.209  1.00  0.00     0.010 A 
ATOM     69  C   UNL A   1      43.072  20.466  26.187  1.00  0.00     0.020 A 
ATOM     70  C   UNL A   1      44.746  21.950  25.309  1.00  0.00     0.020 A 
ATOM     71  C   UNL A   1      44.130  20.707  25.316  1.00  0.00     0.054 A 
BRANCH  71  72
ATOM     72  S   UNL A   1      44.697  19.391  24.209  1.00  0.00     0.124 S 
ATOM     73  O   UNL A   1      43.792  18.293  24.536  1.00  0.00    -0.237 OA
ATOM     74  O   UNL A   1      44.514  19.990  22.889  1.00  0.00    -0.237 OA
ATOM     75  O   UNL A   1      46.088  19.180  24.606  1.00  0.00    -0.744 OA
ENDBRANCH  71  72
ENDBRANCH  52  66
BRANCH  53  76
ATOM     76  C   UNL A   1      41.345  30.165  33.040  1.00  0.00    -0.014 A 
ATOM     77  C   UNL A   1      41.273  31.565  32.902  1.00  0.00     0.010 A 
ATOM     78  C   UNL A   1      40.161  29.436  33.263  1.00  0.00     0.010 A 
ATOM     79  C   UNL A   1      40.034  32.198  32.800  1.00  0.00     0.020 A 
ATOM     80  C   UNL A   1      38.917  30.072  33.150  1.00  0.00     0.020 A 
ATOM     81  C   UNL A   1      38.869  31.433  32.841  1.00  0.00     0.054 A 
BRANCH  81  82
ATOM     82  S   UNL A   1      37.339  32.207  32.239  1.00  0.00     0.124 S 
ATOM     83  O   UNL A   1      36.656  31.089  31.595  1.00  0.00    -0.237 OA
ATOM     84  O   UNL A   1      36.740  32.671  33.491  1.00  0.00    -0.237 OA
ATOM     85  O   UNL A   1      37.821  33.255  31.348  1.00  0.00    -0.744 OA
ENDBRANCH  81  82
ENDBRANCH  53  76
BRANCH  65  86
ATOM     86  C   UNL A   1      44.848  23.864  33.647  1.00  0.00    -0.014 A 
ATOM     87  C   UNL A   1      43.999  22.782  33.928  1.00  0.00     0.010 A 
ATOM     88  C   UNL A   1      46.187  23.768  34.095  1.00  0.00     0.010 A 
ATOM     89  C   UNL A   1      44.447  21.682  34.672  1.00  0.00     0.020 A 
ATOM     90  C   UNL A   1      46.655  22.657  34.801  1.00  0.00     0.020 A 
ATOM     91  C   UNL A   1      45.772  21.627  35.106  1.00  0.00     0.054 A 
BRANCH  91  92
ATOM     92  S   UNL A   1      46.366  20.171  36.004  1.00  0.00     0.124 S 
ATOM     93  O   UNL A   1      47.814  20.334  35.917  1.00  0.00    -0.237 OA
ATOM     94  O   UNL A   1      45.794  20.349  37.337  1.00  0.00    -0.237 OA
ATOM     95  O   UNL A   1      45.812  19.053  35.242  1.00  0.00    -0.744 OA
ENDBRANCH  91  92
ENDBRANCH  65  86
ENDBRANCH  39  40
ENDBRANCH  31  34
ENDBRANCH  29  30
ENDBRANCH  28  29
ENDBRANCH   1  28
TORSDOF 17
ENDMDL
