MODEL 1
REMARK VINA RESULT:     -11.8      0.000      0.000
REMARK SMILES O=C1CC[C@H](CNC(=O)N[C@@H]2C=C[C@@H](C(=O)NCCCCNC(=O)c3ccc(-c4c5nc(c(-c6ccc(S(=O)(=O)[O-])cc6)c6ccc([nH]6)c(-c6ccc(S(=O)(=O)[O-])cc6)c6nc(c(-c7ccc(S(=O)(=O)[O-])cc7)c7ccc4[nH]7)C=C6)C=C5)cc3)C2)N1
REMARK SMILES IDX 19 1 18 2 17 3 15 4 16 5 14 7 11 8 12 9 85 10 13 11 10 12
REMARK SMILES IDX 7 13 8 14 9 16 6 18 5 19 1 20 2 21 3 22 86 23 4 24 20 26
REMARK SMILES IDX 21 27 22 28 23 29 24 31 25 32 26 33 84 34 27 35 83 36 28 37
REMARK SMILES IDX 29 38 30 39 77 40 31 41 82 42 76 43 78 44 32 45 81 46 75 47
REMARK SMILES IDX 74 48 33 50 63 51 44 52 62 53 45 54 48 55 61 56 79 57 46 58
REMARK SMILES IDX 47 59 60 61 80 62 49 63 34 64 35 65 43 66 36 67 42 68 37 69
REMARK SMILES IDX 38 70 39 71 40 72 41 73 64 74 65 75 73 76 66 77 72 78 67 79
REMARK SMILES IDX 68 80 69 81 70 82 71 83 50 84 51 85 59 86 52 87 58 88 53 89
REMARK SMILES IDX 54 90 55 91 56 92 57 93
REMARK H PARENT 17 6 7 15 10 17 86 25 22 30 78 49 48 60
REMARK Flexibility Score: inf
ROOT
ATOM      1  C   UNL A   1      31.759  27.927  26.846  1.00  0.00     0.023 C 
ENDROOT
BRANCH   1   2
ATOM      2  C   UNL A   1      30.920  27.075  25.895  1.00  0.00     0.116 C 
BRANCH   2   3
ATOM      3  N   UNL A   1      30.508  25.814  26.477  1.00  0.00    -0.356 N 
ATOM      4  C   UNL A   1      31.117  24.598  26.522  1.00  0.00     0.227 C 
ATOM      5  O   UNL A   1      30.579  23.727  27.214  1.00  0.00    -0.274 OA
ATOM      6  H   UNL A   1      29.628  25.842  26.918  1.00  0.00     0.163 HD
BRANCH   4   7
ATOM      7  C   UNL A   1      32.365  24.245  25.701  1.00  0.00     0.103 C 
ATOM      8  C   UNL A   1      33.330  21.997  25.369  1.00  0.00     0.107 C 
ATOM      9  C   UNL A   1      32.773  22.570  24.103  1.00  0.00    -0.006 C 
ATOM     10  C   UNL A   1      33.200  23.154  26.367  1.00  0.00     0.047 C 
ATOM     11  C   UNL A   1      32.192  23.760  24.299  1.00  0.00    -0.016 C 
BRANCH   8  12
ATOM     12  N   UNL A   1      34.696  21.566  25.173  1.00  0.00    -0.332 N 
ATOM     13  N   UNL A   1      34.573  19.201  25.021  1.00  0.00    -0.336 N 
ATOM     14  C   UNL A   1      35.262  20.357  25.020  1.00  0.00     0.315 C 
ATOM     15  H   UNL A   1      35.125  18.401  24.860  1.00  0.00     0.165 HD
ATOM     16  O   UNL A   1      36.486  20.298  24.879  1.00  0.00    -0.249 OA
ATOM     17  H   UNL A   1      35.341  22.309  25.149  1.00  0.00     0.165 HD
BRANCH  13  18
ATOM     18  C   UNL A   1      33.168  18.922  25.217  1.00  0.00     0.142 C 
BRANCH  18  19
ATOM     19  C   UNL A   1      32.511  17.980  24.195  1.00  0.00     0.101 C 
ATOM     20  O   UNL A   1      33.120  14.730  25.376  1.00  0.00    -0.275 OA
ATOM     21  C   UNL A   1      33.108  15.778  24.745  1.00  0.00     0.220 C 
ATOM     22  C   UNL A   1      34.170  16.277  23.803  1.00  0.00     0.102 C 
ATOM     23  N   UNL A   1      32.136  16.748  24.851  1.00  0.00    -0.352 N 
ATOM     24  C   UNL A   1      33.490  17.477  23.138  1.00  0.00     0.036 C 
ATOM     25  H   UNL A   1      31.282  16.617  25.321  1.00  0.00     0.163 HD
ENDBRANCH  18  19
ENDBRANCH  13  18
ENDBRANCH   8  12
ENDBRANCH   4   7
ENDBRANCH   2   3
ENDBRANCH   1   2
BRANCH   1  26
ATOM     26  C   UNL A   1      33.272  27.712  26.768  1.00  0.00     0.023 C 
BRANCH  26  27
ATOM     27  C   UNL A   1      34.087  28.903  26.280  1.00  0.00     0.116 C 
BRANCH  27  28
ATOM     28  N   UNL A   1      33.841  30.120  27.037  1.00  0.00    -0.352 N 
ATOM     29  C   UNL A   1      34.626  30.723  27.991  1.00  0.00     0.251 C 
ATOM     30  H   UNL A   1      32.992  30.577  26.839  1.00  0.00     0.163 HD
ATOM     31  O   UNL A   1      34.189  31.695  28.603  1.00  0.00    -0.269 OA
BRANCH  29  32
ATOM     32  C   UNL A   1      35.975  30.193  28.301  1.00  0.00     0.039 A 
ATOM     33  C   UNL A   1      36.962  30.248  27.313  1.00  0.00     0.014 A 
ATOM     34  C   UNL A   1      36.271  29.635  29.548  1.00  0.00     0.014 A 
ATOM     35  C   UNL A   1      38.251  29.787  27.590  1.00  0.00     0.010 A 
ATOM     36  C   UNL A   1      37.577  29.256  29.851  1.00  0.00     0.010 A 
ATOM     37  C   UNL A   1      38.577  29.308  28.870  1.00  0.00    -0.014 A 
BRANCH  37  38
ATOM     38  C   UNL A   1      39.955  28.849  29.185  1.00  0.00     0.031 A 
ATOM     39  C   UNL A   1      40.930  29.772  29.869  1.00  0.00     0.074 A 
ATOM     40  C   UNL A   1      40.348  27.616  28.812  1.00  0.00     0.049 A 
ATOM     41  N   UNL A   1      42.164  29.541  30.238  1.00  0.00    -0.248 NA
ATOM     42  C   UNL A   1      40.470  31.143  30.143  1.00  0.00     0.031 C 
ATOM     43  C   UNL A   1      39.527  26.653  28.074  1.00  0.00     0.029 A 
ATOM     44  N   UNL A   1      41.541  26.962  28.996  1.00  0.00    -0.354 N 
ATOM     45  C   UNL A   1      42.633  30.740  30.765  1.00  0.00     0.074 A 
ATOM     46  C   UNL A   1      41.570  31.708  30.615  1.00  0.00     0.031 C 
ATOM     47  C   UNL A   1      40.230  25.523  27.895  1.00  0.00     0.029 A 
ATOM     48  C   UNL A   1      41.558  25.689  28.477  1.00  0.00     0.049 A 
ATOM     49  H   UNL A   1      42.311  27.367  29.457  1.00  0.00     0.167 HD
ATOM     50  C   UNL A   1      43.831  31.007  31.341  1.00  0.00     0.031 A 
ATOM     51  C   UNL A   1      42.529  24.756  28.473  1.00  0.00     0.031 A 
ATOM     52  C   UNL A   1      44.883  30.037  31.495  1.00  0.00     0.049 A 
ATOM     53  C   UNL A   1      43.832  25.052  29.163  1.00  0.00     0.074 A 
ATOM     54  C   UNL A   1      46.102  30.182  32.135  1.00  0.00     0.029 A 
ATOM     55  N   UNL A   1      44.844  28.743  30.997  1.00  0.00    -0.354 N 
ATOM     56  N   UNL A   1      44.221  26.160  29.748  1.00  0.00    -0.248 NA
ATOM     57  C   UNL A   1      44.814  23.962  29.217  1.00  0.00     0.031 C 
ATOM     58  C   UNL A   1      46.822  28.992  31.974  1.00  0.00     0.029 A 
ATOM     59  C   UNL A   1      46.027  28.085  31.292  1.00  0.00     0.049 A 
ATOM     60  H   UNL A   1      44.087  28.350  30.505  1.00  0.00     0.167 HD
ATOM     61  C   UNL A   1      45.487  25.894  30.259  1.00  0.00     0.074 A 
ATOM     62  C   UNL A   1      45.786  24.514  29.931  1.00  0.00     0.031 C 
ATOM     63  C   UNL A   1      46.321  26.717  30.943  1.00  0.00     0.031 A 
BRANCH  50  64
ATOM     64  C   UNL A   1      44.064  32.417  31.825  1.00  0.00    -0.014 A 
ATOM     65  C   UNL A   1      43.617  32.841  33.090  1.00  0.00     0.010 A 
ATOM     66  C   UNL A   1      44.739  33.334  30.999  1.00  0.00     0.010 A 
ATOM     67  C   UNL A   1      43.776  34.171  33.490  1.00  0.00     0.020 A 
ATOM     68  C   UNL A   1      44.931  34.657  31.409  1.00  0.00     0.020 A 
ATOM     69  C   UNL A   1      44.424  35.074  32.642  1.00  0.00     0.054 A 
BRANCH  69  70
ATOM     70  S   UNL A   1      44.601  36.798  33.176  1.00  0.00     0.124 S 
ATOM     71  O   UNL A   1      44.079  36.745  34.540  1.00  0.00    -0.237 OA
ATOM     72  O   UNL A   1      46.039  37.024  33.063  1.00  0.00    -0.237 OA
ATOM     73  O   UNL A   1      43.780  37.542  32.224  1.00  0.00    -0.744 OA
ENDBRANCH  69  70
ENDBRANCH  50  64
BRANCH  51  74
ATOM     74  C   UNL A   1      42.277  23.443  27.818  1.00  0.00    -0.014 A 
ATOM     75  C   UNL A   1      42.746  23.187  26.518  1.00  0.00     0.010 A 
ATOM     76  C   UNL A   1      41.620  22.417  28.522  1.00  0.00     0.010 A 
ATOM     77  C   UNL A   1      42.560  21.931  25.933  1.00  0.00     0.020 A 
ATOM     78  C   UNL A   1      41.455  21.152  27.951  1.00  0.00     0.020 A 
ATOM     79  C   UNL A   1      41.924  20.918  26.657  1.00  0.00     0.054 A 
BRANCH  79  80
ATOM     80  S   UNL A   1      41.778  19.269  25.913  1.00  0.00     0.124 S 
ATOM     81  O   UNL A   1      42.652  19.381  24.750  1.00  0.00    -0.237 OA
ATOM     82  O   UNL A   1      42.256  18.397  26.983  1.00  0.00    -0.237 OA
ATOM     83  O   UNL A   1      40.352  19.152  25.618  1.00  0.00    -0.744 OA
ENDBRANCH  79  80
ENDBRANCH  51  74
BRANCH  63  84
ATOM     84  C   UNL A   1      47.634  26.136  31.403  1.00  0.00    -0.014 A 
ATOM     85  C   UNL A   1      47.803  25.653  32.713  1.00  0.00     0.010 A 
ATOM     86  C   UNL A   1      48.708  26.052  30.498  1.00  0.00     0.010 A 
ATOM     87  C   UNL A   1      49.040  25.146  33.124  1.00  0.00     0.020 A 
ATOM     88  C   UNL A   1      49.935  25.517  30.896  1.00  0.00     0.020 A 
ATOM     89  C   UNL A   1      50.100  25.088  32.214  1.00  0.00     0.054 A 
BRANCH  89  90
ATOM     90  S   UNL A   1      51.693  24.421  32.767  1.00  0.00     0.124 S 
ATOM     91  O   UNL A   1      52.641  25.284  32.069  1.00  0.00    -0.237 OA
ATOM     92  O   UNL A   1      51.631  24.597  34.216  1.00  0.00    -0.237 OA
ATOM     93  O   UNL A   1      51.663  23.032  32.313  1.00  0.00    -0.744 OA
ENDBRANCH  89  90
ENDBRANCH  63  84
ENDBRANCH  37  38
ENDBRANCH  29  32
ENDBRANCH  27  28
ENDBRANCH  26  27
ENDBRANCH   1  26
TORSDOF 17
ENDMDL
MODEL 2
REMARK VINA RESULT:     -11.5      3.346      9.817
REMARK SMILES O=C1CC[C@H](CNC(=O)N[C@@H]2C=C[C@@H](C(=O)NCCCCNC(=O)c3ccc(-c4c5nc(c(-c6ccc(S(=O)(=O)[O-])cc6)c6ccc([nH]6)c(-c6ccc(S(=O)(=O)[O-])cc6)c6nc(c(-c7ccc(S(=O)(=O)[O-])cc7)c7ccc4[nH]7)C=C6)C=C5)cc3)C2)N1
REMARK SMILES IDX 19 1 18 2 17 3 15 4 16 5 14 7 11 8 12 9 85 10 13 11 10 12
REMARK SMILES IDX 7 13 8 14 9 16 6 18 5 19 1 20 2 21 3 22 86 23 4 24 20 26
REMARK SMILES IDX 21 27 22 28 23 29 24 31 25 32 26 33 84 34 27 35 83 36 28 37
REMARK SMILES IDX 29 38 30 39 77 40 31 41 82 42 76 43 78 44 32 45 81 46 75 47
REMARK SMILES IDX 74 48 33 50 63 51 44 52 62 53 45 54 48 55 61 56 79 57 46 58
REMARK SMILES IDX 47 59 60 61 80 62 49 63 34 64 35 65 43 66 36 67 42 68 37 69
REMARK SMILES IDX 38 70 39 71 40 72 41 73 64 74 65 75 73 76 66 77 72 78 67 79
REMARK SMILES IDX 68 80 69 81 70 82 71 83 50 84 51 85 59 86 52 87 58 88 53 89
REMARK SMILES IDX 54 90 55 91 56 92 57 93
REMARK H PARENT 17 6 7 15 10 17 86 25 22 30 78 49 48 60
REMARK Flexibility Score: inf
ROOT
ATOM      1  C   UNL A   1      34.137  23.494  26.293  1.00  0.00     0.023 C 
ENDROOT
BRANCH   1   2
ATOM      2  C   UNL A   1      33.060  24.578  26.278  1.00  0.00     0.116 C 
BRANCH   2   3
ATOM      3  N   UNL A   1      31.841  24.176  26.949  1.00  0.00    -0.356 N 
ATOM      4  C   UNL A   1      30.573  24.000  26.488  1.00  0.00     0.227 C 
ATOM      5  O   UNL A   1      29.752  23.516  27.274  1.00  0.00    -0.274 OA
ATOM      6  H   UNL A   1      31.949  23.999  27.911  1.00  0.00     0.163 HD
BRANCH   4   7
ATOM      7  C   UNL A   1      30.108  24.449  25.095  1.00  0.00     0.103 C 
ATOM      8  C   UNL A   1      30.926  26.397  23.818  1.00  0.00     0.107 C 
ATOM      9  C   UNL A   1      31.298  25.097  23.174  1.00  0.00    -0.006 C 
ATOM     10  C   UNL A   1      30.022  25.968  24.981  1.00  0.00     0.047 C 
ATOM     11  C   UNL A   1      30.910  24.042  23.902  1.00  0.00    -0.016 C 
BRANCH   8  12
ATOM     12  N   UNL A   1      30.261  27.262  22.870  1.00  0.00    -0.332 N 
ATOM     13  N   UNL A   1      30.722  29.463  23.627  1.00  0.00    -0.336 N 
ATOM     14  C   UNL A   1      30.157  28.597  22.765  1.00  0.00     0.315 C 
ATOM     15  H   UNL A   1      30.587  30.411  23.395  1.00  0.00     0.165 HD
ATOM     16  O   UNL A   1      29.499  29.061  21.832  1.00  0.00    -0.249 OA
ATOM     17  H   UNL A   1      29.789  26.773  22.158  1.00  0.00     0.165 HD
BRANCH  13  18
ATOM     18  C   UNL A   1      31.491  29.252  24.833  1.00  0.00     0.142 C 
BRANCH  18  19
ATOM     19  C   UNL A   1      32.992  29.576  24.749  1.00  0.00     0.101 C 
ATOM     20  O   UNL A   1      34.141  27.996  21.833  1.00  0.00    -0.275 OA
ATOM     21  C   UNL A   1      33.910  28.328  22.987  1.00  0.00     0.220 C 
ATOM     22  C   UNL A   1      34.029  27.468  24.215  1.00  0.00     0.102 C 
ATOM     23  N   UNL A   1      33.410  29.554  23.367  1.00  0.00    -0.352 N 
ATOM     24  C   UNL A   1      33.869  28.483  25.351  1.00  0.00     0.036 C 
ATOM     25  H   UNL A   1      33.345  30.329  22.763  1.00  0.00     0.163 HD
ENDBRANCH  18  19
ENDBRANCH  13  18
ENDBRANCH   8  12
ENDBRANCH   4   7
ENDBRANCH   2   3
ENDBRANCH   1   2
BRANCH   1  26
ATOM     26  C   UNL A   1      35.127  23.528  25.127  1.00  0.00     0.023 C 
BRANCH  26  27
ATOM     27  C   UNL A   1      36.526  24.033  25.458  1.00  0.00     0.116 C 
BRANCH  27  28
ATOM     28  N   UNL A   1      37.515  22.972  25.556  1.00  0.00    -0.352 N 
ATOM     29  C   UNL A   1      38.766  23.001  26.124  1.00  0.00     0.251 C 
ATOM     30  H   UNL A   1      37.250  22.110  25.160  1.00  0.00     0.163 HD
ATOM     31  O   UNL A   1      39.503  22.024  26.006  1.00  0.00    -0.269 OA
BRANCH  29  32
ATOM     32  C   UNL A   1      39.238  24.206  26.846  1.00  0.00     0.039 A 
ATOM     33  C   UNL A   1      40.039  25.127  26.164  1.00  0.00     0.014 A 
ATOM     34  C   UNL A   1      38.911  24.430  28.186  1.00  0.00     0.014 A 
ATOM     35  C   UNL A   1      40.469  26.288  26.810  1.00  0.00     0.010 A 
ATOM     36  C   UNL A   1      39.268  25.628  28.802  1.00  0.00     0.010 A 
ATOM     37  C   UNL A   1      40.068  26.561  28.128  1.00  0.00    -0.014 A 
BRANCH  37  38
ATOM     38  C   UNL A   1      40.491  27.811  28.812  1.00  0.00     0.031 A 
ATOM     39  C   UNL A   1      41.863  27.917  29.426  1.00  0.00     0.074 A 
ATOM     40  C   UNL A   1      39.625  28.836  28.926  1.00  0.00     0.049 A 
ATOM     41  N   UNL A   1      42.413  28.930  30.046  1.00  0.00    -0.248 NA
ATOM     42  C   UNL A   1      42.715  26.719  29.366  1.00  0.00     0.031 C 
ATOM     43  C   UNL A   1      38.241  28.831  28.445  1.00  0.00     0.029 A 
ATOM     44  N   UNL A   1      39.776  30.079  29.488  1.00  0.00    -0.354 N 
ATOM     45  C   UNL A   1      43.661  28.486  30.467  1.00  0.00     0.074 A 
ATOM     46  C   UNL A   1      43.763  27.095  30.083  1.00  0.00     0.031 C 
ATOM     47  C   UNL A   1      37.681  30.023  28.706  1.00  0.00     0.029 A 
ATOM     48  C   UNL A   1      38.653  30.866  29.397  1.00  0.00     0.049 A 
ATOM     49  H   UNL A   1      40.611  30.378  29.914  1.00  0.00     0.167 HD
ATOM     50  C   UNL A   1      44.643  29.174  31.098  1.00  0.00     0.031 A 
ATOM     51  C   UNL A   1      38.428  32.126  29.815  1.00  0.00     0.031 A 
ATOM     52  C   UNL A   1      44.541  30.561  31.471  1.00  0.00     0.049 A 
ATOM     53  C   UNL A   1      39.546  32.892  30.466  1.00  0.00     0.074 A 
ATOM     54  C   UNL A   1      45.506  31.374  32.041  1.00  0.00     0.029 A 
ATOM     55  N   UNL A   1      43.402  31.337  31.320  1.00  0.00    -0.354 N 
ATOM     56  N   UNL A   1      40.757  32.486  30.765  1.00  0.00    -0.248 NA
ATOM     57  C   UNL A   1      39.275  34.294  30.808  1.00  0.00     0.031 C 
ATOM     58  C   UNL A   1      44.930  32.627  32.284  1.00  0.00     0.029 A 
ATOM     59  C   UNL A   1      43.629  32.614  31.807  1.00  0.00     0.049 A 
ATOM     60  H   UNL A   1      42.555  31.027  30.925  1.00  0.00     0.167 HD
ATOM     61  C   UNL A   1      41.402  33.590  31.312  1.00  0.00     0.074 A 
ATOM     62  C   UNL A   1      40.451  34.684  31.283  1.00  0.00     0.031 C 
ATOM     63  C   UNL A   1      42.668  33.689  31.790  1.00  0.00     0.031 A 
BRANCH  50  64
ATOM     64  C   UNL A   1      45.905  28.420  31.439  1.00  0.00    -0.014 A 
ATOM     65  C   UNL A   1      46.983  28.348  30.536  1.00  0.00     0.010 A 
ATOM     66  C   UNL A   1      46.014  27.771  32.682  1.00  0.00     0.010 A 
ATOM     67  C   UNL A   1      48.113  27.583  30.840  1.00  0.00     0.020 A 
ATOM     68  C   UNL A   1      47.157  27.032  33.004  1.00  0.00     0.020 A 
ATOM     69  C   UNL A   1      48.188  26.921  32.068  1.00  0.00     0.054 A 
BRANCH  69  70
ATOM     70  S   UNL A   1      49.656  25.919  32.429  1.00  0.00     0.124 S 
ATOM     71  O   UNL A   1      49.064  24.717  33.011  1.00  0.00    -0.237 OA
ATOM     72  O   UNL A   1      50.260  25.747  31.111  1.00  0.00    -0.237 OA
ATOM     73  O   UNL A   1      50.422  26.748  33.357  1.00  0.00    -0.744 OA
ENDBRANCH  69  70
ENDBRANCH  50  64
BRANCH  51  74
ATOM     74  C   UNL A   1      37.090  32.741  29.593  1.00  0.00    -0.014 A 
ATOM     75  C   UNL A   1      36.136  32.777  30.624  1.00  0.00     0.010 A 
ATOM     76  C   UNL A   1      36.790  33.353  28.362  1.00  0.00     0.010 A 
ATOM     77  C   UNL A   1      34.905  33.412  30.428  1.00  0.00     0.020 A 
ATOM     78  C   UNL A   1      35.572  34.011  28.170  1.00  0.00     0.020 A 
ATOM     79  C   UNL A   1      34.635  34.033  29.205  1.00  0.00     0.054 A 
BRANCH  79  80
ATOM     80  S   UNL A   1      33.070  34.930  29.006  1.00  0.00     0.124 S 
ATOM     81  O   UNL A   1      32.536  34.917  30.364  1.00  0.00    -0.237 OA
ATOM     82  O   UNL A   1      33.515  36.232  28.513  1.00  0.00    -0.237 OA
ATOM     83  O   UNL A   1      32.335  34.125  28.033  1.00  0.00    -0.744 OA
ENDBRANCH  79  80
ENDBRANCH  51  74
BRANCH  63  84
ATOM     84  C   UNL A   1      43.106  35.038  32.301  1.00  0.00    -0.014 A 
ATOM     85  C   UNL A   1      43.729  35.975  31.457  1.00  0.00     0.010 A 
ATOM     86  C   UNL A   1      42.867  35.379  33.645  1.00  0.00     0.010 A 
ATOM     87  C   UNL A   1      44.153  37.208  31.961  1.00  0.00     0.020 A 
ATOM     88  C   UNL A   1      43.261  36.623  34.145  1.00  0.00     0.020 A 
ATOM     89  C   UNL A   1      43.922  37.521  33.305  1.00  0.00     0.054 A 
BRANCH  89  90
ATOM     90  S   UNL A   1      44.474  39.128  33.937  1.00  0.00     0.124 S 
ATOM     91  O   UNL A   1      44.183  39.009  35.363  1.00  0.00    -0.237 OA
ATOM     92  O   UNL A   1      45.891  39.144  33.584  1.00  0.00    -0.237 OA
ATOM     93  O   UNL A   1      43.647  40.089  33.210  1.00  0.00    -0.744 OA
ENDBRANCH  89  90
ENDBRANCH  63  84
ENDBRANCH  37  38
ENDBRANCH  29  32
ENDBRANCH  27  28
ENDBRANCH  26  27
ENDBRANCH   1  26
TORSDOF 17
ENDMDL
MODEL 3
REMARK VINA RESULT:     -11.5      2.500      3.212
REMARK SMILES O=C1CC[C@H](CNC(=O)N[C@@H]2C=C[C@@H](C(=O)NCCCCNC(=O)c3ccc(-c4c5nc(c(-c6ccc(S(=O)(=O)[O-])cc6)c6ccc([nH]6)c(-c6ccc(S(=O)(=O)[O-])cc6)c6nc(c(-c7ccc(S(=O)(=O)[O-])cc7)c7ccc4[nH]7)C=C6)C=C5)cc3)C2)N1
REMARK SMILES IDX 19 1 18 2 17 3 15 4 16 5 14 7 11 8 12 9 85 10 13 11 10 12
REMARK SMILES IDX 7 13 8 14 9 16 6 18 5 19 1 20 2 21 3 22 86 23 4 24 20 26
REMARK SMILES IDX 21 27 22 28 23 29 24 31 25 32 26 33 84 34 27 35 83 36 28 37
REMARK SMILES IDX 29 38 30 39 77 40 31 41 82 42 76 43 78 44 32 45 81 46 75 47
REMARK SMILES IDX 74 48 33 50 63 51 44 52 62 53 45 54 48 55 61 56 79 57 46 58
REMARK SMILES IDX 47 59 60 61 80 62 49 63 34 64 35 65 43 66 36 67 42 68 37 69
REMARK SMILES IDX 38 70 39 71 40 72 41 73 64 74 65 75 73 76 66 77 72 78 67 79
REMARK SMILES IDX 68 80 69 81 70 82 71 83 50 84 51 85 59 86 52 87 58 88 53 89
REMARK SMILES IDX 54 90 55 91 56 92 57 93
REMARK H PARENT 17 6 7 15 10 17 86 25 22 30 78 49 48 60
REMARK Flexibility Score: inf
ROOT
ATOM      1  C   UNL A   1      31.793  27.974  26.916  1.00  0.00     0.023 C 
ENDROOT
BRANCH   1   2
ATOM      2  C   UNL A   1      30.994  27.139  25.917  1.00  0.00     0.116 C 
BRANCH   2   3
ATOM      3  N   UNL A   1      30.528  25.884  26.471  1.00  0.00    -0.356 N 
ATOM      4  C   UNL A   1      31.078  24.639  26.472  1.00  0.00     0.227 C 
ATOM      5  O   UNL A   1      30.508  23.775  27.147  1.00  0.00    -0.274 OA
ATOM      6  H   UNL A   1      29.659  25.942  26.927  1.00  0.00     0.163 HD
BRANCH   4   7
ATOM      7  C   UNL A   1      32.294  24.249  25.620  1.00  0.00     0.103 C 
ATOM      8  C   UNL A   1      33.280  21.997  25.392  1.00  0.00     0.107 C 
ATOM      9  C   UNL A   1      32.658  22.479  24.117  1.00  0.00    -0.006 C 
ATOM     10  C   UNL A   1      33.174  23.215  26.317  1.00  0.00     0.047 C 
ATOM     11  C   UNL A   1      32.067  23.671  24.261  1.00  0.00    -0.016 C 
BRANCH   8  12
ATOM     12  N   UNL A   1      34.642  21.572  25.164  1.00  0.00    -0.332 N 
ATOM     13  N   UNL A   1      34.535  19.203  25.078  1.00  0.00    -0.336 N 
ATOM     14  C   UNL A   1      35.214  20.364  25.024  1.00  0.00     0.315 C 
ATOM     15  H   UNL A   1      35.089  18.403  24.920  1.00  0.00     0.165 HD
ATOM     16  O   UNL A   1      36.432  20.311  24.845  1.00  0.00    -0.249 OA
ATOM     17  H   UNL A   1      35.280  22.319  25.099  1.00  0.00     0.165 HD
BRANCH  13  18
ATOM     18  C   UNL A   1      33.139  18.918  25.326  1.00  0.00     0.142 C 
BRANCH  18  19
ATOM     19  C   UNL A   1      32.431  18.027  24.292  1.00  0.00     0.101 C 
ATOM     20  O   UNL A   1      33.189  14.725  25.211  1.00  0.00    -0.275 OA
ATOM     21  C   UNL A   1      33.111  15.810  24.654  1.00  0.00     0.220 C 
ATOM     22  C   UNL A   1      34.092  16.394  23.674  1.00  0.00     0.102 C 
ATOM     23  N   UNL A   1      32.129  16.747  24.890  1.00  0.00    -0.352 N 
ATOM     24  C   UNL A   1      33.343  17.618  23.139  1.00  0.00     0.036 C 
ATOM     25  H   UNL A   1      31.313  16.564  25.409  1.00  0.00     0.163 HD
ENDBRANCH  18  19
ENDBRANCH  13  18
ENDBRANCH   8  12
ENDBRANCH   4   7
ENDBRANCH   2   3
ENDBRANCH   1   2
BRANCH   1  26
ATOM     26  C   UNL A   1      33.314  27.827  26.834  1.00  0.00     0.023 C 
BRANCH  26  27
ATOM     27  C   UNL A   1      34.049  28.935  26.089  1.00  0.00     0.116 C 
BRANCH  27  28
ATOM     28  N   UNL A   1      33.703  30.269  26.553  1.00  0.00    -0.352 N 
ATOM     29  C   UNL A   1      34.312  31.038  27.517  1.00  0.00     0.251 C 
ATOM     30  H   UNL A   1      32.923  30.680  26.115  1.00  0.00     0.163 HD
ATOM     31  O   UNL A   1      33.799  32.104  27.848  1.00  0.00    -0.269 OA
BRANCH  29  32
ATOM     32  C   UNL A   1      35.558  30.576  28.173  1.00  0.00     0.039 A 
ATOM     33  C   UNL A   1      36.783  31.047  27.693  1.00  0.00     0.014 A 
ATOM     34  C   UNL A   1      35.531  29.679  29.244  1.00  0.00     0.014 A 
ATOM     35  C   UNL A   1      37.972  30.655  28.314  1.00  0.00     0.010 A 
ATOM     36  C   UNL A   1      36.708  29.358  29.916  1.00  0.00     0.010 A 
ATOM     37  C   UNL A   1      37.943  29.825  29.448  1.00  0.00    -0.014 A 
BRANCH  37  38
ATOM     38  C   UNL A   1      39.199  29.431  30.137  1.00  0.00     0.031 A 
ATOM     39  C   UNL A   1      39.630  30.133  31.398  1.00  0.00     0.074 A 
ATOM     40  C   UNL A   1      39.981  28.473  29.603  1.00  0.00     0.049 A 
ATOM     41  N   UNL A   1      40.682  29.916  32.146  1.00  0.00    -0.248 NA
ATOM     42  C   UNL A   1      38.788  31.248  31.862  1.00  0.00     0.031 C 
ATOM     43  C   UNL A   1      39.718  27.770  28.345  1.00  0.00     0.029 A 
ATOM     44  N   UNL A   1      41.161  27.929  30.047  1.00  0.00    -0.354 N 
ATOM     45  C   UNL A   1      40.641  30.877  33.150  1.00  0.00     0.074 A 
ATOM     46  C   UNL A   1      39.491  31.713  32.883  1.00  0.00     0.031 C 
ATOM     47  C   UNL A   1      40.690  26.869  28.134  1.00  0.00     0.029 A 
ATOM     48  C   UNL A   1      41.659  26.948  29.222  1.00  0.00     0.049 A 
ATOM     49  H   UNL A   1      41.606  28.213  30.877  1.00  0.00     0.167 HD
ATOM     50  C   UNL A   1      41.469  31.038  34.210  1.00  0.00     0.031 A 
ATOM     51  C   UNL A   1      42.769  26.191  29.331  1.00  0.00     0.031 A 
ATOM     52  C   UNL A   1      42.607  30.198  34.477  1.00  0.00     0.049 A 
ATOM     53  C   UNL A   1      43.647  26.348  30.540  1.00  0.00     0.074 A 
ATOM     54  C   UNL A   1      43.462  30.225  35.565  1.00  0.00     0.029 A 
ATOM     55  N   UNL A   1      43.053  29.184  33.642  1.00  0.00    -0.354 N 
ATOM     56  N   UNL A   1      43.534  27.196  31.536  1.00  0.00    -0.248 NA
ATOM     57  C   UNL A   1      44.784  25.427  30.655  1.00  0.00     0.031 C 
ATOM     58  C   UNL A   1      44.459  29.263  35.359  1.00  0.00     0.029 A 
ATOM     59  C   UNL A   1      44.187  28.593  34.177  1.00  0.00     0.049 A 
ATOM     60  H   UNL A   1      42.627  28.922  32.794  1.00  0.00     0.167 HD
ATOM     61  C   UNL A   1      44.575  26.896  32.408  1.00  0.00     0.074 A 
ATOM     62  C   UNL A   1      45.292  25.776  31.831  1.00  0.00     0.031 C 
ATOM     63  C   UNL A   1      44.903  27.492  33.582  1.00  0.00     0.031 A 
BRANCH  50  64
ATOM     64  C   UNL A   1      41.176  32.185  35.146  1.00  0.00    -0.014 A 
ATOM     65  C   UNL A   1      41.790  33.441  34.980  1.00  0.00     0.010 A 
ATOM     66  C   UNL A   1      40.275  32.003  36.210  1.00  0.00     0.010 A 
ATOM     67  C   UNL A   1      41.563  34.468  35.901  1.00  0.00     0.020 A 
ATOM     68  C   UNL A   1      40.018  33.039  37.114  1.00  0.00     0.020 A 
ATOM     69  C   UNL A   1      40.686  34.257  36.969  1.00  0.00     0.054 A 
BRANCH  69  70
ATOM     70  S   UNL A   1      40.425  35.600  38.160  1.00  0.00     0.124 S 
ATOM     71  O   UNL A   1      39.952  36.679  37.297  1.00  0.00    -0.237 OA
ATOM     72  O   UNL A   1      39.425  35.036  39.064  1.00  0.00    -0.237 OA
ATOM     73  O   UNL A   1      41.746  35.805  38.748  1.00  0.00    -0.744 OA
ENDBRANCH  69  70
ENDBRANCH  50  64
BRANCH  51  74
ATOM     74  C   UNL A   1      43.079  25.195  28.269  1.00  0.00    -0.014 A 
ATOM     75  C   UNL A   1      44.064  25.460  27.301  1.00  0.00     0.010 A 
ATOM     76  C   UNL A   1      42.431  23.947  28.260  1.00  0.00     0.010 A 
ATOM     77  C   UNL A   1      44.394  24.495  26.345  1.00  0.00     0.020 A 
ATOM     78  C   UNL A   1      42.776  22.970  27.323  1.00  0.00     0.020 A 
ATOM     79  C   UNL A   1      43.755  23.252  26.367  1.00  0.00     0.054 A 
BRANCH  79  80
ATOM     80  S   UNL A   1      44.266  21.983  25.175  1.00  0.00     0.124 S 
ATOM     81  O   UNL A   1      43.655  20.780  25.730  1.00  0.00    -0.237 OA
ATOM     82  O   UNL A   1      43.683  22.470  23.927  1.00  0.00    -0.237 OA
ATOM     83  O   UNL A   1      45.725  22.029  25.230  1.00  0.00    -0.744 OA
ENDBRANCH  79  80
ENDBRANCH  51  74
BRANCH  63  84
ATOM     84  C   UNL A   1      46.080  26.925  34.335  1.00  0.00    -0.014 A 
ATOM     85  C   UNL A   1      47.384  27.413  34.134  1.00  0.00     0.010 A 
ATOM     86  C   UNL A   1      45.869  25.902  35.278  1.00  0.00     0.010 A 
ATOM     87  C   UNL A   1      48.462  26.850  34.823  1.00  0.00     0.020 A 
ATOM     88  C   UNL A   1      46.941  25.359  35.992  1.00  0.00     0.020 A 
ATOM     89  C   UNL A   1      48.234  25.821  35.742  1.00  0.00     0.054 A 
BRANCH  89  90
ATOM     90  S   UNL A   1      49.646  25.111  36.630  1.00  0.00     0.124 S 
ATOM     91  O   UNL A   1      49.170  23.762  36.927  1.00  0.00    -0.237 OA
ATOM     92  O   UNL A   1      50.721  25.194  35.645  1.00  0.00    -0.237 OA
ATOM     93  O   UNL A   1      49.803  25.986  37.789  1.00  0.00    -0.744 OA
ENDBRANCH  89  90
ENDBRANCH  63  84
ENDBRANCH  37  38
ENDBRANCH  29  32
ENDBRANCH  27  28
ENDBRANCH  26  27
ENDBRANCH   1  26
TORSDOF 17
ENDMDL
