MODEL 1
REMARK VINA RESULT:     -13.1      0.000      0.000
REMARK SMILES O=C(NCCCCNC(=O)c1cc(S(=O)(=O)NNC(=O)[C@H]2C=C(c3ccccc3)N=N2)ccc1F)c1ccc(-c2c3nc(c(-c4ccc(S(=O)(=O)[O-])cc4)c4ccc([nH]4)c(-c4ccc(S(=O)(=O)[O-])cc4)c4nc(c(-c5ccc(S(=O)(=O)[O-])cc5)c5ccc2[nH]5)C=C4)C=C3)cc1
REMARK SMILES IDX 6 1 5 2 4 3 3 4 1 5 2 6 36 8 37 9 95 10 38 11 94 12 39 13
REMARK SMILES IDX 40 14 41 15 88 16 42 17 93 18 87 19 89 20 43 21 92 22 86 23
REMARK SMILES IDX 85 24 44 26 74 27 55 28 73 29 56 30 59 31 72 32 90 33 57 34
REMARK SMILES IDX 58 35 71 37 91 38 60 39 45 40 46 41 54 42 47 43 53 44 48 45
REMARK SMILES IDX 49 46 50 47 51 48 52 49 75 50 76 51 84 52 77 53 83 54 78 55
REMARK SMILES IDX 79 56 80 57 81 58 82 59 61 60 62 61 70 62 63 63 69 64 64 65
REMARK SMILES IDX 65 66 66 67 67 68 68 69 7 70 8 71 9 72 10 74 11 75 12 76
REMARK SMILES IDX 34 77 13 78 33 79 35 80 32 81 14 82 15 83 16 84 17 85 18 87
REMARK SMILES IDX 19 88 20 90 21 91 22 92 31 93 23 94 30 95 24 96 25 97 29 98
REMARK SMILES IDX 26 99 28 100 27 101
REMARK H PARENT 3 7 89 25 59 36 8 73 17 86 18 89
REMARK Flexibility Score: inf
ROOT
ATOM      1  C   UNL A   1      34.766  30.641  27.603  1.00  0.00     0.023 C 
ENDROOT
BRANCH   1   2
ATOM      2  C   UNL A   1      33.802  31.829  27.688  1.00  0.00     0.023 C 
BRANCH   2   3
ATOM      3  C   UNL A   1      34.284  33.019  28.515  1.00  0.00     0.116 C 
BRANCH   3   4
ATOM      4  N   UNL A   1      34.124  32.861  29.944  1.00  0.00    -0.352 N 
ATOM      5  O   UNL A   1      34.467  32.573  32.095  1.00  0.00    -0.269 OA
ATOM      6  C   UNL A   1      34.866  32.315  30.955  1.00  0.00     0.251 C 
ATOM      7  H   UNL A   1      33.273  33.237  30.269  1.00  0.00     0.163 HD
BRANCH   6   8
ATOM      8  C   UNL A   1      36.048  31.417  30.799  1.00  0.00     0.039 A 
ATOM      9  C   UNL A   1      36.078  30.039  31.014  1.00  0.00     0.014 A 
ATOM     10  C   UNL A   1      37.251  32.060  30.440  1.00  0.00     0.014 A 
ATOM     11  C   UNL A   1      37.289  29.340  30.937  1.00  0.00     0.010 A 
ATOM     12  C   UNL A   1      38.458  31.368  30.363  1.00  0.00     0.010 A 
ATOM     13  C   UNL A   1      38.486  30.009  30.646  1.00  0.00    -0.014 A 
BRANCH  13  14
ATOM     14  C   UNL A   1      39.722  29.232  30.510  1.00  0.00     0.031 A 
ATOM     15  C   UNL A   1      40.500  29.065  31.772  1.00  0.00     0.074 A 
ATOM     16  C   UNL A   1      40.103  28.573  29.393  1.00  0.00     0.049 A 
ATOM     17  N   UNL A   1      41.673  29.527  32.053  1.00  0.00    -0.248 NA
ATOM     18  C   UNL A   1      39.846  28.380  32.899  1.00  0.00     0.031 C 
ATOM     19  C   UNL A   1      39.346  28.362  28.157  1.00  0.00     0.029 A 
ATOM     20  N   UNL A   1      41.246  27.857  29.171  1.00  0.00    -0.354 N 
ATOM     21  C   UNL A   1      41.993  29.047  33.322  1.00  0.00     0.074 A 
ATOM     22  C   UNL A   1      40.786  28.454  33.843  1.00  0.00     0.031 C 
ATOM     23  C   UNL A   1      39.946  27.397  27.418  1.00  0.00     0.029 A 
ATOM     24  C   UNL A   1      41.205  27.033  28.049  1.00  0.00     0.049 A 
ATOM     25  H   UNL A   1      42.034  27.918  29.757  1.00  0.00     0.167 HD
ATOM     26  C   UNL A   1      43.275  29.009  33.784  1.00  0.00     0.031 A 
ATOM     27  C   UNL A   1      42.120  26.095  27.685  1.00  0.00     0.031 A 
ATOM     28  C   UNL A   1      44.159  29.806  32.978  1.00  0.00     0.049 A 
ATOM     29  C   UNL A   1      43.392  26.438  28.363  1.00  0.00     0.074 A 
ATOM     30  C   UNL A   1      44.253  31.146  32.664  1.00  0.00     0.029 A 
ATOM     31  N   UNL A   1      44.932  29.144  32.054  1.00  0.00    -0.354 N 
ATOM     32  N   UNL A   1      44.084  27.509  28.099  1.00  0.00    -0.248 NA
ATOM     33  C   UNL A   1      43.674  25.807  29.643  1.00  0.00     0.031 C 
ATOM     34  C   UNL A   1      44.657  31.170  31.297  1.00  0.00     0.029 A 
ATOM     35  C   UNL A   1      44.851  29.850  30.884  1.00  0.00     0.049 A 
ATOM     36  H   UNL A   1      45.446  28.318  32.205  1.00  0.00     0.167 HD
ATOM     37  C   UNL A   1      44.564  27.931  29.329  1.00  0.00     0.074 A 
ATOM     38  C   UNL A   1      44.351  26.798  30.229  1.00  0.00     0.031 C 
ATOM     39  C   UNL A   1      44.843  29.245  29.569  1.00  0.00     0.031 A 
BRANCH  26  40
ATOM     40  C   UNL A   1      43.811  27.970  34.739  1.00  0.00    -0.014 A 
ATOM     41  C   UNL A   1      44.941  28.286  35.523  1.00  0.00     0.010 A 
ATOM     42  C   UNL A   1      43.431  26.615  34.682  1.00  0.00     0.010 A 
ATOM     43  C   UNL A   1      45.701  27.286  36.145  1.00  0.00     0.020 A 
ATOM     44  C   UNL A   1      44.158  25.615  35.333  1.00  0.00     0.020 A 
ATOM     45  C   UNL A   1      45.312  25.953  36.029  1.00  0.00     0.054 A 
BRANCH  45  46
ATOM     46  S   UNL A   1      46.368  24.661  36.731  1.00  0.00     0.124 S 
ATOM     47  O   UNL A   1      47.047  25.379  37.806  1.00  0.00    -0.237 OA
ATOM     48  O   UNL A   1      45.393  23.660  37.153  1.00  0.00    -0.237 OA
ATOM     49  O   UNL A   1      47.215  24.265  35.608  1.00  0.00    -0.744 OA
ENDBRANCH  45  46
ENDBRANCH  26  40
BRANCH  27  50
ATOM     50  C   UNL A   1      41.887  24.758  27.074  1.00  0.00    -0.014 A 
ATOM     51  C   UNL A   1      42.882  24.115  26.309  1.00  0.00     0.010 A 
ATOM     52  C   UNL A   1      40.793  23.979  27.501  1.00  0.00     0.010 A 
ATOM     53  C   UNL A   1      42.813  22.735  26.035  1.00  0.00     0.020 A 
ATOM     54  C   UNL A   1      40.716  22.605  27.230  1.00  0.00     0.020 A 
ATOM     55  C   UNL A   1      41.738  21.984  26.517  1.00  0.00     0.054 A 
BRANCH  55  56
ATOM     56  S   UNL A   1      41.741  20.175  26.317  1.00  0.00     0.124 S 
ATOM     57  O   UNL A   1      42.760  19.976  25.291  1.00  0.00    -0.237 OA
ATOM     58  O   UNL A   1      42.090  19.705  27.655  1.00  0.00    -0.237 OA
ATOM     59  O   UNL A   1      40.373  19.873  25.897  1.00  0.00    -0.744 OA
ENDBRANCH  55  56
ENDBRANCH  27  50
BRANCH  39  60
ATOM     60  C   UNL A   1      44.916  30.204  28.406  1.00  0.00    -0.014 A 
ATOM     61  C   UNL A   1      43.795  30.627  27.666  1.00  0.00     0.010 A 
ATOM     62  C   UNL A   1      46.146  30.853  28.196  1.00  0.00     0.010 A 
ATOM     63  C   UNL A   1      43.907  31.678  26.741  1.00  0.00     0.020 A 
ATOM     64  C   UNL A   1      46.259  31.909  27.292  1.00  0.00     0.020 A 
ATOM     65  C   UNL A   1      45.139  32.319  26.569  1.00  0.00     0.054 A 
BRANCH  65  66
ATOM     66  S   UNL A   1      45.261  33.744  25.450  1.00  0.00     0.124 S 
ATOM     67  O   UNL A   1      44.499  34.770  26.157  1.00  0.00    -0.237 OA
ATOM     68  O   UNL A   1      46.703  33.973  25.371  1.00  0.00    -0.237 OA
ATOM     69  O   UNL A   1      44.651  33.266  24.209  1.00  0.00    -0.744 OA
ENDBRANCH  65  66
ENDBRANCH  39  60
ENDBRANCH  13  14
ENDBRANCH   6   8
ENDBRANCH   3   4
ENDBRANCH   2   3
ENDBRANCH   1   2
BRANCH   1  70
ATOM     70  C   UNL A   1      34.208  29.355  26.998  1.00  0.00     0.116 C 
BRANCH  70  71
ATOM     71  N   UNL A   1      33.098  28.790  27.749  1.00  0.00    -0.352 N 
ATOM     72  C   UNL A   1      31.929  28.231  27.290  1.00  0.00     0.254 C 
ATOM     73  H   UNL A   1      33.198  28.811  28.729  1.00  0.00     0.163 HD
ATOM     74  O   UNL A   1      31.079  27.824  28.077  1.00  0.00    -0.269 OA
BRANCH  72  75
ATOM     75  C   UNL A   1      31.644  28.174  25.846  1.00  0.00     0.076 A 
ATOM     76  C   UNL A   1      31.741  26.941  25.194  1.00  0.00     0.038 A 
ATOM     77  C   UNL A   1      31.313  29.313  25.116  1.00  0.00     0.136 A 
ATOM     78  C   UNL A   1      31.407  26.848  23.836  1.00  0.00     0.085 A 
ATOM     79  C   UNL A   1      30.946  29.215  23.774  1.00  0.00     0.041 A 
ATOM     80  F   UNL A   1      31.316  30.526  25.689  1.00  0.00    -0.206 F 
ATOM     81  C   UNL A   1      30.963  27.973  23.135  1.00  0.00     0.025 A 
BRANCH  78  82
ATOM     82  S   UNL A   1      31.710  25.291  23.043  1.00  0.00     0.257 S 
ATOM     83  O   UNL A   1      30.545  24.468  23.278  1.00  0.00    -0.205 OA
ATOM     84  O   UNL A   1      32.209  25.573  21.716  1.00  0.00    -0.205 OA
BRANCH  82  85
ATOM     85  N   UNL A   1      32.998  24.567  23.893  1.00  0.00    -0.123 NA
ATOM     86  H   UNL A   1      32.640  23.699  24.293  1.00  0.00     0.167 HD
BRANCH  85  87
ATOM     87  N   UNL A   1      34.208  24.236  23.177  1.00  0.00    -0.275 N 
ATOM     88  C   UNL A   1      35.105  23.261  23.522  1.00  0.00     0.265 C 
ATOM     89  H   UNL A   1      34.405  24.759  22.366  1.00  0.00     0.186 HD
ATOM     90  O   UNL A   1      35.953  22.941  22.681  1.00  0.00    -0.271 OA
BRANCH  88  91
ATOM     91  C   UNL A   1      35.043  22.586  24.898  1.00  0.00     0.244 C 
ATOM     92  C   UNL A   1      34.033  21.496  24.842  1.00  0.00     0.042 C 
ATOM     93  N   UNL A   1      36.296  21.827  25.177  1.00  0.00    -0.171 NA
ATOM     94  C   UNL A   1      34.725  20.362  24.950  1.00  0.00     0.091 C 
ATOM     95  N   UNL A   1      36.058  20.585  25.184  1.00  0.00    -0.155 NA
BRANCH  94  96
ATOM     96  C   UNL A   1      34.164  19.021  24.784  1.00  0.00     0.002 A 
ATOM     97  C   UNL A   1      32.881  18.723  25.258  1.00  0.00     0.010 A 
ATOM     98  C   UNL A   1      34.917  18.006  24.175  1.00  0.00     0.010 A 
ATOM     99  C   UNL A   1      32.352  17.439  25.104  1.00  0.00     0.001 A 
ATOM    100  C   UNL A   1      34.392  16.720  24.030  1.00  0.00     0.001 A 
ATOM    101  C   UNL A   1      33.107  16.439  24.490  1.00  0.00     0.000 A 
ENDBRANCH  94  96
ENDBRANCH  88  91
ENDBRANCH  85  87
ENDBRANCH  82  85
ENDBRANCH  78  82
ENDBRANCH  72  75
ENDBRANCH  70  71
ENDBRANCH   1  70
TORSDOF 19
ENDMDL
MODEL 2
REMARK VINA RESULT:     -12.9      2.717      9.589
REMARK SMILES O=C(NCCCCNC(=O)c1cc(S(=O)(=O)NNC(=O)[C@H]2C=C(c3ccccc3)N=N2)ccc1F)c1ccc(-c2c3nc(c(-c4ccc(S(=O)(=O)[O-])cc4)c4ccc([nH]4)c(-c4ccc(S(=O)(=O)[O-])cc4)c4nc(c(-c5ccc(S(=O)(=O)[O-])cc5)c5ccc2[nH]5)C=C4)C=C3)cc1
REMARK SMILES IDX 6 1 5 2 4 3 3 4 1 5 2 6 36 8 37 9 95 10 38 11 94 12 39 13
REMARK SMILES IDX 40 14 41 15 88 16 42 17 93 18 87 19 89 20 43 21 92 22 86 23
REMARK SMILES IDX 85 24 44 26 74 27 55 28 73 29 56 30 59 31 72 32 90 33 57 34
REMARK SMILES IDX 58 35 71 37 91 38 60 39 45 40 46 41 54 42 47 43 53 44 48 45
REMARK SMILES IDX 49 46 50 47 51 48 52 49 75 50 76 51 84 52 77 53 83 54 78 55
REMARK SMILES IDX 79 56 80 57 81 58 82 59 61 60 62 61 70 62 63 63 69 64 64 65
REMARK SMILES IDX 65 66 66 67 67 68 68 69 7 70 8 71 9 72 10 74 11 75 12 76
REMARK SMILES IDX 34 77 13 78 33 79 35 80 32 81 14 82 15 83 16 84 17 85 18 87
REMARK SMILES IDX 19 88 20 90 21 91 22 92 31 93 23 94 30 95 24 96 25 97 29 98
REMARK SMILES IDX 26 99 28 100 27 101
REMARK H PARENT 3 7 89 25 59 36 8 73 17 86 18 89
REMARK Flexibility Score: inf
ROOT
ATOM      1  C   UNL A   1      35.413  21.500  26.167  1.00  0.00     0.023 C 
ENDROOT
BRANCH   1   2
ATOM      2  C   UNL A   1      35.823  22.853  25.577  1.00  0.00     0.023 C 
BRANCH   2   3
ATOM      3  C   UNL A   1      37.113  22.859  24.758  1.00  0.00     0.116 C 
BRANCH   3   4
ATOM      4  N   UNL A   1      38.194  22.090  25.336  1.00  0.00    -0.352 N 
ATOM      5  O   UNL A   1      39.749  21.290  26.667  1.00  0.00    -0.269 OA
ATOM      6  C   UNL A   1      39.116  22.294  26.326  1.00  0.00     0.251 C 
ATOM      7  H   UNL A   1      38.291  21.205  24.915  1.00  0.00     0.163 HD
BRANCH   6   8
ATOM      8  C   UNL A   1      39.450  23.599  26.968  1.00  0.00     0.039 A 
ATOM      9  C   UNL A   1      38.696  24.772  26.908  1.00  0.00     0.014 A 
ATOM     10  C   UNL A   1      40.679  23.635  27.660  1.00  0.00     0.014 A 
ATOM     11  C   UNL A   1      39.190  25.957  27.468  1.00  0.00     0.010 A 
ATOM     12  C   UNL A   1      41.174  24.812  28.217  1.00  0.00     0.010 A 
ATOM     13  C   UNL A   1      40.444  25.987  28.092  1.00  0.00    -0.014 A 
BRANCH  13  14
ATOM     14  C   UNL A   1      40.898  27.231  28.723  1.00  0.00     0.031 A 
ATOM     15  C   UNL A   1      42.075  27.872  28.068  1.00  0.00     0.074 A 
ATOM     16  C   UNL A   1      40.255  27.870  29.724  1.00  0.00     0.049 A 
ATOM     17  N   UNL A   1      43.262  28.041  28.551  1.00  0.00    -0.248 NA
ATOM     18  C   UNL A   1      41.942  28.288  26.663  1.00  0.00     0.031 C 
ATOM     19  C   UNL A   1      38.940  27.573  30.298  1.00  0.00     0.029 A 
ATOM     20  N   UNL A   1      40.621  29.009  30.387  1.00  0.00    -0.354 N 
ATOM     21  C   UNL A   1      43.983  28.746  27.588  1.00  0.00     0.074 A 
ATOM     22  C   UNL A   1      43.163  28.760  26.402  1.00  0.00     0.031 C 
ATOM     23  C   UNL A   1      38.527  28.624  31.049  1.00  0.00     0.029 A 
ATOM     24  C   UNL A   1      39.604  29.596  31.136  1.00  0.00     0.049 A 
ATOM     25  H   UNL A   1      41.529  29.383  30.337  1.00  0.00     0.167 HD
ATOM     26  C   UNL A   1      45.127  29.424  27.887  1.00  0.00     0.031 A 
ATOM     27  C   UNL A   1      39.634  30.807  31.752  1.00  0.00     0.031 A 
ATOM     28  C   UNL A   1      45.651  29.051  29.173  1.00  0.00     0.049 A 
ATOM     29  C   UNL A   1      41.059  31.170  31.938  1.00  0.00     0.074 A 
ATOM     30  C   UNL A   1      46.131  27.884  29.730  1.00  0.00     0.029 A 
ATOM     31  N   UNL A   1      45.390  29.895  30.225  1.00  0.00    -0.354 N 
ATOM     32  N   UNL A   1      41.870  30.522  32.725  1.00  0.00    -0.248 NA
ATOM     33  C   UNL A   1      41.693  31.989  30.918  1.00  0.00     0.031 C 
ATOM     34  C   UNL A   1      45.665  27.907  31.077  1.00  0.00     0.029 A 
ATOM     35  C   UNL A   1      44.991  29.114  31.276  1.00  0.00     0.049 A 
ATOM     36  H   UNL A   1      45.473  30.877  30.223  1.00  0.00     0.167 HD
ATOM     37  C   UNL A   1      43.079  30.504  32.048  1.00  0.00     0.074 A 
ATOM     38  C   UNL A   1      42.932  31.495  30.982  1.00  0.00     0.031 C 
ATOM     39  C   UNL A   1      43.987  29.505  32.243  1.00  0.00     0.031 A 
BRANCH  26  40
ATOM     40  C   UNL A   1      45.580  30.687  27.194  1.00  0.00    -0.014 A 
ATOM     41  C   UNL A   1      46.964  30.940  27.081  1.00  0.00     0.010 A 
ATOM     42  C   UNL A   1      44.709  31.758  26.918  1.00  0.00     0.010 A 
ATOM     43  C   UNL A   1      47.449  32.222  26.790  1.00  0.00     0.020 A 
ATOM     44  C   UNL A   1      45.182  33.030  26.586  1.00  0.00     0.020 A 
ATOM     45  C   UNL A   1      46.552  33.263  26.562  1.00  0.00     0.054 A 
BRANCH  45  46
ATOM     46  S   UNL A   1      47.189  34.939  26.310  1.00  0.00     0.124 S 
ATOM     47  O   UNL A   1      47.886  34.807  25.034  1.00  0.00    -0.237 OA
ATOM     48  O   UNL A   1      45.965  35.735  26.285  1.00  0.00    -0.237 OA
ATOM     49  O   UNL A   1      48.045  35.157  27.474  1.00  0.00    -0.744 OA
ENDBRANCH  45  46
ENDBRANCH  26  40
BRANCH  27  50
ATOM     50  C   UNL A   1      38.541  31.810  31.882  1.00  0.00    -0.014 A 
ATOM     51  C   UNL A   1      38.127  32.593  30.785  1.00  0.00     0.010 A 
ATOM     52  C   UNL A   1      37.701  31.780  33.012  1.00  0.00     0.010 A 
ATOM     53  C   UNL A   1      36.890  33.268  30.797  1.00  0.00     0.020 A 
ATOM     54  C   UNL A   1      36.470  32.452  33.033  1.00  0.00     0.020 A 
ATOM     55  C   UNL A   1      36.059  33.174  31.916  1.00  0.00     0.054 A 
BRANCH  55  56
ATOM     56  S   UNL A   1      34.389  33.896  31.861  1.00  0.00     0.124 S 
ATOM     57  O   UNL A   1      34.637  35.285  32.237  1.00  0.00    -0.237 OA
ATOM     58  O   UNL A   1      33.991  33.679  30.473  1.00  0.00    -0.237 OA
ATOM     59  O   UNL A   1      33.643  33.113  32.845  1.00  0.00    -0.744 OA
ENDBRANCH  55  56
ENDBRANCH  27  50
BRANCH  39  60
ATOM     60  C   UNL A   1      43.812  28.573  33.418  1.00  0.00    -0.014 A 
ATOM     61  C   UNL A   1      44.394  28.788  34.683  1.00  0.00     0.010 A 
ATOM     62  C   UNL A   1      42.854  27.554  33.281  1.00  0.00     0.010 A 
ATOM     63  C   UNL A   1      44.017  27.999  35.782  1.00  0.00     0.020 A 
ATOM     64  C   UNL A   1      42.463  26.780  34.374  1.00  0.00     0.020 A 
ATOM     65  C   UNL A   1      43.045  27.006  35.621  1.00  0.00     0.054 A 
BRANCH  65  66
ATOM     66  S   UNL A   1      42.483  26.057  37.063  1.00  0.00     0.124 S 
ATOM     67  O   UNL A   1      42.863  24.691  36.712  1.00  0.00    -0.237 OA
ATOM     68  O   UNL A   1      43.239  26.657  38.162  1.00  0.00    -0.237 OA
ATOM     69  O   UNL A   1      41.043  26.307  37.106  1.00  0.00    -0.744 OA
ENDBRANCH  65  66
ENDBRANCH  39  60
ENDBRANCH  13  14
ENDBRANCH   6   8
ENDBRANCH   3   4
ENDBRANCH   2   3
ENDBRANCH   1   2
BRANCH   1  70
ATOM     70  C   UNL A   1      33.970  21.377  26.649  1.00  0.00     0.116 C 
BRANCH  70  71
ATOM     71  N   UNL A   1      33.472  20.010  26.660  1.00  0.00    -0.352 N 
ATOM     72  C   UNL A   1      32.813  19.314  25.675  1.00  0.00     0.254 C 
ATOM     73  H   UNL A   1      33.630  19.512  27.494  1.00  0.00     0.163 HD
ATOM     74  O   UNL A   1      32.438  18.161  25.869  1.00  0.00    -0.269 OA
BRANCH  72  75
ATOM     75  C   UNL A   1      32.486  19.961  24.393  1.00  0.00     0.076 A 
ATOM     76  C   UNL A   1      32.350  21.352  24.362  1.00  0.00     0.038 A 
ATOM     77  C   UNL A   1      32.279  19.224  23.229  1.00  0.00     0.136 A 
ATOM     78  C   UNL A   1      32.108  21.997  23.141  1.00  0.00     0.085 A 
ATOM     79  C   UNL A   1      32.074  19.867  22.009  1.00  0.00     0.041 A 
ATOM     80  F   UNL A   1      32.296  17.883  23.248  1.00  0.00    -0.206 F 
ATOM     81  C   UNL A   1      32.017  21.261  21.955  1.00  0.00     0.025 A 
BRANCH  78  82
ATOM     82  S   UNL A   1      31.788  23.740  23.206  1.00  0.00     0.257 S 
ATOM     83  O   UNL A   1      32.515  24.339  22.110  1.00  0.00    -0.205 OA
ATOM     84  O   UNL A   1      30.363  23.911  23.383  1.00  0.00    -0.205 OA
BRANCH  82  85
ATOM     85  N   UNL A   1      32.517  24.303  24.641  1.00  0.00    -0.123 NA
ATOM     86  H   UNL A   1      33.113  25.090  24.383  1.00  0.00     0.167 HD
BRANCH  85  87
ATOM     87  N   UNL A   1      31.672  24.748  25.724  1.00  0.00    -0.275 N 
ATOM     88  C   UNL A   1      31.153  26.006  25.874  1.00  0.00     0.265 C 
ATOM     89  H   UNL A   1      31.448  24.086  26.418  1.00  0.00     0.186 HD
ATOM     90  O   UNL A   1      30.259  26.159  26.715  1.00  0.00    -0.271 OA
BRANCH  88  91
ATOM     91  C   UNL A   1      31.659  27.173  25.017  1.00  0.00     0.244 C 
ATOM     92  C   UNL A   1      31.912  28.335  25.910  1.00  0.00     0.042 C 
ATOM     93  N   UNL A   1      33.025  26.893  24.487  1.00  0.00    -0.171 NA
ATOM     94  C   UNL A   1      33.235  28.507  25.907  1.00  0.00     0.091 C 
ATOM     95  N   UNL A   1      33.867  27.665  25.029  1.00  0.00    -0.155 NA
BRANCH  94  96
ATOM     96  C   UNL A   1      33.959  29.438  26.773  1.00  0.00     0.002 A 
ATOM     97  C   UNL A   1      33.414  30.689  27.086  1.00  0.00     0.010 A 
ATOM     98  C   UNL A   1      35.224  29.101  27.277  1.00  0.00     0.010 A 
ATOM     99  C   UNL A   1      34.113  31.577  27.908  1.00  0.00     0.001 A 
ATOM    100  C   UNL A   1      35.927  29.994  28.089  1.00  0.00     0.001 A 
ATOM    101  C   UNL A   1      35.368  31.229  28.409  1.00  0.00     0.000 A 
ENDBRANCH  94  96
ENDBRANCH  88  91
ENDBRANCH  85  87
ENDBRANCH  82  85
ENDBRANCH  78  82
ENDBRANCH  72  75
ENDBRANCH  70  71
ENDBRANCH   1  70
TORSDOF 19
ENDMDL
MODEL 3
REMARK VINA RESULT:     -12.6      2.775     10.004
REMARK SMILES O=C(NCCCCNC(=O)c1cc(S(=O)(=O)NNC(=O)[C@H]2C=C(c3ccccc3)N=N2)ccc1F)c1ccc(-c2c3nc(c(-c4ccc(S(=O)(=O)[O-])cc4)c4ccc([nH]4)c(-c4ccc(S(=O)(=O)[O-])cc4)c4nc(c(-c5ccc(S(=O)(=O)[O-])cc5)c5ccc2[nH]5)C=C4)C=C3)cc1
REMARK SMILES IDX 6 1 5 2 4 3 3 4 1 5 2 6 36 8 37 9 95 10 38 11 94 12 39 13
REMARK SMILES IDX 40 14 41 15 88 16 42 17 93 18 87 19 89 20 43 21 92 22 86 23
REMARK SMILES IDX 85 24 44 26 74 27 55 28 73 29 56 30 59 31 72 32 90 33 57 34
REMARK SMILES IDX 58 35 71 37 91 38 60 39 45 40 46 41 54 42 47 43 53 44 48 45
REMARK SMILES IDX 49 46 50 47 51 48 52 49 75 50 76 51 84 52 77 53 83 54 78 55
REMARK SMILES IDX 79 56 80 57 81 58 82 59 61 60 62 61 70 62 63 63 69 64 64 65
REMARK SMILES IDX 65 66 66 67 67 68 68 69 7 70 8 71 9 72 10 74 11 75 12 76
REMARK SMILES IDX 34 77 13 78 33 79 35 80 32 81 14 82 15 83 16 84 17 85 18 87
REMARK SMILES IDX 19 88 20 90 21 91 22 92 31 93 23 94 30 95 24 96 25 97 29 98
REMARK SMILES IDX 26 99 28 100 27 101
REMARK H PARENT 3 7 89 25 59 36 8 73 17 86 18 89
REMARK Flexibility Score: inf
ROOT
ATOM      1  C   UNL A   1      35.393  21.774  25.356  1.00  0.00     0.023 C 
ENDROOT
BRANCH   1   2
ATOM      2  C   UNL A   1      36.481  22.801  25.688  1.00  0.00     0.023 C 
BRANCH   2   3
ATOM      3  C   UNL A   1      37.750  22.723  24.840  1.00  0.00     0.116 C 
BRANCH   3   4
ATOM      4  N   UNL A   1      38.864  22.064  25.486  1.00  0.00    -0.352 N 
ATOM      5  O   UNL A   1      40.396  21.407  26.918  1.00  0.00    -0.269 OA
ATOM      6  C   UNL A   1      39.684  22.344  26.545  1.00  0.00     0.251 C 
ATOM      7  H   UNL A   1      39.088  21.204  25.060  1.00  0.00     0.163 HD
BRANCH   6   8
ATOM      8  C   UNL A   1      39.824  23.663  27.229  1.00  0.00     0.039 A 
ATOM      9  C   UNL A   1      38.903  24.711  27.212  1.00  0.00     0.014 A 
ATOM     10  C   UNL A   1      41.040  23.860  27.916  1.00  0.00     0.014 A 
ATOM     11  C   UNL A   1      39.218  25.938  27.808  1.00  0.00     0.010 A 
ATOM     12  C   UNL A   1      41.359  25.079  28.510  1.00  0.00     0.010 A 
ATOM     13  C   UNL A   1      40.460  26.135  28.427  1.00  0.00    -0.014 A 
BRANCH  13  14
ATOM     14  C   UNL A   1      40.729  27.412  29.098  1.00  0.00     0.031 A 
ATOM     15  C   UNL A   1      41.952  28.123  28.623  1.00  0.00     0.074 A 
ATOM     16  C   UNL A   1      39.896  28.017  29.973  1.00  0.00     0.049 A 
ATOM     17  N   UNL A   1      43.034  28.375  29.284  1.00  0.00    -0.248 NA
ATOM     18  C   UNL A   1      42.016  28.516  27.207  1.00  0.00     0.031 C 
ATOM     19  C   UNL A   1      38.528  27.639  30.338  1.00  0.00     0.029 A 
ATOM     20  N   UNL A   1      40.080  29.183  30.663  1.00  0.00    -0.354 N 
ATOM     21  C   UNL A   1      43.852  29.116  28.433  1.00  0.00     0.074 A 
ATOM     22  C   UNL A   1      43.230  29.065  27.133  1.00  0.00     0.031 C 
ATOM     23  C   UNL A   1      37.936  28.667  30.995  1.00  0.00     0.029 A 
ATOM     24  C   UNL A   1      38.922  29.708  31.231  1.00  0.00     0.049 A 
ATOM     25  H   UNL A   1      40.959  29.616  30.750  1.00  0.00     0.167 HD
ATOM     26  C   UNL A   1      44.889  29.870  28.895  1.00  0.00     0.031 A 
ATOM     27  C   UNL A   1      38.777  30.925  31.820  1.00  0.00     0.031 A 
ATOM     28  C   UNL A   1      45.225  29.544  30.254  1.00  0.00     0.049 A 
ATOM     29  C   UNL A   1      40.128  31.382  32.222  1.00  0.00     0.074 A 
ATOM     30  C   UNL A   1      45.685  28.417  30.903  1.00  0.00     0.029 A 
ATOM     31  N   UNL A   1      44.748  30.380  31.235  1.00  0.00    -0.354 N 
ATOM     32  N   UNL A   1      40.844  30.796  33.139  1.00  0.00    -0.248 NA
ATOM     33  C   UNL A   1      40.863  32.232  31.298  1.00  0.00     0.031 C 
ATOM     34  C   UNL A   1      45.011  28.422  32.159  1.00  0.00     0.029 A 
ATOM     35  C   UNL A   1      44.239  29.584  32.226  1.00  0.00     0.049 A 
ATOM     36  H   UNL A   1      44.768  31.364  31.227  1.00  0.00     0.167 HD
ATOM     37  C   UNL A   1      42.144  30.852  32.660  1.00  0.00     0.074 A 
ATOM     38  C   UNL A   1      42.105  31.821  31.566  1.00  0.00     0.031 C 
ATOM     39  C   UNL A   1      43.072  29.916  33.015  1.00  0.00     0.031 A 
BRANCH  26  40
ATOM     40  C   UNL A   1      45.364  31.154  28.258  1.00  0.00    -0.014 A 
ATOM     41  C   UNL A   1      44.784  32.373  28.670  1.00  0.00     0.010 A 
ATOM     42  C   UNL A   1      46.135  31.179  27.079  1.00  0.00     0.010 A 
ATOM     43  C   UNL A   1      44.899  33.535  27.896  1.00  0.00     0.020 A 
ATOM     44  C   UNL A   1      46.290  32.343  26.322  1.00  0.00     0.020 A 
ATOM     45  C   UNL A   1      45.639  33.505  26.715  1.00  0.00     0.054 A 
BRANCH  45  46
ATOM     46  S   UNL A   1      45.678  34.977  25.661  1.00  0.00     0.124 S 
ATOM     47  O   UNL A   1      45.694  34.389  24.325  1.00  0.00    -0.237 OA
ATOM     48  O   UNL A   1      44.445  35.661  26.039  1.00  0.00    -0.237 OA
ATOM     49  O   UNL A   1      46.909  35.653  26.064  1.00  0.00    -0.744 OA
ENDBRANCH  45  46
ENDBRANCH  26  40
BRANCH  27  50
ATOM     50  C   UNL A   1      37.616  31.855  31.758  1.00  0.00    -0.014 A 
ATOM     51  C   UNL A   1      36.311  31.386  31.503  1.00  0.00     0.010 A 
ATOM     52  C   UNL A   1      37.749  33.167  32.253  1.00  0.00     0.010 A 
ATOM     53  C   UNL A   1      35.182  32.179  31.790  1.00  0.00     0.020 A 
ATOM     54  C   UNL A   1      36.631  33.964  32.539  1.00  0.00     0.020 A 
ATOM     55  C   UNL A   1      35.351  33.458  32.328  1.00  0.00     0.054 A 
BRANCH  55  56
ATOM     56  S   UNL A   1      33.895  34.409  32.864  1.00  0.00     0.124 S 
ATOM     57  O   UNL A   1      34.468  35.340  33.832  1.00  0.00    -0.237 OA
ATOM     58  O   UNL A   1      33.423  35.005  31.617  1.00  0.00    -0.237 OA
ATOM     59  O   UNL A   1      33.011  33.392  33.433  1.00  0.00    -0.744 OA
ENDBRANCH  55  56
ENDBRANCH  27  50
BRANCH  39  60
ATOM     60  C   UNL A   1      42.772  28.986  34.166  1.00  0.00    -0.014 A 
ATOM     61  C   UNL A   1      41.890  27.891  34.081  1.00  0.00     0.010 A 
ATOM     62  C   UNL A   1      43.578  29.116  35.311  1.00  0.00     0.010 A 
ATOM     63  C   UNL A   1      41.824  26.949  35.121  1.00  0.00     0.020 A 
ATOM     64  C   UNL A   1      43.530  28.173  36.338  1.00  0.00     0.020 A 
ATOM     65  C   UNL A   1      42.654  27.092  36.239  1.00  0.00     0.054 A 
BRANCH  65  66
ATOM     66  S   UNL A   1      42.643  25.819  37.534  1.00  0.00     0.124 S 
ATOM     67  O   UNL A   1      43.273  26.504  38.658  1.00  0.00    -0.237 OA
ATOM     68  O   UNL A   1      41.218  25.529  37.692  1.00  0.00    -0.237 OA
ATOM     69  O   UNL A   1      43.426  24.727  36.956  1.00  0.00    -0.744 OA
ENDBRANCH  65  66
ENDBRANCH  39  60
ENDBRANCH  13  14
ENDBRANCH   6   8
ENDBRANCH   3   4
ENDBRANCH   2   3
ENDBRANCH   1   2
BRANCH   1  70
ATOM     70  C   UNL A   1      34.593  21.226  26.535  1.00  0.00     0.116 C 
BRANCH  70  71
ATOM     71  N   UNL A   1      33.711  20.125  26.181  1.00  0.00    -0.352 N 
ATOM     72  C   UNL A   1      32.628  20.113  25.334  1.00  0.00     0.254 C 
ATOM     73  H   UNL A   1      33.919  19.264  26.609  1.00  0.00     0.163 HD
ATOM     74  O   UNL A   1      31.973  19.088  25.171  1.00  0.00    -0.269 OA
BRANCH  72  75
ATOM     75  C   UNL A   1      32.192  21.348  24.660  1.00  0.00     0.076 A 
ATOM     76  C   UNL A   1      31.653  22.379  25.436  1.00  0.00     0.038 A 
ATOM     77  C   UNL A   1      32.274  21.499  23.278  1.00  0.00     0.136 A 
ATOM     78  C   UNL A   1      31.296  23.589  24.827  1.00  0.00     0.085 A 
ATOM     79  C   UNL A   1      31.953  22.716  22.676  1.00  0.00     0.041 A 
ATOM     80  F   UNL A   1      32.685  20.490  22.496  1.00  0.00    -0.206 F 
ATOM     81  C   UNL A   1      31.489  23.779  23.455  1.00  0.00     0.025 A 
BRANCH  78  82
ATOM     82  S   UNL A   1      30.473  24.786  25.845  1.00  0.00     0.257 S 
ATOM     83  O   UNL A   1      29.576  25.522  24.983  1.00  0.00    -0.205 OA
ATOM     84  O   UNL A   1      30.022  24.101  27.036  1.00  0.00    -0.205 OA
BRANCH  82  85
ATOM     85  N   UNL A   1      31.673  25.884  26.352  1.00  0.00    -0.123 NA
ATOM     86  H   UNL A   1      32.010  26.365  25.517  1.00  0.00     0.167 HD
BRANCH  85  87
ATOM     87  N   UNL A   1      31.325  26.903  27.315  1.00  0.00    -0.275 N 
ATOM     88  C   UNL A   1      31.747  28.205  27.296  1.00  0.00     0.265 C 
ATOM     89  H   UNL A   1      30.729  26.637  28.052  1.00  0.00     0.186 HD
ATOM     90  O   UNL A   1      31.171  29.004  28.044  1.00  0.00    -0.271 OA
BRANCH  88  91
ATOM     91  C   UNL A   1      32.885  28.650  26.369  1.00  0.00     0.244 C 
ATOM     92  C   UNL A   1      33.100  30.109  26.556  1.00  0.00     0.042 C 
ATOM     93  N   UNL A   1      34.192  28.089  26.820  1.00  0.00    -0.171 NA
ATOM     94  C   UNL A   1      34.295  30.223  27.137  1.00  0.00     0.091 C 
ATOM     95  N   UNL A   1      34.937  29.016  27.249  1.00  0.00    -0.155 NA
BRANCH  94  96
ATOM     96  C   UNL A   1      34.857  31.469  27.657  1.00  0.00     0.002 A 
ATOM     97  C   UNL A   1      36.240  31.613  27.822  1.00  0.00     0.010 A 
ATOM     98  C   UNL A   1      34.015  32.529  28.025  1.00  0.00     0.010 A 
ATOM     99  C   UNL A   1      36.771  32.803  28.325  1.00  0.00     0.001 A 
ATOM    100  C   UNL A   1      34.545  33.715  28.538  1.00  0.00     0.001 A 
ATOM    101  C   UNL A   1      35.924  33.853  28.682  1.00  0.00     0.000 A 
ENDBRANCH  94  96
ENDBRANCH  88  91
ENDBRANCH  85  87
ENDBRANCH  82  85
ENDBRANCH  78  82
ENDBRANCH  72  75
ENDBRANCH  70  71
ENDBRANCH   1  70
TORSDOF 19
ENDMDL
