MODEL 1
REMARK VINA RESULT:     -11.4      0.000      0.000
REMARK SMILES O=C(NCCCCNC(=O)[C@@]1([NH2+]C2CC2)CCC[C@@H](n2cncn2)C1)c1ccc(-c2c3nc(c(-c4ccc(S(=O)(=O)[O-])cc4)c4ccc([nH]4)c(-c4ccc(S(=O)(=O)[O-])cc4)c4nc(c(-c5ccc(S(=O)(=O)[O-])cc5)c5ccc2[nH]5)C=C4)C=C3)cc1
REMARK SMILES IDX 5 1 4 2 3 3 1 4 2 5 26 7 27 8 85 9 28 10 84 11 29 12 30 13
REMARK SMILES IDX 31 14 78 15 32 16 83 17 77 18 79 19 33 20 82 21 76 22 75 23
REMARK SMILES IDX 34 25 64 26 45 27 63 28 46 29 49 30 62 31 80 32 47 33 48 34
REMARK SMILES IDX 61 36 81 37 50 38 35 39 36 40 44 41 37 42 43 43 38 44 39 45
REMARK SMILES IDX 40 46 41 47 42 48 65 49 66 50 74 51 67 52 73 53 68 54 69 55
REMARK SMILES IDX 70 56 71 57 72 58 51 59 52 60 60 61 53 62 59 63 54 64 55 65
REMARK SMILES IDX 56 66 57 67 58 68 6 69 7 70 8 71 9 72 10 74 11 75 16 76
REMARK SMILES IDX 25 77 17 78 19 79 18 80 12 81 13 84 14 85 15 86 20 87 21 88
REMARK SMILES IDX 24 89 22 90 23 91
REMARK H PARENT 3 6 79 24 49 35 8 73 12 82 12 83
REMARK Flexibility Score: inf
ROOT
ATOM      1  C   UNL A   1      39.349  21.753  26.051  1.00  0.00     0.023 C 
ENDROOT
BRANCH   1   2
ATOM      2  C   UNL A   1      40.709  21.157  26.418  1.00  0.00     0.116 C 
BRANCH   2   3
ATOM      3  N   UNL A   1      41.763  21.492  25.479  1.00  0.00    -0.352 N 
ATOM      4  O   UNL A   1      43.384  22.534  24.383  1.00  0.00    -0.269 OA
ATOM      5  C   UNL A   1      42.601  22.564  25.338  1.00  0.00     0.251 C 
ATOM      6  H   UNL A   1      41.907  20.798  24.796  1.00  0.00     0.163 HD
BRANCH   5   7
ATOM      7  C   UNL A   1      42.580  23.760  26.217  1.00  0.00     0.039 A 
ATOM      8  C   UNL A   1      43.132  23.812  27.498  1.00  0.00     0.014 A 
ATOM      9  C   UNL A   1      41.969  24.915  25.700  1.00  0.00     0.014 A 
ATOM     10  C   UNL A   1      42.973  24.932  28.296  1.00  0.00     0.010 A 
ATOM     11  C   UNL A   1      41.857  26.063  26.476  1.00  0.00     0.010 A 
ATOM     12  C   UNL A   1      42.317  26.050  27.793  1.00  0.00    -0.014 A 
BRANCH  12  13
ATOM     13  C   UNL A   1      42.232  27.219  28.664  1.00  0.00     0.031 A 
ATOM     14  C   UNL A   1      43.381  28.176  28.603  1.00  0.00     0.074 A 
ATOM     15  C   UNL A   1      41.111  27.500  29.354  1.00  0.00     0.049 A 
ATOM     16  N   UNL A   1      44.055  28.715  29.570  1.00  0.00    -0.248 NA
ATOM     17  C   UNL A   1      43.879  28.531  27.261  1.00  0.00     0.031 C 
ATOM     18  C   UNL A   1      39.820  26.810  29.261  1.00  0.00     0.029 A 
ATOM     19  N   UNL A   1      40.842  28.568  30.155  1.00  0.00    -0.354 N 
ATOM     20  C   UNL A   1      44.948  29.604  28.969  1.00  0.00     0.074 A 
ATOM     21  C   UNL A   1      44.872  29.368  27.550  1.00  0.00     0.031 C 
ATOM     22  C   UNL A   1      38.857  27.625  29.740  1.00  0.00     0.029 A 
ATOM     23  C   UNL A   1      39.483  28.820  30.280  1.00  0.00     0.049 A 
ATOM     24  H   UNL A   1      41.538  29.104  30.600  1.00  0.00     0.167 HD
ATOM     25  C   UNL A   1      45.571  30.614  29.639  1.00  0.00     0.031 A 
ATOM     26  C   UNL A   1      38.909  29.983  30.670  1.00  0.00     0.031 A 
ATOM     27  C   UNL A   1      45.587  30.419  31.059  1.00  0.00     0.049 A 
ATOM     28  C   UNL A   1      39.933  30.785  31.379  1.00  0.00     0.074 A 
ATOM     29  C   UNL A   1      46.136  29.482  31.910  1.00  0.00     0.029 A 
ATOM     30  N   UNL A   1      44.698  31.139  31.816  1.00  0.00    -0.354 N 
ATOM     31  N   UNL A   1      40.468  30.439  32.517  1.00  0.00    -0.248 NA
ATOM     32  C   UNL A   1      40.661  31.801  30.637  1.00  0.00     0.031 C 
ATOM     33  C   UNL A   1      45.214  29.380  32.993  1.00  0.00     0.029 A 
ATOM     34  C   UNL A   1      44.170  30.272  32.738  1.00  0.00     0.049 A 
ATOM     35  H   UNL A   1      44.480  32.094  31.717  1.00  0.00     0.167 HD
ATOM     36  C   UNL A   1      41.779  30.886  32.452  1.00  0.00     0.074 A 
ATOM     37  C   UNL A   1      41.803  31.817  31.329  1.00  0.00     0.031 C 
ATOM     38  C   UNL A   1      42.779  30.257  33.139  1.00  0.00     0.031 A 
BRANCH  25  39
ATOM     39  C   UNL A   1      45.865  31.955  29.008  1.00  0.00    -0.014 A 
ATOM     40  C   UNL A   1      44.816  32.876  28.805  1.00  0.00     0.010 A 
ATOM     41  C   UNL A   1      47.085  32.219  28.347  1.00  0.00     0.010 A 
ATOM     42  C   UNL A   1      44.961  33.960  27.927  1.00  0.00     0.020 A 
ATOM     43  C   UNL A   1      47.254  33.321  27.507  1.00  0.00     0.020 A 
ATOM     44  C   UNL A   1      46.175  34.160  27.267  1.00  0.00     0.054 A 
BRANCH  44  45
ATOM     45  S   UNL A   1      46.307  35.461  26.015  1.00  0.00     0.124 S 
ATOM     46  O   UNL A   1      45.245  36.375  26.421  1.00  0.00    -0.237 OA
ATOM     47  O   UNL A   1      47.671  35.947  26.210  1.00  0.00    -0.237 OA
ATOM     48  O   UNL A   1      46.079  34.751  24.759  1.00  0.00    -0.744 OA
ENDBRANCH  44  45
ENDBRANCH  25  39
BRANCH  26  49
ATOM     49  C   UNL A   1      37.658  30.557  30.116  1.00  0.00    -0.014 A 
ATOM     50  C   UNL A   1      36.678  31.117  30.950  1.00  0.00     0.010 A 
ATOM     51  C   UNL A   1      37.533  30.762  28.724  1.00  0.00     0.010 A 
ATOM     52  C   UNL A   1      35.626  31.878  30.410  1.00  0.00     0.020 A 
ATOM     53  C   UNL A   1      36.484  31.505  28.178  1.00  0.00     0.020 A 
ATOM     54  C   UNL A   1      35.543  32.075  29.028  1.00  0.00     0.054 A 
BRANCH  54  55
ATOM     55  S   UNL A   1      34.263  33.171  28.352  1.00  0.00     0.124 S 
ATOM     56  O   UNL A   1      33.419  32.240  27.609  1.00  0.00    -0.237 OA
ATOM     57  O   UNL A   1      33.668  33.743  29.557  1.00  0.00    -0.237 OA
ATOM     58  O   UNL A   1      35.017  34.116  27.529  1.00  0.00    -0.744 OA
ENDBRANCH  54  55
ENDBRANCH  26  49
BRANCH  38  59
ATOM     59  C   UNL A   1      42.397  29.227  34.178  1.00  0.00    -0.014 A 
ATOM     60  C   UNL A   1      41.853  27.974  33.837  1.00  0.00     0.010 A 
ATOM     61  C   UNL A   1      42.768  29.454  35.515  1.00  0.00     0.010 A 
ATOM     62  C   UNL A   1      41.670  26.979  34.807  1.00  0.00     0.020 A 
ATOM     63  C   UNL A   1      42.604  28.460  36.486  1.00  0.00     0.020 A 
ATOM     64  C   UNL A   1      42.053  27.228  36.127  1.00  0.00     0.054 A 
BRANCH  64  65
ATOM     65  S   UNL A   1      41.894  25.902  37.357  1.00  0.00     0.124 S 
ATOM     66  O   UNL A   1      42.284  24.717  36.600  1.00  0.00    -0.237 OA
ATOM     67  O   UNL A   1      42.829  26.314  38.402  1.00  0.00    -0.237 OA
ATOM     68  O   UNL A   1      40.485  25.954  37.745  1.00  0.00    -0.744 OA
ENDBRANCH  64  65
ENDBRANCH  38  59
ENDBRANCH  12  13
ENDBRANCH   5   7
ENDBRANCH   2   3
ENDBRANCH   1   2
BRANCH   1  69
ATOM     69  C   UNL A   1      39.099  23.144  26.652  1.00  0.00     0.023 C 
BRANCH  69  70
ATOM     70  C   UNL A   1      37.905  23.869  26.037  1.00  0.00     0.116 C 
BRANCH  70  71
ATOM     71  N   UNL A   1      37.649  23.400  24.694  1.00  0.00    -0.351 N 
ATOM     72  C   UNL A   1      36.509  23.075  24.033  1.00  0.00     0.281 C 
ATOM     73  H   UNL A   1      38.464  23.296  24.150  1.00  0.00     0.163 HD
ATOM     74  O   UNL A   1      36.662  22.941  22.811  1.00  0.00    -0.268 OA
BRANCH  72  75
ATOM     75  C   UNL A   1      35.086  23.092  24.696  1.00  0.00     0.177 C 
ATOM     76  C   UNL A   1      34.966  23.202  26.234  1.00  0.00     0.079 C 
ATOM     77  C   UNL A   1      34.453  24.368  24.048  1.00  0.00     0.106 C 
ATOM     78  C   UNL A   1      33.549  23.513  26.717  1.00  0.00     0.009 C 
ATOM     79  C   UNL A   1      33.060  24.755  24.561  1.00  0.00     0.116 C 
ATOM     80  C   UNL A   1      33.035  24.806  26.097  1.00  0.00     0.028 C 
BRANCH  75  81
ATOM     81  N   UNL A   1      34.290  21.923  24.216  1.00  0.00    -0.331 N 
ATOM     82  H   UNL A   1      34.623  21.737  23.270  1.00  0.00     0.347 HD
ATOM     83  H   UNL A   1      33.343  22.257  24.390  1.00  0.00     0.347 HD
BRANCH  81  84
ATOM     84  C   UNL A   1      34.243  20.609  24.885  1.00  0.00     0.183 C 
ATOM     85  C   UNL A   1      33.036  19.999  25.534  1.00  0.00     0.071 C 
ATOM     86  C   UNL A   1      33.666  19.332  24.349  1.00  0.00     0.071 C 
ENDBRANCH  81  84
ENDBRANCH  75  81
BRANCH  79  87
ATOM     87  N   UNL A   1      32.615  26.001  23.940  1.00  0.00    -0.250 N 
ATOM     88  C   UNL A   1      32.744  26.361  22.629  1.00  0.00     0.220 A 
ATOM     89  N   UNL A   1      31.981  26.967  24.634  1.00  0.00    -0.160 NA
ATOM     90  N   UNL A   1      32.201  27.541  22.438  1.00  0.00    -0.224 NA
ATOM     91  C   UNL A   1      31.748  27.872  23.682  1.00  0.00     0.246 A 
ENDBRANCH  79  87
ENDBRANCH  72  75
ENDBRANCH  70  71
ENDBRANCH  69  70
ENDBRANCH   1  69
TORSDOF 17
ENDMDL
MODEL 2
REMARK VINA RESULT:     -11.4      2.548      9.167
REMARK SMILES O=C(NCCCCNC(=O)[C@@]1([NH2+]C2CC2)CCC[C@@H](n2cncn2)C1)c1ccc(-c2c3nc(c(-c4ccc(S(=O)(=O)[O-])cc4)c4ccc([nH]4)c(-c4ccc(S(=O)(=O)[O-])cc4)c4nc(c(-c5ccc(S(=O)(=O)[O-])cc5)c5ccc2[nH]5)C=C4)C=C3)cc1
REMARK SMILES IDX 5 1 4 2 3 3 1 4 2 5 26 7 27 8 85 9 28 10 84 11 29 12 30 13
REMARK SMILES IDX 31 14 78 15 32 16 83 17 77 18 79 19 33 20 82 21 76 22 75 23
REMARK SMILES IDX 34 25 64 26 45 27 63 28 46 29 49 30 62 31 80 32 47 33 48 34
REMARK SMILES IDX 61 36 81 37 50 38 35 39 36 40 44 41 37 42 43 43 38 44 39 45
REMARK SMILES IDX 40 46 41 47 42 48 65 49 66 50 74 51 67 52 73 53 68 54 69 55
REMARK SMILES IDX 70 56 71 57 72 58 51 59 52 60 60 61 53 62 59 63 54 64 55 65
REMARK SMILES IDX 56 66 57 67 58 68 6 69 7 70 8 71 9 72 10 74 11 75 16 76
REMARK SMILES IDX 25 77 17 78 19 79 18 80 12 81 13 84 14 85 15 86 20 87 21 88
REMARK SMILES IDX 24 89 22 90 23 91
REMARK H PARENT 3 6 79 24 49 35 8 73 12 82 12 83
REMARK Flexibility Score: inf
ROOT
ATOM      1  C   UNL A   1      33.264  27.763  26.604  1.00  0.00     0.023 C 
ENDROOT
BRANCH   1   2
ATOM      2  C   UNL A   1      33.538  29.104  25.921  1.00  0.00     0.116 C 
BRANCH   2   3
ATOM      3  N   UNL A   1      33.313  30.251  26.780  1.00  0.00    -0.352 N 
ATOM      4  O   UNL A   1      33.568  31.889  28.252  1.00  0.00    -0.269 OA
ATOM      5  C   UNL A   1      34.105  30.958  27.643  1.00  0.00     0.251 C 
ATOM      6  H   UNL A   1      32.392  30.595  26.732  1.00  0.00     0.163 HD
BRANCH   5   7
ATOM      7  C   UNL A   1      35.526  30.637  27.923  1.00  0.00     0.039 A 
ATOM      8  C   UNL A   1      36.091  29.367  27.798  1.00  0.00     0.014 A 
ATOM      9  C   UNL A   1      36.347  31.703  28.327  1.00  0.00     0.014 A 
ATOM     10  C   UNL A   1      37.399  29.129  28.186  1.00  0.00     0.010 A 
ATOM     11  C   UNL A   1      37.679  31.482  28.663  1.00  0.00     0.010 A 
ATOM     12  C   UNL A   1      38.187  30.182  28.637  1.00  0.00    -0.014 A 
BRANCH  12  13
ATOM     13  C   UNL A   1      39.574  29.878  28.976  1.00  0.00     0.031 A 
ATOM     14  C   UNL A   1      39.895  29.785  30.435  1.00  0.00     0.074 A 
ATOM     15  C   UNL A   1      40.470  29.539  28.030  1.00  0.00     0.049 A 
ATOM     16  N   UNL A   1      40.870  30.323  31.099  1.00  0.00    -0.248 NA
ATOM     17  C   UNL A   1      38.950  29.027  31.277  1.00  0.00     0.031 C 
ATOM     18  C   UNL A   1      40.205  29.298  26.608  1.00  0.00     0.029 A 
ATOM     19  N   UNL A   1      41.773  29.171  28.175  1.00  0.00    -0.354 N 
ATOM     20  C   UNL A   1      40.763  29.837  32.404  1.00  0.00     0.074 A 
ATOM     21  C   UNL A   1      39.506  29.138  32.480  1.00  0.00     0.031 C 
ATOM     22  C   UNL A   1      41.216  28.568  26.095  1.00  0.00     0.029 A 
ATOM     23  C   UNL A   1      42.239  28.407  27.114  1.00  0.00     0.049 A 
ATOM     24  H   UNL A   1      42.326  29.420  28.951  1.00  0.00     0.167 HD
ATOM     25  C   UNL A   1      41.782  29.871  33.306  1.00  0.00     0.031 A 
ATOM     26  C   UNL A   1      43.319  27.590  27.120  1.00  0.00     0.031 A 
ATOM     27  C   UNL A   1      42.799  30.824  32.969  1.00  0.00     0.049 A 
ATOM     28  C   UNL A   1      44.185  27.981  28.257  1.00  0.00     0.074 A 
ATOM     29  C   UNL A   1      42.845  32.195  32.827  1.00  0.00     0.029 A 
ATOM     30  N   UNL A   1      43.966  30.351  32.423  1.00  0.00    -0.354 N 
ATOM     31  N   UNL A   1      44.804  29.125  28.340  1.00  0.00    -0.248 NA
ATOM     32  C   UNL A   1      44.065  27.249  29.508  1.00  0.00     0.031 C 
ATOM     33  C   UNL A   1      43.798  32.430  31.794  1.00  0.00     0.029 A 
ATOM     34  C   UNL A   1      44.283  31.187  31.382  1.00  0.00     0.049 A 
ATOM     35  H   UNL A   1      44.477  29.564  32.719  1.00  0.00     0.167 HD
ATOM     36  C   UNL A   1      44.799  29.442  29.689  1.00  0.00     0.074 A 
ATOM     37  C   UNL A   1      44.441  28.200  30.366  1.00  0.00     0.031 C 
ATOM     38  C   UNL A   1      44.820  30.741  30.113  1.00  0.00     0.031 A 
BRANCH  25  39
ATOM     39  C   UNL A   1      42.011  28.778  34.324  1.00  0.00    -0.014 A 
ATOM     40  C   UNL A   1      42.247  29.119  35.672  1.00  0.00     0.010 A 
ATOM     41  C   UNL A   1      42.288  27.448  33.942  1.00  0.00     0.010 A 
ATOM     42  C   UNL A   1      42.802  28.194  36.569  1.00  0.00     0.020 A 
ATOM     43  C   UNL A   1      42.797  26.506  34.838  1.00  0.00     0.020 A 
ATOM     44  C   UNL A   1      43.094  26.898  36.136  1.00  0.00     0.054 A 
BRANCH  44  45
ATOM     45  S   UNL A   1      43.957  25.759  37.247  1.00  0.00     0.124 S 
ATOM     46  O   UNL A   1      45.345  26.180  37.086  1.00  0.00    -0.237 OA
ATOM     47  O   UNL A   1      43.348  26.061  38.540  1.00  0.00    -0.237 OA
ATOM     48  O   UNL A   1      43.634  24.442  36.705  1.00  0.00    -0.744 OA
ENDBRANCH  44  45
ENDBRANCH  25  39
BRANCH  26  49
ATOM     49  C   UNL A   1      43.413  26.280  26.429  1.00  0.00    -0.014 A 
ATOM     50  C   UNL A   1      44.446  26.005  25.519  1.00  0.00     0.010 A 
ATOM     51  C   UNL A   1      42.603  25.202  26.851  1.00  0.00     0.010 A 
ATOM     52  C   UNL A   1      44.675  24.693  25.069  1.00  0.00     0.020 A 
ATOM     53  C   UNL A   1      42.814  23.898  26.397  1.00  0.00     0.020 A 
ATOM     54  C   UNL A   1      43.863  23.647  25.519  1.00  0.00     0.054 A 
BRANCH  54  55
ATOM     55  S   UNL A   1      44.250  21.939  25.041  1.00  0.00     0.124 S 
ATOM     56  O   UNL A   1      44.466  22.061  23.602  1.00  0.00    -0.237 OA
ATOM     57  O   UNL A   1      45.438  21.648  25.839  1.00  0.00    -0.237 OA
ATOM     58  O   UNL A   1      43.052  21.193  25.425  1.00  0.00    -0.744 OA
ENDBRANCH  54  55
ENDBRANCH  26  49
BRANCH  38  59
ATOM     59  C   UNL A   1      45.113  31.822  29.098  1.00  0.00    -0.014 A 
ATOM     60  C   UNL A   1      46.417  32.292  28.847  1.00  0.00     0.010 A 
ATOM     61  C   UNL A   1      44.076  32.241  28.247  1.00  0.00     0.010 A 
ATOM     62  C   UNL A   1      46.675  33.168  27.785  1.00  0.00     0.020 A 
ATOM     63  C   UNL A   1      44.329  33.103  27.174  1.00  0.00     0.020 A 
ATOM     64  C   UNL A   1      45.628  33.565  26.950  1.00  0.00     0.054 A 
BRANCH  64  65
ATOM     65  S   UNL A   1      45.989  34.628  25.524  1.00  0.00     0.124 S 
ATOM     66  O   UNL A   1      45.070  34.123  24.509  1.00  0.00    -0.237 OA
ATOM     67  O   UNL A   1      45.690  35.965  26.031  1.00  0.00    -0.237 OA
ATOM     68  O   UNL A   1      47.405  34.381  25.256  1.00  0.00    -0.744 OA
ENDBRANCH  64  65
ENDBRANCH  38  59
ENDBRANCH  12  13
ENDBRANCH   5   7
ENDBRANCH   2   3
ENDBRANCH   1   2
BRANCH   1  69
ATOM     69  C   UNL A   1      31.791  27.548  26.981  1.00  0.00     0.023 C 
BRANCH  69  70
ATOM     70  C   UNL A   1      31.040  26.638  26.013  1.00  0.00     0.116 C 
BRANCH  70  71
ATOM     71  N   UNL A   1      30.735  25.365  26.628  1.00  0.00    -0.351 N 
ATOM     72  C   UNL A   1      31.223  24.112  26.443  1.00  0.00     0.281 C 
ATOM     73  H   UNL A   1      30.035  25.419  27.318  1.00  0.00     0.163 HD
ATOM     74  O   UNL A   1      30.885  23.311  27.325  1.00  0.00    -0.268 OA
BRANCH  72  75
ATOM     75  C   UNL A   1      32.297  23.750  25.356  1.00  0.00     0.177 C 
ATOM     76  C   UNL A   1      33.746  24.263  25.521  1.00  0.00     0.079 C 
ATOM     77  C   UNL A   1      32.304  22.188  25.431  1.00  0.00     0.106 C 
ATOM     78  C   UNL A   1      34.744  23.595  24.574  1.00  0.00     0.009 C 
ATOM     79  C   UNL A   1      33.343  21.483  24.549  1.00  0.00     0.116 C 
ATOM     80  C   UNL A   1      34.741  22.084  24.760  1.00  0.00     0.028 C 
BRANCH  75  81
ATOM     81  N   UNL A   1      31.789  24.117  24.001  1.00  0.00    -0.331 N 
ATOM     82  H   UNL A   1      30.791  24.291  24.122  1.00  0.00     0.347 HD
ATOM     83  H   UNL A   1      32.128  23.326  23.454  1.00  0.00     0.347 HD
BRANCH  81  84
ATOM     84  C   UNL A   1      32.293  25.243  23.192  1.00  0.00     0.183 C 
ATOM     85  C   UNL A   1      32.697  25.175  21.749  1.00  0.00     0.071 C 
ATOM     86  C   UNL A   1      31.543  26.037  22.164  1.00  0.00     0.071 C 
ENDBRANCH  81  84
ENDBRANCH  75  81
BRANCH  79  87
ATOM     87  N   UNL A   1      33.301  20.037  24.767  1.00  0.00    -0.250 N 
ATOM     88  C   UNL A   1      34.298  19.138  24.520  1.00  0.00     0.220 A 
ATOM     89  N   UNL A   1      32.221  19.416  25.279  1.00  0.00    -0.160 NA
ATOM     90  N   UNL A   1      33.904  17.934  24.866  1.00  0.00    -0.224 NA
ATOM     91  C   UNL A   1      32.636  18.149  25.323  1.00  0.00     0.246 A 
ENDBRANCH  79  87
ENDBRANCH  72  75
ENDBRANCH  70  71
ENDBRANCH  69  70
ENDBRANCH   1  69
TORSDOF 17
ENDMDL
MODEL 3
REMARK VINA RESULT:     -11.1      1.901      3.493
REMARK SMILES O=C(NCCCCNC(=O)[C@@]1([NH2+]C2CC2)CCC[C@@H](n2cncn2)C1)c1ccc(-c2c3nc(c(-c4ccc(S(=O)(=O)[O-])cc4)c4ccc([nH]4)c(-c4ccc(S(=O)(=O)[O-])cc4)c4nc(c(-c5ccc(S(=O)(=O)[O-])cc5)c5ccc2[nH]5)C=C4)C=C3)cc1
REMARK SMILES IDX 5 1 4 2 3 3 1 4 2 5 26 7 27 8 85 9 28 10 84 11 29 12 30 13
REMARK SMILES IDX 31 14 78 15 32 16 83 17 77 18 79 19 33 20 82 21 76 22 75 23
REMARK SMILES IDX 34 25 64 26 45 27 63 28 46 29 49 30 62 31 80 32 47 33 48 34
REMARK SMILES IDX 61 36 81 37 50 38 35 39 36 40 44 41 37 42 43 43 38 44 39 45
REMARK SMILES IDX 40 46 41 47 42 48 65 49 66 50 74 51 67 52 73 53 68 54 69 55
REMARK SMILES IDX 70 56 71 57 72 58 51 59 52 60 60 61 53 62 59 63 54 64 55 65
REMARK SMILES IDX 56 66 57 67 58 68 6 69 7 70 8 71 9 72 10 74 11 75 16 76
REMARK SMILES IDX 25 77 17 78 19 79 18 80 12 81 13 84 14 85 15 86 20 87 21 88
REMARK SMILES IDX 24 89 22 90 23 91
REMARK H PARENT 3 6 79 24 49 35 8 73 12 82 12 83
REMARK Flexibility Score: inf
ROOT
ATOM      1  C   UNL A   1      38.822  21.601  25.680  1.00  0.00     0.023 C 
ENDROOT
BRANCH   1   2
ATOM      2  C   UNL A   1      39.889  20.811  26.439  1.00  0.00     0.116 C 
BRANCH   2   3
ATOM      3  N   UNL A   1      41.167  20.753  25.753  1.00  0.00    -0.352 N 
ATOM      4  O   UNL A   1      43.193  21.222  24.986  1.00  0.00    -0.269 OA
ATOM      5  C   UNL A   1      42.262  21.572  25.717  1.00  0.00     0.251 C 
ATOM      6  H   UNL A   1      41.268  19.949  25.194  1.00  0.00     0.163 HD
BRANCH   5   7
ATOM      7  C   UNL A   1      42.363  22.860  26.448  1.00  0.00     0.039 A 
ATOM      8  C   UNL A   1      42.985  23.020  27.688  1.00  0.00     0.014 A 
ATOM      9  C   UNL A   1      41.801  23.987  25.826  1.00  0.00     0.014 A 
ATOM     10  C   UNL A   1      42.940  24.233  28.355  1.00  0.00     0.010 A 
ATOM     11  C   UNL A   1      41.803  25.221  26.465  1.00  0.00     0.010 A 
ATOM     12  C   UNL A   1      42.331  25.328  27.753  1.00  0.00    -0.014 A 
BRANCH  12  13
ATOM     13  C   UNL A   1      42.367  26.593  28.482  1.00  0.00     0.031 A 
ATOM     14  C   UNL A   1      43.511  27.506  28.170  1.00  0.00     0.074 A 
ATOM     15  C   UNL A   1      41.342  26.982  29.263  1.00  0.00     0.049 A 
ATOM     16  N   UNL A   1      44.305  28.136  28.978  1.00  0.00    -0.248 NA
ATOM     17  C   UNL A   1      43.846  27.688  26.745  1.00  0.00     0.031 C 
ATOM     18  C   UNL A   1      40.041  26.321  29.408  1.00  0.00     0.029 A 
ATOM     19  N   UNL A   1      41.186  28.143  29.958  1.00  0.00    -0.354 N 
ATOM     20  C   UNL A   1      45.129  28.925  28.173  1.00  0.00     0.074 A 
ATOM     21  C   UNL A   1      44.877  28.527  26.812  1.00  0.00     0.031 C 
ATOM     22  C   UNL A   1      39.154  27.210  29.899  1.00  0.00     0.029 A 
ATOM     23  C   UNL A   1      39.855  28.444  30.213  1.00  0.00     0.049 A 
ATOM     24  H   UNL A   1      41.937  28.709  30.248  1.00  0.00     0.167 HD
ATOM     25  C   UNL A   1      45.840  29.989  28.638  1.00  0.00     0.031 A 
ATOM     26  C   UNL A   1      39.347  29.659  30.527  1.00  0.00     0.031 A 
ATOM     27  C   UNL A   1      46.028  29.961  30.059  1.00  0.00     0.049 A 
ATOM     28  C   UNL A   1      40.460  30.511  31.009  1.00  0.00     0.074 A 
ATOM     29  C   UNL A   1      46.665  29.116  30.944  1.00  0.00     0.029 A 
ATOM     30  N   UNL A   1      45.246  30.788  30.827  1.00  0.00    -0.354 N 
ATOM     31  N   UNL A   1      41.125  30.286  32.107  1.00  0.00    -0.248 NA
ATOM     32  C   UNL A   1      41.104  31.414  30.069  1.00  0.00     0.031 C 
ATOM     33  C   UNL A   1      45.881  29.165  32.134  1.00  0.00     0.029 A 
ATOM     34  C   UNL A   1      44.824  30.049  31.902  1.00  0.00     0.049 A 
ATOM     35  H   UNL A   1      45.029  31.730  30.641  1.00  0.00     0.167 HD
ATOM     36  C   UNL A   1      42.424  30.688  31.833  1.00  0.00     0.074 A 
ATOM     37  C   UNL A   1      42.321  31.480  30.612  1.00  0.00     0.031 C 
ATOM     38  C   UNL A   1      43.492  30.117  32.466  1.00  0.00     0.031 A 
BRANCH  25  39
ATOM     39  C   UNL A   1      46.071  31.240  27.821  1.00  0.00    -0.014 A 
ATOM     40  C   UNL A   1      47.305  31.426  27.165  1.00  0.00     0.010 A 
ATOM     41  C   UNL A   1      45.222  32.364  27.920  1.00  0.00     0.010 A 
ATOM     42  C   UNL A   1      47.697  32.690  26.699  1.00  0.00     0.020 A 
ATOM     43  C   UNL A   1      45.583  33.616  27.420  1.00  0.00     0.020 A 
ATOM     44  C   UNL A   1      46.838  33.781  26.852  1.00  0.00     0.054 A 
BRANCH  44  45
ATOM     45  S   UNL A   1      47.411  35.438  26.399  1.00  0.00     0.124 S 
ATOM     46  O   UNL A   1      48.220  35.160  25.216  1.00  0.00    -0.237 OA
ATOM     47  O   UNL A   1      46.157  36.148  26.158  1.00  0.00    -0.237 OA
ATOM     48  O   UNL A   1      48.153  35.877  27.578  1.00  0.00    -0.744 OA
ENDBRANCH  44  45
ENDBRANCH  25  39
BRANCH  26  49
ATOM     49  C   UNL A   1      38.045  30.197  30.063  1.00  0.00    -0.014 A 
ATOM     50  C   UNL A   1      37.180  30.875  30.936  1.00  0.00     0.010 A 
ATOM     51  C   UNL A   1      37.754  30.243  28.682  1.00  0.00     0.010 A 
ATOM     52  C   UNL A   1      36.079  31.596  30.440  1.00  0.00     0.020 A 
ATOM     53  C   UNL A   1      36.655  30.944  28.181  1.00  0.00     0.020 A 
ATOM     54  C   UNL A   1      35.831  31.633  29.065  1.00  0.00     0.054 A 
BRANCH  54  55
ATOM     55  S   UNL A   1      34.491  32.676  28.421  1.00  0.00     0.124 S 
ATOM     56  O   UNL A   1      33.666  31.711  27.701  1.00  0.00    -0.237 OA
ATOM     57  O   UNL A   1      33.905  33.226  29.641  1.00  0.00    -0.237 OA
ATOM     58  O   UNL A   1      35.185  33.649  27.578  1.00  0.00    -0.744 OA
ENDBRANCH  54  55
ENDBRANCH  26  49
BRANCH  38  59
ATOM     59  C   UNL A   1      43.228  29.226  33.658  1.00  0.00    -0.014 A 
ATOM     60  C   UNL A   1      42.767  29.729  34.891  1.00  0.00     0.010 A 
ATOM     61  C   UNL A   1      43.265  27.833  33.476  1.00  0.00     0.010 A 
ATOM     62  C   UNL A   1      42.370  28.863  35.918  1.00  0.00     0.020 A 
ATOM     63  C   UNL A   1      42.855  26.963  34.491  1.00  0.00     0.020 A 
ATOM     64  C   UNL A   1      42.411  27.483  35.709  1.00  0.00     0.054 A 
BRANCH  64  65
ATOM     65  S   UNL A   1      41.810  26.373  37.015  1.00  0.00     0.124 S 
ATOM     66  O   UNL A   1      42.896  26.412  37.989  1.00  0.00    -0.237 OA
ATOM     67  O   UNL A   1      40.565  27.012  37.436  1.00  0.00    -0.237 OA
ATOM     68  O   UNL A   1      41.637  25.093  36.330  1.00  0.00    -0.744 OA
ENDBRANCH  64  65
ENDBRANCH  38  59
ENDBRANCH  12  13
ENDBRANCH   5   7
ENDBRANCH   2   3
ENDBRANCH   1   2
BRANCH   1  69
ATOM     69  C   UNL A   1      37.563  20.785  25.351  1.00  0.00     0.023 C 
BRANCH  69  70
ATOM     70  C   UNL A   1      36.341  21.645  25.045  1.00  0.00     0.116 C 
BRANCH  70  71
ATOM     71  N   UNL A   1      35.576  21.905  26.244  1.00  0.00    -0.351 N 
ATOM     72  C   UNL A   1      34.276  21.692  26.571  1.00  0.00     0.281 C 
ATOM     73  H   UNL A   1      36.102  22.318  26.966  1.00  0.00     0.163 HD
ATOM     74  O   UNL A   1      34.038  21.826  27.780  1.00  0.00    -0.268 OA
BRANCH  72  75
ATOM     75  C   UNL A   1      33.213  21.108  25.574  1.00  0.00     0.177 C 
ATOM     76  C   UNL A   1      33.270  21.511  24.082  1.00  0.00     0.079 C 
ATOM     77  C   UNL A   1      33.483  19.572  25.692  1.00  0.00     0.106 C 
ATOM     78  C   UNL A   1      32.386  20.648  23.180  1.00  0.00     0.009 C 
ATOM     79  C   UNL A   1      32.668  18.677  24.750  1.00  0.00     0.116 C 
ATOM     80  C   UNL A   1      32.761  19.177  23.300  1.00  0.00     0.028 C 
BRANCH  75  81
ATOM     81  N   UNL A   1      31.837  21.348  26.103  1.00  0.00    -0.331 N 
ATOM     82  H   UNL A   1      31.911  21.233  27.114  1.00  0.00     0.347 HD
ATOM     83  H   UNL A   1      31.301  20.696  25.532  1.00  0.00     0.347 HD
BRANCH  81  84
ATOM     84  C   UNL A   1      31.065  22.588  25.899  1.00  0.00     0.183 C 
ATOM     85  C   UNL A   1      30.088  23.182  26.871  1.00  0.00     0.071 C 
ATOM     86  C   UNL A   1      31.328  23.937  26.500  1.00  0.00     0.071 C 
ENDBRANCH  81  84
ENDBRANCH  75  81
BRANCH  79  87
ATOM     87  N   UNL A   1      33.067  17.278  24.901  1.00  0.00    -0.250 N 
ATOM     88  C   UNL A   1      34.262  16.720  24.551  1.00  0.00     0.220 A 
ATOM     89  N   UNL A   1      32.255  16.352  25.448  1.00  0.00    -0.160 NA
ATOM     90  N   UNL A   1      34.263  15.444  24.862  1.00  0.00    -0.224 NA
ATOM     91  C   UNL A   1      33.025  15.263  25.406  1.00  0.00     0.246 A 
ENDBRANCH  79  87
ENDBRANCH  72  75
ENDBRANCH  70  71
ENDBRANCH  69  70
ENDBRANCH   1  69
TORSDOF 17
ENDMDL
