MODEL 1
REMARK VINA RESULT:     -11.7      0.000      0.000
REMARK SMILES Cc1cc2c(c(C)c1Cl)C=C(C(=O)NCCCCNC(=O)c1ccc(-c3c4nc(c(-c5ccc(S(=O)(=O)[O-])cc5)c5ccc([nH]5)c(-c5ccc(S(=O)(=O)[O-])cc5)c5nc(c(-c6ccc(S(=O)(=O)[O-])cc6)c6ccc3[nH]6)C=C5)C=C4)cc1)[C@@H](C(F)(F)F)O2
REMARK SMILES IDX 17 1 16 2 15 3 14 4 12 5 13 6 11 8 1 9 2 10 3 11 8 12 4 13
REMARK SMILES IDX 6 14 9 15 5 16 87 17 7 18 10 19 82 20 83 21 84 22 85 23
REMARK SMILES IDX 86 24 18 25 19 26 20 27 21 29 22 30 23 31 81 32 24 33 80 34
REMARK SMILES IDX 25 35 26 36 27 37 74 38 28 39 79 40 73 41 75 42 29 43 78 44
REMARK SMILES IDX 72 45 71 46 30 48 60 49 41 50 59 51 42 52 45 53 58 54 76 55
REMARK SMILES IDX 43 56 44 57 57 59 77 60 46 61 31 62 32 63 40 64 33 65 39 66
REMARK SMILES IDX 34 67 35 68 36 69 37 70 38 71 61 72 62 73 70 74 63 75 69 76
REMARK SMILES IDX 64 77 65 78 66 79 67 80 68 81 47 82 48 83 56 84 49 85 55 86
REMARK SMILES IDX 50 87 51 88 52 89 53 90 54 91
REMARK H PARENT 14 7 19 28 75 47 45 58
REMARK Flexibility Score: inf
ROOT
ATOM      1  C   UNL A   1      33.840  28.072  25.768  1.00  0.00     0.023 C 
ENDROOT
BRANCH   1   2
ATOM      2  C   UNL A   1      32.663  28.032  24.790  1.00  0.00     0.023 C 
BRANCH   2   3
ATOM      3  C   UNL A   1      32.235  26.624  24.385  1.00  0.00     0.116 C 
BRANCH   3   4
ATOM      4  N   UNL A   1      31.510  25.951  25.448  1.00  0.00    -0.352 N 
ATOM      5  C   UNL A   1      31.517  24.733  26.036  1.00  0.00     0.251 C 
ATOM      6  O   UNL A   1      30.687  24.579  26.937  1.00  0.00    -0.270 OA
ATOM      7  H   UNL A   1      30.830  26.541  25.849  1.00  0.00     0.163 HD
BRANCH   5   8
ATOM      8  C   UNL A   1      32.431  23.605  25.682  1.00  0.00     0.067 C 
ATOM      9  C   UNL A   1      37.364  19.459  24.720  1.00  0.00     0.046 C 
ATOM     10  C   UNL A   1      36.468  20.611  25.087  1.00  0.00    -0.028 A 
ATOM     11  C   UNL A   1      35.088  20.462  24.930  1.00  0.00     0.052 A 
ATOM     12  C   UNL A   1      36.970  21.838  25.568  1.00  0.00     0.047 A 
ATOM     13  C   UNL A   1      34.224  21.508  25.237  1.00  0.00     0.128 A 
ATOM     14  C   UNL A   1      36.100  22.906  25.900  1.00  0.00    -0.021 A 
ATOM     15  Cl  UNL A   1      38.691  22.008  25.750  1.00  0.00    -0.084 Cl
ATOM     16  C   UNL A   1      34.705  22.725  25.728  1.00  0.00     0.022 A 
ATOM     17  O   UNL A   1      32.895  21.242  25.066  1.00  0.00    -0.475 OA
ATOM     18  C   UNL A   1      36.618  24.224  26.429  1.00  0.00     0.047 C 
ATOM     19  C   UNL A   1      33.713  23.750  26.070  1.00  0.00     0.026 C 
ATOM     20  C   UNL A   1      32.020  22.390  24.906  1.00  0.00     0.314 C 
BRANCH  20  21
ATOM     21  C   UNL A   1      31.825  22.675  23.405  1.00  0.00     0.429 C 
ATOM     22  F   UNL A   1      32.821  23.472  22.943  1.00  0.00    -0.167 F 
ATOM     23  F   UNL A   1      31.853  21.550  22.654  1.00  0.00    -0.167 F 
ATOM     24  F   UNL A   1      30.654  23.298  23.142  1.00  0.00    -0.167 F 
ENDBRANCH  20  21
ENDBRANCH   5   8
ENDBRANCH   3   4
ENDBRANCH   2   3
ENDBRANCH   1   2
BRANCH   1  25
ATOM     25  C   UNL A   1      33.480  28.389  27.219  1.00  0.00     0.116 C 
BRANCH  25  26
ATOM     26  N   UNL A   1      33.402  29.814  27.504  1.00  0.00    -0.352 N 
ATOM     27  C   UNL A   1      34.385  30.633  28.009  1.00  0.00     0.251 C 
ATOM     28  H   UNL A   1      32.539  30.247  27.310  1.00  0.00     0.163 HD
ATOM     29  O   UNL A   1      34.140  31.805  28.277  1.00  0.00    -0.269 OA
BRANCH  27  30
ATOM     30  C   UNL A   1      35.724  30.068  28.261  1.00  0.00     0.039 A 
ATOM     31  C   UNL A   1      36.674  30.105  27.238  1.00  0.00     0.014 A 
ATOM     32  C   UNL A   1      36.048  29.556  29.520  1.00  0.00     0.014 A 
ATOM     33  C   UNL A   1      37.980  29.690  27.501  1.00  0.00     0.010 A 
ATOM     34  C   UNL A   1      37.364  29.195  29.794  1.00  0.00     0.010 A 
ATOM     35  C   UNL A   1      38.341  29.266  28.790  1.00  0.00    -0.014 A 
BRANCH  35  36
ATOM     36  C   UNL A   1      39.737  28.890  29.117  1.00  0.00     0.031 A 
ATOM     37  C   UNL A   1      40.648  29.896  29.760  1.00  0.00     0.074 A 
ATOM     38  C   UNL A   1      40.202  27.675  28.768  1.00  0.00     0.049 A 
ATOM     39  N   UNL A   1      41.926  29.803  30.020  1.00  0.00    -0.248 NA
ATOM     40  C   UNL A   1      40.047  31.185  30.139  1.00  0.00     0.031 C 
ATOM     41  C   UNL A   1      39.418  26.620  28.120  1.00  0.00     0.029 A 
ATOM     42  N   UNL A   1      41.451  27.126  28.902  1.00  0.00    -0.354 N 
ATOM     43  C   UNL A   1      42.287  31.024  30.575  1.00  0.00     0.074 A 
ATOM     44  C   UNL A   1      41.102  31.856  30.579  1.00  0.00     0.031 C 
ATOM     45  C   UNL A   1      40.201  25.545  27.933  1.00  0.00     0.029 A 
ATOM     46  C   UNL A   1      41.547  25.847  28.409  1.00  0.00     0.049 A 
ATOM     47  H   UNL A   1      42.208  27.603  29.313  1.00  0.00     0.167 HD
ATOM     48  C   UNL A   1      43.493  31.413  31.054  1.00  0.00     0.031 A 
ATOM     49  C   UNL A   1      42.602  25.013  28.340  1.00  0.00     0.031 A 
ATOM     50  C   UNL A   1      44.665  30.581  31.057  1.00  0.00     0.049 A 
ATOM     51  C   UNL A   1      43.933  25.470  28.869  1.00  0.00     0.074 A 
ATOM     52  C   UNL A   1      45.928  30.874  31.543  1.00  0.00     0.029 A 
ATOM     53  N   UNL A   1      44.719  29.290  30.553  1.00  0.00    -0.354 N 
ATOM     54  N   UNL A   1      44.253  26.624  29.403  1.00  0.00    -0.248 NA
ATOM     55  C   UNL A   1      45.043  24.510  28.789  1.00  0.00     0.031 C 
ATOM     56  C   UNL A   1      46.754  29.770  31.304  1.00  0.00     0.029 A 
ATOM     57  C   UNL A   1      45.994  28.774  30.710  1.00  0.00     0.049 A 
ATOM     58  H   UNL A   1      43.962  28.810  30.145  1.00  0.00     0.167 HD
ATOM     59  C   UNL A   1      45.597  26.523  29.743  1.00  0.00     0.074 A 
ATOM     60  C   UNL A   1      46.025  25.191  29.365  1.00  0.00     0.031 C 
ATOM     61  C   UNL A   1      46.403  27.449  30.319  1.00  0.00     0.031 A 
BRANCH  48  62
ATOM     62  C   UNL A   1      43.595  32.807  31.608  1.00  0.00    -0.014 A 
ATOM     63  C   UNL A   1      43.347  33.062  32.970  1.00  0.00     0.010 A 
ATOM     64  C   UNL A   1      43.963  33.872  30.768  1.00  0.00     0.010 A 
ATOM     65  C   UNL A   1      43.426  34.364  33.471  1.00  0.00     0.020 A 
ATOM     66  C   UNL A   1      44.067  35.172  31.271  1.00  0.00     0.020 A 
ATOM     67  C   UNL A   1      43.780  35.412  32.616  1.00  0.00     0.054 A 
BRANCH  67  68
ATOM     68  S   UNL A   1      43.887  37.089  33.298  1.00  0.00     0.124 S 
ATOM     69  O   UNL A   1      43.881  37.907  32.087  1.00  0.00    -0.237 OA
ATOM     70  O   UNL A   1      42.684  37.179  34.122  1.00  0.00    -0.237 OA
ATOM     71  O   UNL A   1      45.146  37.082  34.039  1.00  0.00    -0.744 OA
ENDBRANCH  67  68
ENDBRANCH  48  62
BRANCH  49  72
ATOM     72  C   UNL A   1      42.430  23.651  27.769  1.00  0.00    -0.014 A 
ATOM     73  C   UNL A   1      42.700  23.415  26.410  1.00  0.00     0.010 A 
ATOM     74  C   UNL A   1      42.033  22.577  28.586  1.00  0.00     0.010 A 
ATOM     75  C   UNL A   1      42.576  22.130  25.876  1.00  0.00     0.020 A 
ATOM     76  C   UNL A   1      41.930  21.286  28.060  1.00  0.00     0.020 A 
ATOM     77  C   UNL A   1      42.197  21.072  26.707  1.00  0.00     0.054 A 
BRANCH  77  78
ATOM     78  S   UNL A   1      42.122  19.398  26.009  1.00  0.00     0.124 S 
ATOM     79  O   UNL A   1      40.692  19.234  25.766  1.00  0.00    -0.237 OA
ATOM     80  O   UNL A   1      42.958  19.515  24.817  1.00  0.00    -0.237 OA
ATOM     81  O   UNL A   1      42.679  18.561  27.071  1.00  0.00    -0.744 OA
ENDBRANCH  77  78
ENDBRANCH  49  72
BRANCH  61  82
ATOM     82  C   UNL A   1      47.825  27.046  30.595  1.00  0.00    -0.014 A 
ATOM     83  C   UNL A   1      48.867  27.422  29.730  1.00  0.00     0.010 A 
ATOM     84  C   UNL A   1      48.127  26.319  31.761  1.00  0.00     0.010 A 
ATOM     85  C   UNL A   1      50.185  27.051  30.011  1.00  0.00     0.020 A 
ATOM     86  C   UNL A   1      49.444  25.965  32.056  1.00  0.00     0.020 A 
ATOM     87  C   UNL A   1      50.464  26.321  31.171  1.00  0.00     0.054 A 
BRANCH  87  88
ATOM     88  S   UNL A   1      52.186  25.879  31.531  1.00  0.00     0.124 S 
ATOM     89  O   UNL A   1      52.045  24.530  32.074  1.00  0.00    -0.237 OA
ATOM     90  O   UNL A   1      52.821  25.964  30.218  1.00  0.00    -0.237 OA
ATOM     91  O   UNL A   1      52.612  26.896  32.489  1.00  0.00    -0.744 OA
ENDBRANCH  87  88
ENDBRANCH  61  82
ENDBRANCH  35  36
ENDBRANCH  27  30
ENDBRANCH  25  26
ENDBRANCH   1  25
TORSDOF 15
ENDMDL
MODEL 2
REMARK VINA RESULT:     -11.0      1.382      2.319
REMARK SMILES Cc1cc2c(c(C)c1Cl)C=C(C(=O)NCCCCNC(=O)c1ccc(-c3c4nc(c(-c5ccc(S(=O)(=O)[O-])cc5)c5ccc([nH]5)c(-c5ccc(S(=O)(=O)[O-])cc5)c5nc(c(-c6ccc(S(=O)(=O)[O-])cc6)c6ccc3[nH]6)C=C5)C=C4)cc1)[C@@H](C(F)(F)F)O2
REMARK SMILES IDX 17 1 16 2 15 3 14 4 12 5 13 6 11 8 1 9 2 10 3 11 8 12 4 13
REMARK SMILES IDX 6 14 9 15 5 16 87 17 7 18 10 19 82 20 83 21 84 22 85 23
REMARK SMILES IDX 86 24 18 25 19 26 20 27 21 29 22 30 23 31 81 32 24 33 80 34
REMARK SMILES IDX 25 35 26 36 27 37 74 38 28 39 79 40 73 41 75 42 29 43 78 44
REMARK SMILES IDX 72 45 71 46 30 48 60 49 41 50 59 51 42 52 45 53 58 54 76 55
REMARK SMILES IDX 43 56 44 57 57 59 77 60 46 61 31 62 32 63 40 64 33 65 39 66
REMARK SMILES IDX 34 67 35 68 36 69 37 70 38 71 61 72 62 73 70 74 63 75 69 76
REMARK SMILES IDX 64 77 65 78 66 79 67 80 68 81 47 82 48 83 56 84 49 85 55 86
REMARK SMILES IDX 50 87 51 88 52 89 53 90 54 91
REMARK H PARENT 14 7 19 28 75 47 45 58
REMARK Flexibility Score: inf
ROOT
ATOM      1  C   UNL A   1      34.092  28.433  25.508  1.00  0.00     0.023 C 
ENDROOT
BRANCH   1   2
ATOM      2  C   UNL A   1      33.307  29.383  24.600  1.00  0.00     0.023 C 
BRANCH   2   3
ATOM      3  C   UNL A   1      33.579  29.191  23.111  1.00  0.00     0.116 C 
BRANCH   3   4
ATOM      4  N   UNL A   1      32.484  28.509  22.443  1.00  0.00    -0.352 N 
ATOM      5  C   UNL A   1      31.785  27.363  22.605  1.00  0.00     0.251 C 
ATOM      6  O   UNL A   1      30.904  27.161  21.764  1.00  0.00    -0.270 OA
ATOM      7  H   UNL A   1      32.166  29.018  21.662  1.00  0.00     0.163 HD
BRANCH   5   8
ATOM      8  C   UNL A   1      31.998  26.365  23.697  1.00  0.00     0.067 C 
ATOM      9  C   UNL A   1      33.826  21.481  27.601  1.00  0.00     0.046 C 
ATOM     10  C   UNL A   1      33.632  22.469  26.484  1.00  0.00    -0.028 A 
ATOM     11  C   UNL A   1      32.847  23.601  26.720  1.00  0.00     0.052 A 
ATOM     12  C   UNL A   1      34.199  22.289  25.205  1.00  0.00     0.047 A 
ATOM     13  C   UNL A   1      32.624  24.530  25.710  1.00  0.00     0.128 A 
ATOM     14  C   UNL A   1      33.993  23.236  24.172  1.00  0.00    -0.021 A 
ATOM     15  Cl  UNL A   1      35.166  20.870  24.928  1.00  0.00    -0.084 Cl
ATOM     16  C   UNL A   1      33.190  24.372  24.441  1.00  0.00     0.022 A 
ATOM     17  O   UNL A   1      31.861  25.607  26.061  1.00  0.00    -0.475 OA
ATOM     18  C   UNL A   1      34.602  23.066  22.799  1.00  0.00     0.047 C 
ATOM     19  C   UNL A   1      32.938  25.430  23.457  1.00  0.00     0.026 C 
ATOM     20  C   UNL A   1      31.215  26.324  24.975  1.00  0.00     0.314 C 
BRANCH  20  21
ATOM     21  C   UNL A   1      29.786  25.782  24.786  1.00  0.00     0.429 C 
ATOM     22  F   UNL A   1      28.975  26.752  24.295  1.00  0.00    -0.167 F 
ATOM     23  F   UNL A   1      29.732  24.755  23.906  1.00  0.00    -0.167 F 
ATOM     24  F   UNL A   1      29.239  25.344  25.941  1.00  0.00    -0.167 F 
ENDBRANCH  20  21
ENDBRANCH   5   8
ENDBRANCH   3   4
ENDBRANCH   2   3
ENDBRANCH   1   2
BRANCH   1  25
ATOM     25  C   UNL A   1      33.767  28.528  26.999  1.00  0.00     0.116 C 
BRANCH  25  26
ATOM     26  N   UNL A   1      33.603  29.894  27.476  1.00  0.00    -0.352 N 
ATOM     27  C   UNL A   1      34.520  30.675  28.140  1.00  0.00     0.251 C 
ATOM     28  H   UNL A   1      32.729  30.311  27.301  1.00  0.00     0.163 HD
ATOM     29  O   UNL A   1      34.204  31.784  28.556  1.00  0.00    -0.269 OA
BRANCH  27  30
ATOM     30  C   UNL A   1      35.873  30.139  28.378  1.00  0.00     0.039 A 
ATOM     31  C   UNL A   1      36.830  30.251  27.367  1.00  0.00     0.014 A 
ATOM     32  C   UNL A   1      36.203  29.580  29.616  1.00  0.00     0.014 A 
ATOM     33  C   UNL A   1      38.146  29.864  27.623  1.00  0.00     0.010 A 
ATOM     34  C   UNL A   1      37.527  29.247  29.885  1.00  0.00     0.010 A 
ATOM     35  C   UNL A   1      38.509  29.393  28.894  1.00  0.00    -0.014 A 
BRANCH  35  36
ATOM     36  C   UNL A   1      39.914  29.045  29.217  1.00  0.00     0.031 A 
ATOM     37  C   UNL A   1      40.812  30.074  29.840  1.00  0.00     0.074 A 
ATOM     38  C   UNL A   1      40.396  27.832  28.882  1.00  0.00     0.049 A 
ATOM     39  N   UNL A   1      42.094  30.005  30.092  1.00  0.00    -0.248 NA
ATOM     40  C   UNL A   1      40.192  31.358  30.206  1.00  0.00     0.031 C 
ATOM     41  C   UNL A   1      39.625  26.756  28.253  1.00  0.00     0.029 A 
ATOM     42  N   UNL A   1      41.655  27.306  29.014  1.00  0.00    -0.354 N 
ATOM     43  C   UNL A   1      42.438  31.240  30.629  1.00  0.00     0.074 A 
ATOM     44  C   UNL A   1      41.239  32.052  30.629  1.00  0.00     0.031 C 
ATOM     45  C   UNL A   1      40.425  25.691  28.075  1.00  0.00     0.029 A 
ATOM     46  C   UNL A   1      41.769  26.022  28.538  1.00  0.00     0.049 A 
ATOM     47  H   UNL A   1      42.407  27.801  29.413  1.00  0.00     0.167 HD
ATOM     48  C   UNL A   1      43.640  31.655  31.094  1.00  0.00     0.031 A 
ATOM     49  C   UNL A   1      42.838  25.205  28.473  1.00  0.00     0.031 A 
ATOM     50  C   UNL A   1      44.826  30.842  31.100  1.00  0.00     0.049 A 
ATOM     51  C   UNL A   1      44.164  25.691  28.987  1.00  0.00     0.074 A 
ATOM     52  C   UNL A   1      46.086  31.162  31.574  1.00  0.00     0.029 A 
ATOM     53  N   UNL A   1      44.898  29.545  30.614  1.00  0.00    -0.354 N 
ATOM     54  N   UNL A   1      44.468  26.857  29.504  1.00  0.00    -0.248 NA
ATOM     55  C   UNL A   1      45.289  24.748  28.913  1.00  0.00     0.031 C 
ATOM     56  C   UNL A   1      46.930  30.069  31.344  1.00  0.00     0.029 A 
ATOM     57  C   UNL A   1      46.182  29.053  30.769  1.00  0.00     0.049 A 
ATOM     58  H   UNL A   1      44.146  29.048  30.218  1.00  0.00     0.167 HD
ATOM     59  C   UNL A   1      45.815  26.783  29.835  1.00  0.00     0.074 A 
ATOM     60  C   UNL A   1      46.264  25.453  29.472  1.00  0.00     0.031 C 
ATOM     61  C   UNL A   1      46.611  27.729  30.393  1.00  0.00     0.031 A 
BRANCH  48  62
ATOM     62  C   UNL A   1      43.723  33.058  31.629  1.00  0.00    -0.014 A 
ATOM     63  C   UNL A   1      44.117  34.125  30.799  1.00  0.00     0.010 A 
ATOM     64  C   UNL A   1      43.382  33.320  32.967  1.00  0.00     0.010 A 
ATOM     65  C   UNL A   1      44.209  35.421  31.312  1.00  0.00     0.020 A 
ATOM     66  C   UNL A   1      43.450  34.620  33.477  1.00  0.00     0.020 A 
ATOM     67  C   UNL A   1      43.879  35.660  32.649  1.00  0.00     0.054 A 
BRANCH  67  68
ATOM     68  S   UNL A   1      43.995  37.356  33.282  1.00  0.00     0.124 S 
ATOM     69  O   UNL A   1      45.325  37.360  33.887  1.00  0.00    -0.237 OA
ATOM     70  O   UNL A   1      43.853  38.161  32.072  1.00  0.00    -0.237 OA
ATOM     71  O   UNL A   1      42.882  37.451  34.223  1.00  0.00    -0.744 OA
ENDBRANCH  67  68
ENDBRANCH  48  62
BRANCH  49  72
ATOM     72  C   UNL A   1      42.684  23.833  27.921  1.00  0.00    -0.014 A 
ATOM     73  C   UNL A   1      42.307  22.771  28.762  1.00  0.00     0.010 A 
ATOM     74  C   UNL A   1      42.875  23.587  26.549  1.00  0.00     0.010 A 
ATOM     75  C   UNL A   1      42.124  21.487  28.242  1.00  0.00     0.020 A 
ATOM     76  C   UNL A   1      42.671  22.308  26.022  1.00  0.00     0.020 A 
ATOM     77  C   UNL A   1      42.302  21.265  26.874  1.00  0.00     0.054 A 
BRANCH  77  78
ATOM     78  S   UNL A   1      41.980  19.607  26.210  1.00  0.00     0.124 S 
ATOM     79  O   UNL A   1      42.492  18.749  27.273  1.00  0.00    -0.237 OA
ATOM     80  O   UNL A   1      40.529  19.611  26.041  1.00  0.00    -0.237 OA
ATOM     81  O   UNL A   1      42.744  19.585  24.963  1.00  0.00    -0.744 OA
ENDBRANCH  77  78
ENDBRANCH  49  72
BRANCH  61  82
ATOM     82  C   UNL A   1      48.041  27.353  30.665  1.00  0.00    -0.014 A 
ATOM     83  C   UNL A   1      48.434  26.852  31.917  1.00  0.00     0.010 A 
ATOM     84  C   UNL A   1      48.994  27.460  29.636  1.00  0.00     0.010 A 
ATOM     85  C   UNL A   1      49.764  26.493  32.148  1.00  0.00     0.020 A 
ATOM     86  C   UNL A   1      50.320  27.082  29.855  1.00  0.00     0.020 A 
ATOM     87  C   UNL A   1      50.700  26.614  31.115  1.00  0.00     0.054 A 
BRANCH  87  88
ATOM     88  S   UNL A   1      52.415  26.111  31.427  1.00  0.00     0.124 S 
ATOM     89  O   UNL A   1      53.010  26.222  30.098  1.00  0.00    -0.237 OA
ATOM     90  O   UNL A   1      52.867  27.101  32.403  1.00  0.00    -0.237 OA
ATOM     91  O   UNL A   1      52.288  24.750  31.942  1.00  0.00    -0.744 OA
ENDBRANCH  87  88
ENDBRANCH  61  82
ENDBRANCH  35  36
ENDBRANCH  27  30
ENDBRANCH  25  26
ENDBRANCH   1  25
TORSDOF 15
ENDMDL
MODEL 3
REMARK VINA RESULT:     -10.9      1.614      2.237
REMARK SMILES Cc1cc2c(c(C)c1Cl)C=C(C(=O)NCCCCNC(=O)c1ccc(-c3c4nc(c(-c5ccc(S(=O)(=O)[O-])cc5)c5ccc([nH]5)c(-c5ccc(S(=O)(=O)[O-])cc5)c5nc(c(-c6ccc(S(=O)(=O)[O-])cc6)c6ccc3[nH]6)C=C5)C=C4)cc1)[C@@H](C(F)(F)F)O2
REMARK SMILES IDX 17 1 16 2 15 3 14 4 12 5 13 6 11 8 1 9 2 10 3 11 8 12 4 13
REMARK SMILES IDX 6 14 9 15 5 16 87 17 7 18 10 19 82 20 83 21 84 22 85 23
REMARK SMILES IDX 86 24 18 25 19 26 20 27 21 29 22 30 23 31 81 32 24 33 80 34
REMARK SMILES IDX 25 35 26 36 27 37 74 38 28 39 79 40 73 41 75 42 29 43 78 44
REMARK SMILES IDX 72 45 71 46 30 48 60 49 41 50 59 51 42 52 45 53 58 54 76 55
REMARK SMILES IDX 43 56 44 57 57 59 77 60 46 61 31 62 32 63 40 64 33 65 39 66
REMARK SMILES IDX 34 67 35 68 36 69 37 70 38 71 61 72 62 73 70 74 63 75 69 76
REMARK SMILES IDX 64 77 65 78 66 79 67 80 68 81 47 82 48 83 56 84 49 85 55 86
REMARK SMILES IDX 50 87 51 88 52 89 53 90 54 91
REMARK H PARENT 14 7 19 28 75 47 45 58
REMARK Flexibility Score: inf
ROOT
ATOM      1  C   UNL A   1      32.905  27.951  26.261  1.00  0.00     0.023 C 
ENDROOT
BRANCH   1   2
ATOM      2  C   UNL A   1      33.795  26.818  25.743  1.00  0.00     0.023 C 
BRANCH   2   3
ATOM      3  C   UNL A   1      33.942  26.784  24.225  1.00  0.00     0.116 C 
BRANCH   3   4
ATOM      4  N   UNL A   1      32.692  26.445  23.567  1.00  0.00    -0.352 N 
ATOM      5  C   UNL A   1      31.917  25.347  23.417  1.00  0.00     0.251 C 
ATOM      6  O   UNL A   1      30.897  25.512  22.740  1.00  0.00    -0.270 OA
ATOM      7  H   UNL A   1      32.306  27.226  23.105  1.00  0.00     0.163 HD
BRANCH   5   8
ATOM      8  C   UNL A   1      32.200  24.000  23.998  1.00  0.00     0.067 C 
ATOM      9  C   UNL A   1      33.255  17.697  25.264  1.00  0.00     0.046 C 
ATOM     10  C   UNL A   1      32.963  19.040  24.650  1.00  0.00    -0.028 A 
ATOM     11  C   UNL A   1      33.153  20.185  25.427  1.00  0.00     0.052 A 
ATOM     12  C   UNL A   1      32.493  19.184  23.329  1.00  0.00     0.047 A 
ATOM     13  C   UNL A   1      32.876  21.446  24.908  1.00  0.00     0.128 A 
ATOM     14  C   UNL A   1      32.223  20.463  22.782  1.00  0.00    -0.021 A 
ATOM     15  Cl  UNL A   1      32.256  17.746  22.380  1.00  0.00    -0.084 Cl
ATOM     16  C   UNL A   1      32.422  21.605  23.596  1.00  0.00     0.022 A 
ATOM     17  O   UNL A   1      33.120  22.494  25.749  1.00  0.00    -0.475 OA
ATOM     18  C   UNL A   1      31.730  20.637  21.364  1.00  0.00     0.047 C 
ATOM     19  C   UNL A   1      32.206  22.977  23.122  1.00  0.00     0.026 C 
ATOM     20  C   UNL A   1      32.422  23.735  25.457  1.00  0.00     0.314 C 
BRANCH  20  21
ATOM     21  C   UNL A   1      31.123  23.794  26.281  1.00  0.00     0.429 C 
ATOM     22  F   UNL A   1      30.128  23.129  25.643  1.00  0.00    -0.167 F 
ATOM     23  F   UNL A   1      31.253  23.216  27.498  1.00  0.00    -0.167 F 
ATOM     24  F   UNL A   1      30.696  25.060  26.487  1.00  0.00    -0.167 F 
ENDBRANCH  20  21
ENDBRANCH   5   8
ENDBRANCH   3   4
ENDBRANCH   2   3
ENDBRANCH   1   2
BRANCH   1  25
ATOM     25  C   UNL A   1      33.281  28.510  27.634  1.00  0.00     0.116 C 
BRANCH  25  26
ATOM     26  N   UNL A   1      33.264  29.964  27.697  1.00  0.00    -0.352 N 
ATOM     27  C   UNL A   1      34.301  30.811  28.010  1.00  0.00     0.251 C 
ATOM     28  H   UNL A   1      32.404  30.395  27.490  1.00  0.00     0.163 HD
ATOM     29  O   UNL A   1      34.109  32.019  28.106  1.00  0.00    -0.269 OA
BRANCH  27  30
ATOM     30  C   UNL A   1      35.636  30.239  28.267  1.00  0.00     0.039 A 
ATOM     31  C   UNL A   1      36.570  30.213  27.228  1.00  0.00     0.014 A 
ATOM     32  C   UNL A   1      35.975  29.783  29.544  1.00  0.00     0.014 A 
ATOM     33  C   UNL A   1      37.874  29.792  27.489  1.00  0.00     0.010 A 
ATOM     34  C   UNL A   1      37.290  29.416  29.813  1.00  0.00     0.010 A 
ATOM     35  C   UNL A   1      38.250  29.425  28.791  1.00  0.00    -0.014 A 
BRANCH  35  36
ATOM     36  C   UNL A   1      39.647  29.044  29.113  1.00  0.00     0.031 A 
ATOM     37  C   UNL A   1      40.566  30.050  29.744  1.00  0.00     0.074 A 
ATOM     38  C   UNL A   1      40.104  27.824  28.770  1.00  0.00     0.049 A 
ATOM     39  N   UNL A   1      41.846  29.953  29.997  1.00  0.00    -0.248 NA
ATOM     40  C   UNL A   1      39.973  31.345  30.117  1.00  0.00     0.031 C 
ATOM     41  C   UNL A   1      39.311  26.769  28.134  1.00  0.00     0.029 A 
ATOM     42  N   UNL A   1      41.351  27.270  28.900  1.00  0.00    -0.354 N 
ATOM     43  C   UNL A   1      42.215  31.176  30.542  1.00  0.00     0.074 A 
ATOM     44  C   UNL A   1      41.034  32.013  30.546  1.00  0.00     0.031 C 
ATOM     45  C   UNL A   1      40.088  25.689  27.949  1.00  0.00     0.029 A 
ATOM     46  C   UNL A   1      41.438  25.988  28.416  1.00  0.00     0.049 A 
ATOM     47  H   UNL A   1      42.113  27.746  29.304  1.00  0.00     0.167 HD
ATOM     48  C   UNL A   1      43.425  31.562  31.011  1.00  0.00     0.031 A 
ATOM     49  C   UNL A   1      42.489  25.148  28.346  1.00  0.00     0.031 A 
ATOM     50  C   UNL A   1      44.594  30.725  31.014  1.00  0.00     0.049 A 
ATOM     51  C   UNL A   1      43.825  25.602  28.865  1.00  0.00     0.074 A 
ATOM     52  C   UNL A   1      45.860  31.014  31.491  1.00  0.00     0.029 A 
ATOM     53  N   UNL A   1      44.639  29.430  30.519  1.00  0.00    -0.354 N 
ATOM     54  N   UNL A   1      44.153  26.758  29.390  1.00  0.00    -0.248 NA
ATOM     55  C   UNL A   1      44.929  24.636  28.786  1.00  0.00     0.031 C 
ATOM     56  C   UNL A   1      46.680  29.905  31.255  1.00  0.00     0.029 A 
ATOM     57  C   UNL A   1      45.912  28.909  30.673  1.00  0.00     0.049 A 
ATOM     58  H   UNL A   1      43.877  28.951  30.119  1.00  0.00     0.167 HD
ATOM     59  C   UNL A   1      45.498  26.653  29.723  1.00  0.00     0.074 A 
ATOM     60  C   UNL A   1      45.919  25.316  29.352  1.00  0.00     0.031 C 
ATOM     61  C   UNL A   1      46.313  27.579  30.288  1.00  0.00     0.031 A 
BRANCH  48  62
ATOM     62  C   UNL A   1      43.537  32.960  31.556  1.00  0.00    -0.014 A 
ATOM     63  C   UNL A   1      43.934  34.027  30.728  1.00  0.00     0.010 A 
ATOM     64  C   UNL A   1      43.222  33.216  32.901  1.00  0.00     0.010 A 
ATOM     65  C   UNL A   1      44.053  35.318  31.249  1.00  0.00     0.020 A 
ATOM     66  C   UNL A   1      43.317  34.511  33.420  1.00  0.00     0.020 A 
ATOM     67  C   UNL A   1      43.749  35.551  32.593  1.00  0.00     0.054 A 
BRANCH  67  68
ATOM     68  S   UNL A   1      43.900  37.239  33.238  1.00  0.00     0.124 S 
ATOM     69  O   UNL A   1      42.766  37.313  34.156  1.00  0.00    -0.237 OA
ATOM     70  O   UNL A   1      45.218  37.226  33.867  1.00  0.00    -0.237 OA
ATOM     71  O   UNL A   1      43.792  38.076  32.045  1.00  0.00    -0.744 OA
ENDBRANCH  67  68
ENDBRANCH  48  62
BRANCH  49  72
ATOM     72  C   UNL A   1      42.307  23.783  27.786  1.00  0.00    -0.014 A 
ATOM     73  C   UNL A   1      42.577  23.534  26.429  1.00  0.00     0.010 A 
ATOM     74  C   UNL A   1      41.901  22.719  28.611  1.00  0.00     0.010 A 
ATOM     75  C   UNL A   1      42.444  22.246  25.906  1.00  0.00     0.020 A 
ATOM     76  C   UNL A   1      41.788  21.424  28.095  1.00  0.00     0.020 A 
ATOM     77  C   UNL A   1      42.055  21.197  26.744  1.00  0.00     0.054 A 
BRANCH  77  78
ATOM     78  S   UNL A   1      41.968  19.519  26.059  1.00  0.00     0.124 S 
ATOM     79  O   UNL A   1      42.829  19.625  24.885  1.00  0.00    -0.237 OA
ATOM     80  O   UNL A   1      42.487  18.703  27.155  1.00  0.00    -0.237 OA
ATOM     81  O   UNL A   1      40.544  19.338  25.779  1.00  0.00    -0.744 OA
ENDBRANCH  77  78
ENDBRANCH  49  72
BRANCH  61  82
ATOM     82  C   UNL A   1      47.734  27.171  30.559  1.00  0.00    -0.014 A 
ATOM     83  C   UNL A   1      48.758  27.449  29.637  1.00  0.00     0.010 A 
ATOM     84  C   UNL A   1      48.055  26.540  31.774  1.00  0.00     0.010 A 
ATOM     85  C   UNL A   1      50.076  27.076  29.912  1.00  0.00     0.020 A 
ATOM     86  C   UNL A   1      49.374  26.185  32.063  1.00  0.00     0.020 A 
ATOM     87  C   UNL A   1      50.374  26.443  31.123  1.00  0.00     0.054 A 
BRANCH  87  88
ATOM     88  S   UNL A   1      52.098  25.996  31.473  1.00  0.00     0.124 S 
ATOM     89  O   UNL A   1      51.957  24.647  32.015  1.00  0.00    -0.237 OA
ATOM     90  O   UNL A   1      52.725  26.082  30.156  1.00  0.00    -0.237 OA
ATOM     91  O   UNL A   1      52.531  27.011  32.430  1.00  0.00    -0.744 OA
ENDBRANCH  87  88
ENDBRANCH  61  82
ENDBRANCH  35  36
ENDBRANCH  27  30
ENDBRANCH  25  26
ENDBRANCH   1  25
TORSDOF 15
ENDMDL
