MODEL 1
REMARK VINA RESULT:     -10.3      0.000      0.000
REMARK SMILES COC(=O)[C@@H]1CN(C(=O)NC(=O)CCCC(=O)NCCCCNC(=O)c2ccc(-c3c4nc(c(-c5ccc(S(=O)(=O)[O-])cc5)c5ccc([nH]5)c(-c5ccc(S(=O)(=O)[O-])cc5)c5nc(c(-c6ccc(S(=O)(=O)[O-])cc6)c6ccc3[nH]6)C=C5)C=C4)cc2)C[C@H]1C
REMARK SMILES IDX 19 1 18 2 16 3 17 4 15 6 14 7 13 8 11 9 8 10 9 11 10 12
REMARK SMILES IDX 12 14 7 15 5 16 6 17 87 18 86 19 88 20 3 21 4 22 2 23 1 24
REMARK SMILES IDX 20 25 21 26 22 27 23 28 24 29 25 31 26 32 27 33 85 34 28 35
REMARK SMILES IDX 84 36 29 37 30 38 31 39 78 40 32 41 83 42 77 43 79 44 33 45
REMARK SMILES IDX 82 46 76 47 75 48 34 50 64 51 45 52 63 53 46 54 49 55 62 56
REMARK SMILES IDX 80 57 47 58 48 59 61 61 81 62 50 63 35 64 36 65 44 66 37 67
REMARK SMILES IDX 43 68 38 69 39 70 40 71 41 72 42 73 65 74 66 75 74 76 67 77
REMARK SMILES IDX 73 78 68 79 69 80 70 81 71 82 72 83 51 84 52 85 60 86 53 87
REMARK SMILES IDX 59 88 54 89 55 90 56 91 57 92 58 93
REMARK H PARENT 18 5 10 13 23 30 79 49 49 60
REMARK Flexibility Score: inf
ROOT
ATOM      1  C   UNL A   1      33.793  33.503  28.060  1.00  0.00     0.116 C 
ENDROOT
BRANCH   1   2
ATOM      2  N   UNL A   1      34.985  32.368  28.040  1.00  0.00    -0.356 N 
ATOM      3  C   UNL A   1      35.202  30.423  27.811  1.00  0.00     0.220 C 
ATOM      4  O   UNL A   1      36.199  29.684  27.992  1.00  0.00    -0.275 OA
ATOM      5  H   UNL A   1      35.861  32.793  28.187  1.00  0.00     0.163 HD
BRANCH   3   6
ATOM      6  C   UNL A   1      33.878  29.263  27.320  1.00  0.00     0.100 C 
BRANCH   6   7
ATOM      7  C   UNL A   1      32.333  29.434  27.063  1.00  0.00     0.020 C 
BRANCH   7   8
ATOM      8  C   UNL A   1      31.309  28.339  26.696  1.00  0.00     0.101 C 
BRANCH   8   9
ATOM      9  C   UNL A   1      31.736  26.963  26.274  1.00  0.00     0.227 C 
ATOM     10  C   UNL A   1      32.050  27.346  23.828  1.00  0.00     0.324 C 
ATOM     11  O   UNL A   1      32.794  26.991  22.911  1.00  0.00    -0.248 OA
ATOM     12  N   UNL A   1      32.179  26.723  25.016  1.00  0.00    -0.278 N 
ATOM     13  H   UNL A   1      32.721  25.903  24.956  1.00  0.00     0.174 HD
ATOM     14  O   UNL A   1      31.629  26.010  27.050  1.00  0.00    -0.275 OA
BRANCH  10  15
ATOM     15  N   UNL A   1      31.099  28.311  23.628  1.00  0.00    -0.323 N 
ATOM     16  C   UNL A   1      28.833  30.637  23.624  1.00  0.00     0.123 C 
ATOM     17  C   UNL A   1      30.793  30.248  24.050  1.00  0.00     0.137 C 
ATOM     18  C   UNL A   1      28.036  28.928  22.859  1.00  0.00     0.021 C 
ATOM     19  C   UNL A   1      29.482  27.535  22.897  1.00  0.00     0.125 C 
ATOM     20  C   UNL A   1      26.765  28.400  23.583  1.00  0.00     0.010 C 
BRANCH  16  21
ATOM     21  C   UNL A   1      28.460  31.880  22.824  1.00  0.00     0.310 C 
ATOM     22  O   UNL A   1      27.993  32.880  23.365  1.00  0.00    -0.252 OA
BRANCH  21  23
ATOM     23  O   UNL A   1      28.861  31.959  21.533  1.00  0.00    -0.469 OA
ATOM     24  C   UNL A   1      28.056  31.627  20.402  1.00  0.00     0.282 C 
ENDBRANCH  21  23
ENDBRANCH  16  21
ENDBRANCH  10  15
ENDBRANCH   8   9
ENDBRANCH   7   8
ENDBRANCH   6   7
ENDBRANCH   3   6
ENDBRANCH   1   2
BRANCH   1  25
ATOM     25  C   UNL A   1      34.400  34.923  28.033  1.00  0.00     0.023 C 
BRANCH  25  26
ATOM     26  C   UNL A   1      33.647  35.934  28.860  1.00  0.00     0.023 C 
BRANCH  26  27
ATOM     27  C   UNL A   1      32.753  35.280  29.888  1.00  0.00     0.116 C 
BRANCH  27  28
ATOM     28  N   UNL A   1      32.602  36.085  31.100  1.00  0.00    -0.352 N 
ATOM     29  C   UNL A   1      33.273  35.927  32.292  1.00  0.00     0.251 C 
ATOM     30  H   UNL A   1      31.949  36.821  31.059  1.00  0.00     0.163 HD
ATOM     31  O   UNL A   1      32.953  36.540  33.299  1.00  0.00    -0.269 OA
BRANCH  29  32
ATOM     32  C   UNL A   1      34.376  34.955  32.287  1.00  0.00     0.039 A 
ATOM     33  C   UNL A   1      35.617  35.335  31.781  1.00  0.00     0.014 A 
ATOM     34  C   UNL A   1      34.215  33.789  33.040  1.00  0.00     0.014 A 
ATOM     35  C   UNL A   1      36.733  34.568  32.108  1.00  0.00     0.010 A 
ATOM     36  C   UNL A   1      35.344  33.124  33.480  1.00  0.00     0.010 A 
ATOM     37  C   UNL A   1      36.613  33.492  33.003  1.00  0.00    -0.014 A 
BRANCH  37  38
ATOM     38  C   UNL A   1      37.786  32.696  33.438  1.00  0.00     0.031 A 
ATOM     39  C   UNL A   1      38.457  33.049  34.738  1.00  0.00     0.074 A 
ATOM     40  C   UNL A   1      38.291  31.731  32.644  1.00  0.00     0.049 A 
ATOM     41  N   UNL A   1      39.550  32.561  35.259  1.00  0.00    -0.248 NA
ATOM     42  C   UNL A   1      37.843  34.126  35.536  1.00  0.00     0.031 C 
ATOM     43  C   UNL A   1      37.759  31.331  31.338  1.00  0.00     0.029 A 
ATOM     44  N   UNL A   1      39.378  30.911  32.819  1.00  0.00    -0.354 N 
ATOM     45  C   UNL A   1      39.766  33.291  36.422  1.00  0.00     0.074 A 
ATOM     46  C   UNL A   1      38.739  34.303  36.491  1.00  0.00     0.031 C 
ATOM     47  C   UNL A   1      38.497  30.319  30.852  1.00  0.00     0.029 A 
ATOM     48  C   UNL A   1      39.585  30.033  31.781  1.00  0.00     0.049 A 
ATOM     49  H   UNL A   1      39.956  30.947  33.616  1.00  0.00     0.167 HD
ATOM     50  C   UNL A   1      40.716  33.115  37.368  1.00  0.00     0.031 A 
ATOM     51  C   UNL A   1      40.548  29.109  31.595  1.00  0.00     0.031 A 
ATOM     52  C   UNL A   1      41.718  32.088  37.304  1.00  0.00     0.049 A 
ATOM     53  C   UNL A   1      41.601  28.934  32.657  1.00  0.00     0.074 A 
ATOM     54  C   UNL A   1      42.688  31.779  38.239  1.00  0.00     0.029 A 
ATOM     55  N   UNL A   1      41.881  31.208  36.245  1.00  0.00    -0.354 N 
ATOM     56  N   UNL A   1      41.747  29.584  33.787  1.00  0.00    -0.248 NA
ATOM     57  C   UNL A   1      42.612  27.892  32.426  1.00  0.00     0.031 C 
ATOM     58  C   UNL A   1      43.482  30.756  37.714  1.00  0.00     0.029 A 
ATOM     59  C   UNL A   1      42.956  30.373  36.489  1.00  0.00     0.049 A 
ATOM     60  H   UNL A   1      41.315  31.181  35.439  1.00  0.00     0.167 HD
ATOM     61  C   UNL A   1      42.844  29.007  34.419  1.00  0.00     0.074 A 
ATOM     62  C   UNL A   1      43.316  27.950  33.549  1.00  0.00     0.031 C 
ATOM     63  C   UNL A   1      43.406  29.321  35.613  1.00  0.00     0.031 A 
BRANCH  50  64
ATOM     64  C   UNL A   1      40.713  34.059  38.541  1.00  0.00    -0.014 A 
ATOM     65  C   UNL A   1      40.050  33.737  39.740  1.00  0.00     0.010 A 
ATOM     66  C   UNL A   1      41.403  35.280  38.448  1.00  0.00     0.010 A 
ATOM     67  C   UNL A   1      40.039  34.639  40.807  1.00  0.00     0.020 A 
ATOM     68  C   UNL A   1      41.426  36.168  39.527  1.00  0.00     0.020 A 
ATOM     69  C   UNL A   1      40.730  35.849  40.693  1.00  0.00     0.054 A 
BRANCH  69  70
ATOM     70  S   UNL A   1      40.722  36.986  42.104  1.00  0.00     0.124 S 
ATOM     71  O   UNL A   1      39.601  37.863  41.778  1.00  0.00    -0.237 OA
ATOM     72  O   UNL A   1      40.507  36.087  43.235  1.00  0.00    -0.237 OA
ATOM     73  O   UNL A   1      42.039  37.615  42.052  1.00  0.00    -0.744 OA
ENDBRANCH  69  70
ENDBRANCH  50  64
BRANCH  51  74
ATOM     74  C   UNL A   1      40.553  28.272  30.362  1.00  0.00    -0.014 A 
ATOM     75  C   UNL A   1      41.504  28.491  29.348  1.00  0.00     0.010 A 
ATOM     76  C   UNL A   1      39.614  27.236  30.202  1.00  0.00     0.010 A 
ATOM     77  C   UNL A   1      41.505  27.703  28.193  1.00  0.00     0.020 A 
ATOM     78  C   UNL A   1      39.633  26.424  29.063  1.00  0.00     0.020 A 
ATOM     79  C   UNL A   1      40.573  26.669  28.061  1.00  0.00     0.054 A 
BRANCH  79  80
ATOM     80  S   UNL A   1      40.633  25.622  26.581  1.00  0.00     0.124 S 
ATOM     81  O   UNL A   1      39.274  25.095  26.524  1.00  0.00    -0.237 OA
ATOM     82  O   UNL A   1      40.986  26.580  25.535  1.00  0.00    -0.237 OA
ATOM     83  O   UNL A   1      41.673  24.645  26.896  1.00  0.00    -0.744 OA
ENDBRANCH  79  80
ENDBRANCH  51  74
BRANCH  63  84
ATOM     84  C   UNL A   1      44.562  28.481  36.085  1.00  0.00    -0.014 A 
ATOM     85  C   UNL A   1      45.888  28.790  35.737  1.00  0.00     0.010 A 
ATOM     86  C   UNL A   1      44.316  27.408  36.963  1.00  0.00     0.010 A 
ATOM     87  C   UNL A   1      46.945  28.025  36.240  1.00  0.00     0.020 A 
ATOM     88  C   UNL A   1      45.370  26.663  37.494  1.00  0.00     0.020 A 
ATOM     89  C   UNL A   1      46.679  26.970  37.119  1.00  0.00     0.054 A 
BRANCH  89  90
ATOM     90  S   UNL A   1      48.072  26.033  37.802  1.00  0.00     0.124 S 
ATOM     91  O   UNL A   1      47.931  26.278  39.235  1.00  0.00    -0.237 OA
ATOM     92  O   UNL A   1      47.783  24.670  37.365  1.00  0.00    -0.237 OA
ATOM     93  O   UNL A   1      49.243  26.647  37.179  1.00  0.00    -0.744 OA
ENDBRANCH  89  90
ENDBRANCH  63  84
ENDBRANCH  37  38
ENDBRANCH  29  32
ENDBRANCH  27  28
ENDBRANCH  26  27
ENDBRANCH  25  26
ENDBRANCH   1  25
TORSDOF 20
ENDMDL
MODEL 2
REMARK VINA RESULT:     -10.1      1.657      3.436
REMARK SMILES COC(=O)[C@@H]1CN(C(=O)NC(=O)CCCC(=O)NCCCCNC(=O)c2ccc(-c3c4nc(c(-c5ccc(S(=O)(=O)[O-])cc5)c5ccc([nH]5)c(-c5ccc(S(=O)(=O)[O-])cc5)c5nc(c(-c6ccc(S(=O)(=O)[O-])cc6)c6ccc3[nH]6)C=C5)C=C4)cc2)C[C@H]1C
REMARK SMILES IDX 19 1 18 2 16 3 17 4 15 6 14 7 13 8 11 9 8 10 9 11 10 12
REMARK SMILES IDX 12 14 7 15 5 16 6 17 87 18 86 19 88 20 3 21 4 22 2 23 1 24
REMARK SMILES IDX 20 25 21 26 22 27 23 28 24 29 25 31 26 32 27 33 85 34 28 35
REMARK SMILES IDX 84 36 29 37 30 38 31 39 78 40 32 41 83 42 77 43 79 44 33 45
REMARK SMILES IDX 82 46 76 47 75 48 34 50 64 51 45 52 63 53 46 54 49 55 62 56
REMARK SMILES IDX 80 57 47 58 48 59 61 61 81 62 50 63 35 64 36 65 44 66 37 67
REMARK SMILES IDX 43 68 38 69 39 70 40 71 41 72 42 73 65 74 66 75 74 76 67 77
REMARK SMILES IDX 73 78 68 79 69 80 70 81 71 82 72 83 51 84 52 85 60 86 53 87
REMARK SMILES IDX 59 88 54 89 55 90 56 91 57 92 58 93
REMARK H PARENT 18 5 10 13 23 30 79 49 49 60
REMARK Flexibility Score: inf
ROOT
ATOM      1  C   UNL A   1      34.150  33.551  28.279  1.00  0.00     0.116 C 
ENDROOT
BRANCH   1   2
ATOM      2  N   UNL A   1      35.478  32.614  28.014  1.00  0.00    -0.356 N 
ATOM      3  C   UNL A   1      35.949  30.720  27.739  1.00  0.00     0.220 C 
ATOM      4  O   UNL A   1      37.066  30.151  27.714  1.00  0.00    -0.275 OA
ATOM      5  H   UNL A   1      36.287  33.174  27.983  1.00  0.00     0.163 HD
BRANCH   3   6
ATOM      6  C   UNL A   1      34.754  29.356  27.522  1.00  0.00     0.100 C 
BRANCH   6   7
ATOM      7  C   UNL A   1      34.245  28.556  26.263  1.00  0.00     0.020 C 
BRANCH   7   8
ATOM      8  C   UNL A   1      32.864  27.898  26.056  1.00  0.00     0.101 C 
BRANCH   8   9
ATOM      9  C   UNL A   1      31.785  28.558  25.247  1.00  0.00     0.227 C 
ATOM     10  C   UNL A   1      30.592  26.535  24.400  1.00  0.00     0.324 C 
ATOM     11  O   UNL A   1      29.444  26.160  24.150  1.00  0.00    -0.248 OA
ATOM     12  N   UNL A   1      30.772  27.835  24.711  1.00  0.00    -0.278 N 
ATOM     13  H   UNL A   1      29.984  28.387  24.500  1.00  0.00     0.174 HD
ATOM     14  O   UNL A   1      31.838  29.766  25.002  1.00  0.00    -0.275 OA
BRANCH  10  15
ATOM     15  N   UNL A   1      31.648  25.668  24.321  1.00  0.00    -0.323 N 
ATOM     16  C   UNL A   1      33.931  23.428  23.760  1.00  0.00     0.123 C 
ATOM     17  C   UNL A   1      33.069  25.123  23.014  1.00  0.00     0.137 C 
ATOM     18  C   UNL A   1      33.061  23.056  25.561  1.00  0.00     0.021 C 
ATOM     19  C   UNL A   1      31.659  24.467  25.841  1.00  0.00     0.125 C 
ATOM     20  C   UNL A   1      32.435  21.641  25.722  1.00  0.00     0.010 C 
BRANCH  16  21
ATOM     21  C   UNL A   1      35.450  23.299  23.793  1.00  0.00     0.310 C 
ATOM     22  O   UNL A   1      36.121  23.300  22.763  1.00  0.00    -0.252 OA
BRANCH  21  23
ATOM     23  O   UNL A   1      36.080  23.411  24.987  1.00  0.00    -0.469 OA
ATOM     24  C   UNL A   1      36.951  22.431  25.550  1.00  0.00     0.282 C 
ENDBRANCH  21  23
ENDBRANCH  16  21
ENDBRANCH  10  15
ENDBRANCH   8   9
ENDBRANCH   7   8
ENDBRANCH   6   7
ENDBRANCH   3   6
ENDBRANCH   1   2
BRANCH   1  25
ATOM     25  C   UNL A   1      34.500  35.044  28.101  1.00  0.00     0.023 C 
BRANCH  25  26
ATOM     26  C   UNL A   1      33.581  35.987  28.835  1.00  0.00     0.023 C 
BRANCH  26  27
ATOM     27  C   UNL A   1      32.748  35.277  29.878  1.00  0.00     0.116 C 
BRANCH  27  28
ATOM     28  N   UNL A   1      32.576  36.067  31.097  1.00  0.00    -0.352 N 
ATOM     29  C   UNL A   1      33.231  35.898  32.296  1.00  0.00     0.251 C 
ATOM     30  H   UNL A   1      31.921  36.800  31.056  1.00  0.00     0.163 HD
ATOM     31  O   UNL A   1      32.893  36.497  33.307  1.00  0.00    -0.269 OA
BRANCH  29  32
ATOM     32  C   UNL A   1      34.338  34.931  32.297  1.00  0.00     0.039 A 
ATOM     33  C   UNL A   1      35.579  35.317  31.795  1.00  0.00     0.014 A 
ATOM     34  C   UNL A   1      34.180  33.764  33.049  1.00  0.00     0.014 A 
ATOM     35  C   UNL A   1      36.698  34.555  32.127  1.00  0.00     0.010 A 
ATOM     36  C   UNL A   1      35.310  33.105  33.494  1.00  0.00     0.010 A 
ATOM     37  C   UNL A   1      36.579  33.478  33.021  1.00  0.00    -0.014 A 
BRANCH  37  38
ATOM     38  C   UNL A   1      37.754  32.689  33.460  1.00  0.00     0.031 A 
ATOM     39  C   UNL A   1      38.448  33.075  34.738  1.00  0.00     0.074 A 
ATOM     40  C   UNL A   1      38.241  31.697  32.687  1.00  0.00     0.049 A 
ATOM     41  N   UNL A   1      39.547  32.596  35.256  1.00  0.00    -0.248 NA
ATOM     42  C   UNL A   1      37.854  34.179  35.514  1.00  0.00     0.031 C 
ATOM     43  C   UNL A   1      37.685  31.262  31.402  1.00  0.00     0.029 A 
ATOM     44  N   UNL A   1      39.326  30.875  32.870  1.00  0.00    -0.354 N 
ATOM     45  C   UNL A   1      39.786  33.358  36.393  1.00  0.00     0.074 A 
ATOM     46  C   UNL A   1      38.767  34.378  36.449  1.00  0.00     0.031 C 
ATOM     47  C   UNL A   1      38.409  30.231  30.935  1.00  0.00     0.029 A 
ATOM     48  C   UNL A   1      39.510  29.965  31.855  1.00  0.00     0.049 A 
ATOM     49  H   UNL A   1      39.916  30.932  33.655  1.00  0.00     0.167 HD
ATOM     50  C   UNL A   1      40.750  33.204  37.329  1.00  0.00     0.031 A 
ATOM     51  C   UNL A   1      40.465  29.030  31.680  1.00  0.00     0.031 A 
ATOM     52  C   UNL A   1      41.745  32.169  37.279  1.00  0.00     0.049 A 
ATOM     53  C   UNL A   1      41.534  28.880  32.730  1.00  0.00     0.074 A 
ATOM     54  C   UNL A   1      42.727  31.881  38.207  1.00  0.00     0.029 A 
ATOM     55  N   UNL A   1      41.885  31.257  36.244  1.00  0.00    -0.354 N 
ATOM     56  N   UNL A   1      41.702  29.562  33.838  1.00  0.00    -0.248 NA
ATOM     57  C   UNL A   1      42.534  27.825  32.515  1.00  0.00     0.031 C 
ATOM     58  C   UNL A   1      43.507  30.838  37.701  1.00  0.00     0.029 A 
ATOM     59  C   UNL A   1      42.959  30.422  36.496  1.00  0.00     0.049 A 
ATOM     60  H   UNL A   1      41.306  31.210  35.449  1.00  0.00     0.167 HD
ATOM     61  C   UNL A   1      42.805  28.997  34.469  1.00  0.00     0.074 A 
ATOM     62  C   UNL A   1      43.257  27.911  33.623  1.00  0.00     0.031 C 
ATOM     63  C   UNL A   1      43.388  29.342  35.644  1.00  0.00     0.031 A 
BRANCH  50  64
ATOM     64  C   UNL A   1      40.772  34.182  38.474  1.00  0.00    -0.014 A 
ATOM     65  C   UNL A   1      41.481  35.394  38.390  1.00  0.00     0.010 A 
ATOM     66  C   UNL A   1      40.053  33.891  39.647  1.00  0.00     0.010 A 
ATOM     67  C   UNL A   1      41.509  36.275  39.473  1.00  0.00     0.020 A 
ATOM     68  C   UNL A   1      40.046  34.787  40.718  1.00  0.00     0.020 A 
ATOM     69  C   UNL A   1      40.789  35.965  40.631  1.00  0.00     0.054 A 
BRANCH  69  70
ATOM     70  S   UNL A   1      40.820  37.142  42.010  1.00  0.00     0.124 S 
ATOM     71  O   UNL A   1      39.449  37.059  42.507  1.00  0.00    -0.237 OA
ATOM     72  O   UNL A   1      41.842  36.575  42.886  1.00  0.00    -0.237 OA
ATOM     73  O   UNL A   1      41.177  38.410  41.378  1.00  0.00    -0.744 OA
ENDBRANCH  69  70
ENDBRANCH  50  64
BRANCH  51  74
ATOM     74  C   UNL A   1      40.445  28.158  30.472  1.00  0.00    -0.014 A 
ATOM     75  C   UNL A   1      39.493  27.131  30.344  1.00  0.00     0.010 A 
ATOM     76  C   UNL A   1      41.371  28.362  29.432  1.00  0.00     0.010 A 
ATOM     77  C   UNL A   1      39.478  26.315  29.207  1.00  0.00     0.020 A 
ATOM     78  C   UNL A   1      41.338  27.571  28.280  1.00  0.00     0.020 A 
ATOM     79  C   UNL A   1      40.396  26.545  28.179  1.00  0.00     0.054 A 
BRANCH  79  80
ATOM     80  S   UNL A   1      40.317  25.512  26.689  1.00  0.00     0.124 S 
ATOM     81  O   UNL A   1      38.897  25.190  26.616  1.00  0.00    -0.237 OA
ATOM     82  O   UNL A   1      40.816  26.417  25.656  1.00  0.00    -0.237 OA
ATOM     83  O   UNL A   1      41.200  24.392  27.004  1.00  0.00    -0.744 OA
ENDBRANCH  79  80
ENDBRANCH  51  74
BRANCH  63  84
ATOM     84  C   UNL A   1      44.547  28.509  36.123  1.00  0.00    -0.014 A 
ATOM     85  C   UNL A   1      44.353  27.354  36.900  1.00  0.00     0.010 A 
ATOM     86  C   UNL A   1      45.850  28.848  35.712  1.00  0.00     0.010 A 
ATOM     87  C   UNL A   1      45.445  26.568  37.279  1.00  0.00     0.020 A 
ATOM     88  C   UNL A   1      46.939  28.047  36.060  1.00  0.00     0.020 A 
ATOM     89  C   UNL A   1      46.730  26.917  36.852  1.00  0.00     0.054 A 
BRANCH  89  90
ATOM     90  S   UNL A   1      48.121  25.847  37.309  1.00  0.00     0.124 S 
ATOM     91  O   UNL A   1      49.117  26.817  37.755  1.00  0.00    -0.237 OA
ATOM     92  O   UNL A   1      47.545  25.009  38.357  1.00  0.00    -0.237 OA
ATOM     93  O   UNL A   1      48.444  25.149  36.066  1.00  0.00    -0.744 OA
ENDBRANCH  89  90
ENDBRANCH  63  84
ENDBRANCH  37  38
ENDBRANCH  29  32
ENDBRANCH  27  28
ENDBRANCH  26  27
ENDBRANCH  25  26
ENDBRANCH   1  25
TORSDOF 20
ENDMDL
MODEL 3
REMARK VINA RESULT:      -9.2      4.335     11.090
REMARK SMILES COC(=O)[C@@H]1CN(C(=O)NC(=O)CCCC(=O)NCCCCNC(=O)c2ccc(-c3c4nc(c(-c5ccc(S(=O)(=O)[O-])cc5)c5ccc([nH]5)c(-c5ccc(S(=O)(=O)[O-])cc5)c5nc(c(-c6ccc(S(=O)(=O)[O-])cc6)c6ccc3[nH]6)C=C5)C=C4)cc2)C[C@H]1C
REMARK SMILES IDX 19 1 18 2 16 3 17 4 15 6 14 7 13 8 11 9 8 10 9 11 10 12
REMARK SMILES IDX 12 14 7 15 5 16 6 17 87 18 86 19 88 20 3 21 4 22 2 23 1 24
REMARK SMILES IDX 20 25 21 26 22 27 23 28 24 29 25 31 26 32 27 33 85 34 28 35
REMARK SMILES IDX 84 36 29 37 30 38 31 39 78 40 32 41 83 42 77 43 79 44 33 45
REMARK SMILES IDX 82 46 76 47 75 48 34 50 64 51 45 52 63 53 46 54 49 55 62 56
REMARK SMILES IDX 80 57 47 58 48 59 61 61 81 62 50 63 35 64 36 65 44 66 37 67
REMARK SMILES IDX 43 68 38 69 39 70 40 71 41 72 42 73 65 74 66 75 74 76 67 77
REMARK SMILES IDX 73 78 68 79 69 80 70 81 71 82 72 83 51 84 52 85 60 86 53 87
REMARK SMILES IDX 59 88 54 89 55 90 56 91 57 92 58 93
REMARK H PARENT 18 5 10 13 23 30 79 49 49 60
REMARK Flexibility Score: inf
ROOT
ATOM      1  C   UNL A   1      36.777  30.505  29.174  1.00  0.00     0.116 C 
ENDROOT
BRANCH   1   2
ATOM      2  N   UNL A   1      36.646  29.730  30.621  1.00  0.00    -0.356 N 
ATOM      3  C   UNL A   1      37.789  28.834  31.953  1.00  0.00     0.220 C 
ATOM      4  O   UNL A   1      37.489  28.136  32.950  1.00  0.00    -0.275 OA
ATOM      5  H   UNL A   1      35.705  29.707  30.910  1.00  0.00     0.163 HD
BRANCH   3   6
ATOM      6  C   UNL A   1      39.616  28.810  31.932  1.00  0.00     0.100 C 
BRANCH   6   7
ATOM      7  C   UNL A   1      40.710  28.822  33.066  1.00  0.00     0.020 C 
BRANCH   7   8
ATOM      8  C   UNL A   1      41.841  27.799  33.299  1.00  0.00     0.101 C 
BRANCH   8   9
ATOM      9  C   UNL A   1      41.969  27.037  34.588  1.00  0.00     0.227 C 
ATOM     10  C   UNL A   1      44.407  26.506  34.529  1.00  0.00     0.324 C 
ATOM     11  O   UNL A   1      45.363  26.405  35.300  1.00  0.00    -0.248 OA
ATOM     12  N   UNL A   1      43.183  26.673  35.067  1.00  0.00    -0.278 N 
ATOM     13  H   UNL A   1      43.166  26.487  36.034  1.00  0.00     0.174 HD
ATOM     14  O   UNL A   1      40.962  26.674  35.201  1.00  0.00    -0.275 OA
BRANCH  10  15
ATOM     15  N   UNL A   1      44.583  26.410  33.175  1.00  0.00    -0.323 N 
ATOM     16  C   UNL A   1      45.330  25.858  30.063  1.00  0.00     0.123 C 
ATOM     17  C   UNL A   1      44.493  25.023  31.728  1.00  0.00     0.137 C 
ATOM     18  C   UNL A   1      45.814  27.777  30.534  1.00  0.00     0.021 C 
ATOM     19  C   UNL A   1      45.336  28.049  32.466  1.00  0.00     0.125 C 
ATOM     20  C   UNL A   1      47.299  28.171  30.290  1.00  0.00     0.010 C 
BRANCH  16  21
ATOM     21  C   UNL A   1      44.628  25.734  28.714  1.00  0.00     0.310 C 
ATOM     22  O   UNL A   1      43.517  26.221  28.518  1.00  0.00    -0.252 OA
BRANCH  21  23
ATOM     23  O   UNL A   1      45.341  25.277  27.657  1.00  0.00    -0.469 OA
ATOM     24  C   UNL A   1      46.062  24.045  27.625  1.00  0.00     0.282 C 
ENDBRANCH  21  23
ENDBRANCH  16  21
ENDBRANCH  10  15
ENDBRANCH   8   9
ENDBRANCH   7   8
ENDBRANCH   6   7
ENDBRANCH   3   6
ENDBRANCH   1   2
BRANCH   1  25
ATOM     25  C   UNL A   1      35.505  30.285  28.328  1.00  0.00     0.023 C 
BRANCH  25  26
ATOM     26  C   UNL A   1      34.832  31.557  27.879  1.00  0.00     0.023 C 
BRANCH  26  27
ATOM     27  C   UNL A   1      35.219  32.741  28.735  1.00  0.00     0.116 C 
BRANCH  27  28
ATOM     28  N   UNL A   1      34.108  33.667  28.955  1.00  0.00    -0.352 N 
ATOM     29  C   UNL A   1      33.713  34.223  30.151  1.00  0.00     0.251 C 
ATOM     30  H   UNL A   1      33.585  33.921  28.161  1.00  0.00     0.163 HD
ATOM     31  O   UNL A   1      32.668  34.848  30.259  1.00  0.00    -0.269 OA
BRANCH  29  32
ATOM     32  C   UNL A   1      34.606  33.993  31.296  1.00  0.00     0.039 A 
ATOM     33  C   UNL A   1      34.859  32.687  31.710  1.00  0.00     0.014 A 
ATOM     34  C   UNL A   1      35.379  35.068  31.742  1.00  0.00     0.014 A 
ATOM     35  C   UNL A   1      35.963  32.449  32.527  1.00  0.00     0.010 A 
ATOM     36  C   UNL A   1      36.551  34.803  32.424  1.00  0.00     0.010 A 
ATOM     37  C   UNL A   1      36.846  33.495  32.843  1.00  0.00    -0.014 A 
BRANCH  37  38
ATOM     38  C   UNL A   1      38.073  33.272  33.645  1.00  0.00     0.031 A 
ATOM     39  C   UNL A   1      39.337  32.872  32.935  1.00  0.00     0.074 A 
ATOM     40  C   UNL A   1      38.034  33.345  34.991  1.00  0.00     0.049 A 
ATOM     41  N   UNL A   1      40.491  32.528  33.440  1.00  0.00    -0.248 NA
ATOM     42  C   UNL A   1      39.285  32.806  31.463  1.00  0.00     0.031 C 
ATOM     43  C   UNL A   1      36.854  33.675  35.796  1.00  0.00     0.029 A 
ATOM     44  N   UNL A   1      39.020  33.138  35.923  1.00  0.00    -0.354 N 
ATOM     45  C   UNL A   1      41.283  32.177  32.353  1.00  0.00     0.074 A 
ATOM     46  C   UNL A   1      40.460  32.275  31.172  1.00  0.00     0.031 C 
ATOM     47  C   UNL A   1      37.197  33.685  37.096  1.00  0.00     0.029 A 
ATOM     48  C   UNL A   1      38.602  33.311  37.222  1.00  0.00     0.049 A 
ATOM     49  H   UNL A   1      39.942  32.890  35.684  1.00  0.00     0.167 HD
ATOM     50  C   UNL A   1      42.591  31.835  32.334  1.00  0.00     0.031 A 
ATOM     51  C   UNL A   1      39.272  33.173  38.383  1.00  0.00     0.031 A 
ATOM     52  C   UNL A   1      43.410  31.766  33.512  1.00  0.00     0.049 A 
ATOM     53  C   UNL A   1      40.726  32.785  38.340  1.00  0.00     0.074 A 
ATOM     54  C   UNL A   1      44.762  31.494  33.599  1.00  0.00     0.029 A 
ATOM     55  N   UNL A   1      42.952  31.967  34.805  1.00  0.00    -0.354 N 
ATOM     56  N   UNL A   1      41.480  32.528  37.297  1.00  0.00    -0.248 NA
ATOM     57  C   UNL A   1      41.424  32.679  39.628  1.00  0.00     0.031 C 
ATOM     58  C   UNL A   1      45.108  31.461  34.953  1.00  0.00     0.029 A 
ATOM     59  C   UNL A   1      43.990  31.795  35.703  1.00  0.00     0.049 A 
ATOM     60  H   UNL A   1      42.026  32.198  35.048  1.00  0.00     0.167 HD
ATOM     61  C   UNL A   1      42.749  32.266  37.801  1.00  0.00     0.074 A 
ATOM     62  C   UNL A   1      42.663  32.404  39.240  1.00  0.00     0.031 C 
ATOM     63  C   UNL A   1      43.885  31.944  37.132  1.00  0.00     0.031 A 
BRANCH  50  64
ATOM     64  C   UNL A   1      43.205  31.505  30.999  1.00  0.00    -0.014 A 
ATOM     65  C   UNL A   1      44.046  32.416  30.333  1.00  0.00     0.010 A 
ATOM     66  C   UNL A   1      42.951  30.253  30.411  1.00  0.00     0.010 A 
ATOM     67  C   UNL A   1      44.583  32.099  29.083  1.00  0.00     0.020 A 
ATOM     68  C   UNL A   1      43.519  29.918  29.179  1.00  0.00     0.020 A 
ATOM     69  C   UNL A   1      44.317  30.850  28.515  1.00  0.00     0.054 A 
BRANCH  69  70
ATOM     70  S   UNL A   1      45.053  30.456  26.906  1.00  0.00     0.124 S 
ATOM     71  O   UNL A   1      44.366  29.215  26.557  1.00  0.00    -0.237 OA
ATOM     72  O   UNL A   1      44.695  31.621  26.100  1.00  0.00    -0.237 OA
ATOM     73  O   UNL A   1      46.478  30.317  27.199  1.00  0.00    -0.744 OA
ENDBRANCH  69  70
ENDBRANCH  50  64
BRANCH  51  74
ATOM     74  C   UNL A   1      38.579  33.418  39.680  1.00  0.00    -0.014 A 
ATOM     75  C   UNL A   1      37.820  32.404  40.291  1.00  0.00     0.010 A 
ATOM     76  C   UNL A   1      38.690  34.666  40.321  1.00  0.00     0.010 A 
ATOM     77  C   UNL A   1      37.172  32.638  41.508  1.00  0.00     0.020 A 
ATOM     78  C   UNL A   1      38.071  34.893  41.555  1.00  0.00     0.020 A 
ATOM     79  C   UNL A   1      37.308  33.879  42.136  1.00  0.00     0.054 A 
BRANCH  79  80
ATOM     80  S   UNL A   1      36.507  34.138  43.744  1.00  0.00     0.124 S 
ATOM     81  O   UNL A   1      37.021  33.018  44.524  1.00  0.00    -0.237 OA
ATOM     82  O   UNL A   1      37.001  35.458  44.130  1.00  0.00    -0.237 OA
ATOM     83  O   UNL A   1      35.082  34.083  43.428  1.00  0.00    -0.744 OA
ENDBRANCH  79  80
ENDBRANCH  51  74
BRANCH  63  84
ATOM     84  C   UNL A   1      45.146  31.772  37.936  1.00  0.00    -0.014 A 
ATOM     85  C   UNL A   1      45.985  32.859  38.232  1.00  0.00     0.010 A 
ATOM     86  C   UNL A   1      45.448  30.506  38.473  1.00  0.00     0.010 A 
ATOM     87  C   UNL A   1      47.118  32.678  39.031  1.00  0.00     0.020 A 
ATOM     88  C   UNL A   1      46.559  30.328  39.299  1.00  0.00     0.020 A 
ATOM     89  C   UNL A   1      47.394  31.414  39.563  1.00  0.00     0.054 A 
BRANCH  89  90
ATOM     90  S   UNL A   1      48.837  31.220  40.644  1.00  0.00     0.124 S 
ATOM     91  O   UNL A   1      49.146  32.604  40.991  1.00  0.00    -0.237 OA
ATOM     92  O   UNL A   1      48.311  30.401  41.732  1.00  0.00    -0.237 OA
ATOM     93  O   UNL A   1      49.823  30.558  39.792  1.00  0.00    -0.744 OA
ENDBRANCH  89  90
ENDBRANCH  63  84
ENDBRANCH  37  38
ENDBRANCH  29  32
ENDBRANCH  27  28
ENDBRANCH  26  27
ENDBRANCH  25  26
ENDBRANCH   1  25
TORSDOF 20
ENDMDL
