MODEL 1
REMARK VINA RESULT:      -9.4      0.000      0.000
REMARK SMILES CN(C)C(=O)c1ccc(NC[C@@H]2CC[C@@H](C(=O)NCCCCNC(=O)c3ccc(-c4c5nc(c(-c6ccc(S(=O)(=O)[O-])cc6)c6ccc([nH]6)c(-c6ccc(S(=O)(=O)[O-])cc6)c6nc(c(-c7ccc(S(=O)(=O)[O-])cc7)c7ccc4[nH]7)C=C6)C=C5)cc3)O2)nn1
REMARK SMILES IDX 20 1 19 2 18 3 16 4 17 5 15 7 12 8 13 9 86 10 14 11 11 12
REMARK SMILES IDX 10 13 9 15 6 16 7 17 88 18 8 19 87 20 4 21 1 22 2 23 3 24
REMARK SMILES IDX 5 25 21 26 22 27 23 28 24 29 25 31 26 32 27 33 85 34 28 35
REMARK SMILES IDX 84 36 29 37 30 38 31 39 78 40 32 41 83 42 77 43 79 44 33 45
REMARK SMILES IDX 82 46 76 47 75 48 34 50 64 51 45 52 63 53 46 54 49 55 62 56
REMARK SMILES IDX 80 57 47 58 48 59 61 61 81 62 50 63 35 64 36 65 44 66 37 67
REMARK SMILES IDX 43 68 38 69 39 70 40 71 41 72 42 73 65 74 66 75 74 76 67 77
REMARK SMILES IDX 73 78 68 79 69 80 70 81 71 82 72 83 51 84 52 85 60 86 53 87
REMARK SMILES IDX 59 88 54 89 55 90 56 91 57 92 58 93
REMARK H PARENT 18 6 10 14 23 30 79 49 49 60
REMARK Flexibility Score: inf
ROOT
ATOM      1  C   UNL A   1      34.397  35.003  28.272  1.00  0.00     0.023 C 
ENDROOT
BRANCH   1   2
ATOM      2  C   UNL A   1      33.148  34.957  29.150  1.00  0.00     0.116 C 
BRANCH   2   3
ATOM      3  N   UNL A   1      33.219  35.924  30.232  1.00  0.00    -0.354 N 
ATOM      4  C   UNL A   1      33.752  35.764  31.482  1.00  0.00     0.249 C 
ATOM      5  O   UNL A   1      33.666  36.698  32.281  1.00  0.00    -0.272 OA
ATOM      6  H   UNL A   1      32.833  36.808  30.041  1.00  0.00     0.163 HD
BRANCH   4   7
ATOM      7  C   UNL A   1      34.386  34.413  31.845  1.00  0.00     0.207 C 
ATOM      8  C   UNL A   1      36.401  33.909  32.921  1.00  0.00     0.138 C 
ATOM      9  C   UNL A   1      35.291  33.144  33.623  1.00  0.00     0.037 C 
ATOM     10  O   UNL A   1      35.816  34.470  31.738  1.00  0.00    -0.363 OA
ATOM     11  C   UNL A   1      34.078  33.969  33.267  1.00  0.00     0.045 C 
BRANCH   8  12
ATOM     12  C   UNL A   1      37.652  33.089  32.570  1.00  0.00     0.146 C 
BRANCH  12  13
ATOM     13  N   UNL A   1      37.599  31.741  33.129  1.00  0.00    -0.366 N 
ATOM     14  H   UNL A   1      36.737  31.383  33.443  1.00  0.00     0.162 HD
BRANCH  13  15
ATOM     15  C   UNL A   1      38.734  30.955  33.227  1.00  0.00     0.148 A 
ATOM     16  C   UNL A   1      40.954  29.335  33.406  1.00  0.00     0.151 A 
ATOM     17  C   UNL A   1      39.773  28.791  32.936  1.00  0.00     0.040 A 
ATOM     18  N   UNL A   1      41.034  30.630  33.769  1.00  0.00    -0.143 NA
ATOM     19  C   UNL A   1      38.659  29.623  32.829  1.00  0.00     0.051 A 
ATOM     20  N   UNL A   1      39.915  31.441  33.660  1.00  0.00    -0.132 NA
BRANCH  16  21
ATOM     21  C   UNL A   1      42.159  28.495  33.638  1.00  0.00     0.273 C 
ATOM     22  C   UNL A   1      43.818  27.497  35.123  1.00  0.00     0.146 C 
ATOM     23  N   UNL A   1      42.569  28.218  34.950  1.00  0.00    -0.343 N 
ATOM     24  C   UNL A   1      41.762  28.447  36.139  1.00  0.00     0.146 C 
ATOM     25  O   UNL A   1      42.797  28.108  32.658  1.00  0.00    -0.267 OA
ENDBRANCH  16  21
ENDBRANCH  13  15
ENDBRANCH  12  13
ENDBRANCH   8  12
ENDBRANCH   4   7
ENDBRANCH   2   3
ENDBRANCH   1   2
BRANCH   1  26
ATOM     26  C   UNL A   1      35.048  33.644  28.005  1.00  0.00     0.023 C 
BRANCH  26  27
ATOM     27  C   UNL A   1      34.659  32.532  28.974  1.00  0.00     0.116 C 
BRANCH  27  28
ATOM     28  N   UNL A   1      34.001  31.417  28.313  1.00  0.00    -0.352 N 
ATOM     29  C   UNL A   1      34.535  30.239  27.855  1.00  0.00     0.251 C 
ATOM     30  H   UNL A   1      33.032  31.522  28.174  1.00  0.00     0.163 HD
ATOM     31  O   UNL A   1      33.838  29.490  27.166  1.00  0.00    -0.269 OA
BRANCH  29  32
ATOM     32  C   UNL A   1      35.937  29.870  28.158  1.00  0.00     0.039 A 
ATOM     33  C   UNL A   1      36.907  30.051  27.168  1.00  0.00     0.014 A 
ATOM     34  C   UNL A   1      36.299  29.313  29.388  1.00  0.00     0.014 A 
ATOM     35  C   UNL A   1      38.237  29.712  27.425  1.00  0.00     0.010 A 
ATOM     36  C   UNL A   1      37.639  29.053  29.671  1.00  0.00     0.010 A 
ATOM     37  C   UNL A   1      38.621  29.227  28.686  1.00  0.00    -0.014 A 
BRANCH  37  38
ATOM     38  C   UNL A   1      40.036  28.864  28.966  1.00  0.00     0.031 A 
ATOM     39  C   UNL A   1      40.962  29.861  29.616  1.00  0.00     0.074 A 
ATOM     40  C   UNL A   1      40.500  27.649  28.613  1.00  0.00     0.049 A 
ATOM     41  N   UNL A   1      42.222  29.724  29.946  1.00  0.00    -0.248 NA
ATOM     42  C   UNL A   1      40.409  31.193  29.909  1.00  0.00     0.031 C 
ATOM     43  C   UNL A   1      39.722  26.609  27.934  1.00  0.00     0.029 A 
ATOM     44  N   UNL A   1      41.737  27.080  28.780  1.00  0.00    -0.354 N 
ATOM     45  C   UNL A   1      42.613  30.952  30.470  1.00  0.00     0.074 A 
ATOM     46  C   UNL A   1      41.476  31.838  30.358  1.00  0.00     0.031 C 
ATOM     47  C   UNL A   1      40.490  25.519  27.776  1.00  0.00     0.029 A 
ATOM     48  C   UNL A   1      41.821  25.790  28.311  1.00  0.00     0.049 A 
ATOM     49  H   UNL A   1      42.496  27.551  29.196  1.00  0.00     0.167 HD
ATOM     50  C   UNL A   1      43.801  31.306  31.016  1.00  0.00     0.031 A 
ATOM     51  C   UNL A   1      42.849  24.918  28.317  1.00  0.00     0.031 A 
ATOM     52  C   UNL A   1      44.929  30.420  31.138  1.00  0.00     0.049 A 
ATOM     53  C   UNL A   1      44.153  25.328  28.945  1.00  0.00     0.074 A 
ATOM     54  C   UNL A   1      46.159  30.667  31.724  1.00  0.00     0.029 A 
ATOM     55  N   UNL A   1      44.966  29.116  30.666  1.00  0.00    -0.354 N 
ATOM     56  N   UNL A   1      44.483  26.473  29.495  1.00  0.00    -0.248 NA
ATOM     57  C   UNL A   1      45.217  24.315  28.976  1.00  0.00     0.031 C 
ATOM     58  C   UNL A   1      46.957  29.528  31.562  1.00  0.00     0.029 A 
ATOM     59  C   UNL A   1      46.202  28.551  30.934  1.00  0.00     0.049 A 
ATOM     60  H   UNL A   1      44.223  28.660  30.210  1.00  0.00     0.167 HD
ATOM     61  C   UNL A   1      45.780  26.306  29.968  1.00  0.00     0.074 A 
ATOM     62  C   UNL A   1      46.166  24.945  29.653  1.00  0.00     0.031 C 
ATOM     63  C   UNL A   1      46.577  27.198  30.608  1.00  0.00     0.031 A 
BRANCH  50  64
ATOM     64  C   UNL A   1      43.939  32.720  31.521  1.00  0.00    -0.014 A 
ATOM     65  C   UNL A   1      43.527  33.075  32.819  1.00  0.00     0.010 A 
ATOM     66  C   UNL A   1      44.508  33.706  30.694  1.00  0.00     0.010 A 
ATOM     67  C   UNL A   1      43.636  34.396  33.263  1.00  0.00     0.020 A 
ATOM     68  C   UNL A   1      44.649  35.022  31.146  1.00  0.00     0.020 A 
ATOM     69  C   UNL A   1      44.193  35.363  32.421  1.00  0.00     0.054 A 
BRANCH  69  70
ATOM     70  S   UNL A   1      44.336  37.066  33.027  1.00  0.00     0.124 S 
ATOM     71  O   UNL A   1      45.777  37.191  33.236  1.00  0.00    -0.237 OA
ATOM     72  O   UNL A   1      43.793  37.847  31.919  1.00  0.00    -0.237 OA
ATOM     73  O   UNL A   1      43.527  37.071  34.244  1.00  0.00    -0.744 OA
ENDBRANCH  69  70
ENDBRANCH  50  64
BRANCH  51  74
ATOM     74  C   UNL A   1      42.672  23.557  27.741  1.00  0.00    -0.014 A 
ATOM     75  C   UNL A   1      43.085  23.276  26.427  1.00  0.00     0.010 A 
ATOM     76  C   UNL A   1      42.100  22.526  28.511  1.00  0.00     0.010 A 
ATOM     77  C   UNL A   1      42.912  21.999  25.885  1.00  0.00     0.020 A 
ATOM     78  C   UNL A   1      41.953  21.241  27.983  1.00  0.00     0.020 A 
ATOM     79  C   UNL A   1      42.349  20.989  26.669  1.00  0.00     0.054 A 
BRANCH  79  80
ATOM     80  S   UNL A   1      42.185  19.324  25.964  1.00  0.00     0.124 S 
ATOM     81  O   UNL A   1      42.727  18.487  27.030  1.00  0.00    -0.237 OA
ATOM     82  O   UNL A   1      40.745  19.216  25.743  1.00  0.00    -0.237 OA
ATOM     83  O   UNL A   1      42.990  19.387  24.746  1.00  0.00    -0.744 OA
ENDBRANCH  79  80
ENDBRANCH  51  74
BRANCH  63  84
ATOM     84  C   UNL A   1      47.932  26.712  31.056  1.00  0.00    -0.014 A 
ATOM     85  C   UNL A   1      49.090  26.952  30.293  1.00  0.00     0.010 A 
ATOM     86  C   UNL A   1      48.046  26.012  32.271  1.00  0.00     0.010 A 
ATOM     87  C   UNL A   1      50.326  26.449  30.708  1.00  0.00     0.020 A 
ATOM     88  C   UNL A   1      49.286  25.536  32.706  1.00  0.00     0.020 A 
ATOM     89  C   UNL A   1      50.415  25.736  31.909  1.00  0.00     0.054 A 
BRANCH  89  90
ATOM     90  S   UNL A   1      52.027  25.089  32.427  1.00  0.00     0.124 S 
ATOM     91  O   UNL A   1      52.256  25.810  33.676  1.00  0.00    -0.237 OA
ATOM     92  O   UNL A   1      51.770  23.658  32.566  1.00  0.00    -0.237 OA
ATOM     93  O   UNL A   1      52.917  25.453  31.326  1.00  0.00    -0.744 OA
ENDBRANCH  89  90
ENDBRANCH  63  84
ENDBRANCH  37  38
ENDBRANCH  29  32
ENDBRANCH  27  28
ENDBRANCH  26  27
ENDBRANCH   1  26
TORSDOF 18
ENDMDL
MODEL 2
REMARK VINA RESULT:      -9.2      4.982     12.492
REMARK SMILES CN(C)C(=O)c1ccc(NC[C@@H]2CC[C@@H](C(=O)NCCCCNC(=O)c3ccc(-c4c5nc(c(-c6ccc(S(=O)(=O)[O-])cc6)c6ccc([nH]6)c(-c6ccc(S(=O)(=O)[O-])cc6)c6nc(c(-c7ccc(S(=O)(=O)[O-])cc7)c7ccc4[nH]7)C=C6)C=C5)cc3)O2)nn1
REMARK SMILES IDX 20 1 19 2 18 3 16 4 17 5 15 7 12 8 13 9 86 10 14 11 11 12
REMARK SMILES IDX 10 13 9 15 6 16 7 17 88 18 8 19 87 20 4 21 1 22 2 23 3 24
REMARK SMILES IDX 5 25 21 26 22 27 23 28 24 29 25 31 26 32 27 33 85 34 28 35
REMARK SMILES IDX 84 36 29 37 30 38 31 39 78 40 32 41 83 42 77 43 79 44 33 45
REMARK SMILES IDX 82 46 76 47 75 48 34 50 64 51 45 52 63 53 46 54 49 55 62 56
REMARK SMILES IDX 80 57 47 58 48 59 61 61 81 62 50 63 35 64 36 65 44 66 37 67
REMARK SMILES IDX 43 68 38 69 39 70 40 71 41 72 42 73 65 74 66 75 74 76 67 77
REMARK SMILES IDX 73 78 68 79 69 80 70 81 71 82 72 83 51 84 52 85 60 86 53 87
REMARK SMILES IDX 59 88 54 89 55 90 56 91 57 92 58 93
REMARK H PARENT 18 6 10 14 23 30 79 49 49 60
REMARK Flexibility Score: inf
ROOT
ATOM      1  C   UNL A   1      41.059  21.286  26.662  1.00  0.00     0.023 C 
ENDROOT
BRANCH   1   2
ATOM      2  C   UNL A   1      39.639  21.272  26.101  1.00  0.00     0.116 C 
BRANCH   2   3
ATOM      3  N   UNL A   1      39.070  22.608  26.053  1.00  0.00    -0.354 N 
ATOM      4  C   UNL A   1      37.765  22.970  25.856  1.00  0.00     0.249 C 
ATOM      5  O   UNL A   1      37.491  24.169  25.795  1.00  0.00    -0.272 OA
ATOM      6  H   UNL A   1      39.705  23.348  26.179  1.00  0.00     0.163 HD
BRANCH   4   7
ATOM      7  C   UNL A   1      36.715  21.866  25.668  1.00  0.00     0.207 C 
ATOM      8  C   UNL A   1      34.378  21.950  25.732  1.00  0.00     0.138 C 
ATOM      9  C   UNL A   1      34.786  21.252  24.444  1.00  0.00     0.037 C 
ATOM     10  O   UNL A   1      35.574  22.090  26.509  1.00  0.00    -0.363 OA
ATOM     11  C   UNL A   1      36.187  21.775  24.243  1.00  0.00     0.045 C 
BRANCH   8  12
ATOM     12  C   UNL A   1      33.281  21.248  26.548  1.00  0.00     0.146 C 
BRANCH  12  13
ATOM     13  N   UNL A   1      31.941  21.621  26.102  1.00  0.00    -0.366 N 
ATOM     14  H   UNL A   1      31.226  20.944  26.107  1.00  0.00     0.162 HD
BRANCH  13  15
ATOM     15  C   UNL A   1      31.655  22.906  25.672  1.00  0.00     0.148 A 
ATOM     16  C   UNL A   1      31.086  25.438  24.753  1.00  0.00     0.151 A 
ATOM     17  C   UNL A   1      31.079  24.389  23.853  1.00  0.00     0.040 A 
ATOM     18  N   UNL A   1      31.360  25.240  26.057  1.00  0.00    -0.143 NA
ATOM     19  C   UNL A   1      31.348  23.106  24.330  1.00  0.00     0.051 A 
ATOM     20  N   UNL A   1      31.630  23.959  26.513  1.00  0.00    -0.132 NA
BRANCH  16  21
ATOM     21  C   UNL A   1      30.902  26.845  24.309  1.00  0.00     0.273 C 
ATOM     22  C   UNL A   1      29.580  28.596  23.240  1.00  0.00     0.146 C 
ATOM     23  N   UNL A   1      29.671  27.246  23.770  1.00  0.00    -0.343 N 
ATOM     24  C   UNL A   1      28.437  26.479  23.852  1.00  0.00     0.146 C 
ATOM     25  O   UNL A   1      31.864  27.610  24.381  1.00  0.00    -0.267 OA
ENDBRANCH  16  21
ENDBRANCH  13  15
ENDBRANCH  12  13
ENDBRANCH   8  12
ENDBRANCH   4   7
ENDBRANCH   2   3
ENDBRANCH   1   2
BRANCH   1  26
ATOM     26  C   UNL A   1      41.267  22.207  27.867  1.00  0.00     0.023 C 
BRANCH  26  27
ATOM     27  C   UNL A   1      42.306  23.306  27.676  1.00  0.00     0.116 C 
BRANCH  27  28
ATOM     28  N   UNL A   1      42.129  24.037  26.432  1.00  0.00    -0.352 N 
ATOM     29  C   UNL A   1      41.681  25.317  26.230  1.00  0.00     0.251 C 
ATOM     30  H   UNL A   1      42.366  23.540  25.615  1.00  0.00     0.163 HD
ATOM     31  O   UNL A   1      41.439  25.696  25.082  1.00  0.00    -0.269 OA
BRANCH  29  32
ATOM     32  C   UNL A   1      41.465  26.236  27.371  1.00  0.00     0.039 A 
ATOM     33  C   UNL A   1      40.356  26.031  28.197  1.00  0.00     0.014 A 
ATOM     34  C   UNL A   1      42.317  27.318  27.614  1.00  0.00     0.014 A 
ATOM     35  C   UNL A   1      40.125  26.882  29.280  1.00  0.00     0.010 A 
ATOM     36  C   UNL A   1      42.132  28.115  28.743  1.00  0.00     0.010 A 
ATOM     37  C   UNL A   1      41.022  27.921  29.577  1.00  0.00    -0.014 A 
BRANCH  37  38
ATOM     38  C   UNL A   1      40.783  28.831  30.729  1.00  0.00     0.031 A 
ATOM     39  C   UNL A   1      41.614  28.706  31.981  1.00  0.00     0.074 A 
ATOM     40  C   UNL A   1      39.801  29.752  30.664  1.00  0.00     0.049 A 
ATOM     41  N   UNL A   1      41.559  29.413  33.082  1.00  0.00    -0.248 NA
ATOM     42  C   UNL A   1      42.620  27.632  32.010  1.00  0.00     0.031 C 
ATOM     43  C   UNL A   1      38.893  29.945  29.531  1.00  0.00     0.029 A 
ATOM     44  N   UNL A   1      39.405  30.704  31.571  1.00  0.00    -0.354 N 
ATOM     45  C   UNL A   1      42.508  28.860  33.936  1.00  0.00     0.074 A 
ATOM     46  C   UNL A   1      43.081  27.724  33.249  1.00  0.00     0.031 C 
ATOM     47  C   UNL A   1      38.072  30.975  29.796  1.00  0.00     0.029 A 
ATOM     48  C   UNL A   1      38.371  31.494  31.128  1.00  0.00     0.049 A 
ATOM     49  H   UNL A   1      39.822  30.810  32.457  1.00  0.00     0.167 HD
ATOM     50  C   UNL A   1      42.888  29.272  35.169  1.00  0.00     0.031 A 
ATOM     51  C   UNL A   1      37.739  32.526  31.720  1.00  0.00     0.031 A 
ATOM     52  C   UNL A   1      42.325  30.410  35.848  1.00  0.00     0.049 A 
ATOM     53  C   UNL A   1      38.190  32.977  33.083  1.00  0.00     0.074 A 
ATOM     54  C   UNL A   1      42.678  30.941  37.077  1.00  0.00     0.029 A 
ATOM     55  N   UNL A   1      41.292  31.194  35.356  1.00  0.00    -0.354 N 
ATOM     56  N   UNL A   1      39.134  32.482  33.847  1.00  0.00    -0.248 NA
ATOM     57  C   UNL A   1      37.503  34.145  33.651  1.00  0.00     0.031 C 
ATOM     58  C   UNL A   1      41.824  32.016  37.350  1.00  0.00     0.029 A 
ATOM     59  C   UNL A   1      40.984  32.195  36.264  1.00  0.00     0.049 A 
ATOM     60  H   UNL A   1      40.845  31.060  34.490  1.00  0.00     0.167 HD
ATOM     61  C   UNL A   1      39.179  33.299  34.971  1.00  0.00     0.074 A 
ATOM     62  C   UNL A   1      38.177  34.328  34.778  1.00  0.00     0.031 C 
ATOM     63  C   UNL A   1      39.979  33.208  36.063  1.00  0.00     0.031 A 
BRANCH  50  64
ATOM     64  C   UNL A   1      43.964  28.478  35.865  1.00  0.00    -0.014 A 
ATOM     65  C   UNL A   1      43.645  27.392  36.701  1.00  0.00     0.010 A 
ATOM     66  C   UNL A   1      45.318  28.808  35.664  1.00  0.00     0.010 A 
ATOM     67  C   UNL A   1      44.652  26.683  37.360  1.00  0.00     0.020 A 
ATOM     68  C   UNL A   1      46.330  28.081  36.297  1.00  0.00     0.020 A 
ATOM     69  C   UNL A   1      45.990  27.035  37.157  1.00  0.00     0.054 A 
BRANCH  69  70
ATOM     70  S   UNL A   1      47.279  26.090  38.015  1.00  0.00     0.124 S 
ATOM     71  O   UNL A   1      47.219  24.804  37.323  1.00  0.00    -0.237 OA
ATOM     72  O   UNL A   1      48.479  26.882  37.763  1.00  0.00    -0.237 OA
ATOM     73  O   UNL A   1      46.829  26.071  39.405  1.00  0.00    -0.744 OA
ENDBRANCH  69  70
ENDBRANCH  50  64
BRANCH  51  74
ATOM     74  C   UNL A   1      36.635  33.228  31.008  1.00  0.00    -0.014 A 
ATOM     75  C   UNL A   1      35.311  33.133  31.471  1.00  0.00     0.010 A 
ATOM     76  C   UNL A   1      36.906  34.010  29.869  1.00  0.00     0.010 A 
ATOM     77  C   UNL A   1      34.275  33.787  30.797  1.00  0.00     0.020 A 
ATOM     78  C   UNL A   1      35.877  34.690  29.212  1.00  0.00     0.020 A 
ATOM     79  C   UNL A   1      34.566  34.564  29.673  1.00  0.00     0.054 A 
BRANCH  79  80
ATOM     80  S   UNL A   1      33.213  35.450  28.847  1.00  0.00     0.124 S 
ATOM     81  O   UNL A   1      32.464  35.985  29.980  1.00  0.00    -0.237 OA
ATOM     82  O   UNL A   1      33.928  36.433  28.038  1.00  0.00    -0.237 OA
ATOM     83  O   UNL A   1      32.535  34.403  28.086  1.00  0.00    -0.744 OA
ENDBRANCH  79  80
ENDBRANCH  51  74
BRANCH  63  84
ATOM     84  C   UNL A   1      39.837  34.281  37.112  1.00  0.00    -0.014 A 
ATOM     85  C   UNL A   1      39.053  34.087  38.264  1.00  0.00     0.010 A 
ATOM     86  C   UNL A   1      40.513  35.503  36.944  1.00  0.00     0.010 A 
ATOM     87  C   UNL A   1      38.900  35.116  39.197  1.00  0.00     0.020 A 
ATOM     88  C   UNL A   1      40.390  36.523  37.892  1.00  0.00     0.020 A 
ATOM     89  C   UNL A   1      39.563  36.331  39.000  1.00  0.00     0.054 A 
BRANCH  89  90
ATOM     90  S   UNL A   1      39.349  37.654  40.221  1.00  0.00     0.124 S 
ATOM     91  O   UNL A   1      40.670  38.278  40.227  1.00  0.00    -0.237 OA
ATOM     92  O   UNL A   1      38.277  38.459  39.639  1.00  0.00    -0.237 OA
ATOM     93  O   UNL A   1      38.991  36.941  41.445  1.00  0.00    -0.744 OA
ENDBRANCH  89  90
ENDBRANCH  63  84
ENDBRANCH  37  38
ENDBRANCH  29  32
ENDBRANCH  27  28
ENDBRANCH  26  27
ENDBRANCH   1  26
TORSDOF 18
ENDMDL
MODEL 3
REMARK VINA RESULT:      -8.9      4.406      7.067
REMARK SMILES CN(C)C(=O)c1ccc(NC[C@@H]2CC[C@@H](C(=O)NCCCCNC(=O)c3ccc(-c4c5nc(c(-c6ccc(S(=O)(=O)[O-])cc6)c6ccc([nH]6)c(-c6ccc(S(=O)(=O)[O-])cc6)c6nc(c(-c7ccc(S(=O)(=O)[O-])cc7)c7ccc4[nH]7)C=C6)C=C5)cc3)O2)nn1
REMARK SMILES IDX 20 1 19 2 18 3 16 4 17 5 15 7 12 8 13 9 86 10 14 11 11 12
REMARK SMILES IDX 10 13 9 15 6 16 7 17 88 18 8 19 87 20 4 21 1 22 2 23 3 24
REMARK SMILES IDX 5 25 21 26 22 27 23 28 24 29 25 31 26 32 27 33 85 34 28 35
REMARK SMILES IDX 84 36 29 37 30 38 31 39 78 40 32 41 83 42 77 43 79 44 33 45
REMARK SMILES IDX 82 46 76 47 75 48 34 50 64 51 45 52 63 53 46 54 49 55 62 56
REMARK SMILES IDX 80 57 47 58 48 59 61 61 81 62 50 63 35 64 36 65 44 66 37 67
REMARK SMILES IDX 43 68 38 69 39 70 40 71 41 72 42 73 65 74 66 75 74 76 67 77
REMARK SMILES IDX 73 78 68 79 69 80 70 81 71 82 72 83 51 84 52 85 60 86 53 87
REMARK SMILES IDX 59 88 54 89 55 90 56 91 57 92 58 93
REMARK H PARENT 18 6 10 14 23 30 79 49 49 60
REMARK Flexibility Score: inf
ROOT
ATOM      1  C   UNL A   1      35.439  33.193  28.005  1.00  0.00     0.023 C 
ENDROOT
BRANCH   1   2
ATOM      2  C   UNL A   1      34.340  32.154  27.791  1.00  0.00     0.116 C 
BRANCH   2   3
ATOM      3  N   UNL A   1      34.880  30.807  27.745  1.00  0.00    -0.354 N 
ATOM      4  C   UNL A   1      34.433  29.735  27.020  1.00  0.00     0.249 C 
ATOM      5  O   UNL A   1      35.002  28.652  27.162  1.00  0.00    -0.272 OA
ATOM      6  H   UNL A   1      35.670  30.643  28.308  1.00  0.00     0.163 HD
BRANCH   4   7
ATOM      7  C   UNL A   1      33.214  29.922  26.106  1.00  0.00     0.207 C 
ATOM      8  C   UNL A   1      32.220  28.469  24.565  1.00  0.00     0.138 C 
ATOM      9  C   UNL A   1      31.129  28.992  25.487  1.00  0.00     0.037 C 
ATOM     10  O   UNL A   1      33.395  29.237  24.858  1.00  0.00    -0.363 OA
ATOM     11  C   UNL A   1      31.924  29.385  26.709  1.00  0.00     0.045 C 
BRANCH   8  12
ATOM     12  C   UNL A   1      31.899  28.522  23.063  1.00  0.00     0.146 C 
BRANCH  12  13
ATOM     13  N   UNL A   1      32.746  27.618  22.289  1.00  0.00    -0.366 N 
ATOM     14  H   UNL A   1      33.380  27.994  21.635  1.00  0.00     0.162 HD
BRANCH  13  15
ATOM     15  C   UNL A   1      32.677  26.246  22.454  1.00  0.00     0.148 A 
ATOM     16  C   UNL A   1      32.473  23.522  22.802  1.00  0.00     0.151 A 
ATOM     17  C   UNL A   1      31.322  24.286  22.862  1.00  0.00     0.040 A 
ATOM     18  N   UNL A   1      33.676  24.084  22.574  1.00  0.00    -0.143 NA
ATOM     19  C   UNL A   1      31.431  25.662  22.664  1.00  0.00     0.051 A 
ATOM     20  N   UNL A   1      33.766  25.454  22.385  1.00  0.00    -0.132 NA
BRANCH  16  21
ATOM     21  C   UNL A   1      32.454  22.064  23.093  1.00  0.00     0.273 C 
ATOM     22  C   UNL A   1      33.130  20.142  24.435  1.00  0.00     0.146 C 
ATOM     23  N   UNL A   1      33.068  21.582  24.258  1.00  0.00    -0.343 N 
ATOM     24  C   UNL A   1      33.497  22.410  25.376  1.00  0.00     0.146 C 
ATOM     25  O   UNL A   1      31.940  21.310  22.266  1.00  0.00    -0.267 OA
ENDBRANCH  16  21
ENDBRANCH  13  15
ENDBRANCH  12  13
ENDBRANCH   8  12
ENDBRANCH   4   7
ENDBRANCH   2   3
ENDBRANCH   1   2
BRANCH   1  26
ATOM     26  C   UNL A   1      35.477  33.811  29.405  1.00  0.00     0.023 C 
BRANCH  26  27
ATOM     27  C   UNL A   1      36.574  33.282  30.323  1.00  0.00     0.116 C 
BRANCH  27  28
ATOM     28  N   UNL A   1      36.107  32.223  31.202  1.00  0.00    -0.352 N 
ATOM     29  C   UNL A   1      36.617  30.964  31.397  1.00  0.00     0.251 C 
ATOM     30  H   UNL A   1      35.309  32.441  31.737  1.00  0.00     0.163 HD
ATOM     31  O   UNL A   1      35.973  30.151  32.063  1.00  0.00    -0.269 OA
BRANCH  29  32
ATOM     32  C   UNL A   1      37.912  30.568  30.799  1.00  0.00     0.039 A 
ATOM     33  C   UNL A   1      38.973  30.246  31.650  1.00  0.00     0.014 A 
ATOM     34  C   UNL A   1      38.105  30.546  29.415  1.00  0.00     0.014 A 
ATOM     35  C   UNL A   1      40.207  29.869  31.116  1.00  0.00     0.010 A 
ATOM     36  C   UNL A   1      39.311  30.089  28.883  1.00  0.00     0.010 A 
ATOM     37  C   UNL A   1      40.384  29.768  29.726  1.00  0.00    -0.014 A 
BRANCH  37  38
ATOM     38  C   UNL A   1      41.695  29.366  29.149  1.00  0.00     0.031 A 
ATOM     39  C   UNL A   1      42.815  30.369  29.038  1.00  0.00     0.074 A 
ATOM     40  C   UNL A   1      41.873  28.109  28.699  1.00  0.00     0.049 A 
ATOM     41  N   UNL A   1      44.028  30.203  28.573  1.00  0.00    -0.248 NA
ATOM     42  C   UNL A   1      42.528  31.743  29.483  1.00  0.00     0.031 C 
ATOM     43  C   UNL A   1      40.855  27.055  28.703  1.00  0.00     0.029 A 
ATOM     44  N   UNL A   1      42.976  27.501  28.153  1.00  0.00    -0.354 N 
ATOM     45  C   UNL A   1      44.640  31.450  28.655  1.00  0.00     0.074 A 
ATOM     46  C   UNL A   1      43.647  32.374  29.158  1.00  0.00     0.031 C 
ATOM     47  C   UNL A   1      41.393  25.923  28.219  1.00  0.00     0.029 A 
ATOM     48  C   UNL A   1      42.780  26.177  27.840  1.00  0.00     0.049 A 
ATOM     49  H   UNL A   1      43.828  27.970  27.999  1.00  0.00     0.167 HD
ATOM     50  C   UNL A   1      45.917  31.794  28.363  1.00  0.00     0.031 A 
ATOM     51  C   UNL A   1      43.622  25.265  27.316  1.00  0.00     0.031 A 
ATOM     52  C   UNL A   1      46.909  30.872  27.874  1.00  0.00     0.049 A 
ATOM     53  C   UNL A   1      45.041  25.665  27.016  1.00  0.00     0.074 A 
ATOM     54  C   UNL A   1      48.244  31.109  27.598  1.00  0.00     0.029 A 
ATOM     55  N   UNL A   1      46.673  29.535  27.588  1.00  0.00    -0.354 N 
ATOM     56  N   UNL A   1      45.619  26.833  27.163  1.00  0.00    -0.248 NA
ATOM     57  C   UNL A   1      45.928  24.612  26.502  1.00  0.00     0.031 C 
ATOM     58  C   UNL A   1      48.804  29.928  27.098  1.00  0.00     0.029 A 
ATOM     59  C   UNL A   1      47.835  28.939  27.123  1.00  0.00     0.049 A 
ATOM     60  H   UNL A   1      45.809  29.078  27.698  1.00  0.00     0.167 HD
ATOM     61  C   UNL A   1      46.947  26.647  26.793  1.00  0.00     0.074 A 
ATOM     62  C   UNL A   1      47.087  25.251  26.431  1.00  0.00     0.031 C 
ATOM     63  C   UNL A   1      47.959  27.550  26.759  1.00  0.00     0.031 A 
BRANCH  50  64
ATOM     64  C   UNL A   1      46.312  33.235  28.564  1.00  0.00    -0.014 A 
ATOM     65  C   UNL A   1      46.825  33.687  29.794  1.00  0.00     0.010 A 
ATOM     66  C   UNL A   1      46.188  34.149  27.501  1.00  0.00     0.010 A 
ATOM     67  C   UNL A   1      47.161  35.032  29.973  1.00  0.00     0.020 A 
ATOM     68  C   UNL A   1      46.553  35.488  27.666  1.00  0.00     0.020 A 
ATOM     69  C   UNL A   1      47.019  35.926  28.908  1.00  0.00     0.054 A 
BRANCH  69  70
ATOM     70  S   UNL A   1      47.475  37.663  29.162  1.00  0.00     0.124 S 
ATOM     71  O   UNL A   1      48.255  37.948  27.960  1.00  0.00    -0.237 OA
ATOM     72  O   UNL A   1      46.176  38.327  29.240  1.00  0.00    -0.237 OA
ATOM     73  O   UNL A   1      48.236  37.642  30.409  1.00  0.00    -0.744 OA
ENDBRANCH  69  70
ENDBRANCH  50  64
BRANCH  51  74
ATOM     74  C   UNL A   1      43.153  23.872  27.076  1.00  0.00    -0.014 A 
ATOM     75  C   UNL A   1      43.181  22.919  28.110  1.00  0.00     0.010 A 
ATOM     76  C   UNL A   1      42.661  23.494  25.813  1.00  0.00     0.010 A 
ATOM     77  C   UNL A   1      42.747  21.610  27.881  1.00  0.00     0.020 A 
ATOM     78  C   UNL A   1      42.198  22.194  25.589  1.00  0.00     0.020 A 
ATOM     79  C   UNL A   1      42.255  21.257  26.622  1.00  0.00     0.054 A 
BRANCH  79  80
ATOM     80  S   UNL A   1      41.645  19.567  26.363  1.00  0.00     0.124 S 
ATOM     81  O   UNL A   1      42.409  19.144  25.193  1.00  0.00    -0.237 OA
ATOM     82  O   UNL A   1      41.995  18.909  27.619  1.00  0.00    -0.237 OA
ATOM     83  O   UNL A   1      40.213  19.752  26.143  1.00  0.00    -0.744 OA
ENDBRANCH  79  80
ENDBRANCH  51  74
BRANCH  63  84
ATOM     84  C   UNL A   1      49.322  27.042  26.363  1.00  0.00    -0.014 A 
ATOM     85  C   UNL A   1      49.748  27.043  25.022  1.00  0.00     0.010 A 
ATOM     86  C   UNL A   1      50.196  26.565  27.357  1.00  0.00     0.010 A 
ATOM     87  C   UNL A   1      50.998  26.522  24.677  1.00  0.00     0.020 A 
ATOM     88  C   UNL A   1      51.460  26.074  27.019  1.00  0.00     0.020 A 
ATOM     89  C   UNL A   1      51.843  26.033  25.678  1.00  0.00     0.054 A 
BRANCH  89  90
ATOM     90  S   UNL A   1      53.459  25.359  25.208  1.00  0.00     0.124 S 
ATOM     91  O   UNL A   1      54.335  25.935  26.224  1.00  0.00    -0.237 OA
ATOM     92  O   UNL A   1      53.247  23.917  25.306  1.00  0.00    -0.237 OA
ATOM     93  O   UNL A   1      53.664  25.861  23.851  1.00  0.00    -0.744 OA
ENDBRANCH  89  90
ENDBRANCH  63  84
ENDBRANCH  37  38
ENDBRANCH  29  32
ENDBRANCH  27  28
ENDBRANCH  26  27
ENDBRANCH   1  26
TORSDOF 18
ENDMDL
