MODEL 1
REMARK VINA RESULT:     -11.7      0.000      0.000
REMARK SMILES COc1ccc2c(c1)c(Cc1nc(-c3ccc(C(=O)NCCCCNC(=O)c4ccc(-c5c6nc(c(-c7ccc(S(=O)(=O)[O-])cc7)c7ccc([nH]7)c(-c7ccc(S(=O)(=O)[O-])cc7)c7nc(c(-c8ccc(S(=O)(=O)[O-])cc8)c8ccc5[nH]8)C=C7)C=C6)cc4)cc3)cs1)c(C)n2C(=O)c1ccc(Cl)cc1
REMARK SMILES IDX 21 1 20 2 18 3 19 4 17 6 14 7 15 8 89 9 16 10 88 11 13 12
REMARK SMILES IDX 11 13 12 14 91 15 90 16 10 17 9 18 3 19 4 20 8 21 5 22 7 23
REMARK SMILES IDX 6 24 94 25 92 26 93 27 2 28 1 29 95 30 96 31 97 32 98 33
REMARK SMILES IDX 103 34 99 35 102 36 100 37 101 38 22 39 23 40 24 41 25 42
REMARK SMILES IDX 26 43 27 45 28 46 29 47 87 48 30 49 86 50 31 51 32 52 33 53
REMARK SMILES IDX 80 54 34 55 85 56 79 57 81 58 35 59 84 60 78 61 77 62 36 64
REMARK SMILES IDX 66 65 47 66 65 67 48 68 51 69 64 70 82 71 49 72 50 73 63 75
REMARK SMILES IDX 83 76 52 77 37 78 38 79 46 80 39 81 45 82 40 83 41 84 42 85
REMARK SMILES IDX 43 86 44 87 67 88 68 89 76 90 69 91 75 92 70 93 71 94 72 95
REMARK SMILES IDX 73 96 74 97 53 98 54 99 62 100 55 101 61 102 56 103 57 104
REMARK SMILES IDX 58 105 59 106 60 107
REMARK H PARENT 20 5 25 44 81 63 51 74
REMARK Flexibility Score: inf
ROOT
ATOM      1  C   UNL A   1      38.567  29.696  27.816  1.00  0.00     0.116 C 
ENDROOT
BRANCH   1   2
ATOM      2  N   UNL A   1      39.771  29.554  28.618  1.00  0.00    -0.352 N 
ATOM      3  C   UNL A   1      40.644  28.501  28.776  1.00  0.00     0.251 C 
ATOM      4  O   UNL A   1      41.633  28.662  29.492  1.00  0.00    -0.269 OA
ATOM      5  H   UNL A   1      40.004  30.355  29.142  1.00  0.00     0.163 HD
BRANCH   3   6
ATOM      6  C   UNL A   1      40.402  27.157  28.180  1.00  0.00     0.039 A 
ATOM      7  C   UNL A   1      39.589  24.693  27.070  1.00  0.00     0.001 A 
ATOM      8  C   UNL A   1      39.285  25.002  28.400  1.00  0.00     0.011 A 
ATOM      9  C   UNL A   1      40.416  25.570  26.353  1.00  0.00     0.011 A 
ATOM     10  C   UNL A   1      39.683  26.228  28.947  1.00  0.00     0.014 A 
ATOM     11  C   UNL A   1      40.848  26.776  26.915  1.00  0.00     0.014 A 
BRANCH   7  12
ATOM     12  C   UNL A   1      39.078  23.499  26.412  1.00  0.00     0.081 A 
ATOM     13  C   UNL A   1      37.729  22.410  25.023  1.00  0.00     0.098 A 
ATOM     14  N   UNL A   1      38.030  23.590  25.520  1.00  0.00    -0.241 NA
ATOM     15  S   UNL A   1      38.632  21.101  25.673  1.00  0.00    -0.126 S 
ATOM     16  C   UNL A   1      39.507  22.209  26.654  1.00  0.00     0.095 A 
BRANCH  13  17
ATOM     17  C   UNL A   1      36.653  22.187  24.000  1.00  0.00     0.105 C 
BRANCH  17  18
ATOM     18  C   UNL A   1      35.279  22.064  24.613  1.00  0.00    -0.012 A 
ATOM     19  C   UNL A   1      33.959  18.475  24.778  1.00  0.00     0.119 A 
ATOM     20  C   UNL A   1      32.690  18.804  25.218  1.00  0.00     0.048 A 
ATOM     21  C   UNL A   1      34.879  19.494  24.542  1.00  0.00     0.057 A 
ATOM     22  C   UNL A   1      32.334  20.141  25.443  1.00  0.00     0.031 A 
ATOM     23  C   UNL A   1      34.560  20.850  24.793  1.00  0.00     0.008 A 
ATOM     24  C   UNL A   1      33.294  21.168  25.291  1.00  0.00     0.057 A 
ATOM     25  N   UNL A   1      33.261  22.556  25.542  1.00  0.00    -0.280 N 
ATOM     26  C   UNL A   1      34.470  23.097  25.070  1.00  0.00     0.028 A 
ATOM     27  C   UNL A   1      34.843  24.548  25.074  1.00  0.00     0.065 C 
BRANCH  19  28
ATOM     28  O   UNL A   1      34.430  17.210  24.566  1.00  0.00    -0.497 OA
ATOM     29  C   UNL A   1      34.153  16.642  23.293  1.00  0.00     0.278 C 
ENDBRANCH  19  28
BRANCH  25  30
ATOM     30  C   UNL A   1      32.184  23.266  26.148  1.00  0.00     0.262 C 
ATOM     31  O   UNL A   1      31.965  23.118  27.356  1.00  0.00    -0.268 OA
BRANCH  30  32
ATOM     32  C   UNL A   1      31.298  24.226  25.471  1.00  0.00     0.040 A 
ATOM     33  C   UNL A   1      30.903  24.036  24.142  1.00  0.00     0.015 A 
ATOM     34  C   UNL A   1      30.886  25.359  26.185  1.00  0.00     0.015 A 
ATOM     35  C   UNL A   1      30.168  25.036  23.499  1.00  0.00     0.021 A 
ATOM     36  C   UNL A   1      30.145  26.349  25.540  1.00  0.00     0.021 A 
ATOM     37  C   UNL A   1      29.807  26.192  24.195  1.00  0.00     0.041 A 
ATOM     38  Cl  UNL A   1      28.958  27.449  23.382  1.00  0.00    -0.084 Cl
ENDBRANCH  30  32
ENDBRANCH  25  30
ENDBRANCH  17  18
ENDBRANCH  13  17
ENDBRANCH   7  12
ENDBRANCH   3   6
ENDBRANCH   1   2
BRANCH   1  39
ATOM     39  C   UNL A   1      37.333  30.160  28.582  1.00  0.00     0.023 C 
BRANCH  39  40
ATOM     40  C   UNL A   1      36.321  31.028  27.836  1.00  0.00     0.023 C 
BRANCH  40  41
ATOM     41  C   UNL A   1      34.847  30.823  28.184  1.00  0.00     0.116 C 
BRANCH  41  42
ATOM     42  N   UNL A   1      34.218  31.899  28.922  1.00  0.00    -0.352 N 
ATOM     43  C   UNL A   1      34.599  32.730  29.942  1.00  0.00     0.251 C 
ATOM     44  H   UNL A   1      33.299  32.076  28.618  1.00  0.00     0.163 HD
ATOM     45  O   UNL A   1      33.876  33.713  30.123  1.00  0.00    -0.269 OA
BRANCH  43  46
ATOM     46  C   UNL A   1      35.748  32.507  30.866  1.00  0.00     0.039 A 
ATOM     47  C   UNL A   1      35.847  31.490  31.813  1.00  0.00     0.014 A 
ATOM     48  C   UNL A   1      36.789  33.457  30.797  1.00  0.00     0.014 A 
ATOM     49  C   UNL A   1      36.902  31.479  32.726  1.00  0.00     0.010 A 
ATOM     50  C   UNL A   1      37.853  33.441  31.698  1.00  0.00     0.010 A 
ATOM     51  C   UNL A   1      37.891  32.470  32.690  1.00  0.00    -0.014 A 
BRANCH  51  52
ATOM     52  C   UNL A   1      39.012  32.357  33.623  1.00  0.00     0.031 A 
ATOM     53  C   UNL A   1      38.877  33.172  34.865  1.00  0.00     0.074 A 
ATOM     54  C   UNL A   1      40.069  31.530  33.476  1.00  0.00     0.049 A 
ATOM     55  N   UNL A   1      39.623  34.156  35.248  1.00  0.00    -0.248 NA
ATOM     56  C   UNL A   1      37.712  32.932  35.728  1.00  0.00     0.031 C 
ATOM     57  C   UNL A   1      40.255  30.464  32.491  1.00  0.00     0.029 A 
ATOM     58  N   UNL A   1      41.178  31.416  34.265  1.00  0.00    -0.354 N 
ATOM     59  C   UNL A   1      39.124  34.571  36.480  1.00  0.00     0.074 A 
ATOM     60  C   UNL A   1      37.881  33.862  36.669  1.00  0.00     0.031 C 
ATOM     61  C   UNL A   1      41.282  29.671  32.882  1.00  0.00     0.029 A 
ATOM     62  C   UNL A   1      41.913  30.255  34.053  1.00  0.00     0.049 A 
ATOM     63  H   UNL A   1      41.435  32.098  34.928  1.00  0.00     0.167 HD
ATOM     64  C   UNL A   1      39.845  35.359  37.326  1.00  0.00     0.031 A 
ATOM     65  C   UNL A   1      42.927  29.781  34.824  1.00  0.00     0.031 A 
ATOM     66  C   UNL A   1      40.971  35.958  36.661  1.00  0.00     0.049 A 
ATOM     67  C   UNL A   1      43.468  30.918  35.604  1.00  0.00     0.074 A 
ATOM     68  C   UNL A   1      41.115  36.838  35.608  1.00  0.00     0.029 A 
ATOM     69  N   UNL A   1      42.202  35.378  36.853  1.00  0.00    -0.354 N 
ATOM     70  N   UNL A   1      44.137  31.904  35.079  1.00  0.00    -0.248 NA
ATOM     71  C   UNL A   1      42.928  31.164  36.932  1.00  0.00     0.031 C 
ATOM     72  C   UNL A   1      42.280  36.396  34.922  1.00  0.00     0.029 A 
ATOM     73  C   UNL A   1      42.820  35.321  35.632  1.00  0.00     0.049 A 
ATOM     74  H   UNL A   1      42.571  35.062  37.709  1.00  0.00     0.167 HD
ATOM     75  C   UNL A   1      43.730  33.020  35.792  1.00  0.00     0.074 A 
ATOM     76  C   UNL A   1      43.073  32.490  36.984  1.00  0.00     0.031 C 
ATOM     77  C   UNL A   1      43.715  34.259  35.218  1.00  0.00     0.031 A 
BRANCH  64  78
ATOM     78  C   UNL A   1      39.713  35.371  38.828  1.00  0.00    -0.014 A 
ATOM     79  C   UNL A   1      39.081  36.407  39.540  1.00  0.00     0.010 A 
ATOM     80  C   UNL A   1      40.014  34.193  39.548  1.00  0.00     0.010 A 
ATOM     81  C   UNL A   1      38.766  36.287  40.897  1.00  0.00     0.020 A 
ATOM     82  C   UNL A   1      39.662  34.044  40.897  1.00  0.00     0.020 A 
ATOM     83  C   UNL A   1      39.044  35.098  41.564  1.00  0.00     0.054 A 
BRANCH  83  84
ATOM     84  S   UNL A   1      38.519  34.941  43.288  1.00  0.00     0.124 S 
ATOM     85  O   UNL A   1      39.276  36.013  43.930  1.00  0.00    -0.237 OA
ATOM     86  O   UNL A   1      37.078  35.155  43.197  1.00  0.00    -0.237 OA
ATOM     87  O   UNL A   1      38.927  33.586  43.650  1.00  0.00    -0.744 OA
ENDBRANCH  83  84
ENDBRANCH  64  78
BRANCH  65  88
ATOM     88  C   UNL A   1      43.219  28.374  35.205  1.00  0.00    -0.014 A 
ATOM     89  C   UNL A   1      44.339  27.716  34.660  1.00  0.00     0.010 A 
ATOM     90  C   UNL A   1      42.227  27.582  35.820  1.00  0.00     0.010 A 
ATOM     91  C   UNL A   1      44.416  26.320  34.629  1.00  0.00     0.020 A 
ATOM     92  C   UNL A   1      42.294  26.179  35.785  1.00  0.00     0.020 A 
ATOM     93  C   UNL A   1      43.369  25.560  35.147  1.00  0.00     0.054 A 
BRANCH  93  94
ATOM     94  S   UNL A   1      43.387  23.766  34.863  1.00  0.00     0.124 S 
ATOM     95  O   UNL A   1      43.864  23.685  33.484  1.00  0.00    -0.237 OA
ATOM     96  O   UNL A   1      44.329  23.296  35.877  1.00  0.00    -0.237 OA
ATOM     97  O   UNL A   1      42.001  23.364  35.071  1.00  0.00    -0.744 OA
ENDBRANCH  93  94
ENDBRANCH  65  88
BRANCH  77  98
ATOM     98  C   UNL A   1      44.449  34.488  33.913  1.00  0.00    -0.014 A 
ATOM     99  C   UNL A   1      43.770  34.138  32.730  1.00  0.00     0.010 A 
ATOM    100  C   UNL A   1      45.811  34.836  33.823  1.00  0.00     0.010 A 
ATOM    101  C   UNL A   1      44.432  34.093  31.503  1.00  0.00     0.020 A 
ATOM    102  C   UNL A   1      46.474  34.827  32.585  1.00  0.00     0.020 A 
ATOM    103  C   UNL A   1      45.784  34.428  31.438  1.00  0.00     0.054 A 
BRANCH 103 104
ATOM    104  S   UNL A   1      46.617  34.307  29.832  1.00  0.00     0.124 S 
ATOM    105  O   UNL A   1      47.698  33.366  30.115  1.00  0.00    -0.237 OA
ATOM    106  O   UNL A   1      45.560  33.798  28.959  1.00  0.00    -0.237 OA
ATOM    107  O   UNL A   1      47.043  35.675  29.549  1.00  0.00    -0.744 OA
ENDBRANCH 103 104
ENDBRANCH  77  98
ENDBRANCH  51  52
ENDBRANCH  43  46
ENDBRANCH  41  42
ENDBRANCH  40  41
ENDBRANCH  39  40
ENDBRANCH   1  39
TORSDOF 20
ENDMDL
MODEL 2
REMARK VINA RESULT:     -11.7      6.809     13.591
REMARK SMILES COc1ccc2c(c1)c(Cc1nc(-c3ccc(C(=O)NCCCCNC(=O)c4ccc(-c5c6nc(c(-c7ccc(S(=O)(=O)[O-])cc7)c7ccc([nH]7)c(-c7ccc(S(=O)(=O)[O-])cc7)c7nc(c(-c8ccc(S(=O)(=O)[O-])cc8)c8ccc5[nH]8)C=C7)C=C6)cc4)cc3)cs1)c(C)n2C(=O)c1ccc(Cl)cc1
REMARK SMILES IDX 21 1 20 2 18 3 19 4 17 6 14 7 15 8 89 9 16 10 88 11 13 12
REMARK SMILES IDX 11 13 12 14 91 15 90 16 10 17 9 18 3 19 4 20 8 21 5 22 7 23
REMARK SMILES IDX 6 24 94 25 92 26 93 27 2 28 1 29 95 30 96 31 97 32 98 33
REMARK SMILES IDX 103 34 99 35 102 36 100 37 101 38 22 39 23 40 24 41 25 42
REMARK SMILES IDX 26 43 27 45 28 46 29 47 87 48 30 49 86 50 31 51 32 52 33 53
REMARK SMILES IDX 80 54 34 55 85 56 79 57 81 58 35 59 84 60 78 61 77 62 36 64
REMARK SMILES IDX 66 65 47 66 65 67 48 68 51 69 64 70 82 71 49 72 50 73 63 75
REMARK SMILES IDX 83 76 52 77 37 78 38 79 46 80 39 81 45 82 40 83 41 84 42 85
REMARK SMILES IDX 43 86 44 87 67 88 68 89 76 90 69 91 75 92 70 93 71 94 72 95
REMARK SMILES IDX 73 96 74 97 53 98 54 99 62 100 55 101 61 102 56 103 57 104
REMARK SMILES IDX 58 105 59 106 60 107
REMARK H PARENT 20 5 25 44 81 63 51 74
REMARK Flexibility Score: inf
ROOT
ATOM      1  C   UNL A   1      45.963  25.066  25.058  1.00  0.00     0.116 C 
ENDROOT
BRANCH   1   2
ATOM      2  N   UNL A   1      46.766  26.266  24.889  1.00  0.00    -0.352 N 
ATOM      3  C   UNL A   1      47.736  26.835  25.685  1.00  0.00     0.251 C 
ATOM      4  O   UNL A   1      48.308  27.847  25.278  1.00  0.00    -0.269 OA
ATOM      5  H   UNL A   1      46.584  26.761  24.057  1.00  0.00     0.163 HD
BRANCH   3   6
ATOM      6  C   UNL A   1      48.067  26.322  27.044  1.00  0.00     0.039 A 
ATOM      7  C   UNL A   1      48.864  25.670  29.671  1.00  0.00     0.001 A 
ATOM      8  C   UNL A   1      49.821  25.833  28.665  1.00  0.00     0.011 A 
ATOM      9  C   UNL A   1      47.507  25.705  29.315  1.00  0.00     0.011 A 
ATOM     10  C   UNL A   1      49.425  26.163  27.363  1.00  0.00     0.014 A 
ATOM     11  C   UNL A   1      47.112  25.995  28.005  1.00  0.00     0.014 A 
BRANCH   7  12
ATOM     12  C   UNL A   1      49.228  25.468  31.067  1.00  0.00     0.081 A 
ATOM     13  C   UNL A   1      48.915  25.660  33.258  1.00  0.00     0.098 A 
ATOM     14  N   UNL A   1      48.425  25.960  32.074  1.00  0.00    -0.241 NA
ATOM     15  S   UNL A   1      50.426  24.844  33.227  1.00  0.00    -0.126 S 
ATOM     16  C   UNL A   1      50.390  24.867  31.508  1.00  0.00     0.095 A 
BRANCH  13  17
ATOM     17  C   UNL A   1      48.250  26.028  34.552  1.00  0.00     0.105 C 
BRANCH  17  18
ATOM     18  C   UNL A   1      47.529  24.865  35.191  1.00  0.00    -0.012 A 
ATOM     19  C   UNL A   1      44.558  23.562  33.160  1.00  0.00     0.119 A 
ATOM     20  C   UNL A   1      44.104  22.671  34.116  1.00  0.00     0.048 A 
ATOM     21  C   UNL A   1      45.682  24.338  33.437  1.00  0.00     0.057 A 
ATOM     22  C   UNL A   1      44.774  22.532  35.340  1.00  0.00     0.031 A 
ATOM     23  C   UNL A   1      46.397  24.195  34.649  1.00  0.00     0.008 A 
ATOM     24  C   UNL A   1      45.965  23.252  35.585  1.00  0.00     0.057 A 
ATOM     25  N   UNL A   1      46.891  23.240  36.650  1.00  0.00    -0.280 N 
ATOM     26  C   UNL A   1      47.815  24.274  36.416  1.00  0.00     0.028 A 
ATOM     27  C   UNL A   1      48.940  24.668  37.323  1.00  0.00     0.065 C 
BRANCH  19  28
ATOM     28  O   UNL A   1      44.015  23.752  31.920  1.00  0.00    -0.497 OA
ATOM     29  C   UNL A   1      44.379  24.952  31.253  1.00  0.00     0.278 C 
ENDBRANCH  19  28
BRANCH  25  30
ATOM     30  C   UNL A   1      46.869  22.348  37.762  1.00  0.00     0.262 C 
ATOM     31  O   UNL A   1      45.938  22.414  38.573  1.00  0.00    -0.268 OA
BRANCH  30  32
ATOM     32  C   UNL A   1      47.851  21.286  38.033  1.00  0.00     0.040 A 
ATOM     33  C   UNL A   1      47.993  20.740  39.314  1.00  0.00     0.015 A 
ATOM     34  C   UNL A   1      48.669  20.860  36.979  1.00  0.00     0.015 A 
ATOM     35  C   UNL A   1      49.026  19.829  39.556  1.00  0.00     0.021 A 
ATOM     36  C   UNL A   1      49.690  19.943  37.225  1.00  0.00     0.021 A 
ATOM     37  C   UNL A   1      49.877  19.448  38.516  1.00  0.00     0.041 A 
ATOM     38  Cl  UNL A   1      51.185  18.376  38.832  1.00  0.00    -0.084 Cl
ENDBRANCH  30  32
ENDBRANCH  25  30
ENDBRANCH  17  18
ENDBRANCH  13  17
ENDBRANCH   7  12
ENDBRANCH   3   6
ENDBRANCH   1   2
BRANCH   1  39
ATOM     39  C   UNL A   1      46.744  23.758  25.011  1.00  0.00     0.023 C 
BRANCH  39  40
ATOM     40  C   UNL A   1      46.131  22.595  24.232  1.00  0.00     0.023 C 
BRANCH  40  41
ATOM     41  C   UNL A   1      46.138  21.228  24.915  1.00  0.00     0.116 C 
BRANCH  41  42
ATOM     42  N   UNL A   1      44.836  20.682  25.243  1.00  0.00    -0.352 N 
ATOM     43  C   UNL A   1      43.651  21.200  25.693  1.00  0.00     0.251 C 
ATOM     44  H   UNL A   1      44.793  19.707  25.111  1.00  0.00     0.163 HD
ATOM     45  O   UNL A   1      42.675  20.452  25.596  1.00  0.00    -0.269 OA
BRANCH  43  46
ATOM     46  C   UNL A   1      43.470  22.533  26.335  1.00  0.00     0.039 A 
ATOM     47  C   UNL A   1      44.073  22.959  27.517  1.00  0.00     0.014 A 
ATOM     48  C   UNL A   1      42.555  23.403  25.704  1.00  0.00     0.014 A 
ATOM     49  C   UNL A   1      43.703  24.170  28.100  1.00  0.00     0.010 A 
ATOM     50  C   UNL A   1      42.193  24.622  26.276  1.00  0.00     0.010 A 
ATOM     51  C   UNL A   1      42.742  24.991  27.497  1.00  0.00    -0.014 A 
BRANCH  51  52
ATOM     52  C   UNL A   1      42.455  26.285  28.117  1.00  0.00     0.031 A 
ATOM     53  C   UNL A   1      43.487  27.335  27.879  1.00  0.00     0.074 A 
ATOM     54  C   UNL A   1      41.323  26.597  28.784  1.00  0.00     0.049 A 
ATOM     55  N   UNL A   1      44.237  27.918  28.755  1.00  0.00    -0.248 NA
ATOM     56  C   UNL A   1      43.793  27.702  26.489  1.00  0.00     0.031 C 
ATOM     57  C   UNL A   1      40.090  25.817  28.889  1.00  0.00     0.029 A 
ATOM     58  N   UNL A   1      41.012  27.753  29.441  1.00  0.00    -0.354 N 
ATOM     59  C   UNL A   1      45.010  28.843  28.058  1.00  0.00     0.074 A 
ATOM     60  C   UNL A   1      44.780  28.585  26.658  1.00  0.00     0.031 C 
ATOM     61  C   UNL A   1      39.100  26.612  29.362  1.00  0.00     0.029 A 
ATOM     62  C   UNL A   1      39.660  27.901  29.729  1.00  0.00     0.049 A 
ATOM     63  H   UNL A   1      41.688  28.425  29.689  1.00  0.00     0.167 HD
ATOM     64  C   UNL A   1      45.672  29.855  28.688  1.00  0.00     0.031 A 
ATOM     65  C   UNL A   1      39.042  29.024  30.178  1.00  0.00     0.031 A 
ATOM     66  C   UNL A   1      45.748  29.636  30.107  1.00  0.00     0.049 A 
ATOM     67  C   UNL A   1      40.072  29.887  30.800  1.00  0.00     0.074 A 
ATOM     68  C   UNL A   1      46.324  28.670  30.906  1.00  0.00     0.029 A 
ATOM     69  N   UNL A   1      44.855  30.313  30.901  1.00  0.00    -0.354 N 
ATOM     70  N   UNL A   1      40.679  29.602  31.916  1.00  0.00    -0.248 NA
ATOM     71  C   UNL A   1      40.720  30.894  29.974  1.00  0.00     0.031 C 
ATOM     72  C   UNL A   1      45.417  28.504  31.988  1.00  0.00     0.029 A 
ATOM     73  C   UNL A   1      44.378  29.424  31.828  1.00  0.00     0.049 A 
ATOM     74  H   UNL A   1      44.603  31.261  30.819  1.00  0.00     0.167 HD
ATOM     75  C   UNL A   1      41.979  30.044  31.729  1.00  0.00     0.074 A 
ATOM     76  C   UNL A   1      41.917  30.924  30.565  1.00  0.00     0.031 C 
ATOM     77  C   UNL A   1      43.030  29.441  32.359  1.00  0.00     0.031 A 
BRANCH  64  78
ATOM     78  C   UNL A   1      46.004  31.191  28.073  1.00  0.00    -0.014 A 
ATOM     79  C   UNL A   1      47.249  31.482  27.483  1.00  0.00     0.010 A 
ATOM     80  C   UNL A   1      44.962  32.119  27.853  1.00  0.00     0.010 A 
ATOM     81  C   UNL A   1      47.453  32.635  26.719  1.00  0.00     0.020 A 
ATOM     82  C   UNL A   1      45.142  33.255  27.052  1.00  0.00     0.020 A 
ATOM     83  C   UNL A   1      46.393  33.507  26.494  1.00  0.00     0.054 A 
BRANCH  83  84
ATOM     84  S   UNL A   1      46.669  34.927  25.407  1.00  0.00     0.124 S 
ATOM     85  O   UNL A   1      46.350  36.046  26.291  1.00  0.00    -0.237 OA
ATOM     86  O   UNL A   1      48.078  34.783  25.056  1.00  0.00    -0.237 OA
ATOM     87  O   UNL A   1      45.727  34.709  24.312  1.00  0.00    -0.744 OA
ENDBRANCH  83  84
ENDBRANCH  64  78
BRANCH  65  88
ATOM     88  C   UNL A   1      37.711  29.564  29.793  1.00  0.00    -0.014 A 
ATOM     89  C   UNL A   1      37.388  29.730  28.432  1.00  0.00     0.010 A 
ATOM     90  C   UNL A   1      36.909  30.227  30.745  1.00  0.00     0.010 A 
ATOM     91  C   UNL A   1      36.377  30.608  28.029  1.00  0.00     0.020 A 
ATOM     92  C   UNL A   1      35.896  31.116  30.346  1.00  0.00     0.020 A 
ATOM     93  C   UNL A   1      35.671  31.334  28.987  1.00  0.00     0.054 A 
BRANCH  93  94
ATOM     94  S   UNL A   1      34.547  32.642  28.418  1.00  0.00     0.124 S 
ATOM     95  O   UNL A   1      35.435  33.468  27.602  1.00  0.00    -0.237 OA
ATOM     96  O   UNL A   1      33.537  31.890  27.675  1.00  0.00    -0.237 OA
ATOM     97  O   UNL A   1      34.076  33.260  29.652  1.00  0.00    -0.744 OA
ENDBRANCH  93  94
ENDBRANCH  65  88
BRANCH  77  98
ATOM     98  C   UNL A   1      42.767  28.502  33.518  1.00  0.00    -0.014 A 
ATOM     99  C   UNL A   1      43.152  28.946  34.798  1.00  0.00     0.010 A 
ATOM    100  C   UNL A   1      42.353  27.164  33.373  1.00  0.00     0.010 A 
ATOM    101  C   UNL A   1      43.167  28.079  35.890  1.00  0.00     0.020 A 
ATOM    102  C   UNL A   1      42.332  26.294  34.475  1.00  0.00     0.020 A 
ATOM    103  C   UNL A   1      42.766  26.753  35.721  1.00  0.00     0.054 A 
BRANCH 103 104
ATOM    104  S   UNL A   1      42.849  25.648  37.156  1.00  0.00     0.124 S 
ATOM    105  O   UNL A   1      44.279  25.637  37.455  1.00  0.00    -0.237 OA
ATOM    106  O   UNL A   1      42.012  26.333  38.139  1.00  0.00    -0.237 OA
ATOM    107  O   UNL A   1      42.309  24.384  36.662  1.00  0.00    -0.744 OA
ENDBRANCH 103 104
ENDBRANCH  77  98
ENDBRANCH  51  52
ENDBRANCH  43  46
ENDBRANCH  41  42
ENDBRANCH  40  41
ENDBRANCH  39  40
ENDBRANCH   1  39
TORSDOF 20
ENDMDL
MODEL 3
REMARK VINA RESULT:     -11.5      3.612      9.417
REMARK SMILES COc1ccc2c(c1)c(Cc1nc(-c3ccc(C(=O)NCCCCNC(=O)c4ccc(-c5c6nc(c(-c7ccc(S(=O)(=O)[O-])cc7)c7ccc([nH]7)c(-c7ccc(S(=O)(=O)[O-])cc7)c7nc(c(-c8ccc(S(=O)(=O)[O-])cc8)c8ccc5[nH]8)C=C7)C=C6)cc4)cc3)cs1)c(C)n2C(=O)c1ccc(Cl)cc1
REMARK SMILES IDX 21 1 20 2 18 3 19 4 17 6 14 7 15 8 89 9 16 10 88 11 13 12
REMARK SMILES IDX 11 13 12 14 91 15 90 16 10 17 9 18 3 19 4 20 8 21 5 22 7 23
REMARK SMILES IDX 6 24 94 25 92 26 93 27 2 28 1 29 95 30 96 31 97 32 98 33
REMARK SMILES IDX 103 34 99 35 102 36 100 37 101 38 22 39 23 40 24 41 25 42
REMARK SMILES IDX 26 43 27 45 28 46 29 47 87 48 30 49 86 50 31 51 32 52 33 53
REMARK SMILES IDX 80 54 34 55 85 56 79 57 81 58 35 59 84 60 78 61 77 62 36 64
REMARK SMILES IDX 66 65 47 66 65 67 48 68 51 69 64 70 82 71 49 72 50 73 63 75
REMARK SMILES IDX 83 76 52 77 37 78 38 79 46 80 39 81 45 82 40 83 41 84 42 85
REMARK SMILES IDX 43 86 44 87 67 88 68 89 76 90 69 91 75 92 70 93 71 94 72 95
REMARK SMILES IDX 73 96 74 97 53 98 54 99 62 100 55 101 61 102 56 103 57 104
REMARK SMILES IDX 58 105 59 106 60 107
REMARK H PARENT 20 5 25 44 81 63 51 74
REMARK Flexibility Score: inf
ROOT
ATOM      1  C   UNL A   1      31.365  26.581  26.376  1.00  0.00     0.116 C 
ENDROOT
BRANCH   1   2
ATOM      2  N   UNL A   1      31.111  25.902  25.115  1.00  0.00    -0.352 N 
ATOM      3  C   UNL A   1      31.876  25.021  24.383  1.00  0.00     0.251 C 
ATOM      4  O   UNL A   1      31.397  24.546  23.353  1.00  0.00    -0.269 OA
ATOM      5  H   UNL A   1      30.236  26.110  24.714  1.00  0.00     0.163 HD
BRANCH   3   6
ATOM      6  C   UNL A   1      33.281  24.680  24.744  1.00  0.00     0.039 A 
ATOM      7  C   UNL A   1      35.820  23.693  25.478  1.00  0.00     0.001 A 
ATOM      8  C   UNL A   1      34.782  23.729  26.413  1.00  0.00     0.011 A 
ATOM      9  C   UNL A   1      35.609  24.278  24.221  1.00  0.00     0.011 A 
ATOM     10  C   UNL A   1      33.520  24.213  26.046  1.00  0.00     0.014 A 
ATOM     11  C   UNL A   1      34.359  24.798  23.869  1.00  0.00     0.014 A 
BRANCH   7  12
ATOM     12  C   UNL A   1      37.105  23.070  25.766  1.00  0.00     0.081 A 
ATOM     13  C   UNL A   1      39.119  22.994  26.701  1.00  0.00     0.098 A 
ATOM     14  N   UNL A   1      38.037  23.725  26.543  1.00  0.00    -0.241 NA
ATOM     15  S   UNL A   1      39.115  21.506  25.841  1.00  0.00    -0.126 S 
ATOM     16  C   UNL A   1      37.538  21.862  25.257  1.00  0.00     0.095 A 
BRANCH  13  17
ATOM     17  C   UNL A   1      40.300  23.419  27.525  1.00  0.00     0.105 C 
BRANCH  17  18
ATOM     18  C   UNL A   1      41.344  24.151  26.716  1.00  0.00    -0.012 A 
ATOM     19  C   UNL A   1      43.862  21.856  24.972  1.00  0.00     0.119 A 
ATOM     20  C   UNL A   1      44.689  22.865  24.513  1.00  0.00     0.048 A 
ATOM     21  C   UNL A   1      42.735  22.192  25.720  1.00  0.00     0.057 A 
ATOM     22  C   UNL A   1      44.392  24.210  24.777  1.00  0.00     0.031 A 
ATOM     23  C   UNL A   1      42.392  23.541  25.973  1.00  0.00     0.008 A 
ATOM     24  C   UNL A   1      43.202  24.555  25.457  1.00  0.00     0.057 A 
ATOM     25  N   UNL A   1      42.599  25.793  25.765  1.00  0.00    -0.280 N 
ATOM     26  C   UNL A   1      41.488  25.527  26.584  1.00  0.00     0.028 A 
ATOM     27  C   UNL A   1      40.586  26.553  27.201  1.00  0.00     0.065 C 
BRANCH  19  28
ATOM     28  O   UNL A   1      44.025  20.519  24.741  1.00  0.00    -0.497 OA
ATOM     29  C   UNL A   1      43.277  19.642  25.572  1.00  0.00     0.278 C 
ENDBRANCH  19  28
BRANCH  25  30
ATOM     30  C   UNL A   1      43.057  27.072  25.332  1.00  0.00     0.262 C 
ATOM     31  O   UNL A   1      42.417  27.684  24.468  1.00  0.00    -0.268 OA
BRANCH  30  32
ATOM     32  C   UNL A   1      44.232  27.788  25.855  1.00  0.00     0.040 A 
ATOM     33  C   UNL A   1      44.144  28.585  27.002  1.00  0.00     0.015 A 
ATOM     34  C   UNL A   1      45.437  27.678  25.150  1.00  0.00     0.015 A 
ATOM     35  C   UNL A   1      45.249  29.349  27.388  1.00  0.00     0.021 A 
ATOM     36  C   UNL A   1      46.539  28.435  25.546  1.00  0.00     0.021 A 
ATOM     37  C   UNL A   1      46.434  29.282  26.651  1.00  0.00     0.041 A 
ATOM     38  Cl  UNL A   1      47.771  30.271  27.091  1.00  0.00    -0.084 Cl
ENDBRANCH  30  32
ENDBRANCH  25  30
ENDBRANCH  17  18
ENDBRANCH  13  17
ENDBRANCH   7  12
ENDBRANCH   3   6
ENDBRANCH   1   2
BRANCH   1  39
ATOM     39  C   UNL A   1      32.231  27.831  26.270  1.00  0.00     0.023 C 
BRANCH  39  40
ATOM     40  C   UNL A   1      33.726  27.683  26.553  1.00  0.00     0.023 C 
BRANCH  40  41
ATOM     41  C   UNL A   1      34.392  28.807  27.347  1.00  0.00     0.116 C 
BRANCH  41  42
ATOM     42  N   UNL A   1      33.629  30.033  27.463  1.00  0.00    -0.352 N 
ATOM     43  C   UNL A   1      33.910  31.320  27.838  1.00  0.00     0.251 C 
ATOM     44  H   UNL A   1      32.684  29.913  27.215  1.00  0.00     0.163 HD
ATOM     45  O   UNL A   1      33.051  32.156  27.547  1.00  0.00    -0.269 OA
BRANCH  43  46
ATOM     46  C   UNL A   1      35.109  31.763  28.606  1.00  0.00     0.039 A 
ATOM     47  C   UNL A   1      36.404  31.273  28.451  1.00  0.00     0.014 A 
ATOM     48  C   UNL A   1      34.875  32.720  29.616  1.00  0.00     0.014 A 
ATOM     49  C   UNL A   1      37.412  31.654  29.337  1.00  0.00     0.010 A 
ATOM     50  C   UNL A   1      35.883  33.116  30.494  1.00  0.00     0.010 A 
ATOM     51  C   UNL A   1      37.148  32.553  30.377  1.00  0.00    -0.014 A 
BRANCH  51  52
ATOM     52  C   UNL A   1      38.265  32.974  31.224  1.00  0.00     0.031 A 
ATOM     53  C   UNL A   1      39.375  33.659  30.500  1.00  0.00     0.074 A 
ATOM     54  C   UNL A   1      38.309  32.865  32.569  1.00  0.00     0.049 A 
ATOM     55  N   UNL A   1      40.596  33.258  30.366  1.00  0.00    -0.248 NA
ATOM     56  C   UNL A   1      39.060  34.881  29.747  1.00  0.00     0.031 C 
ATOM     57  C   UNL A   1      37.231  32.487  33.483  1.00  0.00     0.029 A 
ATOM     58  N   UNL A   1      39.335  33.173  33.416  1.00  0.00    -0.354 N 
ATOM     59  C   UNL A   1      41.258  34.246  29.643  1.00  0.00     0.074 A 
ATOM     60  C   UNL A   1      40.239  35.162  29.190  1.00  0.00     0.031 C 
ATOM     61  C   UNL A   1      37.586  32.810  34.749  1.00  0.00     0.029 A 
ATOM     62  C   UNL A   1      38.963  33.277  34.751  1.00  0.00     0.049 A 
ATOM     63  H   UNL A   1      40.261  33.310  33.107  1.00  0.00     0.167 HD
ATOM     64  C   UNL A   1      42.618  34.321  29.594  1.00  0.00     0.031 A 
ATOM     65  C   UNL A   1      39.714  33.769  35.770  1.00  0.00     0.031 A 
ATOM     66  C   UNL A   1      43.232  33.109  30.065  1.00  0.00     0.049 A 
ATOM     67  C   UNL A   1      41.135  33.693  35.358  1.00  0.00     0.074 A 
ATOM     68  C   UNL A   1      43.221  31.795  29.646  1.00  0.00     0.029 A 
ATOM     69  N   UNL A   1      43.715  33.101  31.351  1.00  0.00    -0.354 N 
ATOM     70  N   UNL A   1      41.791  32.576  35.223  1.00  0.00    -0.248 NA
ATOM     71  C   UNL A   1      41.730  34.852  34.712  1.00  0.00     0.031 C 
ATOM     72  C   UNL A   1      43.240  31.030  30.845  1.00  0.00     0.029 A 
ATOM     73  C   UNL A   1      43.336  31.915  31.922  1.00  0.00     0.049 A 
ATOM     74  H   UNL A   1      44.236  33.816  31.783  1.00  0.00     0.167 HD
ATOM     75  C   UNL A   1      42.615  32.786  34.129  1.00  0.00     0.074 A 
ATOM     76  C   UNL A   1      42.614  34.232  33.926  1.00  0.00     0.031 C 
ATOM     77  C   UNL A   1      42.997  31.753  33.322  1.00  0.00     0.031 A 
BRANCH  64  78
ATOM     78  C   UNL A   1      43.412  35.587  29.396  1.00  0.00    -0.014 A 
ATOM     79  C   UNL A   1      43.853  36.034  28.136  1.00  0.00     0.010 A 
ATOM     80  C   UNL A   1      43.522  36.499  30.470  1.00  0.00     0.010 A 
ATOM     81  C   UNL A   1      44.379  37.315  27.948  1.00  0.00     0.020 A 
ATOM     82  C   UNL A   1      44.006  37.801  30.285  1.00  0.00     0.020 A 
ATOM     83  C   UNL A   1      44.438  38.198  29.022  1.00  0.00     0.054 A 
BRANCH  83  84
ATOM     84  S   UNL A   1      45.020  39.883  28.714  1.00  0.00     0.124 S 
ATOM     85  O   UNL A   1      46.158  39.649  27.829  1.00  0.00    -0.237 OA
ATOM     86  O   UNL A   1      43.856  40.507  28.091  1.00  0.00    -0.237 OA
ATOM     87  O   UNL A   1      45.356  40.380  30.046  1.00  0.00    -0.744 OA
ENDBRANCH  83  84
ENDBRANCH  64  78
BRANCH  65  88
ATOM     88  C   UNL A   1      39.284  34.625  36.907  1.00  0.00    -0.014 A 
ATOM     89  C   UNL A   1      39.805  35.927  37.043  1.00  0.00     0.010 A 
ATOM     90  C   UNL A   1      38.642  34.054  38.025  1.00  0.00     0.010 A 
ATOM     91  C   UNL A   1      39.788  36.590  38.274  1.00  0.00     0.020 A 
ATOM     92  C   UNL A   1      38.627  34.712  39.266  1.00  0.00     0.020 A 
ATOM     93  C   UNL A   1      39.243  35.957  39.390  1.00  0.00     0.054 A 
BRANCH  93  94
ATOM     94  S   UNL A   1      39.463  36.740  41.014  1.00  0.00     0.124 S 
ATOM     95  O   UNL A   1      38.488  36.019  41.830  1.00  0.00    -0.237 OA
ATOM     96  O   UNL A   1      40.864  36.451  41.317  1.00  0.00    -0.237 OA
ATOM     97  O   UNL A   1      39.159  38.145  40.770  1.00  0.00    -0.744 OA
ENDBRANCH  93  94
ENDBRANCH  65  88
BRANCH  77  98
ATOM     98  C   UNL A   1      42.802  30.326  33.790  1.00  0.00    -0.014 A 
ATOM     99  C   UNL A   1      41.492  29.811  33.740  1.00  0.00     0.010 A 
ATOM    100  C   UNL A   1      43.792  29.567  34.444  1.00  0.00     0.010 A 
ATOM    101  C   UNL A   1      41.166  28.603  34.355  1.00  0.00     0.020 A 
ATOM    102  C   UNL A   1      43.478  28.333  35.036  1.00  0.00     0.020 A 
ATOM    103  C   UNL A   1      42.159  27.874  35.009  1.00  0.00     0.054 A 
BRANCH 103 104
ATOM    104  S   UNL A   1      41.681  26.334  35.838  1.00  0.00     0.124 S 
ATOM    105  O   UNL A   1      41.334  26.800  37.178  1.00  0.00    -0.237 OA
ATOM    106  O   UNL A   1      40.555  25.869  35.029  1.00  0.00    -0.237 OA
ATOM    107  O   UNL A   1      42.879  25.502  35.761  1.00  0.00    -0.744 OA
ENDBRANCH 103 104
ENDBRANCH  77  98
ENDBRANCH  51  52
ENDBRANCH  43  46
ENDBRANCH  41  42
ENDBRANCH  40  41
ENDBRANCH  39  40
ENDBRANCH   1  39
TORSDOF 20
ENDMDL
