MODEL 1
REMARK VINA RESULT:     -11.4      0.000      0.000
REMARK SMILES Nc1ccc(C(=O)NC[C@@H]2CC[C@@H](C(=O)NCCCCNC(=O)c3ccc(-c4c5nc(c(-c6ccc(S(=O)(=O)[O-])cc6)c6ccc([nH]6)c(-c6ccc(S(=O)(=O)[O-])cc6)c6nc(c(-c7ccc(S(=O)(=O)[O-])cc7)c7ccc4[nH]7)C=C6)C=C5)cc3)O2)cc1Cl
REMARK SMILES IDX 18 1 17 2 16 3 14 4 15 5 13 7 10 8 11 9 84 10 12 11 9 12
REMARK SMILES IDX 8 13 6 14 7 15 5 17 2 18 3 19 86 20 4 21 85 22 87 23 1 24
REMARK SMILES IDX 19 27 20 28 21 29 22 30 23 32 24 33 25 34 83 35 26 36 82 37
REMARK SMILES IDX 27 38 28 39 29 40 76 41 30 42 81 43 75 44 77 45 31 46 80 47
REMARK SMILES IDX 74 48 73 49 32 51 62 52 43 53 61 54 44 55 47 56 60 57 78 58
REMARK SMILES IDX 45 59 46 60 59 62 79 63 48 64 33 65 34 66 42 67 35 68 41 69
REMARK SMILES IDX 36 70 37 71 38 72 39 73 40 74 63 75 64 76 72 77 65 78 71 79
REMARK SMILES IDX 66 80 67 81 68 82 69 83 70 84 49 85 50 86 58 87 51 88 57 89
REMARK SMILES IDX 52 90 53 91 54 92 55 93 56 94
REMARK H PARENT 16 6 8 16 1 25 1 26 21 31 77 50 47 61
REMARK Flexibility Score: inf
ROOT
ATOM      1  C   UNL A   1      38.015  22.599  25.358  1.00  0.00     0.023 C 
ENDROOT
BRANCH   1   2
ATOM      2  C   UNL A   1      36.686  23.248  25.732  1.00  0.00     0.116 C 
BRANCH   2   3
ATOM      3  N   UNL A   1      35.833  22.364  26.503  1.00  0.00    -0.354 N 
ATOM      4  C   UNL A   1      34.470  22.352  26.596  1.00  0.00     0.249 C 
ATOM      5  O   UNL A   1      33.947  21.479  27.292  1.00  0.00    -0.272 OA
ATOM      6  H   UNL A   1      36.301  21.679  27.032  1.00  0.00     0.163 HD
BRANCH   4   7
ATOM      7  C   UNL A   1      33.649  23.458  25.906  1.00  0.00     0.207 C 
ATOM      8  C   UNL A   1      31.659  23.249  24.694  1.00  0.00     0.138 C 
ATOM      9  C   UNL A   1      31.441  24.312  25.755  1.00  0.00     0.037 C 
ATOM     10  O   UNL A   1      33.081  23.066  24.643  1.00  0.00    -0.363 OA
ATOM     11  C   UNL A   1      32.485  23.930  26.775  1.00  0.00     0.045 C 
BRANCH   8  12
ATOM     12  C   UNL A   1      31.090  23.530  23.292  1.00  0.00     0.148 C 
BRANCH  12  13
ATOM     13  N   UNL A   1      32.048  24.078  22.344  1.00  0.00    -0.349 N 
ATOM     14  C   UNL A   1      32.529  25.315  22.024  1.00  0.00     0.251 C 
ATOM     15  O   UNL A   1      33.324  25.337  21.077  1.00  0.00    -0.269 OA
ATOM     16  H   UNL A   1      32.455  23.374  21.789  1.00  0.00     0.163 HD
BRANCH  14  17
ATOM     17  C   UNL A   1      32.203  26.603  22.703  1.00  0.00     0.041 A 
ATOM     18  C   UNL A   1      31.779  28.997  24.190  1.00  0.00     0.050 A 
ATOM     19  C   UNL A   1      30.915  28.619  23.160  1.00  0.00     0.028 A 
ATOM     20  C   UNL A   1      32.858  28.152  24.479  1.00  0.00     0.064 A 
ATOM     21  C   UNL A   1      31.131  27.446  22.416  1.00  0.00     0.016 A 
ATOM     22  C   UNL A   1      33.071  26.983  23.744  1.00  0.00     0.036 A 
ATOM     23  Cl  UNL A   1      33.965  28.534  25.755  1.00  0.00    -0.082 Cl
BRANCH  18  24
ATOM     24  N   UNL A   1      31.489  30.117  24.959  1.00  0.00    -0.398 N 
ATOM     25  H   UNL A   1      32.210  30.733  25.225  1.00  0.00     0.156 HD
ATOM     26  H   UNL A   1      30.561  30.296  25.238  1.00  0.00     0.156 HD
ENDBRANCH  18  24
ENDBRANCH  14  17
ENDBRANCH  12  13
ENDBRANCH   8  12
ENDBRANCH   4   7
ENDBRANCH   2   3
ENDBRANCH   1   2
BRANCH   1  27
ATOM     27  C   UNL A   1      38.937  22.271  26.532  1.00  0.00     0.023 C 
BRANCH  27  28
ATOM     28  C   UNL A   1      39.727  23.448  27.096  1.00  0.00     0.116 C 
BRANCH  28  29
ATOM     29  N   UNL A   1      40.380  24.241  26.067  1.00  0.00    -0.352 N 
ATOM     30  C   UNL A   1      40.825  25.543  26.114  1.00  0.00     0.251 C 
ATOM     31  H   UNL A   1      40.524  23.779  25.209  1.00  0.00     0.163 HD
ATOM     32  O   UNL A   1      41.226  26.087  25.094  1.00  0.00    -0.269 OA
BRANCH  30  33
ATOM     33  C   UNL A   1      40.788  26.290  27.393  1.00  0.00     0.039 A 
ATOM     34  C   UNL A   1      41.767  27.256  27.638  1.00  0.00     0.014 A 
ATOM     35  C   UNL A   1      39.791  26.048  28.340  1.00  0.00     0.014 A 
ATOM     36  C   UNL A   1      41.700  28.034  28.798  1.00  0.00     0.010 A 
ATOM     37  C   UNL A   1      39.681  26.875  29.456  1.00  0.00     0.010 A 
ATOM     38  C   UNL A   1      40.632  27.878  29.698  1.00  0.00    -0.014 A 
BRANCH  38  39
ATOM     39  C   UNL A   1      40.486  28.758  30.886  1.00  0.00     0.031 A 
ATOM     40  C   UNL A   1      39.458  29.857  30.896  1.00  0.00     0.074 A 
ATOM     41  C   UNL A   1      41.329  28.618  31.928  1.00  0.00     0.049 A 
ATOM     42  N   UNL A   1      39.228  30.764  31.811  1.00  0.00    -0.248 NA
ATOM     43  C   UNL A   1      38.594  29.967  29.710  1.00  0.00     0.031 C 
ATOM     44  C   UNL A   1      42.401  27.624  32.023  1.00  0.00     0.029 A 
ATOM     45  N   UNL A   1      41.425  29.322  33.103  1.00  0.00    -0.354 N 
ATOM     46  C   UNL A   1      38.207  31.559  31.308  1.00  0.00     0.074 A 
ATOM     47  C   UNL A   1      37.901  31.063  29.984  1.00  0.00     0.031 C 
ATOM     48  C   UNL A   1      43.032  27.770  33.200  1.00  0.00     0.029 A 
ATOM     49  C   UNL A   1      42.440  28.890  33.924  1.00  0.00     0.049 A 
ATOM     50  H   UNL A   1      40.824  30.065  33.336  1.00  0.00     0.167 HD
ATOM     51  C   UNL A   1      37.566  32.596  31.898  1.00  0.00     0.031 A 
ATOM     52  C   UNL A   1      42.857  29.347  35.121  1.00  0.00     0.031 A 
ATOM     53  C   UNL A   1      37.873  33.091  33.214  1.00  0.00     0.049 A 
ATOM     54  C   UNL A   1      42.139  30.504  35.758  1.00  0.00     0.074 A 
ATOM     55  C   UNL A   1      37.250  34.105  33.921  1.00  0.00     0.029 A 
ATOM     56  N   UNL A   1      38.896  32.614  34.021  1.00  0.00    -0.354 N 
ATOM     57  N   UNL A   1      41.130  31.201  35.294  1.00  0.00    -0.248 NA
ATOM     58  C   UNL A   1      42.607  30.926  37.085  1.00  0.00     0.031 C 
ATOM     59  C   UNL A   1      37.930  34.275  35.133  1.00  0.00     0.029 A 
ATOM     60  C   UNL A   1      38.937  33.327  35.208  1.00  0.00     0.049 A 
ATOM     61  H   UNL A   1      39.505  31.877  33.784  1.00  0.00     0.167 HD
ATOM     62  C   UNL A   1      40.827  32.132  36.282  1.00  0.00     0.074 A 
ATOM     63  C   UNL A   1      41.750  31.897  37.374  1.00  0.00     0.031 C 
ATOM     64  C   UNL A   1      39.868  33.091  36.284  1.00  0.00     0.031 A 
BRANCH  51  65
ATOM     65  C   UNL A   1      36.472  33.270  31.108  1.00  0.00    -0.014 A 
ATOM     66  C   UNL A   1      36.732  33.846  29.851  1.00  0.00     0.010 A 
ATOM     67  C   UNL A   1      35.165  33.327  31.627  1.00  0.00     0.010 A 
ATOM     68  C   UNL A   1      35.725  34.523  29.159  1.00  0.00     0.020 A 
ATOM     69  C   UNL A   1      34.147  33.975  30.922  1.00  0.00     0.020 A 
ATOM     70  C   UNL A   1      34.440  34.591  29.704  1.00  0.00     0.054 A 
BRANCH  70  71
ATOM     71  S   UNL A   1      33.155  35.489  28.792  1.00  0.00     0.124 S 
ATOM     72  O   UNL A   1      32.528  34.415  28.024  1.00  0.00    -0.237 OA
ATOM     73  O   UNL A   1      32.338  36.056  29.861  1.00  0.00    -0.237 OA
ATOM     74  O   UNL A   1      33.905  36.462  28.002  1.00  0.00    -0.744 OA
ENDBRANCH  70  71
ENDBRANCH  51  65
BRANCH  52  75
ATOM     75  C   UNL A   1      44.009  28.688  35.795  1.00  0.00    -0.014 A 
ATOM     76  C   UNL A   1      43.805  27.589  36.648  1.00  0.00     0.010 A 
ATOM     77  C   UNL A   1      45.324  29.126  35.545  1.00  0.00     0.010 A 
ATOM     78  C   UNL A   1      44.894  26.941  37.239  1.00  0.00     0.020 A 
ATOM     79  C   UNL A   1      46.415  28.464  36.113  1.00  0.00     0.020 A 
ATOM     80  C   UNL A   1      46.193  27.377  36.961  1.00  0.00     0.054 A 
BRANCH  80  81
ATOM     81  S   UNL A   1      47.593  26.466  37.671  1.00  0.00     0.124 S 
ATOM     82  O   UNL A   1      47.418  26.705  39.100  1.00  0.00    -0.237 OA
ATOM     83  O   UNL A   1      47.339  25.100  37.221  1.00  0.00    -0.237 OA
ATOM     84  O   UNL A   1      48.758  27.106  37.066  1.00  0.00    -0.744 OA
ENDBRANCH  80  81
ENDBRANCH  52  75
BRANCH  64  85
ATOM     85  C   UNL A   1      39.746  33.948  37.517  1.00  0.00    -0.014 A 
ATOM     86  C   UNL A   1      39.001  33.525  38.632  1.00  0.00     0.010 A 
ATOM     87  C   UNL A   1      40.440  35.171  37.581  1.00  0.00     0.010 A 
ATOM     88  C   UNL A   1      38.926  34.322  39.776  1.00  0.00     0.020 A 
ATOM     89  C   UNL A   1      40.391  35.958  38.735  1.00  0.00     0.020 A 
ATOM     90  C   UNL A   1      39.623  35.535  39.821  1.00  0.00     0.054 A 
BRANCH  90  91
ATOM     91  S   UNL A   1      39.549  36.529  41.336  1.00  0.00     0.124 S 
ATOM     92  O   UNL A   1      38.604  35.771  42.152  1.00  0.00    -0.237 OA
ATOM     93  O   UNL A   1      40.934  36.511  41.800  1.00  0.00    -0.237 OA
ATOM     94  O   UNL A   1      39.070  37.831  40.875  1.00  0.00    -0.744 OA
ENDBRANCH  90  91
ENDBRANCH  64  85
ENDBRANCH  38  39
ENDBRANCH  30  33
ENDBRANCH  28  29
ENDBRANCH  27  28
ENDBRANCH   1  27
TORSDOF 18
ENDMDL
MODEL 2
REMARK VINA RESULT:     -11.3      1.124      8.245
REMARK SMILES Nc1ccc(C(=O)NC[C@@H]2CC[C@@H](C(=O)NCCCCNC(=O)c3ccc(-c4c5nc(c(-c6ccc(S(=O)(=O)[O-])cc6)c6ccc([nH]6)c(-c6ccc(S(=O)(=O)[O-])cc6)c6nc(c(-c7ccc(S(=O)(=O)[O-])cc7)c7ccc4[nH]7)C=C6)C=C5)cc3)O2)cc1Cl
REMARK SMILES IDX 18 1 17 2 16 3 14 4 15 5 13 7 10 8 11 9 84 10 12 11 9 12
REMARK SMILES IDX 8 13 6 14 7 15 5 17 2 18 3 19 86 20 4 21 85 22 87 23 1 24
REMARK SMILES IDX 19 27 20 28 21 29 22 30 23 32 24 33 25 34 83 35 26 36 82 37
REMARK SMILES IDX 27 38 28 39 29 40 76 41 30 42 81 43 75 44 77 45 31 46 80 47
REMARK SMILES IDX 74 48 73 49 32 51 62 52 43 53 61 54 44 55 47 56 60 57 78 58
REMARK SMILES IDX 45 59 46 60 59 62 79 63 48 64 33 65 34 66 42 67 35 68 41 69
REMARK SMILES IDX 36 70 37 71 38 72 39 73 40 74 63 75 64 76 72 77 65 78 71 79
REMARK SMILES IDX 66 80 67 81 68 82 69 83 70 84 49 85 50 86 58 87 51 88 57 89
REMARK SMILES IDX 52 90 53 91 54 92 55 93 56 94
REMARK H PARENT 16 6 8 16 1 25 1 26 21 31 77 50 47 61
REMARK Flexibility Score: inf
ROOT
ATOM      1  C   UNL A   1      38.237  23.845  26.336  1.00  0.00     0.023 C 
ENDROOT
BRANCH   1   2
ATOM      2  C   UNL A   1      36.850  23.698  25.718  1.00  0.00     0.116 C 
BRANCH   2   3
ATOM      3  N   UNL A   1      36.021  22.748  26.434  1.00  0.00    -0.354 N 
ATOM      4  C   UNL A   1      34.660  22.626  26.435  1.00  0.00     0.249 C 
ATOM      5  O   UNL A   1      34.163  21.714  27.098  1.00  0.00    -0.272 OA
ATOM      6  H   UNL A   1      36.505  22.102  26.997  1.00  0.00     0.163 HD
BRANCH   4   7
ATOM      7  C   UNL A   1      33.801  23.664  25.686  1.00  0.00     0.207 C 
ATOM      8  C   UNL A   1      31.798  23.326  24.525  1.00  0.00     0.138 C 
ATOM      9  C   UNL A   1      31.571  24.453  25.516  1.00  0.00     0.037 C 
ATOM     10  O   UNL A   1      33.223  23.173  24.462  1.00  0.00    -0.363 OA
ATOM     11  C   UNL A   1      32.640  24.166  26.541  1.00  0.00     0.045 C 
BRANCH   8  12
ATOM     12  C   UNL A   1      31.201  23.498  23.117  1.00  0.00     0.148 C 
BRANCH  12  13
ATOM     13  N   UNL A   1      32.088  24.130  22.152  1.00  0.00    -0.349 N 
ATOM     14  C   UNL A   1      32.527  25.396  21.890  1.00  0.00     0.251 C 
ATOM     15  O   UNL A   1      33.259  25.500  20.899  1.00  0.00    -0.269 OA
ATOM     16  H   UNL A   1      32.470  23.475  21.524  1.00  0.00     0.163 HD
BRANCH  14  17
ATOM     17  C   UNL A   1      32.225  26.627  22.679  1.00  0.00     0.041 A 
ATOM     18  C   UNL A   1      31.412  29.001  24.029  1.00  0.00     0.050 A 
ATOM     19  C   UNL A   1      32.681  28.452  24.226  1.00  0.00     0.028 A 
ATOM     20  C   UNL A   1      30.553  28.353  23.133  1.00  0.00     0.064 A 
ATOM     21  C   UNL A   1      33.078  27.272  23.572  1.00  0.00     0.016 A 
ATOM     22  C   UNL A   1      30.948  27.184  22.477  1.00  0.00     0.036 A 
ATOM     23  Cl  UNL A   1      28.970  28.979  22.814  1.00  0.00    -0.082 Cl
BRANCH  18  24
ATOM     24  N   UNL A   1      31.084  30.212  24.626  1.00  0.00    -0.398 N 
ATOM     25  H   UNL A   1      30.512  30.227  25.427  1.00  0.00     0.156 HD
ATOM     26  H   UNL A   1      31.424  31.055  24.248  1.00  0.00     0.156 HD
ENDBRANCH  18  24
ENDBRANCH  14  17
ENDBRANCH  12  13
ENDBRANCH   8  12
ENDBRANCH   4   7
ENDBRANCH   2   3
ENDBRANCH   1   2
BRANCH   1  27
ATOM     27  C   UNL A   1      39.173  22.655  26.137  1.00  0.00     0.023 C 
BRANCH  27  28
ATOM     28  C   UNL A   1      40.479  22.706  26.923  1.00  0.00     0.116 C 
BRANCH  28  29
ATOM     29  N   UNL A   1      41.610  23.145  26.121  1.00  0.00    -0.352 N 
ATOM     30  C   UNL A   1      42.260  24.358  26.112  1.00  0.00     0.251 C 
ATOM     31  H   UNL A   1      41.962  22.475  25.490  1.00  0.00     0.163 HD
ATOM     32  O   UNL A   1      43.108  24.588  25.261  1.00  0.00    -0.269 OA
BRANCH  30  33
ATOM     33  C   UNL A   1      41.908  25.391  27.115  1.00  0.00     0.039 A 
ATOM     34  C   UNL A   1      41.069  25.043  28.176  1.00  0.00     0.014 A 
ATOM     35  C   UNL A   1      42.410  26.691  27.017  1.00  0.00     0.014 A 
ATOM     36  C   UNL A   1      40.796  25.977  29.180  1.00  0.00     0.010 A 
ATOM     37  C   UNL A   1      42.201  27.594  28.056  1.00  0.00     0.010 A 
ATOM     38  C   UNL A   1      41.393  27.248  29.150  1.00  0.00    -0.014 A 
BRANCH  38  39
ATOM     39  C   UNL A   1      41.196  28.222  30.254  1.00  0.00     0.031 A 
ATOM     40  C   UNL A   1      42.036  28.139  31.500  1.00  0.00     0.074 A 
ATOM     41  C   UNL A   1      40.209  29.137  30.171  1.00  0.00     0.049 A 
ATOM     42  N   UNL A   1      41.966  28.856  32.593  1.00  0.00    -0.248 NA
ATOM     43  C   UNL A   1      43.074  27.096  31.531  1.00  0.00     0.031 C 
ATOM     44  C   UNL A   1      39.291  29.291  29.039  1.00  0.00     0.029 A 
ATOM     45  N   UNL A   1      39.804  30.101  31.060  1.00  0.00    -0.354 N 
ATOM     46  C   UNL A   1      42.936  28.344  33.445  1.00  0.00     0.074 A 
ATOM     47  C   UNL A   1      43.542  27.219  32.765  1.00  0.00     0.031 C 
ATOM     48  C   UNL A   1      38.446  30.303  29.295  1.00  0.00     0.029 A 
ATOM     49  C   UNL A   1      38.732  30.841  30.621  1.00  0.00     0.049 A 
ATOM     50  H   UNL A   1      40.241  30.250  31.930  1.00  0.00     0.167 HD
ATOM     51  C   UNL A   1      43.305  28.778  34.674  1.00  0.00     0.031 A 
ATOM     52  C   UNL A   1      38.046  31.836  31.219  1.00  0.00     0.031 A 
ATOM     53  C   UNL A   1      42.699  29.894  35.351  1.00  0.00     0.049 A 
ATOM     54  C   UNL A   1      38.464  32.300  32.586  1.00  0.00     0.074 A 
ATOM     55  C   UNL A   1      43.034  30.443  36.577  1.00  0.00     0.029 A 
ATOM     56  N   UNL A   1      41.628  30.629  34.864  1.00  0.00    -0.354 N 
ATOM     57  N   UNL A   1      39.429  31.845  33.349  1.00  0.00    -0.248 NA
ATOM     58  C   UNL A   1      37.711  33.419  33.166  1.00  0.00     0.031 C 
ATOM     59  C   UNL A   1      42.131  31.477  36.854  1.00  0.00     0.029 A 
ATOM     60  C   UNL A   1      41.273  31.612  35.774  1.00  0.00     0.049 A 
ATOM     61  H   UNL A   1      41.184  30.475  33.999  1.00  0.00     0.167 HD
ATOM     62  C   UNL A   1      39.414  32.637  34.492  1.00  0.00     0.074 A 
ATOM     63  C   UNL A   1      38.353  33.608  34.311  1.00  0.00     0.031 C 
ATOM     64  C   UNL A   1      40.209  32.567  35.588  1.00  0.00     0.031 A 
BRANCH  51  65
ATOM     65  C   UNL A   1      44.414  28.026  35.366  1.00  0.00    -0.014 A 
ATOM     66  C   UNL A   1      44.138  26.921  36.191  1.00  0.00     0.010 A 
ATOM     67  C   UNL A   1      45.751  28.428  35.189  1.00  0.00     0.010 A 
ATOM     68  C   UNL A   1      45.169  26.272  36.877  1.00  0.00     0.020 A 
ATOM     69  C   UNL A   1      46.788  27.762  35.847  1.00  0.00     0.020 A 
ATOM     70  C   UNL A   1      46.487  26.704  36.708  1.00  0.00     0.054 A 
BRANCH  70  71
ATOM     71  S   UNL A   1      47.804  25.856  37.622  1.00  0.00     0.124 S 
ATOM     72  O   UNL A   1      47.175  24.572  37.928  1.00  0.00    -0.237 OA
ATOM     73  O   UNL A   1      48.891  25.805  36.648  1.00  0.00    -0.237 OA
ATOM     74  O   UNL A   1      48.041  26.722  38.774  1.00  0.00    -0.744 OA
ENDBRANCH  70  71
ENDBRANCH  51  65
BRANCH  52  75
ATOM     75  C   UNL A   1      36.899  32.463  30.508  1.00  0.00    -0.014 A 
ATOM     76  C   UNL A   1      35.577  32.148  30.867  1.00  0.00     0.010 A 
ATOM     77  C   UNL A   1      37.125  33.421  29.501  1.00  0.00     0.010 A 
ATOM     78  C   UNL A   1      34.502  32.777  30.232  1.00  0.00     0.020 A 
ATOM     79  C   UNL A   1      36.054  34.070  28.883  1.00  0.00     0.020 A 
ATOM     80  C   UNL A   1      34.747  33.741  29.249  1.00  0.00     0.054 A 
BRANCH  80  81
ATOM     81  S   UNL A   1      33.339  34.607  28.501  1.00  0.00     0.124 S 
ATOM     82  O   UNL A   1      32.780  33.579  27.627  1.00  0.00    -0.237 OA
ATOM     83  O   UNL A   1      32.530  34.956  29.666  1.00  0.00    -0.237 OA
ATOM     84  O   UNL A   1      33.958  35.740  27.819  1.00  0.00    -0.744 OA
ENDBRANCH  80  81
ENDBRANCH  52  75
BRANCH  64  85
ATOM     85  C   UNL A   1      39.983  33.586  36.675  1.00  0.00    -0.014 A 
ATOM     86  C   UNL A   1      39.102  33.335  37.741  1.00  0.00     0.010 A 
ATOM     87  C   UNL A   1      40.712  34.790  36.657  1.00  0.00     0.010 A 
ATOM     88  C   UNL A   1      38.931  34.282  38.754  1.00  0.00     0.020 A 
ATOM     89  C   UNL A   1      40.566  35.727  37.683  1.00  0.00     0.020 A 
ATOM     90  C   UNL A   1      39.664  35.473  38.719  1.00  0.00     0.054 A 
BRANCH  90  91
ATOM     91  S   UNL A   1      39.461  36.665  40.071  1.00  0.00     0.124 S 
ATOM     92  O   UNL A   1      38.762  37.761  39.407  1.00  0.00    -0.237 OA
ATOM     93  O   UNL A   1      38.671  35.915  41.044  1.00  0.00    -0.237 OA
ATOM     94  O   UNL A   1      40.831  36.959  40.485  1.00  0.00    -0.744 OA
ENDBRANCH  90  91
ENDBRANCH  64  85
ENDBRANCH  38  39
ENDBRANCH  30  33
ENDBRANCH  28  29
ENDBRANCH  27  28
ENDBRANCH   1  27
TORSDOF 18
ENDMDL
MODEL 3
REMARK VINA RESULT:     -11.2      6.103      8.291
REMARK SMILES Nc1ccc(C(=O)NC[C@@H]2CC[C@@H](C(=O)NCCCCNC(=O)c3ccc(-c4c5nc(c(-c6ccc(S(=O)(=O)[O-])cc6)c6ccc([nH]6)c(-c6ccc(S(=O)(=O)[O-])cc6)c6nc(c(-c7ccc(S(=O)(=O)[O-])cc7)c7ccc4[nH]7)C=C6)C=C5)cc3)O2)cc1Cl
REMARK SMILES IDX 18 1 17 2 16 3 14 4 15 5 13 7 10 8 11 9 84 10 12 11 9 12
REMARK SMILES IDX 8 13 6 14 7 15 5 17 2 18 3 19 86 20 4 21 85 22 87 23 1 24
REMARK SMILES IDX 19 27 20 28 21 29 22 30 23 32 24 33 25 34 83 35 26 36 82 37
REMARK SMILES IDX 27 38 28 39 29 40 76 41 30 42 81 43 75 44 77 45 31 46 80 47
REMARK SMILES IDX 74 48 73 49 32 51 62 52 43 53 61 54 44 55 47 56 60 57 78 58
REMARK SMILES IDX 45 59 46 60 59 62 79 63 48 64 33 65 34 66 42 67 35 68 41 69
REMARK SMILES IDX 36 70 37 71 38 72 39 73 40 74 63 75 64 76 72 77 65 78 71 79
REMARK SMILES IDX 66 80 67 81 68 82 69 83 70 84 49 85 50 86 58 87 51 88 57 89
REMARK SMILES IDX 52 90 53 91 54 92 55 93 56 94
REMARK H PARENT 16 6 8 16 1 25 1 26 21 31 77 50 47 61
REMARK Flexibility Score: inf
ROOT
ATOM      1  C   UNL A   1      37.350  21.996  24.538  1.00  0.00     0.023 C 
ENDROOT
BRANCH   1   2
ATOM      2  C   UNL A   1      36.464  22.901  25.389  1.00  0.00     0.116 C 
BRANCH   2   3
ATOM      3  N   UNL A   1      35.659  22.157  26.339  1.00  0.00    -0.354 N 
ATOM      4  C   UNL A   1      34.329  22.287  26.624  1.00  0.00     0.249 C 
ATOM      5  O   UNL A   1      33.839  21.516  27.452  1.00  0.00    -0.272 OA
ATOM      6  H   UNL A   1      36.137  21.463  26.848  1.00  0.00     0.163 HD
BRANCH   4   7
ATOM      7  C   UNL A   1      33.518  23.424  25.974  1.00  0.00     0.207 C 
ATOM      8  C   UNL A   1      31.559  23.269  24.704  1.00  0.00     0.138 C 
ATOM      9  C   UNL A   1      31.308  24.273  25.815  1.00  0.00     0.037 C 
ATOM     10  O   UNL A   1      32.983  23.096  24.678  1.00  0.00    -0.363 OA
ATOM     11  C   UNL A   1      32.330  23.842  26.838  1.00  0.00     0.045 C 
BRANCH   8  12
ATOM     12  C   UNL A   1      31.023  23.621  23.305  1.00  0.00     0.148 C 
BRANCH  12  13
ATOM     13  N   UNL A   1      32.002  24.217  22.409  1.00  0.00    -0.349 N 
ATOM     14  C   UNL A   1      32.549  25.454  22.218  1.00  0.00     0.251 C 
ATOM     15  O   UNL A   1      33.336  25.536  21.268  1.00  0.00    -0.269 OA
ATOM     16  H   UNL A   1      32.365  23.556  21.776  1.00  0.00     0.163 HD
BRANCH  14  17
ATOM     17  C   UNL A   1      32.300  26.676  23.038  1.00  0.00     0.041 A 
ATOM     18  C   UNL A   1      31.614  29.069  24.425  1.00  0.00     0.050 A 
ATOM     19  C   UNL A   1      32.777  28.360  24.732  1.00  0.00     0.028 A 
ATOM     20  C   UNL A   1      30.798  28.572  23.400  1.00  0.00     0.064 A 
ATOM     21  C   UNL A   1      33.109  27.171  24.059  1.00  0.00     0.016 A 
ATOM     22  C   UNL A   1      31.130  27.394  22.726  1.00  0.00     0.036 A 
ATOM     23  Cl  UNL A   1      29.349  29.401  22.941  1.00  0.00    -0.082 Cl
BRANCH  18  24
ATOM     24  N   UNL A   1      31.360  30.283  25.051  1.00  0.00    -0.398 N 
ATOM     25  H   UNL A   1      30.465  30.689  24.993  1.00  0.00     0.156 HD
ATOM     26  H   UNL A   1      32.075  30.737  25.553  1.00  0.00     0.156 HD
ENDBRANCH  18  24
ENDBRANCH  14  17
ENDBRANCH  12  13
ENDBRANCH   8  12
ENDBRANCH   4   7
ENDBRANCH   2   3
ENDBRANCH   1   2
BRANCH   1  27
ATOM     27  C   UNL A   1      37.877  20.746  25.241  1.00  0.00     0.023 C 
BRANCH  27  28
ATOM     28  C   UNL A   1      39.133  20.944  26.083  1.00  0.00     0.116 C 
BRANCH  28  29
ATOM     29  N   UNL A   1      40.048  19.816  26.015  1.00  0.00    -0.352 N 
ATOM     30  C   UNL A   1      41.423  19.798  26.077  1.00  0.00     0.251 C 
ATOM     31  H   UNL A   1      39.621  18.935  25.908  1.00  0.00     0.163 HD
ATOM     32  O   UNL A   1      42.028  18.758  25.860  1.00  0.00    -0.269 OA
BRANCH  30  33
ATOM     33  C   UNL A   1      42.165  21.045  26.377  1.00  0.00     0.039 A 
ATOM     34  C   UNL A   1      42.558  21.866  25.317  1.00  0.00     0.014 A 
ATOM     35  C   UNL A   1      42.462  21.410  27.692  1.00  0.00     0.014 A 
ATOM     36  C   UNL A   1      43.181  23.090  25.581  1.00  0.00     0.010 A 
ATOM     37  C   UNL A   1      43.011  22.662  27.956  1.00  0.00     0.010 A 
ATOM     38  C   UNL A   1      43.376  23.517  26.905  1.00  0.00    -0.014 A 
BRANCH  38  39
ATOM     39  C   UNL A   1      43.945  24.855  27.211  1.00  0.00     0.031 A 
ATOM     40  C   UNL A   1      43.044  25.992  27.608  1.00  0.00     0.074 A 
ATOM     41  C   UNL A   1      45.267  25.068  27.058  1.00  0.00     0.049 A 
ATOM     42  N   UNL A   1      43.349  27.242  27.848  1.00  0.00    -0.248 NA
ATOM     43  C   UNL A   1      41.608  25.691  27.726  1.00  0.00     0.031 C 
ATOM     44  C   UNL A   1      46.244  24.063  26.631  1.00  0.00     0.029 A 
ATOM     45  N   UNL A   1      46.017  26.206  27.233  1.00  0.00    -0.354 N 
ATOM     46  C   UNL A   1      42.146  27.878  28.129  1.00  0.00     0.074 A 
ATOM     47  C   UNL A   1      41.101  26.889  27.974  1.00  0.00     0.031 C 
ATOM     48  C   UNL A   1      47.464  24.624  26.597  1.00  0.00     0.029 A 
ATOM     49  C   UNL A   1      47.353  26.034  26.958  1.00  0.00     0.049 A 
ATOM     50  H   UNL A   1      45.634  27.063  27.528  1.00  0.00     0.167 HD
ATOM     51  C   UNL A   1      41.929  29.163  28.501  1.00  0.00     0.031 A 
ATOM     52  C   UNL A   1      48.376  26.911  26.982  1.00  0.00     0.031 A 
ATOM     53  C   UNL A   1      42.968  30.146  28.652  1.00  0.00     0.049 A 
ATOM     54  C   UNL A   1      48.115  28.334  27.390  1.00  0.00     0.074 A 
ATOM     55  C   UNL A   1      42.856  31.460  29.071  1.00  0.00     0.029 A 
ATOM     56  N   UNL A   1      44.311  29.926  28.382  1.00  0.00    -0.354 N 
ATOM     57  N   UNL A   1      46.978  28.901  27.717  1.00  0.00    -0.248 NA
ATOM     58  C   UNL A   1      49.276  29.232  27.445  1.00  0.00     0.031 C 
ATOM     59  C   UNL A   1      44.125  32.050  29.004  1.00  0.00     0.029 A 
ATOM     60  C   UNL A   1      45.036  31.086  28.602  1.00  0.00     0.049 A 
ATOM     61  H   UNL A   1      44.693  29.072  28.077  1.00  0.00     0.167 HD
ATOM     62  C   UNL A   1      47.289  30.217  28.038  1.00  0.00     0.074 A 
ATOM     63  C   UNL A   1      48.723  30.357  27.881  1.00  0.00     0.031 C 
ATOM     64  C   UNL A   1      46.462  31.216  28.432  1.00  0.00     0.031 A 
BRANCH  51  65
ATOM     65  C   UNL A   1      40.500  29.573  28.759  1.00  0.00    -0.014 A 
ATOM     66  C   UNL A   1      39.531  29.512  27.741  1.00  0.00     0.010 A 
ATOM     67  C   UNL A   1      40.120  30.024  30.037  1.00  0.00     0.010 A 
ATOM     68  C   UNL A   1      38.227  29.955  27.975  1.00  0.00     0.020 A 
ATOM     69  C   UNL A   1      38.807  30.437  30.284  1.00  0.00     0.020 A 
ATOM     70  C   UNL A   1      37.876  30.424  29.244  1.00  0.00     0.054 A 
BRANCH  70  71
ATOM     71  S   UNL A   1      36.181  31.008  29.516  1.00  0.00     0.124 S 
ATOM     72  O   UNL A   1      36.272  31.574  30.862  1.00  0.00    -0.237 OA
ATOM     73  O   UNL A   1      35.997  31.977  28.440  1.00  0.00    -0.237 OA
ATOM     74  O   UNL A   1      35.374  29.796  29.405  1.00  0.00    -0.744 OA
ENDBRANCH  70  71
ENDBRANCH  51  65
BRANCH  52  75
ATOM     75  C   UNL A   1      49.744  26.451  26.619  1.00  0.00    -0.014 A 
ATOM     76  C   UNL A   1      50.603  25.921  27.599  1.00  0.00     0.010 A 
ATOM     77  C   UNL A   1      50.175  26.492  25.280  1.00  0.00     0.010 A 
ATOM     78  C   UNL A   1      51.868  25.443  27.246  1.00  0.00     0.020 A 
ATOM     79  C   UNL A   1      51.429  25.990  24.920  1.00  0.00     0.020 A 
ATOM     80  C   UNL A   1      52.270  25.473  25.907  1.00  0.00     0.054 A 
BRANCH  80  81
ATOM     81  S   UNL A   1      53.881  24.766  25.461  1.00  0.00     0.124 S 
ATOM     82  O   UNL A   1      54.623  24.890  26.712  1.00  0.00    -0.237 OA
ATOM     83  O   UNL A   1      53.529  23.405  25.065  1.00  0.00    -0.237 OA
ATOM     84  O   UNL A   1      54.341  25.624  24.372  1.00  0.00    -0.744 OA
ENDBRANCH  80  81
ENDBRANCH  52  75
BRANCH  64  85
ATOM     85  C   UNL A   1      47.087  32.551  28.748  1.00  0.00    -0.014 A 
ATOM     86  C   UNL A   1      47.320  33.505  27.742  1.00  0.00     0.010 A 
ATOM     87  C   UNL A   1      47.390  32.875  30.083  1.00  0.00     0.010 A 
ATOM     88  C   UNL A   1      47.873  34.748  28.062  1.00  0.00     0.020 A 
ATOM     89  C   UNL A   1      47.916  34.127  30.411  1.00  0.00     0.020 A 
ATOM     90  C   UNL A   1      48.168  35.052  29.395  1.00  0.00     0.054 A 
BRANCH  90  91
ATOM     91  S   UNL A   1      48.840  36.689  29.791  1.00  0.00     0.124 S 
ATOM     92  O   UNL A   1      47.642  37.420  30.194  1.00  0.00    -0.237 OA
ATOM     93  O   UNL A   1      49.788  36.397  30.863  1.00  0.00    -0.237 OA
ATOM     94  O   UNL A   1      49.445  37.129  28.535  1.00  0.00    -0.744 OA
ENDBRANCH  90  91
ENDBRANCH  64  85
ENDBRANCH  38  39
ENDBRANCH  30  33
ENDBRANCH  28  29
ENDBRANCH  27  28
ENDBRANCH   1  27
TORSDOF 18
ENDMDL
