MODEL 1
REMARK VINA RESULT:     -11.1      0.000      0.000
REMARK SMILES C[C@@H]1SCCC[C@H]1Nc1cccc(C(=O)NCCCCNC(=O)c2ccc(-c3c4nc(c(-c5ccc(S(=O)(=O)[O-])cc5)c5ccc([nH]5)c(-c5ccc(S(=O)(=O)[O-])cc5)c5nc(c(-c6ccc(S(=O)(=O)[O-])cc6)c6ccc3[nH]6)C=C5)C=C4)cc2)c1
REMARK SMILES IDX 19 1 18 2 17 3 16 4 14 5 15 6 13 8 9 9 10 10 84 11 11 12
REMARK SMILES IDX 12 13 8 14 7 16 1 17 2 18 3 19 4 20 6 21 5 22 20 23 21 24
REMARK SMILES IDX 22 25 23 27 24 28 25 29 83 30 26 31 82 32 27 33 28 34 29 35
REMARK SMILES IDX 76 36 30 37 81 38 75 39 77 40 31 41 80 42 74 43 73 44 32 46
REMARK SMILES IDX 62 47 43 48 61 49 44 50 47 51 60 52 78 53 45 54 46 55 59 57
REMARK SMILES IDX 79 58 48 59 33 60 34 61 42 62 35 63 41 64 36 65 37 66 38 67
REMARK SMILES IDX 39 68 40 69 63 70 64 71 72 72 65 73 71 74 66 75 67 76 68 77
REMARK SMILES IDX 69 78 70 79 49 80 50 81 58 82 51 83 57 84 52 85 53 86 54 87
REMARK SMILES IDX 55 88 56 89
REMARK H PARENT 16 7 8 15 21 26 77 45 47 56
REMARK Flexibility Score: inf
ROOT
ATOM      1  C   UNL A   1      33.812  28.301  25.695  1.00  0.00     0.023 C 
ENDROOT
BRANCH   1   2
ATOM      2  C   UNL A   1      33.347  29.366  24.714  1.00  0.00     0.023 C 
BRANCH   2   3
ATOM      3  C   UNL A   1      33.395  29.006  23.237  1.00  0.00     0.116 C 
BRANCH   3   4
ATOM      4  N   UNL A   1      32.140  29.148  22.520  1.00  0.00    -0.352 N 
ATOM      5  C   UNL A   1      30.994  28.382  22.577  1.00  0.00     0.251 C 
ATOM      6  O   UNL A   1      30.034  28.682  21.870  1.00  0.00    -0.269 OA
ATOM      7  H   UNL A   1      32.100  29.910  21.898  1.00  0.00     0.163 HD
BRANCH   5   8
ATOM      8  C   UNL A   1      30.923  27.156  23.416  1.00  0.00     0.041 A 
ATOM      9  C   UNL A   1      31.025  24.731  23.635  1.00  0.00     0.035 A 
ATOM     10  C   UNL A   1      30.447  24.862  24.905  1.00  0.00     0.026 A 
ATOM     11  C   UNL A   1      31.353  25.905  22.955  1.00  0.00     0.039 A 
ATOM     12  C   UNL A   1      30.152  26.116  25.449  1.00  0.00     0.003 A 
ATOM     13  C   UNL A   1      30.368  27.265  24.693  1.00  0.00     0.014 A 
BRANCH   9  14
ATOM     14  N   UNL A   1      31.263  23.467  23.133  1.00  0.00    -0.381 N 
ATOM     15  H   UNL A   1      30.487  22.869  23.052  1.00  0.00     0.160 HD
BRANCH  14  16
ATOM     16  C   UNL A   1      32.560  22.930  22.710  1.00  0.00     0.092 C 
ATOM     17  C   UNL A   1      35.043  23.105  23.291  1.00  0.00     0.021 C 
ATOM     18  C   UNL A   1      33.612  23.263  23.799  1.00  0.00     0.066 C 
ATOM     19  S   UNL A   1      33.367  22.299  25.345  1.00  0.00    -0.157 SA
ATOM     20  C   UNL A   1      33.322  20.626  24.645  1.00  0.00     0.070 C 
ATOM     21  C   UNL A   1      32.460  21.428  22.383  1.00  0.00     0.027 C 
ATOM     22  C   UNL A   1      32.243  20.505  23.581  1.00  0.00     0.013 C 
ENDBRANCH  14  16
ENDBRANCH   9  14
ENDBRANCH   5   8
ENDBRANCH   3   4
ENDBRANCH   2   3
ENDBRANCH   1   2
BRANCH   1  23
ATOM     23  C   UNL A   1      33.466  28.534  27.160  1.00  0.00     0.116 C 
BRANCH  23  24
ATOM     24  N   UNL A   1      33.473  29.934  27.558  1.00  0.00    -0.352 N 
ATOM     25  C   UNL A   1      34.486  30.691  28.104  1.00  0.00     0.251 C 
ATOM     26  H   UNL A   1      32.624  30.413  27.413  1.00  0.00     0.163 HD
ATOM     27  O   UNL A   1      34.270  31.853  28.426  1.00  0.00    -0.269 OA
BRANCH  25  28
ATOM     28  C   UNL A   1      35.816  30.085  28.345  1.00  0.00     0.039 A 
ATOM     29  C   UNL A   1      36.765  30.117  27.319  1.00  0.00     0.014 A 
ATOM     30  C   UNL A   1      36.143  29.524  29.582  1.00  0.00     0.014 A 
ATOM     31  C   UNL A   1      38.068  29.674  27.567  1.00  0.00     0.010 A 
ATOM     32  C   UNL A   1      37.460  29.162  29.851  1.00  0.00     0.010 A 
ATOM     33  C   UNL A   1      38.440  29.240  28.850  1.00  0.00    -0.014 A 
BRANCH  33  34
ATOM     34  C   UNL A   1      39.847  28.884  29.170  1.00  0.00     0.031 A 
ATOM     35  C   UNL A   1      40.750  29.886  29.841  1.00  0.00     0.074 A 
ATOM     36  C   UNL A   1      40.338  27.688  28.790  1.00  0.00     0.049 A 
ATOM     37  N   UNL A   1      42.017  29.775  30.153  1.00  0.00    -0.248 NA
ATOM     38  C   UNL A   1      40.161  31.191  30.178  1.00  0.00     0.031 C 
ATOM     39  C   UNL A   1      39.584  26.644  28.088  1.00  0.00     0.029 A 
ATOM     40  N   UNL A   1      41.590  27.145  28.937  1.00  0.00    -0.354 N 
ATOM     41  C   UNL A   1      42.381  31.002  30.695  1.00  0.00     0.074 A 
ATOM     42  C   UNL A   1      41.215  31.855  30.629  1.00  0.00     0.031 C 
ATOM     43  C   UNL A   1      40.377  25.577  27.901  1.00  0.00     0.029 A 
ATOM     44  C   UNL A   1      41.705  25.870  28.432  1.00  0.00     0.049 A 
ATOM     45  H   UNL A   1      42.337  27.623  29.365  1.00  0.00     0.167 HD
ATOM     46  C   UNL A   1      43.573  31.381  31.217  1.00  0.00     0.031 A 
ATOM     47  C   UNL A   1      42.758  25.030  28.399  1.00  0.00     0.031 A 
ATOM     48  C   UNL A   1      44.725  30.524  31.304  1.00  0.00     0.049 A 
ATOM     49  C   UNL A   1      44.067  25.469  28.994  1.00  0.00     0.074 A 
ATOM     50  C   UNL A   1      45.953  30.788  31.887  1.00  0.00     0.029 A 
ATOM     51  N   UNL A   1      44.796  29.239  30.789  1.00  0.00    -0.354 N 
ATOM     52  N   UNL A   1      44.368  26.606  29.574  1.00  0.00    -0.248 NA
ATOM     53  C   UNL A   1      45.175  24.505  28.940  1.00  0.00     0.031 C 
ATOM     54  C   UNL A   1      46.781  29.680  31.684  1.00  0.00     0.029 A 
ATOM     55  C   UNL A   1      46.053  28.705  31.020  1.00  0.00     0.049 A 
ATOM     56  H   UNL A   1      44.061  28.773  30.329  1.00  0.00     0.167 HD
ATOM     57  C   UNL A   1      45.693  26.484  29.980  1.00  0.00     0.074 A 
ATOM     58  C   UNL A   1      46.129  25.159  29.589  1.00  0.00     0.031 C 
ATOM     59  C   UNL A   1      46.475  27.386  30.622  1.00  0.00     0.031 A 
BRANCH  46  60
ATOM     60  C   UNL A   1      43.687  32.794  31.727  1.00  0.00    -0.014 A 
ATOM     61  C   UNL A   1      43.977  33.860  30.857  1.00  0.00     0.010 A 
ATOM     62  C   UNL A   1      43.485  33.061  33.093  1.00  0.00     0.010 A 
ATOM     63  C   UNL A   1      44.119  35.160  31.351  1.00  0.00     0.020 A 
ATOM     64  C   UNL A   1      43.597  34.364  33.588  1.00  0.00     0.020 A 
ATOM     65  C   UNL A   1      43.935  35.401  32.716  1.00  0.00     0.054 A 
BRANCH  65  66
ATOM     66  S   UNL A   1      44.125  37.096  33.333  1.00  0.00     0.124 S 
ATOM     67  O   UNL A   1      44.473  37.822  32.114  1.00  0.00    -0.237 OA
ATOM     68  O   UNL A   1      42.804  37.388  33.882  1.00  0.00    -0.237 OA
ATOM     69  O   UNL A   1      45.196  36.987  34.321  1.00  0.00    -0.744 OA
ENDBRANCH  65  66
ENDBRANCH  46  60
BRANCH  47  70
ATOM     70  C   UNL A   1      42.606  23.669  27.816  1.00  0.00    -0.014 A 
ATOM     71  C   UNL A   1      42.120  22.613  28.607  1.00  0.00     0.010 A 
ATOM     72  C   UNL A   1      42.930  23.423  26.470  1.00  0.00     0.010 A 
ATOM     73  C   UNL A   1      41.974  21.333  28.068  1.00  0.00     0.020 A 
ATOM     74  C   UNL A   1      42.761  22.149  25.920  1.00  0.00     0.020 A 
ATOM     75  C   UNL A   1      42.294  21.109  26.726  1.00  0.00     0.054 A 
BRANCH  75  76
ATOM     76  S   UNL A   1      42.041  19.451  26.031  1.00  0.00     0.124 S 
ATOM     77  O   UNL A   1      40.593  19.417  25.847  1.00  0.00    -0.237 OA
ATOM     78  O   UNL A   1      42.835  19.498  24.805  1.00  0.00    -0.237 OA
ATOM     79  O   UNL A   1      42.563  18.564  27.068  1.00  0.00    -0.744 OA
ENDBRANCH  75  76
ENDBRANCH  47  70
BRANCH  59  80
ATOM     80  C   UNL A   1      47.875  26.959  30.972  1.00  0.00    -0.014 A 
ATOM     81  C   UNL A   1      48.957  27.234  30.117  1.00  0.00     0.010 A 
ATOM     82  C   UNL A   1      48.115  26.309  32.197  1.00  0.00     0.010 A 
ATOM     83  C   UNL A   1      50.250  26.836  30.466  1.00  0.00     0.020 A 
ATOM     84  C   UNL A   1      49.411  25.933  32.560  1.00  0.00     0.020 A 
ATOM     85  C   UNL A   1      50.468  26.184  31.684  1.00  0.00     0.054 A 
BRANCH  85  86
ATOM     86  S   UNL A   1      52.160  25.708  32.133  1.00  0.00     0.124 S 
ATOM     87  O   UNL A   1      52.326  26.367  33.426  1.00  0.00    -0.237 OA
ATOM     88  O   UNL A   1      52.083  24.249  32.177  1.00  0.00    -0.237 OA
ATOM     89  O   UNL A   1      52.972  26.251  31.047  1.00  0.00    -0.744 OA
ENDBRANCH  85  86
ENDBRANCH  59  80
ENDBRANCH  33  34
ENDBRANCH  25  28
ENDBRANCH  23  24
ENDBRANCH   1  23
TORSDOF 16
ENDMDL
MODEL 2
REMARK VINA RESULT:     -10.6      3.840      6.836
REMARK SMILES C[C@@H]1SCCC[C@H]1Nc1cccc(C(=O)NCCCCNC(=O)c2ccc(-c3c4nc(c(-c5ccc(S(=O)(=O)[O-])cc5)c5ccc([nH]5)c(-c5ccc(S(=O)(=O)[O-])cc5)c5nc(c(-c6ccc(S(=O)(=O)[O-])cc6)c6ccc3[nH]6)C=C5)C=C4)cc2)c1
REMARK SMILES IDX 19 1 18 2 17 3 16 4 14 5 15 6 13 8 9 9 10 10 84 11 11 12
REMARK SMILES IDX 12 13 8 14 7 16 1 17 2 18 3 19 4 20 6 21 5 22 20 23 21 24
REMARK SMILES IDX 22 25 23 27 24 28 25 29 83 30 26 31 82 32 27 33 28 34 29 35
REMARK SMILES IDX 76 36 30 37 81 38 75 39 77 40 31 41 80 42 74 43 73 44 32 46
REMARK SMILES IDX 62 47 43 48 61 49 44 50 47 51 60 52 78 53 45 54 46 55 59 57
REMARK SMILES IDX 79 58 48 59 33 60 34 61 42 62 35 63 41 64 36 65 37 66 38 67
REMARK SMILES IDX 39 68 40 69 63 70 64 71 72 72 65 73 71 74 66 75 67 76 68 77
REMARK SMILES IDX 69 78 70 79 49 80 50 81 58 82 51 83 57 84 52 85 53 86 54 87
REMARK SMILES IDX 55 88 56 89
REMARK H PARENT 16 7 8 15 21 26 77 45 47 56
REMARK Flexibility Score: inf
ROOT
ATOM      1  C   UNL A   1      35.082  33.048  30.489  1.00  0.00     0.023 C 
ENDROOT
BRANCH   1   2
ATOM      2  C   UNL A   1      36.402  33.402  31.156  1.00  0.00     0.023 C 
BRANCH   2   3
ATOM      3  C   UNL A   1      37.167  32.261  31.812  1.00  0.00     0.116 C 
BRANCH   3   4
ATOM      4  N   UNL A   1      37.181  32.275  33.264  1.00  0.00    -0.352 N 
ATOM      5  C   UNL A   1      37.728  31.376  34.155  1.00  0.00     0.251 C 
ATOM      6  O   UNL A   1      37.618  31.582  35.362  1.00  0.00    -0.269 OA
ATOM      7  H   UNL A   1      36.730  33.048  33.677  1.00  0.00     0.163 HD
BRANCH   5   8
ATOM      8  C   UNL A   1      38.380  30.122  33.689  1.00  0.00     0.041 A 
ATOM      9  C   UNL A   1      40.388  28.868  33.114  1.00  0.00     0.035 A 
ATOM     10  C   UNL A   1      39.567  27.915  32.496  1.00  0.00     0.026 A 
ATOM     11  C   UNL A   1      39.760  29.909  33.800  1.00  0.00     0.039 A 
ATOM     12  C   UNL A   1      38.173  28.031  32.510  1.00  0.00     0.003 A 
ATOM     13  C   UNL A   1      37.579  29.150  33.086  1.00  0.00     0.014 A 
BRANCH   9  14
ATOM     14  N   UNL A   1      41.758  28.722  33.039  1.00  0.00    -0.381 N 
ATOM     15  H   UNL A   1      42.140  28.563  32.146  1.00  0.00     0.160 HD
BRANCH  14  16
ATOM     16  C   UNL A   1      42.701  28.779  34.160  1.00  0.00     0.092 C 
ATOM     17  C   UNL A   1      42.820  28.238  36.656  1.00  0.00     0.021 C 
ATOM     18  C   UNL A   1      42.132  27.932  35.329  1.00  0.00     0.066 C 
ATOM     19  S   UNL A   1      42.169  26.127  34.984  1.00  0.00    -0.157 SA
ATOM     20  C   UNL A   1      43.918  25.949  34.536  1.00  0.00     0.070 C 
ATOM     21  C   UNL A   1      44.116  28.357  33.721  1.00  0.00     0.027 C 
ATOM     22  C   UNL A   1      44.289  26.875  33.389  1.00  0.00     0.013 C 
ENDBRANCH  14  16
ENDBRANCH   9  14
ENDBRANCH   5   8
ENDBRANCH   3   4
ENDBRANCH   2   3
ENDBRANCH   1   2
BRANCH   1  23
ATOM     23  C   UNL A   1      35.068  33.069  28.966  1.00  0.00     0.116 C 
BRANCH  23  24
ATOM     24  N   UNL A   1      34.170  32.094  28.365  1.00  0.00    -0.352 N 
ATOM     25  C   UNL A   1      34.407  30.789  27.992  1.00  0.00     0.251 C 
ATOM     26  H   UNL A   1      33.253  32.416  28.201  1.00  0.00     0.163 HD
ATOM     27  O   UNL A   1      33.522  30.144  27.443  1.00  0.00    -0.269 OA
BRANCH  25  28
ATOM     28  C   UNL A   1      35.742  30.186  28.212  1.00  0.00     0.039 A 
ATOM     29  C   UNL A   1      36.693  30.268  27.190  1.00  0.00     0.014 A 
ATOM     30  C   UNL A   1      36.072  29.579  29.425  1.00  0.00     0.014 A 
ATOM     31  C   UNL A   1      37.999  29.828  27.422  1.00  0.00     0.010 A 
ATOM     32  C   UNL A   1      37.392  29.219  29.683  1.00  0.00     0.010 A 
ATOM     33  C   UNL A   1      38.373  29.346  28.688  1.00  0.00    -0.014 A 
BRANCH  33  34
ATOM     34  C   UNL A   1      39.783  28.991  28.997  1.00  0.00     0.031 A 
ATOM     35  C   UNL A   1      40.703  30.007  29.621  1.00  0.00     0.074 A 
ATOM     36  C   UNL A   1      40.260  27.780  28.647  1.00  0.00     0.049 A 
ATOM     37  N   UNL A   1      41.974  29.898  29.916  1.00  0.00    -0.248 NA
ATOM     38  C   UNL A   1      40.128  31.327  29.926  1.00  0.00     0.031 C 
ATOM     39  C   UNL A   1      39.488  26.720  27.991  1.00  0.00     0.029 A 
ATOM     40  N   UNL A   1      41.511  27.233  28.791  1.00  0.00    -0.354 N 
ATOM     41  C   UNL A   1      42.355  31.139  30.413  1.00  0.00     0.074 A 
ATOM     42  C   UNL A   1      41.193  31.997  30.338  1.00  0.00     0.031 C 
ATOM     43  C   UNL A   1      40.271  25.641  27.825  1.00  0.00     0.029 A 
ATOM     44  C   UNL A   1      41.609  25.943  28.325  1.00  0.00     0.049 A 
ATOM     45  H   UNL A   1      42.267  27.720  29.192  1.00  0.00     0.167 HD
ATOM     46  C   UNL A   1      43.557  31.525  30.904  1.00  0.00     0.031 A 
ATOM     47  C   UNL A   1      42.656  25.094  28.302  1.00  0.00     0.031 A 
ATOM     48  C   UNL A   1      44.706  30.664  30.999  1.00  0.00     0.049 A 
ATOM     49  C   UNL A   1      43.977  25.543  28.862  1.00  0.00     0.074 A 
ATOM     50  C   UNL A   1      45.944  30.938  31.553  1.00  0.00     0.029 A 
ATOM     51  N   UNL A   1      44.760  29.363  30.525  1.00  0.00    -0.354 N 
ATOM     52  N   UNL A   1      44.295  26.696  29.400  1.00  0.00    -0.248 NA
ATOM     53  C   UNL A   1      45.078  24.570  28.821  1.00  0.00     0.031 C 
ATOM     54  C   UNL A   1      46.762  29.818  31.372  1.00  0.00     0.029 A 
ATOM     55  C   UNL A   1      46.017  28.828  30.752  1.00  0.00     0.049 A 
ATOM     56  H   UNL A   1      44.014  28.888  30.091  1.00  0.00     0.167 HD
ATOM     57  C   UNL A   1      45.626  26.577  29.788  1.00  0.00     0.074 A 
ATOM     58  C   UNL A   1      46.047  25.238  29.433  1.00  0.00     0.031 C 
ATOM     59  C   UNL A   1      46.423  27.494  30.389  1.00  0.00     0.031 A 
BRANCH  46  60
ATOM     60  C   UNL A   1      43.689  32.953  31.366  1.00  0.00    -0.014 A 
ATOM     61  C   UNL A   1      43.241  33.350  32.639  1.00  0.00     0.010 A 
ATOM     62  C   UNL A   1      44.284  33.908  30.522  1.00  0.00     0.010 A 
ATOM     63  C   UNL A   1      43.334  34.686  33.038  1.00  0.00     0.020 A 
ATOM     64  C   UNL A   1      44.405  35.240  30.928  1.00  0.00     0.020 A 
ATOM     65  C   UNL A   1      43.909  35.624  32.175  1.00  0.00     0.054 A 
BRANCH  65  66
ATOM     66  S   UNL A   1      44.018  37.352  32.716  1.00  0.00     0.124 S 
ATOM     67  O   UNL A   1      43.763  38.073  31.471  1.00  0.00    -0.237 OA
ATOM     68  O   UNL A   1      42.962  37.442  33.720  1.00  0.00    -0.237 OA
ATOM     69  O   UNL A   1      45.379  37.467  33.235  1.00  0.00    -0.744 OA
ENDBRANCH  65  66
ENDBRANCH  46  60
BRANCH  47  70
ATOM     70  C   UNL A   1      42.486  23.717  27.765  1.00  0.00    -0.014 A 
ATOM     71  C   UNL A   1      42.707  23.459  26.401  1.00  0.00     0.010 A 
ATOM     72  C   UNL A   1      42.117  22.656  28.611  1.00  0.00     0.010 A 
ATOM     73  C   UNL A   1      42.550  22.169  25.888  1.00  0.00     0.020 A 
ATOM     74  C   UNL A   1      41.983  21.358  28.107  1.00  0.00     0.020 A 
ATOM     75  C   UNL A   1      42.191  21.126  26.746  1.00  0.00     0.054 A 
BRANCH  75  76
ATOM     76  S   UNL A   1      42.049  19.447  26.069  1.00  0.00     0.124 S 
ATOM     77  O   UNL A   1      42.535  18.631  27.177  1.00  0.00    -0.237 OA
ATOM     78  O   UNL A   1      40.620  19.341  25.783  1.00  0.00    -0.237 OA
ATOM     79  O   UNL A   1      42.910  19.482  24.889  1.00  0.00    -0.744 OA
ENDBRANCH  75  76
ENDBRANCH  47  70
BRANCH  59  80
ATOM     80  C   UNL A   1      47.827  27.069  30.730  1.00  0.00    -0.014 A 
ATOM     81  C   UNL A   1      48.111  26.384  31.924  1.00  0.00     0.010 A 
ATOM     82  C   UNL A   1      48.868  27.324  29.819  1.00  0.00     0.010 A 
ATOM     83  C   UNL A   1      49.421  25.992  32.217  1.00  0.00     0.020 A 
ATOM     84  C   UNL A   1      50.174  26.910  30.097  1.00  0.00     0.020 A 
ATOM     85  C   UNL A   1      50.444  26.261  31.303  1.00  0.00     0.054 A 
BRANCH  85  86
ATOM     86  S   UNL A   1      52.129  25.711  31.687  1.00  0.00     0.124 S 
ATOM     87  O   UNL A   1      51.921  24.301  32.008  1.00  0.00    -0.237 OA
ATOM     88  O   UNL A   1      52.846  25.972  30.440  1.00  0.00    -0.237 OA
ATOM     89  O   UNL A   1      52.521  26.555  32.813  1.00  0.00    -0.744 OA
ENDBRANCH  85  86
ENDBRANCH  59  80
ENDBRANCH  33  34
ENDBRANCH  25  28
ENDBRANCH  23  24
ENDBRANCH   1  23
TORSDOF 16
ENDMDL
MODEL 3
REMARK VINA RESULT:     -10.5      2.885      9.359
REMARK SMILES C[C@@H]1SCCC[C@H]1Nc1cccc(C(=O)NCCCCNC(=O)c2ccc(-c3c4nc(c(-c5ccc(S(=O)(=O)[O-])cc5)c5ccc([nH]5)c(-c5ccc(S(=O)(=O)[O-])cc5)c5nc(c(-c6ccc(S(=O)(=O)[O-])cc6)c6ccc3[nH]6)C=C5)C=C4)cc2)c1
REMARK SMILES IDX 19 1 18 2 17 3 16 4 14 5 15 6 13 8 9 9 10 10 84 11 11 12
REMARK SMILES IDX 12 13 8 14 7 16 1 17 2 18 3 19 4 20 6 21 5 22 20 23 21 24
REMARK SMILES IDX 22 25 23 27 24 28 25 29 83 30 26 31 82 32 27 33 28 34 29 35
REMARK SMILES IDX 76 36 30 37 81 38 75 39 77 40 31 41 80 42 74 43 73 44 32 46
REMARK SMILES IDX 62 47 43 48 61 49 44 50 47 51 60 52 78 53 45 54 46 55 59 57
REMARK SMILES IDX 79 58 48 59 33 60 34 61 42 62 35 63 41 64 36 65 37 66 38 67
REMARK SMILES IDX 39 68 40 69 63 70 64 71 72 72 65 73 71 74 66 75 67 76 68 77
REMARK SMILES IDX 69 78 70 79 49 80 50 81 58 82 51 83 57 84 52 85 53 86 54 87
REMARK SMILES IDX 55 88 56 89
REMARK H PARENT 16 7 8 15 21 26 77 45 47 56
REMARK Flexibility Score: inf
ROOT
ATOM      1  C   UNL A   1      35.851  23.443  25.418  1.00  0.00     0.023 C 
ENDROOT
BRANCH   1   2
ATOM      2  C   UNL A   1      35.703  22.281  26.389  1.00  0.00     0.023 C 
BRANCH   2   3
ATOM      3  C   UNL A   1      34.451  21.428  26.251  1.00  0.00     0.116 C 
BRANCH   3   4
ATOM      4  N   UNL A   1      33.982  21.226  24.891  1.00  0.00    -0.352 N 
ATOM      5  C   UNL A   1      32.936  21.820  24.216  1.00  0.00     0.251 C 
ATOM      6  O   UNL A   1      32.708  21.493  23.053  1.00  0.00    -0.269 OA
ATOM      7  H   UNL A   1      34.491  20.564  24.370  1.00  0.00     0.163 HD
BRANCH   5   8
ATOM      8  C   UNL A   1      32.030  22.789  24.889  1.00  0.00     0.041 A 
ATOM      9  C   UNL A   1      31.511  25.063  25.595  1.00  0.00     0.035 A 
ATOM     10  C   UNL A   1      30.523  24.533  26.436  1.00  0.00     0.026 A 
ATOM     11  C   UNL A   1      32.178  24.175  24.748  1.00  0.00     0.039 A 
ATOM     12  C   UNL A   1      30.254  23.161  26.475  1.00  0.00     0.003 A 
ATOM     13  C   UNL A   1      31.027  22.284  25.718  1.00  0.00     0.014 A 
BRANCH   9  14
ATOM     14  N   UNL A   1      31.757  26.421  25.622  1.00  0.00    -0.381 N 
ATOM     15  H   UNL A   1      31.103  26.980  26.098  1.00  0.00     0.160 HD
BRANCH  14  16
ATOM     16  C   UNL A   1      32.898  27.110  25.012  1.00  0.00     0.092 C 
ATOM     17  C   UNL A   1      33.400  28.932  23.289  1.00  0.00     0.021 C 
ATOM     18  C   UNL A   1      32.377  28.370  24.274  1.00  0.00     0.066 C 
ATOM     19  S   UNL A   1      31.802  29.683  25.425  1.00  0.00    -0.157 SA
ATOM     20  C   UNL A   1      33.275  29.822  26.473  1.00  0.00     0.070 C 
ATOM     21  C   UNL A   1      33.991  27.410  26.055  1.00  0.00     0.027 C 
ATOM     22  C   UNL A   1      33.641  28.480  27.088  1.00  0.00     0.013 C 
ENDBRANCH  14  16
ENDBRANCH   9  14
ENDBRANCH   5   8
ENDBRANCH   3   4
ENDBRANCH   2   3
ENDBRANCH   1   2
BRANCH   1  23
ATOM     23  C   UNL A   1      37.253  23.696  24.878  1.00  0.00     0.116 C 
BRANCH  23  24
ATOM     24  N   UNL A   1      38.257  22.761  25.365  1.00  0.00    -0.352 N 
ATOM     25  C   UNL A   1      39.304  22.965  26.236  1.00  0.00     0.251 C 
ATOM     26  H   UNL A   1      38.174  21.843  25.018  1.00  0.00     0.163 HD
ATOM     27  O   UNL A   1      40.081  22.051  26.477  1.00  0.00    -0.269 OA
BRANCH  25  28
ATOM     28  C   UNL A   1      39.515  24.302  26.841  1.00  0.00     0.039 A 
ATOM     29  C   UNL A   1      39.007  24.549  28.120  1.00  0.00     0.014 A 
ATOM     30  C   UNL A   1      40.238  25.292  26.174  1.00  0.00     0.014 A 
ATOM     31  C   UNL A   1      39.307  25.752  28.764  1.00  0.00     0.010 A 
ATOM     32  C   UNL A   1      40.607  26.453  26.849  1.00  0.00     0.010 A 
ATOM     33  C   UNL A   1      40.153  26.693  28.154  1.00  0.00    -0.014 A 
BRANCH  33  34
ATOM     34  C   UNL A   1      40.590  27.921  28.869  1.00  0.00     0.031 A 
ATOM     35  C   UNL A   1      41.964  27.996  29.481  1.00  0.00     0.074 A 
ATOM     36  C   UNL A   1      39.725  28.942  29.035  1.00  0.00     0.049 A 
ATOM     37  N   UNL A   1      42.502  28.960  30.184  1.00  0.00    -0.248 NA
ATOM     38  C   UNL A   1      42.835  26.823  29.307  1.00  0.00     0.031 C 
ATOM     39  C   UNL A   1      38.347  28.978  28.536  1.00  0.00     0.029 A 
ATOM     40  N   UNL A   1      39.874  30.148  29.675  1.00  0.00    -0.354 N 
ATOM     41  C   UNL A   1      43.760  28.500  30.557  1.00  0.00     0.074 A 
ATOM     42  C   UNL A   1      43.886  27.155  30.041  1.00  0.00     0.031 C 
ATOM     43  C   UNL A   1      37.793  30.159  28.854  1.00  0.00     0.029 A 
ATOM     44  C   UNL A   1      38.757  30.949  29.613  1.00  0.00     0.049 A 
ATOM     45  H   UNL A   1      40.703  30.414  30.134  1.00  0.00     0.167 HD
ATOM     46  C   UNL A   1      44.730  29.144  31.250  1.00  0.00     0.031 A 
ATOM     47  C   UNL A   1      38.533  32.182  30.109  1.00  0.00     0.031 A 
ATOM     48  C   UNL A   1      44.612  30.490  31.743  1.00  0.00     0.049 A 
ATOM     49  C   UNL A   1      39.628  32.880  30.866  1.00  0.00     0.074 A 
ATOM     50  C   UNL A   1      45.567  31.258  32.388  1.00  0.00     0.029 A 
ATOM     51  N   UNL A   1      43.469  31.269  31.651  1.00  0.00    -0.354 N 
ATOM     52  N   UNL A   1      40.839  32.457  31.140  1.00  0.00    -0.248 NA
ATOM     53  C   UNL A   1      39.329  34.227  31.372  1.00  0.00     0.031 C 
ATOM     54  C   UNL A   1      44.986  32.484  32.727  1.00  0.00     0.029 A 
ATOM     55  C   UNL A   1      43.686  32.500  32.248  1.00  0.00     0.049 A 
ATOM     56  H   UNL A   1      42.627  30.989  31.224  1.00  0.00     0.167 HD
ATOM     57  C   UNL A   1      41.456  33.498  31.826  1.00  0.00     0.074 A 
ATOM     58  C   UNL A   1      40.489  34.573  31.914  1.00  0.00     0.031 C 
ATOM     59  C   UNL A   1      42.712  33.559  32.332  1.00  0.00     0.031 A 
BRANCH  46  60
ATOM     60  C   UNL A   1      46.002  28.386  31.525  1.00  0.00    -0.014 A 
ATOM     61  C   UNL A   1      46.135  27.573  32.665  1.00  0.00     0.010 A 
ATOM     62  C   UNL A   1      47.076  28.475  30.620  1.00  0.00     0.010 A 
ATOM     63  C   UNL A   1      47.335  26.908  32.926  1.00  0.00     0.020 A 
ATOM     64  C   UNL A   1      48.270  27.788  30.862  1.00  0.00     0.020 A 
ATOM     65  C   UNL A   1      48.398  27.027  32.025  1.00  0.00     0.054 A 
BRANCH  65  66
ATOM     66  S   UNL A   1      49.947  26.154  32.387  1.00  0.00     0.124 S 
ATOM     67  O   UNL A   1      50.916  26.930  31.617  1.00  0.00    -0.237 OA
ATOM     68  O   UNL A   1      50.055  26.278  33.838  1.00  0.00    -0.237 OA
ATOM     69  O   UNL A   1      49.703  24.799  31.898  1.00  0.00    -0.744 OA
ENDBRANCH  65  66
ENDBRANCH  46  60
BRANCH  47  70
ATOM     70  C   UNL A   1      37.227  32.854  29.868  1.00  0.00    -0.014 A 
ATOM     71  C   UNL A   1      36.998  33.541  28.662  1.00  0.00     0.010 A 
ATOM     72  C   UNL A   1      36.203  32.802  30.831  1.00  0.00     0.010 A 
ATOM     73  C   UNL A   1      35.775  34.174  28.428  1.00  0.00     0.020 A 
ATOM     74  C   UNL A   1      34.969  33.413  30.590  1.00  0.00     0.020 A 
ATOM     75  C   UNL A   1      34.767  34.105  29.394  1.00  0.00     0.054 A 
BRANCH  75  76
ATOM     76  S   UNL A   1      33.166  34.885  29.043  1.00  0.00     0.124 S 
ATOM     77  O   UNL A   1      32.519  34.851  30.351  1.00  0.00    -0.237 OA
ATOM     78  O   UNL A   1      33.558  36.209  28.565  1.00  0.00    -0.237 OA
ATOM     79  O   UNL A   1      32.578  34.016  28.027  1.00  0.00    -0.744 OA
ENDBRANCH  75  76
ENDBRANCH  47  70
BRANCH  59  80
ATOM     80  C   UNL A   1      43.125  34.843  32.999  1.00  0.00    -0.014 A 
ATOM     81  C   UNL A   1      42.972  35.027  34.384  1.00  0.00     0.010 A 
ATOM     82  C   UNL A   1      43.714  35.865  32.231  1.00  0.00     0.010 A 
ATOM     83  C   UNL A   1      43.370  36.225  34.985  1.00  0.00     0.020 A 
ATOM     84  C   UNL A   1      44.137  37.053  32.833  1.00  0.00     0.020 A 
ATOM     85  C   UNL A   1      43.946  37.232  34.204  1.00  0.00     0.054 A 
BRANCH  85  86
ATOM     86  S   UNL A   1      44.488  38.764  35.010  1.00  0.00     0.124 S 
ATOM     87  O   UNL A   1      45.913  38.786  34.690  1.00  0.00    -0.237 OA
ATOM     88  O   UNL A   1      43.679  39.783  34.344  1.00  0.00    -0.237 OA
ATOM     89  O   UNL A   1      44.168  38.546  36.418  1.00  0.00    -0.744 OA
ENDBRANCH  85  86
ENDBRANCH  59  80
ENDBRANCH  33  34
ENDBRANCH  25  28
ENDBRANCH  23  24
ENDBRANCH   1  23
TORSDOF 16
ENDMDL
