MODEL 1
REMARK VINA RESULT:     -12.6      0.000      0.000
REMARK SMILES Cc1nc(-c2ccccc2)sc1C(=O)N[C@@H](CC1=c2ccccc2=NC1)C(=O)NCCCCNC(=O)c1ccc(-c2c3nc(c(-c4ccc(S(=O)(=O)[O-])cc4)c4ccc([nH]4)c(-c4ccc(S(=O)(=O)[O-])cc4)c4nc(c(-c5ccc(S(=O)(=O)[O-])cc5)c5ccc2[nH]5)C=C4)C=C3)cc1
REMARK SMILES IDX 31 1 30 2 29 3 27 4 28 5 16 7 15 8 13 9 14 10 12 12 1 13
REMARK SMILES IDX 2 14 3 15 4 16 11 17 5 18 6 19 10 20 7 21 9 22 8 23 17 24
REMARK SMILES IDX 18 25 19 26 26 27 20 28 24 29 25 30 21 31 23 32 22 33 32 34
REMARK SMILES IDX 33 35 34 36 35 37 36 39 37 40 38 41 96 42 39 43 95 44 40 45
REMARK SMILES IDX 41 46 42 47 89 48 43 49 94 50 88 51 90 52 44 53 93 54 87 55
REMARK SMILES IDX 86 56 45 58 75 59 56 60 74 61 57 62 60 63 73 64 91 65 58 66
REMARK SMILES IDX 59 67 72 69 92 70 61 71 46 72 47 73 55 74 48 75 54 76 49 77
REMARK SMILES IDX 50 78 51 79 52 80 53 81 76 82 77 83 85 84 78 85 84 86 79 87
REMARK SMILES IDX 80 88 81 89 82 90 83 91 62 92 63 93 71 94 64 95 70 96 65 97
REMARK SMILES IDX 66 98 67 99 68 100 69 101
REMARK H PARENT 29 6 15 11 34 38 90 57 60 68
REMARK Flexibility Score: inf
ROOT
ATOM      1  C   UNL A   1      37.795  24.044  26.024  1.00  0.00     0.023 C 
ENDROOT
BRANCH   1   2
ATOM      2  C   UNL A   1      36.314  23.725  26.133  1.00  0.00     0.116 C 
BRANCH   2   3
ATOM      3  N   UNL A   1      35.636  23.537  24.873  1.00  0.00    -0.354 N 
ATOM      4  C   UNL A   1      34.698  24.324  24.278  1.00  0.00     0.242 C 
ATOM      5  O   UNL A   1      34.618  24.259  23.046  1.00  0.00    -0.273 OA
ATOM      6  H   UNL A   1      35.886  22.727  24.374  1.00  0.00     0.163 HD
BRANCH   4   7
ATOM      7  C   UNL A   1      33.807  25.331  25.040  1.00  0.00     0.175 C 
BRANCH   7   8
ATOM      8  N   UNL A   1      33.064  24.792  26.166  1.00  0.00    -0.339 N 
ATOM      9  C   UNL A   1      32.390  23.625  26.401  1.00  0.00     0.263 C 
ATOM     10  O   UNL A   1      31.793  23.657  27.488  1.00  0.00    -0.268 OA
ATOM     11  H   UNL A   1      33.041  25.406  26.936  1.00  0.00     0.164 HD
BRANCH   9  12
ATOM     12  C   UNL A   1      32.359  22.448  25.534  1.00  0.00     0.115 A 
ATOM     13  C   UNL A   1      31.316  22.838  23.133  1.00  0.00     0.068 C 
ATOM     14  C   UNL A   1      31.972  22.096  24.239  1.00  0.00     0.062 A 
ATOM     15  N   UNL A   1      32.227  20.778  23.887  1.00  0.00    -0.241 NA
ATOM     16  C   UNL A   1      32.715  20.095  24.888  1.00  0.00     0.124 A 
ATOM     17  S   UNL A   1      32.954  20.982  26.313  1.00  0.00    -0.108 S 
BRANCH  16  18
ATOM     18  C   UNL A   1      33.047  18.680  24.784  1.00  0.00     0.010 A 
ATOM     19  C   UNL A   1      33.383  18.154  23.529  1.00  0.00     0.011 A 
ATOM     20  C   UNL A   1      32.901  17.813  25.875  1.00  0.00     0.011 A 
ATOM     21  C   UNL A   1      33.557  16.781  23.360  1.00  0.00     0.001 A 
ATOM     22  C   UNL A   1      33.067  16.438  25.702  1.00  0.00     0.001 A 
ATOM     23  C   UNL A   1      33.390  15.923  24.445  1.00  0.00     0.000 A 
ENDBRANCH  16  18
ENDBRANCH   9  12
ENDBRANCH   7   8
BRANCH   7  24
ATOM     24  C   UNL A   1      34.469  26.696  25.364  1.00  0.00     0.068 C 
BRANCH  24  25
ATOM     25  C   UNL A   1      33.605  27.797  25.898  1.00  0.00    -0.037 C 
ATOM     26  C   UNL A   1      33.915  28.801  26.719  1.00  0.00     0.001 A 
ATOM     27  C   UNL A   1      32.170  27.903  25.464  1.00  0.00     0.174 C 
ATOM     28  C   UNL A   1      35.083  29.216  27.427  1.00  0.00     0.010 A 
ATOM     29  C   UNL A   1      32.727  29.669  26.623  1.00  0.00     0.065 A 
ATOM     30  N   UNL A   1      31.711  29.224  25.950  1.00  0.00    -0.280 NA
ATOM     31  C   UNL A   1      35.126  30.460  27.931  1.00  0.00     0.001 A 
ATOM     32  C   UNL A   1      32.846  31.021  27.210  1.00  0.00     0.028 A 
ATOM     33  C   UNL A   1      34.005  31.374  27.791  1.00  0.00     0.002 A 
ENDBRANCH  24  25
ENDBRANCH   7  24
ENDBRANCH   4   7
ENDBRANCH   2   3
ENDBRANCH   1   2
BRANCH   1  34
ATOM     34  C   UNL A   1      38.731  22.992  26.608  1.00  0.00     0.023 C 
BRANCH  34  35
ATOM     35  C   UNL A   1      40.124  23.480  26.993  1.00  0.00     0.116 C 
BRANCH  35  36
ATOM     36  N   UNL A   1      40.778  24.267  25.957  1.00  0.00    -0.352 N 
ATOM     37  C   UNL A   1      41.252  25.559  26.023  1.00  0.00     0.251 C 
ATOM     38  H   UNL A   1      40.898  23.815  25.092  1.00  0.00     0.163 HD
ATOM     39  O   UNL A   1      41.667  26.126  25.021  1.00  0.00    -0.269 OA
BRANCH  37  40
ATOM     40  C   UNL A   1      41.211  26.262  27.322  1.00  0.00     0.039 A 
ATOM     41  C   UNL A   1      42.304  27.035  27.714  1.00  0.00     0.014 A 
ATOM     42  C   UNL A   1      40.050  26.225  28.100  1.00  0.00     0.014 A 
ATOM     43  C   UNL A   1      42.195  27.853  28.840  1.00  0.00     0.010 A 
ATOM     44  C   UNL A   1      39.914  27.104  29.167  1.00  0.00     0.010 A 
ATOM     45  C   UNL A   1      40.981  27.935  29.544  1.00  0.00    -0.014 A 
BRANCH  45  46
ATOM     46  C   UNL A   1      40.798  28.892  30.665  1.00  0.00     0.031 A 
ATOM     47  C   UNL A   1      41.641  28.770  31.905  1.00  0.00     0.074 A 
ATOM     48  C   UNL A   1      39.817  29.817  30.604  1.00  0.00     0.049 A 
ATOM     49  N   UNL A   1      41.580  29.459  33.015  1.00  0.00    -0.248 NA
ATOM     50  C   UNL A   1      42.668  27.714  31.909  1.00  0.00     0.031 C 
ATOM     51  C   UNL A   1      38.889  30.000  29.484  1.00  0.00     0.029 A 
ATOM     52  N   UNL A   1      39.432  30.773  31.511  1.00  0.00    -0.354 N 
ATOM     53  C   UNL A   1      42.537  28.904  33.856  1.00  0.00     0.074 A 
ATOM     54  C   UNL A   1      43.131  27.792  33.148  1.00  0.00     0.031 C 
ATOM     55  C   UNL A   1      38.065  31.025  29.758  1.00  0.00     0.029 A 
ATOM     56  C   UNL A   1      38.378  31.549  31.083  1.00  0.00     0.049 A 
ATOM     57  H   UNL A   1      39.869  30.893  32.385  1.00  0.00     0.167 HD
ATOM     58  C   UNL A   1      42.908  29.299  35.098  1.00  0.00     0.031 A 
ATOM     59  C   UNL A   1      37.736  32.566  31.690  1.00  0.00     0.031 A 
ATOM     60  C   UNL A   1      42.336  30.421  35.791  1.00  0.00     0.049 A 
ATOM     61  C   UNL A   1      38.185  33.005  33.057  1.00  0.00     0.074 A 
ATOM     62  C   UNL A   1      42.688  30.941  37.024  1.00  0.00     0.029 A 
ATOM     63  N   UNL A   1      41.297  31.202  35.308  1.00  0.00    -0.354 N 
ATOM     64  N   UNL A   1      39.138  32.509  33.808  1.00  0.00    -0.248 NA
ATOM     65  C   UNL A   1      37.478  34.148  33.652  1.00  0.00     0.031 C 
ATOM     66  C   UNL A   1      41.836  32.015  37.304  1.00  0.00     0.029 A 
ATOM     67  C   UNL A   1      40.986  32.193  36.224  1.00  0.00     0.049 A 
ATOM     68  H   UNL A   1      40.848  31.071  34.442  1.00  0.00     0.167 HD
ATOM     69  C   UNL A   1      39.165  33.296  34.954  1.00  0.00     0.074 A 
ATOM     70  C   UNL A   1      38.141  34.309  34.790  1.00  0.00     0.031 C 
ATOM     71  C   UNL A   1      39.965  33.193  36.043  1.00  0.00     0.031 A 
BRANCH  58  72
ATOM     72  C   UNL A   1      43.990  28.505  35.780  1.00  0.00    -0.014 A 
ATOM     73  C   UNL A   1      45.347  28.835  35.607  1.00  0.00     0.010 A 
ATOM     74  C   UNL A   1      43.647  27.430  36.619  1.00  0.00     0.010 A 
ATOM     75  C   UNL A   1      46.344  28.075  36.223  1.00  0.00     0.020 A 
ATOM     76  C   UNL A   1      44.642  26.685  37.260  1.00  0.00     0.020 A 
ATOM     77  C   UNL A   1      45.984  27.001  37.042  1.00  0.00     0.054 A 
BRANCH  77  78
ATOM     78  S   UNL A   1      47.299  26.039  37.841  1.00  0.00     0.124 S 
ATOM     79  O   UNL A   1      47.870  27.019  38.761  1.00  0.00    -0.237 OA
ATOM     80  O   UNL A   1      46.561  24.945  38.469  1.00  0.00    -0.237 OA
ATOM     81  O   UNL A   1      48.164  25.647  36.731  1.00  0.00    -0.744 OA
ENDBRANCH  77  78
ENDBRANCH  58  72
BRANCH  59  82
ATOM     82  C   UNL A   1      36.621  33.263  30.994  1.00  0.00    -0.014 A 
ATOM     83  C   UNL A   1      35.326  33.251  31.539  1.00  0.00     0.010 A 
ATOM     84  C   UNL A   1      36.851  33.953  29.790  1.00  0.00     0.010 A 
ATOM     85  C   UNL A   1      34.275  33.899  30.884  1.00  0.00     0.020 A 
ATOM     86  C   UNL A   1      35.807  34.624  29.144  1.00  0.00     0.020 A 
ATOM     87  C   UNL A   1      34.522  34.583  29.690  1.00  0.00     0.054 A 
BRANCH  87  88
ATOM     88  S   UNL A   1      33.156  35.465  28.885  1.00  0.00     0.124 S 
ATOM     89  O   UNL A   1      32.440  36.021  30.028  1.00  0.00    -0.237 OA
ATOM     90  O   UNL A   1      33.855  36.433  28.043  1.00  0.00    -0.237 OA
ATOM     91  O   UNL A   1      32.453  34.411  28.156  1.00  0.00    -0.744 OA
ENDBRANCH  87  88
ENDBRANCH  59  82
BRANCH  71  92
ATOM     92  C   UNL A   1      39.794  34.220  37.128  1.00  0.00    -0.014 A 
ATOM     93  C   UNL A   1      38.864  34.032  38.166  1.00  0.00     0.010 A 
ATOM     94  C   UNL A   1      40.611  35.364  37.135  1.00  0.00     0.010 A 
ATOM     95  C   UNL A   1      38.737  34.988  39.178  1.00  0.00     0.020 A 
ATOM     96  C   UNL A   1      40.504  36.309  38.158  1.00  0.00     0.020 A 
ATOM     97  C   UNL A   1      39.556  36.120  39.166  1.00  0.00     0.054 A 
BRANCH  97  98
ATOM     98  S   UNL A   1      39.402  37.327  40.512  1.00  0.00     0.124 S 
ATOM     99  O   UNL A   1      38.550  38.347  39.910  1.00  0.00    -0.237 OA
ATOM    100  O   UNL A   1      38.783  36.542  41.579  1.00  0.00    -0.237 OA
ATOM    101  O   UNL A   1      40.780  37.736  40.769  1.00  0.00    -0.744 OA
ENDBRANCH  97  98
ENDBRANCH  71  92
ENDBRANCH  45  46
ENDBRANCH  37  40
ENDBRANCH  35  36
ENDBRANCH  34  35
ENDBRANCH   1  34
TORSDOF 19
ENDMDL
MODEL 2
REMARK VINA RESULT:     -12.6      5.937      8.583
REMARK SMILES Cc1nc(-c2ccccc2)sc1C(=O)N[C@@H](CC1=c2ccccc2=NC1)C(=O)NCCCCNC(=O)c1ccc(-c2c3nc(c(-c4ccc(S(=O)(=O)[O-])cc4)c4ccc([nH]4)c(-c4ccc(S(=O)(=O)[O-])cc4)c4nc(c(-c5ccc(S(=O)(=O)[O-])cc5)c5ccc2[nH]5)C=C4)C=C3)cc1
REMARK SMILES IDX 31 1 30 2 29 3 27 4 28 5 16 7 15 8 13 9 14 10 12 12 1 13
REMARK SMILES IDX 2 14 3 15 4 16 11 17 5 18 6 19 10 20 7 21 9 22 8 23 17 24
REMARK SMILES IDX 18 25 19 26 26 27 20 28 24 29 25 30 21 31 23 32 22 33 32 34
REMARK SMILES IDX 33 35 34 36 35 37 36 39 37 40 38 41 96 42 39 43 95 44 40 45
REMARK SMILES IDX 41 46 42 47 89 48 43 49 94 50 88 51 90 52 44 53 93 54 87 55
REMARK SMILES IDX 86 56 45 58 75 59 56 60 74 61 57 62 60 63 73 64 91 65 58 66
REMARK SMILES IDX 59 67 72 69 92 70 61 71 46 72 47 73 55 74 48 75 54 76 49 77
REMARK SMILES IDX 50 78 51 79 52 80 53 81 76 82 77 83 85 84 78 85 84 86 79 87
REMARK SMILES IDX 80 88 81 89 82 90 83 91 62 92 63 93 71 94 64 95 70 96 65 97
REMARK SMILES IDX 66 98 67 99 68 100 69 101
REMARK H PARENT 29 6 15 11 34 38 90 57 60 68
REMARK Flexibility Score: inf
ROOT
ATOM      1  C   UNL A   1      37.674  22.301  24.662  1.00  0.00     0.023 C 
ENDROOT
BRANCH   1   2
ATOM      2  C   UNL A   1      36.626  23.147  25.365  1.00  0.00     0.116 C 
BRANCH   2   3
ATOM      3  N   UNL A   1      36.031  22.540  26.531  1.00  0.00    -0.354 N 
ATOM      4  C   UNL A   1      34.715  22.421  26.858  1.00  0.00     0.242 C 
ATOM      5  O   UNL A   1      34.409  21.480  27.600  1.00  0.00    -0.273 OA
ATOM      6  H   UNL A   1      36.665  22.157  27.179  1.00  0.00     0.163 HD
BRANCH   4   7
ATOM      7  C   UNL A   1      33.600  23.332  26.295  1.00  0.00     0.175 C 
BRANCH   7   8
ATOM      8  N   UNL A   1      32.288  23.172  26.899  1.00  0.00    -0.339 N 
ATOM      9  C   UNL A   1      31.030  23.612  26.591  1.00  0.00     0.263 C 
ATOM     10  O   UNL A   1      30.217  23.321  27.482  1.00  0.00    -0.268 OA
ATOM     11  H   UNL A   1      32.309  22.619  27.713  1.00  0.00     0.164 HD
BRANCH   9  12
ATOM     12  C   UNL A   1      30.628  24.319  25.376  1.00  0.00     0.115 A 
ATOM     13  C   UNL A   1      30.995  22.987  23.118  1.00  0.00     0.068 C 
ATOM     14  C   UNL A   1      30.572  24.107  23.997  1.00  0.00     0.062 A 
ATOM     15  N   UNL A   1      30.024  25.150  23.264  1.00  0.00    -0.241 NA
ATOM     16  C   UNL A   1      29.738  26.177  24.020  1.00  0.00     0.124 A 
ATOM     17  S   UNL A   1      30.056  25.960  25.671  1.00  0.00    -0.108 S 
BRANCH  16  18
ATOM     18  C   UNL A   1      29.173  27.410  23.488  1.00  0.00     0.010 A 
ATOM     19  C   UNL A   1      30.036  28.465  23.163  1.00  0.00     0.011 A 
ATOM     20  C   UNL A   1      27.788  27.614  23.432  1.00  0.00     0.011 A 
ATOM     21  C   UNL A   1      29.527  29.710  22.797  1.00  0.00     0.001 A 
ATOM     22  C   UNL A   1      27.280  28.864  23.074  1.00  0.00     0.001 A 
ATOM     23  C   UNL A   1      28.148  29.911  22.763  1.00  0.00     0.000 A 
ENDBRANCH  16  18
ENDBRANCH   9  12
ENDBRANCH   7   8
BRANCH   7  24
ATOM     24  C   UNL A   1      33.988  24.822  26.105  1.00  0.00     0.068 C 
BRANCH  24  25
ATOM     25  C   UNL A   1      33.791  25.442  24.756  1.00  0.00    -0.037 C 
ATOM     26  C   UNL A   1      33.504  26.703  24.432  1.00  0.00     0.001 A 
ATOM     27  C   UNL A   1      33.969  24.613  23.516  1.00  0.00     0.174 C 
ATOM     28  C   UNL A   1      33.239  27.907  25.153  1.00  0.00     0.010 A 
ATOM     29  C   UNL A   1      33.724  26.714  22.974  1.00  0.00     0.065 A 
ATOM     30  N   UNL A   1      33.974  25.580  22.395  1.00  0.00    -0.280 NA
ATOM     31  C   UNL A   1      33.287  29.077  24.497  1.00  0.00     0.001 A 
ATOM     32  C   UNL A   1      33.754  28.040  22.319  1.00  0.00     0.028 A 
ATOM     33  C   UNL A   1      33.577  29.138  23.073  1.00  0.00     0.002 A 
ENDBRANCH  24  25
ENDBRANCH   7  24
ENDBRANCH   4   7
ENDBRANCH   2   3
ENDBRANCH   1   2
BRANCH   1  34
ATOM     34  C   UNL A   1      38.100  21.042  25.409  1.00  0.00     0.023 C 
BRANCH  34  35
ATOM     35  C   UNL A   1      39.393  21.148  26.212  1.00  0.00     0.116 C 
BRANCH  35  36
ATOM     36  N   UNL A   1      40.237  19.965  26.125  1.00  0.00    -0.352 N 
ATOM     37  C   UNL A   1      41.612  19.881  26.132  1.00  0.00     0.251 C 
ATOM     38  H   UNL A   1      39.760  19.107  26.052  1.00  0.00     0.163 HD
ATOM     39  O   UNL A   1      42.176  18.814  25.924  1.00  0.00    -0.269 OA
BRANCH  37  40
ATOM     40  C   UNL A   1      42.394  21.114  26.355  1.00  0.00     0.039 A 
ATOM     41  C   UNL A   1      42.699  21.934  25.269  1.00  0.00     0.014 A 
ATOM     42  C   UNL A   1      42.737  21.498  27.655  1.00  0.00     0.014 A 
ATOM     43  C   UNL A   1      43.263  23.191  25.496  1.00  0.00     0.010 A 
ATOM     44  C   UNL A   1      43.217  22.782  27.884  1.00  0.00     0.010 A 
ATOM     45  C   UNL A   1      43.477  23.647  26.809  1.00  0.00    -0.014 A 
BRANCH  45  46
ATOM     46  C   UNL A   1      43.953  25.026  27.083  1.00  0.00     0.031 A 
ATOM     47  C   UNL A   1      45.401  25.378  26.873  1.00  0.00     0.074 A 
ATOM     48  C   UNL A   1      43.104  25.939  27.600  1.00  0.00     0.049 A 
ATOM     49  N   UNL A   1      46.022  26.501  27.126  1.00  0.00    -0.248 NA
ATOM     50  C   UNL A   1      46.272  24.318  26.337  1.00  0.00     0.031 C 
ATOM     51  C   UNL A   1      41.691  25.707  27.909  1.00  0.00     0.029 A 
ATOM     52  N   UNL A   1      43.312  27.246  27.966  1.00  0.00    -0.354 N 
ATOM     53  C   UNL A   1      47.356  26.275  26.807  1.00  0.00     0.074 A 
ATOM     54  C   UNL A   1      47.463  24.895  26.389  1.00  0.00     0.031 C 
ATOM     55  C   UNL A   1      41.153  26.842  28.387  1.00  0.00     0.029 A 
ATOM     56  C   UNL A   1      42.186  27.869  28.454  1.00  0.00     0.049 A 
ATOM     57  H   UNL A   1      44.184  27.695  27.886  1.00  0.00     0.167 HD
ATOM     58  C   UNL A   1      48.395  27.143  26.835  1.00  0.00     0.031 A 
ATOM     59  C   UNL A   1      42.006  29.125  28.906  1.00  0.00     0.031 A 
ATOM     60  C   UNL A   1      48.282  28.522  27.225  1.00  0.00     0.049 A 
ATOM     61  C   UNL A   1      43.168  30.080  28.900  1.00  0.00     0.074 A 
ATOM     62  C   UNL A   1      49.261  29.500  27.225  1.00  0.00     0.029 A 
ATOM     63  N   UNL A   1      47.117  29.123  27.677  1.00  0.00    -0.354 N 
ATOM     64  N   UNL A   1      44.408  29.865  28.531  1.00  0.00    -0.248 NA
ATOM     65  C   UNL A   1      42.903  31.450  29.361  1.00  0.00     0.031 C 
ATOM     66  C   UNL A   1      48.697  30.684  27.713  1.00  0.00     0.029 A 
ATOM     67  C   UNL A   1      47.355  30.455  27.971  1.00  0.00     0.049 A 
ATOM     68  H   UNL A   1      46.249  28.669  27.774  1.00  0.00     0.167 HD
ATOM     69  C   UNL A   1      45.066  31.080  28.689  1.00  0.00     0.074 A 
ATOM     70  C   UNL A   1      44.083  32.027  29.175  1.00  0.00     0.031 C 
ATOM     71  C   UNL A   1      46.365  31.384  28.452  1.00  0.00     0.031 A 
BRANCH  58  72
ATOM     72  C   UNL A   1      49.745  26.618  26.426  1.00  0.00    -0.014 A 
ATOM     73  C   UNL A   1      50.195  26.737  25.099  1.00  0.00     0.010 A 
ATOM     74  C   UNL A   1      50.582  26.016  27.383  1.00  0.00     0.010 A 
ATOM     75  C   UNL A   1      51.439  26.221  24.724  1.00  0.00     0.020 A 
ATOM     76  C   UNL A   1      51.839  25.524  27.018  1.00  0.00     0.020 A 
ATOM     77  C   UNL A   1      52.250  25.613  25.686  1.00  0.00     0.054 A 
BRANCH  77  78
ATOM     78  S   UNL A   1      53.866  24.964  25.176  1.00  0.00     0.124 S 
ATOM     79  O   UNL A   1      54.663  25.164  26.384  1.00  0.00    -0.237 OA
ATOM     80  O   UNL A   1      53.565  23.574  24.845  1.00  0.00    -0.237 OA
ATOM     81  O   UNL A   1      54.233  25.807  24.040  1.00  0.00    -0.744 OA
ENDBRANCH  77  78
ENDBRANCH  58  72
BRANCH  59  82
ATOM     82  C   UNL A   1      40.661  29.564  29.369  1.00  0.00    -0.014 A 
ATOM     83  C   UNL A   1      40.416  29.773  30.737  1.00  0.00     0.010 A 
ATOM     84  C   UNL A   1      39.625  29.787  28.446  1.00  0.00     0.010 A 
ATOM     85  C   UNL A   1      39.152  30.179  31.177  1.00  0.00     0.020 A 
ATOM     86  C   UNL A   1      38.367  30.218  28.879  1.00  0.00     0.020 A 
ATOM     87  C   UNL A   1      38.135  30.399  30.244  1.00  0.00     0.054 A 
BRANCH  87  88
ATOM     88  S   UNL A   1      36.519  30.980  30.830  1.00  0.00     0.124 S 
ATOM     89  O   UNL A   1      36.897  32.014  31.787  1.00  0.00    -0.237 OA
ATOM     90  O   UNL A   1      35.887  31.454  29.601  1.00  0.00    -0.237 OA
ATOM     91  O   UNL A   1      35.915  29.780  31.407  1.00  0.00    -0.744 OA
ENDBRANCH  87  88
ENDBRANCH  59  82
BRANCH  71  92
ATOM     92  C   UNL A   1      46.795  32.807  28.679  1.00  0.00    -0.014 A 
ATOM     93  C   UNL A   1      46.715  33.763  27.652  1.00  0.00     0.010 A 
ATOM     94  C   UNL A   1      47.237  33.202  29.955  1.00  0.00     0.010 A 
ATOM     95  C   UNL A   1      47.097  35.086  27.891  1.00  0.00     0.020 A 
ATOM     96  C   UNL A   1      47.597  34.528  30.203  1.00  0.00     0.020 A 
ATOM     97  C   UNL A   1      47.537  35.460  29.164  1.00  0.00     0.054 A 
BRANCH  97  98
ATOM     98  S   UNL A   1      47.989  37.191  29.462  1.00  0.00     0.124 S 
ATOM     99  O   UNL A   1      49.190  37.056  30.279  1.00  0.00    -0.237 OA
ATOM    100  O   UNL A   1      48.203  37.706  28.110  1.00  0.00    -0.237 OA
ATOM    101  O   UNL A   1      46.823  37.740  30.151  1.00  0.00    -0.744 OA
ENDBRANCH  97  98
ENDBRANCH  71  92
ENDBRANCH  45  46
ENDBRANCH  37  40
ENDBRANCH  35  36
ENDBRANCH  34  35
ENDBRANCH   1  34
TORSDOF 19
ENDMDL
MODEL 3
REMARK VINA RESULT:     -12.6      1.449      5.194
REMARK SMILES Cc1nc(-c2ccccc2)sc1C(=O)N[C@@H](CC1=c2ccccc2=NC1)C(=O)NCCCCNC(=O)c1ccc(-c2c3nc(c(-c4ccc(S(=O)(=O)[O-])cc4)c4ccc([nH]4)c(-c4ccc(S(=O)(=O)[O-])cc4)c4nc(c(-c5ccc(S(=O)(=O)[O-])cc5)c5ccc2[nH]5)C=C4)C=C3)cc1
REMARK SMILES IDX 31 1 30 2 29 3 27 4 28 5 16 7 15 8 13 9 14 10 12 12 1 13
REMARK SMILES IDX 2 14 3 15 4 16 11 17 5 18 6 19 10 20 7 21 9 22 8 23 17 24
REMARK SMILES IDX 18 25 19 26 26 27 20 28 24 29 25 30 21 31 23 32 22 33 32 34
REMARK SMILES IDX 33 35 34 36 35 37 36 39 37 40 38 41 96 42 39 43 95 44 40 45
REMARK SMILES IDX 41 46 42 47 89 48 43 49 94 50 88 51 90 52 44 53 93 54 87 55
REMARK SMILES IDX 86 56 45 58 75 59 56 60 74 61 57 62 60 63 73 64 91 65 58 66
REMARK SMILES IDX 59 67 72 69 92 70 61 71 46 72 47 73 55 74 48 75 54 76 49 77
REMARK SMILES IDX 50 78 51 79 52 80 53 81 76 82 77 83 85 84 78 85 84 86 79 87
REMARK SMILES IDX 80 88 81 89 82 90 83 91 62 92 63 93 71 94 64 95 70 96 65 97
REMARK SMILES IDX 66 98 67 99 68 100 69 101
REMARK H PARENT 29 6 15 11 34 38 90 57 60 68
REMARK Flexibility Score: inf
ROOT
ATOM      1  C   UNL A   1      36.952  22.903  24.533  1.00  0.00     0.023 C 
ENDROOT
BRANCH   1   2
ATOM      2  C   UNL A   1      35.517  23.305  24.240  1.00  0.00     0.116 C 
BRANCH   2   3
ATOM      3  N   UNL A   1      35.009  22.867  22.963  1.00  0.00    -0.354 N 
ATOM      4  C   UNL A   1      33.850  23.212  22.337  1.00  0.00     0.242 C 
ATOM      5  O   UNL A   1      33.837  23.129  21.104  1.00  0.00    -0.273 OA
ATOM      6  H   UNL A   1      35.579  22.231  22.475  1.00  0.00     0.163 HD
BRANCH   4   7
ATOM      7  C   UNL A   1      32.606  23.768  23.069  1.00  0.00     0.175 C 
BRANCH   7   8
ATOM      8  N   UNL A   1      31.913  24.855  22.400  1.00  0.00    -0.339 N 
ATOM      9  C   UNL A   1      31.374  26.045  22.808  1.00  0.00     0.263 C 
ATOM     10  O   UNL A   1      30.761  26.604  21.886  1.00  0.00    -0.268 OA
ATOM     11  H   UNL A   1      31.809  24.702  21.433  1.00  0.00     0.164 HD
BRANCH   9  12
ATOM     12  C   UNL A   1      31.491  26.643  24.137  1.00  0.00     0.115 A 
ATOM     13  C   UNL A   1      29.873  25.640  25.976  1.00  0.00     0.068 C 
ATOM     14  C   UNL A   1      30.944  26.502  25.414  1.00  0.00     0.062 A 
ATOM     15  N   UNL A   1      31.482  27.341  26.380  1.00  0.00    -0.241 NA
ATOM     16  C   UNL A   1      32.356  28.168  25.871  1.00  0.00     0.124 A 
ATOM     17  S   UNL A   1      32.639  27.979  24.210  1.00  0.00    -0.108 S 
BRANCH  16  18
ATOM     18  C   UNL A   1      33.049  29.168  26.673  1.00  0.00     0.010 A 
ATOM     19  C   UNL A   1      32.450  30.422  26.855  1.00  0.00     0.011 A 
ATOM     20  C   UNL A   1      34.352  28.956  27.140  1.00  0.00     0.011 A 
ATOM     21  C   UNL A   1      33.145  31.455  27.484  1.00  0.00     0.001 A 
ATOM     22  C   UNL A   1      35.051  29.993  27.761  1.00  0.00     0.001 A 
ATOM     23  C   UNL A   1      34.449  31.241  27.928  1.00  0.00     0.000 A 
ENDBRANCH  16  18
ENDBRANCH   9  12
ENDBRANCH   7   8
BRANCH   7  24
ATOM     24  C   UNL A   1      31.632  22.701  23.634  1.00  0.00     0.068 C 
BRANCH  24  25
ATOM     25  C   UNL A   1      32.209  21.519  24.351  1.00  0.00    -0.037 C 
ATOM     26  C   UNL A   1      32.362  20.262  23.934  1.00  0.00     0.001 A 
ATOM     27  C   UNL A   1      32.772  21.681  25.735  1.00  0.00     0.174 C 
ATOM     28  C   UNL A   1      32.038  19.534  22.749  1.00  0.00     0.010 A 
ATOM     29  C   UNL A   1      33.229  19.684  24.978  1.00  0.00     0.065 A 
ATOM     30  N   UNL A   1      33.487  20.416  26.017  1.00  0.00    -0.280 NA
ATOM     31  C   UNL A   1      32.615  18.338  22.547  1.00  0.00     0.001 A 
ATOM     32  C   UNL A   1      33.820  18.360  24.688  1.00  0.00     0.028 A 
ATOM     33  C   UNL A   1      33.536  17.767  23.516  1.00  0.00     0.002 A 
ENDBRANCH  24  25
ENDBRANCH   7  24
ENDBRANCH   4   7
ENDBRANCH   2   3
ENDBRANCH   1   2
BRANCH   1  34
ATOM     34  C   UNL A   1      37.396  23.087  25.981  1.00  0.00     0.023 C 
BRANCH  34  35
ATOM     35  C   UNL A   1      38.280  24.298  26.257  1.00  0.00     0.116 C 
BRANCH  35  36
ATOM     36  N   UNL A   1      39.706  24.018  26.165  1.00  0.00    -0.352 N 
ATOM     37  C   UNL A   1      40.761  24.709  26.719  1.00  0.00     0.251 C 
ATOM     38  H   UNL A   1      39.951  23.226  25.634  1.00  0.00     0.163 HD
ATOM     39  O   UNL A   1      41.917  24.415  26.444  1.00  0.00    -0.269 OA
BRANCH  37  40
ATOM     40  C   UNL A   1      40.468  25.840  27.623  1.00  0.00     0.039 A 
ATOM     41  C   UNL A   1      39.510  25.682  28.625  1.00  0.00     0.014 A 
ATOM     42  C   UNL A   1      41.214  27.019  27.531  1.00  0.00     0.014 A 
ATOM     43  C   UNL A   1      39.368  26.672  29.599  1.00  0.00     0.010 A 
ATOM     44  C   UNL A   1      41.131  27.961  28.550  1.00  0.00     0.010 A 
ATOM     45  C   UNL A   1      40.215  27.795  29.600  1.00  0.00    -0.014 A 
BRANCH  45  46
ATOM     46  C   UNL A   1      40.173  28.796  30.695  1.00  0.00     0.031 A 
ATOM     47  C   UNL A   1      41.080  28.647  31.887  1.00  0.00     0.074 A 
ATOM     48  C   UNL A   1      39.263  29.792  30.659  1.00  0.00     0.049 A 
ATOM     49  N   UNL A   1      41.138  29.371  32.975  1.00  0.00    -0.248 NA
ATOM     50  C   UNL A   1      42.022  27.516  31.868  1.00  0.00     0.031 C 
ATOM     51  C   UNL A   1      38.285  30.012  29.590  1.00  0.00     0.029 A 
ATOM     52  N   UNL A   1      39.007  30.802  31.553  1.00  0.00    -0.354 N 
ATOM     53  C   UNL A   1      42.101  28.770  33.777  1.00  0.00     0.074 A 
ATOM     54  C   UNL A   1      42.564  27.595  33.074  1.00  0.00     0.031 C 
ATOM     55  C   UNL A   1      37.559  31.106  29.877  1.00  0.00     0.029 A 
ATOM     56  C   UNL A   1      37.991  31.643  31.162  1.00  0.00     0.049 A 
ATOM     57  H   UNL A   1      39.505  30.914  32.396  1.00  0.00     0.167 HD
ATOM     58  C   UNL A   1      42.575  29.172  34.980  1.00  0.00     0.031 A 
ATOM     59  C   UNL A   1      37.466  32.725  31.769  1.00  0.00     0.031 A 
ATOM     60  C   UNL A   1      42.133  30.356  35.666  1.00  0.00     0.049 A 
ATOM     61  C   UNL A   1      38.029  33.169  33.092  1.00  0.00     0.074 A 
ATOM     62  C   UNL A   1      42.597  30.884  36.858  1.00  0.00     0.029 A 
ATOM     63  N   UNL A   1      41.128  31.200  35.218  1.00  0.00    -0.354 N 
ATOM     64  N   UNL A   1      38.986  32.624  33.803  1.00  0.00    -0.248 NA
ATOM     65  C   UNL A   1      37.448  34.381  33.686  1.00  0.00     0.031 C 
ATOM     66  C   UNL A   1      41.847  32.029  37.149  1.00  0.00     0.029 A 
ATOM     67  C   UNL A   1      40.949  32.239  36.115  1.00  0.00     0.049 A 
ATOM     68  H   UNL A   1      40.618  31.078  34.385  1.00  0.00     0.167 HD
ATOM     69  C   UNL A   1      39.142  33.441  34.917  1.00  0.00     0.074 A 
ATOM     70  C   UNL A   1      38.189  34.524  34.778  1.00  0.00     0.031 C 
ATOM     71  C   UNL A   1      39.997  33.309  35.960  1.00  0.00     0.031 A 
BRANCH  58  72
ATOM     72  C   UNL A   1      43.634  28.319  35.625  1.00  0.00    -0.014 A 
ATOM     73  C   UNL A   1      44.998  28.539  35.364  1.00  0.00     0.010 A 
ATOM     74  C   UNL A   1      43.263  27.297  36.517  1.00  0.00     0.010 A 
ATOM     75  C   UNL A   1      45.971  27.723  35.947  1.00  0.00     0.020 A 
ATOM     76  C   UNL A   1      44.235  26.496  37.124  1.00  0.00     0.020 A 
ATOM     77  C   UNL A   1      45.582  26.703  36.819  1.00  0.00     0.054 A 
BRANCH  77  78
ATOM     78  S   UNL A   1      46.867  25.667  37.573  1.00  0.00     0.124 S 
ATOM     79  O   UNL A   1      46.445  24.327  37.171  1.00  0.00    -0.237 OA
ATOM     80  O   UNL A   1      48.088  26.157  36.941  1.00  0.00    -0.237 OA
ATOM     81  O   UNL A   1      46.749  25.955  39.001  1.00  0.00    -0.744 OA
ENDBRANCH  77  78
ENDBRANCH  58  72
BRANCH  59  82
ATOM     82  C   UNL A   1      36.366  33.485  31.116  1.00  0.00    -0.014 A 
ATOM     83  C   UNL A   1      36.488  33.903  29.779  1.00  0.00     0.010 A 
ATOM     84  C   UNL A   1      35.187  33.784  31.821  1.00  0.00     0.010 A 
ATOM     85  C   UNL A   1      35.460  34.623  29.164  1.00  0.00     0.020 A 
ATOM     86  C   UNL A   1      34.145  34.483  31.202  1.00  0.00     0.020 A 
ATOM     87  C   UNL A   1      34.294  34.908  29.880  1.00  0.00     0.054 A 
BRANCH  87  88
ATOM     88  S   UNL A   1      32.948  35.795  29.047  1.00  0.00     0.124 S 
ATOM     89  O   UNL A   1      33.667  36.865  28.364  1.00  0.00    -0.237 OA
ATOM     90  O   UNL A   1      32.375  34.765  28.183  1.00  0.00    -0.237 OA
ATOM     91  O   UNL A   1      32.087  36.221  30.148  1.00  0.00    -0.744 OA
ENDBRANCH  87  88
ENDBRANCH  59  82
BRANCH  71  92
ATOM     92  C   UNL A   1      39.970  34.378  37.017  1.00  0.00    -0.014 A 
ATOM     93  C   UNL A   1      39.188  34.235  38.177  1.00  0.00     0.010 A 
ATOM     94  C   UNL A   1      40.778  35.520  36.869  1.00  0.00     0.010 A 
ATOM     95  C   UNL A   1      39.195  35.230  39.158  1.00  0.00     0.020 A 
ATOM     96  C   UNL A   1      40.807  36.504  37.859  1.00  0.00     0.020 A 
ATOM     97  C   UNL A   1      40.003  36.359  38.992  1.00  0.00     0.054 A 
BRANCH  97  98
ATOM     98  S   UNL A   1      40.027  37.617  40.298  1.00  0.00     0.124 S 
ATOM     99  O   UNL A   1      38.652  38.104  40.276  1.00  0.00    -0.237 OA
ATOM    100  O   UNL A   1      40.402  36.847  41.482  1.00  0.00    -0.237 OA
ATOM    101  O   UNL A   1      41.035  38.571  39.840  1.00  0.00    -0.744 OA
ENDBRANCH  97  98
ENDBRANCH  71  92
ENDBRANCH  45  46
ENDBRANCH  37  40
ENDBRANCH  35  36
ENDBRANCH  34  35
ENDBRANCH   1  34
TORSDOF 19
ENDMDL
