MODEL 1
REMARK VINA RESULT:     -10.4      0.000      0.000
REMARK SMILES CCS(=O)(=O)N[C@H]1C=C[C@@H](C(=O)NCCCCNC(=O)c2ccc(-c3c4nc(c(-c5ccc(S(=O)(=O)[O-])cc5)c5ccc([nH]5)c(-c5ccc(S(=O)(=O)[O-])cc5)c5nc(c(-c6ccc(S(=O)(=O)[O-])cc6)c6ccc3[nH]6)C=C5)C=C4)cc2)C1
REMARK SMILES IDX 15 1 14 2 13 3 11 4 12 5 10 7 7 8 8 9 81 10 9 11 6 12 3 14
REMARK SMILES IDX 4 15 5 16 2 17 1 18 16 19 17 20 18 21 19 22 20 24 21 25
REMARK SMILES IDX 22 26 80 27 23 28 79 29 24 30 25 31 26 32 73 33 27 34 78 35
REMARK SMILES IDX 72 36 74 37 28 38 77 39 71 40 70 41 29 43 59 44 40 45 58 46
REMARK SMILES IDX 41 47 44 48 57 49 75 50 42 51 43 52 56 54 76 55 45 56 30 57
REMARK SMILES IDX 31 58 39 59 32 60 38 61 33 62 34 63 35 64 36 65 37 66 60 67
REMARK SMILES IDX 61 68 69 69 62 70 68 71 63 72 64 73 65 74 66 75 67 76 46 77
REMARK SMILES IDX 47 78 55 79 48 80 54 81 49 82 50 83 51 84 52 85 53 86
REMARK H PARENT 13 6 6 13 18 23 74 42 44 53
REMARK Flexibility Score: inf
ROOT
ATOM      1  C   UNL A   1      36.978  21.924  25.436  1.00  0.00     0.023 C 
ENDROOT
BRANCH   1   2
ATOM      2  C   UNL A   1      35.665  21.465  26.064  1.00  0.00     0.116 C 
BRANCH   2   3
ATOM      3  N   UNL A   1      35.190  20.233  25.479  1.00  0.00    -0.356 N 
ATOM      4  C   UNL A   1      34.116  20.004  24.680  1.00  0.00     0.226 C 
ATOM      5  O   UNL A   1      33.965  18.851  24.260  1.00  0.00    -0.274 OA
ATOM      6  H   UNL A   1      35.727  19.436  25.693  1.00  0.00     0.163 HD
BRANCH   4   7
ATOM      7  C   UNL A   1      33.144  21.105  24.232  1.00  0.00     0.103 C 
ATOM      8  C   UNL A   1      32.715  22.930  22.689  1.00  0.00     0.093 C 
ATOM      9  C   UNL A   1      31.987  21.702  22.279  1.00  0.00    -0.011 C 
ATOM     10  C   UNL A   1      33.715  22.452  23.748  1.00  0.00     0.042 C 
ATOM     11  C   UNL A   1      32.230  20.685  23.115  1.00  0.00    -0.016 C 
BRANCH   8  12
ATOM     12  N   UNL A   1      33.175  23.695  21.535  1.00  0.00    -0.208 NA
ATOM     13  H   UNL A   1      34.187  23.571  21.543  1.00  0.00     0.141 HD
BRANCH  12  14
ATOM     14  S   UNL A   1      32.969  25.293  21.159  1.00  0.00     0.211 S 
ATOM     15  O   UNL A   1      32.938  25.462  19.734  1.00  0.00    -0.212 OA
ATOM     16  O   UNL A   1      34.009  25.944  21.934  1.00  0.00    -0.212 OA
BRANCH  14  17
ATOM     17  C   UNL A   1      31.417  25.828  21.883  1.00  0.00     0.150 C 
ATOM     18  C   UNL A   1      31.428  26.169  23.354  1.00  0.00     0.022 C 
ENDBRANCH  14  17
ENDBRANCH  12  14
ENDBRANCH   8  12
ENDBRANCH   4   7
ENDBRANCH   2   3
ENDBRANCH   1   2
BRANCH   1  19
ATOM     19  C   UNL A   1      38.020  20.830  25.243  1.00  0.00     0.023 C 
BRANCH  19  20
ATOM     20  C   UNL A   1      39.303  21.038  26.039  1.00  0.00     0.116 C 
BRANCH  20  21
ATOM     21  N   UNL A   1      40.237  19.921  25.946  1.00  0.00    -0.352 N 
ATOM     22  C   UNL A   1      41.608  19.918  26.046  1.00  0.00     0.251 C 
ATOM     23  H   UNL A   1      39.826  19.041  25.789  1.00  0.00     0.163 HD
ATOM     24  O   UNL A   1      42.236  18.885  25.834  1.00  0.00    -0.269 OA
BRANCH  22  25
ATOM     25  C   UNL A   1      42.319  21.171  26.374  1.00  0.00     0.039 A 
ATOM     26  C   UNL A   1      42.656  22.046  25.339  1.00  0.00     0.014 A 
ATOM     27  C   UNL A   1      42.612  21.504  27.699  1.00  0.00     0.014 A 
ATOM     28  C   UNL A   1      43.213  23.289  25.646  1.00  0.00     0.010 A 
ATOM     29  C   UNL A   1      43.068  22.780  28.006  1.00  0.00     0.010 A 
ATOM     30  C   UNL A   1      43.376  23.687  26.984  1.00  0.00    -0.014 A 
BRANCH  30  31
ATOM     31  C   UNL A   1      43.861  25.051  27.319  1.00  0.00     0.031 A 
ATOM     32  C   UNL A   1      45.311  25.412  27.130  1.00  0.00     0.074 A 
ATOM     33  C   UNL A   1      42.997  25.956  27.823  1.00  0.00     0.049 A 
ATOM     34  N   UNL A   1      45.911  26.551  27.364  1.00  0.00    -0.248 NA
ATOM     35  C   UNL A   1      46.209  24.356  26.632  1.00  0.00     0.031 C 
ATOM     36  C   UNL A   1      41.580  25.708  28.111  1.00  0.00     0.029 A 
ATOM     37  N   UNL A   1      43.177  27.269  28.178  1.00  0.00    -0.354 N 
ATOM     38  C   UNL A   1      47.247  26.350  27.037  1.00  0.00     0.074 A 
ATOM     39  C   UNL A   1      47.388  24.962  26.659  1.00  0.00     0.031 C 
ATOM     40  C   UNL A   1      41.014  26.842  28.553  1.00  0.00     0.029 A 
ATOM     41  C   UNL A   1      42.031  27.885  28.625  1.00  0.00     0.049 A 
ATOM     42  H   UNL A   1      44.047  27.728  28.119  1.00  0.00     0.167 HD
ATOM     43  C   UNL A   1      48.260  27.248  27.017  1.00  0.00     0.031 A 
ATOM     44  C   UNL A   1      41.822  29.147  29.049  1.00  0.00     0.031 A 
ATOM     45  C   UNL A   1      48.119  28.630  27.391  1.00  0.00     0.049 A 
ATOM     46  C   UNL A   1      42.975  30.115  29.042  1.00  0.00     0.074 A 
ATOM     47  C   UNL A   1      49.080  29.627  27.377  1.00  0.00     0.029 A 
ATOM     48  N   UNL A   1      46.944  29.214  27.838  1.00  0.00    -0.354 N 
ATOM     49  N   UNL A   1      44.217  29.919  28.663  1.00  0.00    -0.248 NA
ATOM     50  C   UNL A   1      42.695  31.481  29.504  1.00  0.00     0.031 C 
ATOM     51  C   UNL A   1      48.499  30.800  27.867  1.00  0.00     0.029 A 
ATOM     52  C   UNL A   1      47.160  30.552  28.122  1.00  0.00     0.049 A 
ATOM     53  H   UNL A   1      46.083  28.746  27.940  1.00  0.00     0.167 HD
ATOM     54  C   UNL A   1      44.855  31.145  28.813  1.00  0.00     0.074 A 
ATOM     55  C   UNL A   1      43.855  32.081  29.286  1.00  0.00     0.031 C 
ATOM     56  C   UNL A   1      46.152  31.470  28.589  1.00  0.00     0.031 A 
BRANCH  43  57
ATOM     57  C   UNL A   1      49.611  26.772  26.549  1.00  0.00    -0.014 A 
ATOM     58  C   UNL A   1      50.448  26.034  27.406  1.00  0.00     0.010 A 
ATOM     59  C   UNL A   1      50.018  26.993  25.220  1.00  0.00     0.010 A 
ATOM     60  C   UNL A   1      51.672  25.539  26.950  1.00  0.00     0.020 A 
ATOM     61  C   UNL A   1      51.228  26.474  24.752  1.00  0.00     0.020 A 
ATOM     62  C   UNL A   1      52.051  25.756  25.622  1.00  0.00     0.054 A 
BRANCH  62  63
ATOM     63  S   UNL A   1      53.613  25.040  25.043  1.00  0.00     0.124 S 
ATOM     64  O   UNL A   1      53.417  23.620  25.320  1.00  0.00    -0.237 OA
ATOM     65  O   UNL A   1      53.626  25.408  23.629  1.00  0.00    -0.237 OA
ATOM     66  O   UNL A   1      54.624  25.700  25.865  1.00  0.00    -0.744 OA
ENDBRANCH  62  63
ENDBRANCH  43  57
BRANCH  44  67
ATOM     67  C   UNL A   1      40.475  29.574  29.526  1.00  0.00    -0.014 A 
ATOM     68  C   UNL A   1      39.485  29.989  28.619  1.00  0.00     0.010 A 
ATOM     69  C   UNL A   1      40.193  29.611  30.904  1.00  0.00     0.010 A 
ATOM     70  C   UNL A   1      38.261  30.486  29.080  1.00  0.00     0.020 A 
ATOM     71  C   UNL A   1      38.957  30.070  31.369  1.00  0.00     0.020 A 
ATOM     72  C   UNL A   1      38.008  30.528  30.453  1.00  0.00     0.054 A 
BRANCH  72  73
ATOM     73  S   UNL A   1      36.419  31.183  31.033  1.00  0.00     0.124 S 
ATOM     74  O   UNL A   1      35.642  31.226  29.798  1.00  0.00    -0.237 OA
ATOM     75  O   UNL A   1      36.002  30.182  32.010  1.00  0.00    -0.237 OA
ATOM     76  O   UNL A   1      36.772  32.485  31.596  1.00  0.00    -0.744 OA
ENDBRANCH  72  73
ENDBRANCH  44  67
BRANCH  56  77
ATOM     77  C   UNL A   1      46.553  32.905  28.814  1.00  0.00    -0.014 A 
ATOM     78  C   UNL A   1      46.377  33.880  27.815  1.00  0.00     0.010 A 
ATOM     79  C   UNL A   1      47.097  33.286  30.054  1.00  0.00     0.010 A 
ATOM     80  C   UNL A   1      46.789  35.197  28.034  1.00  0.00     0.020 A 
ATOM     81  C   UNL A   1      47.475  34.610  30.289  1.00  0.00     0.020 A 
ATOM     82  C   UNL A   1      47.338  35.553  29.269  1.00  0.00     0.054 A 
BRANCH  82  83
ATOM     83  S   UNL A   1      47.852  37.271  29.531  1.00  0.00     0.124 S 
ATOM     84  O   UNL A   1      46.596  37.994  29.353  1.00  0.00    -0.237 OA
ATOM     85  O   UNL A   1      48.374  37.245  30.895  1.00  0.00    -0.237 OA
ATOM     86  O   UNL A   1      48.853  37.497  28.491  1.00  0.00    -0.744 OA
ENDBRANCH  82  83
ENDBRANCH  56  77
ENDBRANCH  30  31
ENDBRANCH  22  25
ENDBRANCH  20  21
ENDBRANCH  19  20
ENDBRANCH   1  19
TORSDOF 17
ENDMDL
MODEL 2
REMARK VINA RESULT:     -10.4      3.993      5.584
REMARK SMILES CCS(=O)(=O)N[C@H]1C=C[C@@H](C(=O)NCCCCNC(=O)c2ccc(-c3c4nc(c(-c5ccc(S(=O)(=O)[O-])cc5)c5ccc([nH]5)c(-c5ccc(S(=O)(=O)[O-])cc5)c5nc(c(-c6ccc(S(=O)(=O)[O-])cc6)c6ccc3[nH]6)C=C5)C=C4)cc2)C1
REMARK SMILES IDX 15 1 14 2 13 3 11 4 12 5 10 7 7 8 8 9 81 10 9 11 6 12 3 14
REMARK SMILES IDX 4 15 5 16 2 17 1 18 16 19 17 20 18 21 19 22 20 24 21 25
REMARK SMILES IDX 22 26 80 27 23 28 79 29 24 30 25 31 26 32 73 33 27 34 78 35
REMARK SMILES IDX 72 36 74 37 28 38 77 39 71 40 70 41 29 43 59 44 40 45 58 46
REMARK SMILES IDX 41 47 44 48 57 49 75 50 42 51 43 52 56 54 76 55 45 56 30 57
REMARK SMILES IDX 31 58 39 59 32 60 38 61 33 62 34 63 35 64 36 65 37 66 60 67
REMARK SMILES IDX 61 68 69 69 62 70 68 71 63 72 64 73 65 74 66 75 67 76 46 77
REMARK SMILES IDX 47 78 55 79 48 80 54 81 49 82 50 83 51 84 52 85 53 86
REMARK H PARENT 13 6 6 13 18 23 74 42 44 53
REMARK Flexibility Score: inf
ROOT
ATOM      1  C   UNL A   1      34.663  23.686  23.770  1.00  0.00     0.023 C 
ENDROOT
BRANCH   1   2
ATOM      2  C   UNL A   1      33.221  23.809  23.285  1.00  0.00     0.116 C 
BRANCH   2   3
ATOM      3  N   UNL A   1      33.152  24.147  21.883  1.00  0.00    -0.356 N 
ATOM      4  C   UNL A   1      32.847  25.327  21.284  1.00  0.00     0.226 C 
ATOM      5  O   UNL A   1      32.920  25.364  20.051  1.00  0.00    -0.274 OA
ATOM      6  H   UNL A   1      33.355  23.407  21.266  1.00  0.00     0.163 HD
BRANCH   4   7
ATOM      7  C   UNL A   1      32.491  26.603  22.060  1.00  0.00     0.103 C 
ATOM      8  C   UNL A   1      32.198  27.640  24.236  1.00  0.00     0.093 C 
ATOM      9  C   UNL A   1      33.510  28.005  23.643  1.00  0.00    -0.011 C 
ATOM     10  C   UNL A   1      31.693  26.479  23.372  1.00  0.00     0.042 C 
ATOM     11  C   UNL A   1      33.688  27.425  22.450  1.00  0.00    -0.016 C 
BRANCH   8  12
ATOM     12  N   UNL A   1      32.284  27.496  25.685  1.00  0.00    -0.208 NA
ATOM     13  H   UNL A   1      31.543  26.832  25.913  1.00  0.00     0.141 HD
BRANCH  12  14
ATOM     14  S   UNL A   1      32.183  28.636  26.882  1.00  0.00     0.211 S 
ATOM     15  O   UNL A   1      31.484  28.098  28.014  1.00  0.00    -0.212 OA
ATOM     16  O   UNL A   1      31.638  29.788  26.185  1.00  0.00    -0.212 OA
BRANCH  14  17
ATOM     17  C   UNL A   1      33.855  29.094  27.342  1.00  0.00     0.150 C 
ATOM     18  C   UNL A   1      34.122  30.559  27.587  1.00  0.00     0.022 C 
ENDBRANCH  14  17
ENDBRANCH  12  14
ENDBRANCH   8  12
ENDBRANCH   4   7
ENDBRANCH   2   3
ENDBRANCH   1   2
BRANCH   1  19
ATOM     19  C   UNL A   1      34.885  24.034  25.235  1.00  0.00     0.023 C 
BRANCH  19  20
ATOM     20  C   UNL A   1      36.331  24.359  25.592  1.00  0.00     0.116 C 
BRANCH  20  21
ATOM     21  N   UNL A   1      37.222  23.205  25.536  1.00  0.00    -0.352 N 
ATOM     22  C   UNL A   1      38.508  23.070  26.001  1.00  0.00     0.251 C 
ATOM     23  H   UNL A   1      36.847  22.405  25.101  1.00  0.00     0.163 HD
ATOM     24  O   UNL A   1      39.141  22.045  25.767  1.00  0.00    -0.269 OA
BRANCH  22  25
ATOM     25  C   UNL A   1      39.133  24.178  26.753  1.00  0.00     0.039 A 
ATOM     26  C   UNL A   1      39.932  25.093  26.064  1.00  0.00     0.014 A 
ATOM     27  C   UNL A   1      38.894  24.342  28.120  1.00  0.00     0.014 A 
ATOM     28  C   UNL A   1      40.424  26.214  26.735  1.00  0.00     0.010 A 
ATOM     29  C   UNL A   1      39.297  25.510  28.756  1.00  0.00     0.010 A 
ATOM     30  C   UNL A   1      40.068  26.459  28.073  1.00  0.00    -0.014 A 
BRANCH  30  31
ATOM     31  C   UNL A   1      40.493  27.706  28.758  1.00  0.00     0.031 A 
ATOM     32  C   UNL A   1      41.873  27.818  29.351  1.00  0.00     0.074 A 
ATOM     33  C   UNL A   1      39.621  28.730  28.871  1.00  0.00     0.049 A 
ATOM     34  N   UNL A   1      42.418  28.828  29.981  1.00  0.00    -0.248 NA
ATOM     35  C   UNL A   1      42.750  26.639  29.243  1.00  0.00     0.031 C 
ATOM     36  C   UNL A   1      38.235  28.722  28.392  1.00  0.00     0.029 A 
ATOM     37  N   UNL A   1      39.771  29.980  29.418  1.00  0.00    -0.354 N 
ATOM     38  C   UNL A   1      43.695  28.410  30.334  1.00  0.00     0.074 A 
ATOM     39  C   UNL A   1      43.822  27.032  29.918  1.00  0.00     0.031 C 
ATOM     40  C   UNL A   1      37.680  29.922  28.624  1.00  0.00     0.029 A 
ATOM     41  C   UNL A   1      38.649  30.770  29.308  1.00  0.00     0.049 A 
ATOM     42  H   UNL A   1      40.603  30.283  29.848  1.00  0.00     0.167 HD
ATOM     43  C   UNL A   1      44.689  29.120  30.920  1.00  0.00     0.031 A 
ATOM     44  C   UNL A   1      38.424  32.034  29.717  1.00  0.00     0.031 A 
ATOM     45  C   UNL A   1      44.563  30.492  31.332  1.00  0.00     0.049 A 
ATOM     46  C   UNL A   1      39.540  32.789  30.390  1.00  0.00     0.074 A 
ATOM     47  C   UNL A   1      45.521  31.308  31.908  1.00  0.00     0.029 A 
ATOM     48  N   UNL A   1      43.412  31.255  31.206  1.00  0.00    -0.354 N 
ATOM     49  N   UNL A   1      40.764  32.393  30.653  1.00  0.00    -0.248 NA
ATOM     50  C   UNL A   1      39.248  34.166  30.808  1.00  0.00     0.031 C 
ATOM     51  C   UNL A   1      44.934  32.547  32.180  1.00  0.00     0.029 A 
ATOM     52  C   UNL A   1      43.631  32.526  31.711  1.00  0.00     0.049 A 
ATOM     53  H   UNL A   1      42.565  30.940  30.815  1.00  0.00     0.167 HD
ATOM     54  C   UNL A   1      41.395  33.485  31.239  1.00  0.00     0.074 A 
ATOM     55  C   UNL A   1      40.428  34.564  31.262  1.00  0.00     0.031 C 
ATOM     56  C   UNL A   1      42.658  33.588  31.722  1.00  0.00     0.031 A 
BRANCH  43  57
ATOM     57  C   UNL A   1      46.014  28.433  31.128  1.00  0.00    -0.014 A 
ATOM     58  C   UNL A   1      46.252  27.669  32.285  1.00  0.00     0.010 A 
ATOM     59  C   UNL A   1      47.001  28.483  30.127  1.00  0.00     0.010 A 
ATOM     60  C   UNL A   1      47.457  26.981  32.446  1.00  0.00     0.020 A 
ATOM     61  C   UNL A   1      48.196  27.773  30.270  1.00  0.00     0.020 A 
ATOM     62  C   UNL A   1      48.419  27.031  31.433  1.00  0.00     0.054 A 
BRANCH  62  63
ATOM     63  S   UNL A   1      49.943  26.071  31.642  1.00  0.00     0.124 S 
ATOM     64  O   UNL A   1      49.856  25.120  30.537  1.00  0.00    -0.237 OA
ATOM     65  O   UNL A   1      50.981  27.090  31.513  1.00  0.00    -0.237 OA
ATOM     66  O   UNL A   1      49.808  25.489  32.975  1.00  0.00    -0.744 OA
ENDBRANCH  62  63
ENDBRANCH  43  57
BRANCH  44  67
ATOM     67  C   UNL A   1      37.092  32.672  29.513  1.00  0.00    -0.014 A 
ATOM     68  C   UNL A   1      36.779  33.324  28.308  1.00  0.00     0.010 A 
ATOM     69  C   UNL A   1      36.142  32.668  30.551  1.00  0.00     0.010 A 
ATOM     70  C   UNL A   1      35.567  34.008  28.163  1.00  0.00     0.020 A 
ATOM     71  C   UNL A   1      34.913  33.317  30.397  1.00  0.00     0.020 A 
ATOM     72  C   UNL A   1      34.644  34.004  29.212  1.00  0.00     0.054 A 
BRANCH  72  73
ATOM     73  S   UNL A   1      33.082  34.904  29.010  1.00  0.00     0.124 S 
ATOM     74  O   UNL A   1      32.403  34.104  27.994  1.00  0.00    -0.237 OA
ATOM     75  O   UNL A   1      32.507  34.844  30.350  1.00  0.00    -0.237 OA
ATOM     76  O   UNL A   1      33.506  36.234  28.579  1.00  0.00    -0.744 OA
ENDBRANCH  72  73
ENDBRANCH  44  67
BRANCH  56  77
ATOM     77  C   UNL A   1      43.076  34.925  32.279  1.00  0.00    -0.014 A 
ATOM     78  C   UNL A   1      43.730  35.879  31.480  1.00  0.00     0.010 A 
ATOM     79  C   UNL A   1      42.791  35.235  33.621  1.00  0.00     0.010 A 
ATOM     80  C   UNL A   1      44.141  37.097  32.028  1.00  0.00     0.020 A 
ATOM     81  C   UNL A   1      43.166  36.467  34.163  1.00  0.00     0.020 A 
ATOM     82  C   UNL A   1      43.859  37.382  33.367  1.00  0.00     0.054 A 
BRANCH  82  83
ATOM     83  S   UNL A   1      44.390  38.975  34.049  1.00  0.00     0.124 S 
ATOM     84  O   UNL A   1      43.585  39.919  33.280  1.00  0.00    -0.237 OA
ATOM     85  O   UNL A   1      44.037  38.853  35.461  1.00  0.00    -0.237 OA
ATOM     86  O   UNL A   1      45.825  39.010  33.773  1.00  0.00    -0.744 OA
ENDBRANCH  82  83
ENDBRANCH  56  77
ENDBRANCH  30  31
ENDBRANCH  22  25
ENDBRANCH  20  21
ENDBRANCH  19  20
ENDBRANCH   1  19
TORSDOF 17
ENDMDL
MODEL 3
REMARK VINA RESULT:     -10.1      4.121      5.706
REMARK SMILES CCS(=O)(=O)N[C@H]1C=C[C@@H](C(=O)NCCCCNC(=O)c2ccc(-c3c4nc(c(-c5ccc(S(=O)(=O)[O-])cc5)c5ccc([nH]5)c(-c5ccc(S(=O)(=O)[O-])cc5)c5nc(c(-c6ccc(S(=O)(=O)[O-])cc6)c6ccc3[nH]6)C=C5)C=C4)cc2)C1
REMARK SMILES IDX 15 1 14 2 13 3 11 4 12 5 10 7 7 8 8 9 81 10 9 11 6 12 3 14
REMARK SMILES IDX 4 15 5 16 2 17 1 18 16 19 17 20 18 21 19 22 20 24 21 25
REMARK SMILES IDX 22 26 80 27 23 28 79 29 24 30 25 31 26 32 73 33 27 34 78 35
REMARK SMILES IDX 72 36 74 37 28 38 77 39 71 40 70 41 29 43 59 44 40 45 58 46
REMARK SMILES IDX 41 47 44 48 57 49 75 50 42 51 43 52 56 54 76 55 45 56 30 57
REMARK SMILES IDX 31 58 39 59 32 60 38 61 33 62 34 63 35 64 36 65 37 66 60 67
REMARK SMILES IDX 61 68 69 69 62 70 68 71 63 72 64 73 65 74 66 75 67 76 46 77
REMARK SMILES IDX 47 78 55 79 48 80 54 81 49 82 50 83 51 84 52 85 53 86
REMARK H PARENT 13 6 6 13 18 23 74 42 44 53
REMARK Flexibility Score: inf
ROOT
ATOM      1  C   UNL A   1      34.812  23.509  23.814  1.00  0.00     0.023 C 
ENDROOT
BRANCH   1   2
ATOM      2  C   UNL A   1      33.421  23.306  23.221  1.00  0.00     0.116 C 
BRANCH   2   3
ATOM      3  N   UNL A   1      33.257  24.020  21.977  1.00  0.00    -0.356 N 
ATOM      4  C   UNL A   1      32.615  25.189  21.720  1.00  0.00     0.226 C 
ATOM      5  O   UNL A   1      32.676  25.620  20.563  1.00  0.00    -0.274 OA
ATOM      6  H   UNL A   1      33.674  23.594  21.194  1.00  0.00     0.163 HD
BRANCH   4   7
ATOM      7  C   UNL A   1      31.892  26.012  22.796  1.00  0.00     0.103 C 
ATOM      8  C   UNL A   1      29.940  27.339  23.366  1.00  0.00     0.093 C 
ATOM      9  C   UNL A   1      29.829  25.964  23.915  1.00  0.00    -0.011 C 
ATOM     10  C   UNL A   1      31.104  27.266  22.372  1.00  0.00     0.042 C 
ATOM     11  C   UNL A   1      30.893  25.218  23.591  1.00  0.00    -0.016 C 
BRANCH   8  12
ATOM     12  N   UNL A   1      28.643  27.858  22.945  1.00  0.00    -0.208 NA
ATOM     13  H   UNL A   1      28.511  27.466  22.013  1.00  0.00     0.141 HD
BRANCH  12  14
ATOM     14  S   UNL A   1      28.108  29.418  22.805  1.00  0.00     0.211 S 
ATOM     15  O   UNL A   1      26.833  29.559  23.447  1.00  0.00    -0.212 OA
ATOM     16  O   UNL A   1      28.225  29.673  21.380  1.00  0.00    -0.212 OA
BRANCH  14  17
ATOM     17  C   UNL A   1      29.321  30.483  23.589  1.00  0.00     0.150 C 
ATOM     18  C   UNL A   1      29.004  31.957  23.647  1.00  0.00     0.022 C 
ENDBRANCH  14  17
ENDBRANCH  12  14
ENDBRANCH   8  12
ENDBRANCH   4   7
ENDBRANCH   2   3
ENDBRANCH   1   2
BRANCH   1  19
ATOM     19  C   UNL A   1      34.838  24.093  25.220  1.00  0.00     0.023 C 
BRANCH  19  20
ATOM     20  C   UNL A   1      36.235  24.383  25.754  1.00  0.00     0.116 C 
BRANCH  20  21
ATOM     21  N   UNL A   1      37.155  23.256  25.631  1.00  0.00    -0.352 N 
ATOM     22  C   UNL A   1      38.462  23.146  26.041  1.00  0.00     0.251 C 
ATOM     23  H   UNL A   1      36.786  22.458  25.190  1.00  0.00     0.163 HD
ATOM     24  O   UNL A   1      39.113  22.146  25.754  1.00  0.00    -0.269 OA
BRANCH  22  25
ATOM     25  C   UNL A   1      39.086  24.252  26.797  1.00  0.00     0.039 A 
ATOM     26  C   UNL A   1      39.884  25.171  26.112  1.00  0.00     0.014 A 
ATOM     27  C   UNL A   1      38.848  24.409  28.165  1.00  0.00     0.014 A 
ATOM     28  C   UNL A   1      40.375  26.290  26.787  1.00  0.00     0.010 A 
ATOM     29  C   UNL A   1      39.250  25.576  28.806  1.00  0.00     0.010 A 
ATOM     30  C   UNL A   1      40.020  26.529  28.127  1.00  0.00    -0.014 A 
BRANCH  30  31
ATOM     31  C   UNL A   1      40.444  27.773  28.817  1.00  0.00     0.031 A 
ATOM     32  C   UNL A   1      41.822  27.882  29.414  1.00  0.00     0.074 A 
ATOM     33  C   UNL A   1      39.572  28.798  28.930  1.00  0.00     0.049 A 
ATOM     34  N   UNL A   1      42.366  28.889  30.049  1.00  0.00    -0.248 NA
ATOM     35  C   UNL A   1      42.699  26.703  29.306  1.00  0.00     0.031 C 
ATOM     36  C   UNL A   1      38.188  28.792  28.447  1.00  0.00     0.029 A 
ATOM     37  N   UNL A   1      39.721  30.045  29.481  1.00  0.00    -0.354 N 
ATOM     38  C   UNL A   1      43.642  28.470  30.404  1.00  0.00     0.074 A 
ATOM     39  C   UNL A   1      43.768  27.092  29.984  1.00  0.00     0.031 C 
ATOM     40  C   UNL A   1      37.633  29.991  28.681  1.00  0.00     0.029 A 
ATOM     41  C   UNL A   1      38.600  30.837  29.371  1.00  0.00     0.049 A 
ATOM     42  H   UNL A   1      40.552  30.347  29.915  1.00  0.00     0.167 HD
ATOM     43  C   UNL A   1      44.634  29.176  30.996  1.00  0.00     0.031 A 
ATOM     44  C   UNL A   1      38.375  32.100  29.782  1.00  0.00     0.031 A 
ATOM     45  C   UNL A   1      44.508  30.548  31.412  1.00  0.00     0.049 A 
ATOM     46  C   UNL A   1      39.490  32.851  30.462  1.00  0.00     0.074 A 
ATOM     47  C   UNL A   1      45.465  31.361  31.993  1.00  0.00     0.029 A 
ATOM     48  N   UNL A   1      43.358  31.312  31.284  1.00  0.00    -0.354 N 
ATOM     49  N   UNL A   1      40.713  32.454  30.727  1.00  0.00    -0.248 NA
ATOM     50  C   UNL A   1      39.198  34.228  30.883  1.00  0.00     0.031 C 
ATOM     51  C   UNL A   1      44.878  32.600  32.267  1.00  0.00     0.029 A 
ATOM     52  C   UNL A   1      43.576  32.581  31.794  1.00  0.00     0.049 A 
ATOM     53  H   UNL A   1      42.512  30.999  30.890  1.00  0.00     0.167 HD
ATOM     54  C   UNL A   1      41.342  33.544  31.318  1.00  0.00     0.074 A 
ATOM     55  C   UNL A   1      40.376  34.623  31.341  1.00  0.00     0.031 C 
ATOM     56  C   UNL A   1      42.604  33.644  31.806  1.00  0.00     0.031 A 
BRANCH  43  57
ATOM     57  C   UNL A   1      45.957  28.488  31.205  1.00  0.00    -0.014 A 
ATOM     58  C   UNL A   1      46.968  28.565  30.229  1.00  0.00     0.010 A 
ATOM     59  C   UNL A   1      46.228  27.827  32.417  1.00  0.00     0.010 A 
ATOM     60  C   UNL A   1      48.217  27.981  30.452  1.00  0.00     0.020 A 
ATOM     61  C   UNL A   1      47.486  27.267  32.657  1.00  0.00     0.020 A 
ATOM     62  C   UNL A   1      48.470  27.342  31.669  1.00  0.00     0.054 A 
BRANCH  62  63
ATOM     63  S   UNL A   1      50.124  26.654  31.955  1.00  0.00     0.124 S 
ATOM     64  O   UNL A   1      50.970  27.579  31.204  1.00  0.00    -0.237 OA
ATOM     65  O   UNL A   1      50.252  26.726  33.408  1.00  0.00    -0.237 OA
ATOM     66  O   UNL A   1      50.040  25.304  31.406  1.00  0.00    -0.744 OA
ENDBRANCH  62  63
ENDBRANCH  43  57
BRANCH  44  67
ATOM     67  C   UNL A   1      37.044  32.739  29.577  1.00  0.00    -0.014 A 
ATOM     68  C   UNL A   1      36.624  33.138  28.296  1.00  0.00     0.010 A 
ATOM     69  C   UNL A   1      36.206  32.995  30.678  1.00  0.00     0.010 A 
ATOM     70  C   UNL A   1      35.419  33.830  28.126  1.00  0.00     0.020 A 
ATOM     71  C   UNL A   1      34.983  33.650  30.508  1.00  0.00     0.020 A 
ATOM     72  C   UNL A   1      34.610  34.086  29.236  1.00  0.00     0.054 A 
BRANCH  72  73
ATOM     73  S   UNL A   1      33.056  34.992  28.998  1.00  0.00     0.124 S 
ATOM     74  O   UNL A   1      32.470  34.942  30.334  1.00  0.00    -0.237 OA
ATOM     75  O   UNL A   1      33.519  36.304  28.558  1.00  0.00    -0.237 OA
ATOM     76  O   UNL A   1      32.358  34.211  27.979  1.00  0.00    -0.744 OA
ENDBRANCH  72  73
ENDBRANCH  44  67
BRANCH  56  77
ATOM     77  C   UNL A   1      43.022  34.978  32.368  1.00  0.00    -0.014 A 
ATOM     78  C   UNL A   1      42.898  35.266  33.739  1.00  0.00     0.010 A 
ATOM     79  C   UNL A   1      43.565  35.952  31.511  1.00  0.00     0.010 A 
ATOM     80  C   UNL A   1      43.258  36.522  34.232  1.00  0.00     0.020 A 
ATOM     81  C   UNL A   1      43.961  37.197  32.006  1.00  0.00     0.020 A 
ATOM     82  C   UNL A   1      43.785  37.481  33.361  1.00  0.00     0.054 A 
BRANCH  82  83
ATOM     83  S   UNL A   1      44.257  39.099  34.030  1.00  0.00     0.124 S 
ATOM     84  O   UNL A   1      45.496  39.376  33.309  1.00  0.00    -0.237 OA
ATOM     85  O   UNL A   1      43.118  39.939  33.668  1.00  0.00    -0.237 OA
ATOM     86  O   UNL A   1      44.410  38.851  35.462  1.00  0.00    -0.744 OA
ENDBRANCH  82  83
ENDBRANCH  56  77
ENDBRANCH  30  31
ENDBRANCH  22  25
ENDBRANCH  20  21
ENDBRANCH  19  20
ENDBRANCH   1  19
TORSDOF 17
ENDMDL
