MODEL 1
REMARK VINA RESULT:     -11.6      0.000      0.000
REMARK SMILES CNC(=O)CCn1c(SCC(=O)NCCCCNC(=O)c2ccc(-c3c4nc(c(-c5ccc(S(=O)(=O)[O-])cc5)c5ccc([nH]5)c(-c5ccc(S(=O)(=O)[O-])cc5)c5nc(c(-c6ccc(S(=O)(=O)[O-])cc6)c6ccc3[nH]6)C=C5)C=C4)cc2)nc2ccc(C)cc21
REMARK SMILES IDX 14 1 13 2 11 3 12 4 10 6 9 7 8 8 7 9 88 10 81 11 82 12 87 13
REMARK SMILES IDX 83 14 85 15 84 16 86 17 6 18 5 19 3 20 1 21 2 22 4 24 15 25
REMARK SMILES IDX 16 26 17 27 18 28 19 29 20 31 21 32 22 33 80 34 23 35 79 36
REMARK SMILES IDX 24 37 25 38 26 39 73 40 27 41 78 42 72 43 74 44 28 45 77 46
REMARK SMILES IDX 71 47 70 48 29 50 59 51 40 52 58 53 41 54 44 55 57 56 75 57
REMARK SMILES IDX 42 58 43 59 56 61 76 62 45 63 30 64 31 65 39 66 32 67 38 68
REMARK SMILES IDX 33 69 34 70 35 71 36 72 37 73 60 74 61 75 69 76 62 77 68 78
REMARK SMILES IDX 63 79 64 80 65 81 66 82 67 83 46 84 47 85 55 86 48 87 54 88
REMARK SMILES IDX 49 89 50 90 51 91 52 92 53 93
REMARK H PARENT 13 5 2 23 18 30 74 49 44 60
REMARK Flexibility Score: inf
ROOT
ATOM      1  C   UNL A   1      37.072  23.717  26.080  1.00  0.00     0.116 C 
ENDROOT
BRANCH   1   2
ATOM      2  N   UNL A   1      36.412  22.432  25.948  1.00  0.00    -0.355 N 
ATOM      3  C   UNL A   1      35.681  21.916  24.917  1.00  0.00     0.230 C 
ATOM      4  O   UNL A   1      35.307  20.745  25.029  1.00  0.00    -0.274 OA
ATOM      5  H   UNL A   1      36.507  21.837  26.727  1.00  0.00     0.163 HD
BRANCH   3   6
ATOM      6  C   UNL A   1      35.485  22.691  23.626  1.00  0.00     0.178 C 
BRANCH   6   7
ATOM      7  S   UNL A   1      33.769  23.129  23.258  1.00  0.00    -0.078 SA
BRANCH   7   8
ATOM      8  C   UNL A   1      33.671  24.776  23.775  1.00  0.00     0.169 A 
ATOM      9  N   UNL A   1      33.600  25.140  25.105  1.00  0.00    -0.318 N 
ATOM     10  C   UNL A   1      33.762  26.513  25.143  1.00  0.00     0.069 A 
ATOM     11  N   UNL A   1      33.646  25.815  22.976  1.00  0.00    -0.222 NA
ATOM     12  C   UNL A   1      33.599  26.898  23.812  1.00  0.00     0.090 A 
ATOM     13  C   UNL A   1      33.868  27.450  26.179  1.00  0.00     0.032 A 
ATOM     14  C   UNL A   1      33.382  28.251  23.509  1.00  0.00     0.031 A 
ATOM     15  C   UNL A   1      33.499  28.772  25.886  1.00  0.00    -0.049 A 
ATOM     16  C   UNL A   1      33.265  29.165  24.563  1.00  0.00     0.006 A 
ATOM     17  C   UNL A   1      33.183  29.695  27.031  1.00  0.00     0.044 C 
BRANCH   9  18
ATOM     18  C   UNL A   1      33.261  24.242  26.202  1.00  0.00     0.135 C 
BRANCH  18  19
ATOM     19  C   UNL A   1      31.866  24.296  26.826  1.00  0.00     0.122 C 
BRANCH  19  20
ATOM     20  C   UNL A   1      30.739  23.858  25.918  1.00  0.00     0.221 C 
ATOM     21  C   UNL A   1      30.076  26.183  25.123  1.00  0.00     0.142 C 
ATOM     22  N   UNL A   1      29.928  24.764  25.315  1.00  0.00    -0.359 N 
ATOM     23  H   UNL A   1      29.096  24.386  24.945  1.00  0.00     0.163 HD
ATOM     24  O   UNL A   1      30.540  22.655  25.732  1.00  0.00    -0.275 OA
ENDBRANCH  19  20
ENDBRANCH  18  19
ENDBRANCH   9  18
ENDBRANCH   7   8
ENDBRANCH   6   7
ENDBRANCH   3   6
ENDBRANCH   1   2
BRANCH   1  25
ATOM     25  C   UNL A   1      38.567  23.558  26.350  1.00  0.00     0.023 C 
BRANCH  25  26
ATOM     26  C   UNL A   1      39.108  22.136  26.151  1.00  0.00     0.023 C 
BRANCH  26  27
ATOM     27  C   UNL A   1      40.529  21.903  26.674  1.00  0.00     0.116 C 
BRANCH  27  28
ATOM     28  N   UNL A   1      41.570  22.127  25.691  1.00  0.00    -0.352 N 
ATOM     29  C   UNL A   1      42.487  23.122  25.482  1.00  0.00     0.251 C 
ATOM     30  H   UNL A   1      41.630  21.404  25.024  1.00  0.00     0.163 HD
ATOM     31  O   UNL A   1      43.364  22.880  24.647  1.00  0.00    -0.269 OA
BRANCH  29  32
ATOM     32  C   UNL A   1      42.456  24.465  26.126  1.00  0.00     0.039 A 
ATOM     33  C   UNL A   1      43.025  24.781  27.359  1.00  0.00     0.014 A 
ATOM     34  C   UNL A   1      41.713  25.458  25.459  1.00  0.00     0.014 A 
ATOM     35  C   UNL A   1      42.754  26.000  27.969  1.00  0.00     0.010 A 
ATOM     36  C   UNL A   1      41.460  26.691  26.054  1.00  0.00     0.010 A 
ATOM     37  C   UNL A   1      41.933  26.935  27.339  1.00  0.00    -0.014 A 
BRANCH  37  38
ATOM     38  C   UNL A   1      41.632  28.158  28.076  1.00  0.00     0.031 A 
ATOM     39  C   UNL A   1      42.646  29.245  27.982  1.00  0.00     0.074 A 
ATOM     40  C   UNL A   1      40.501  28.336  28.785  1.00  0.00     0.049 A 
ATOM     41  N   UNL A   1      43.334  29.777  28.940  1.00  0.00    -0.248 NA
ATOM     42  C   UNL A   1      43.004  29.734  26.643  1.00  0.00     0.031 C 
ATOM     43  C   UNL A   1      39.296  27.504  28.806  1.00  0.00     0.029 A 
ATOM     44  N   UNL A   1      40.161  29.394  29.573  1.00  0.00    -0.354 N 
ATOM     45  C   UNL A   1      44.125  30.765  28.356  1.00  0.00     0.074 A 
ATOM     46  C   UNL A   1      43.952  30.629  26.931  1.00  0.00     0.031 C 
ATOM     47  C   UNL A   1      38.282  28.211  29.356  1.00  0.00     0.029 A 
ATOM     48  C   UNL A   1      38.805  29.473  29.854  1.00  0.00     0.049 A 
ATOM     49  H   UNL A   1      40.818  30.043  29.913  1.00  0.00     0.167 HD
ATOM     50  C   UNL A   1      44.777  31.715  29.085  1.00  0.00     0.031 A 
ATOM     51  C   UNL A   1      38.153  30.545  30.368  1.00  0.00     0.031 A 
ATOM     52  C   UNL A   1      44.855  31.369  30.478  1.00  0.00     0.049 A 
ATOM     53  C   UNL A   1      39.156  31.374  31.080  1.00  0.00     0.074 A 
ATOM     54  C   UNL A   1      45.463  30.350  31.183  1.00  0.00     0.029 A 
ATOM     55  N   UNL A   1      43.944  31.933  31.338  1.00  0.00    -0.354 N 
ATOM     56  N   UNL A   1      39.760  30.993  32.171  1.00  0.00    -0.248 NA
ATOM     57  C   UNL A   1      39.803  32.459  30.357  1.00  0.00     0.031 C 
ATOM     58  C   UNL A   1      44.557  30.040  32.234  1.00  0.00     0.029 A 
ATOM     59  C   UNL A   1      43.478  30.924  32.145  1.00  0.00     0.049 A 
ATOM     60  H   UNL A   1      43.675  32.880  31.370  1.00  0.00     0.167 HD
ATOM     61  C   UNL A   1      41.057  31.463  32.040  1.00  0.00     0.074 A 
ATOM     62  C   UNL A   1      40.995  32.450  30.963  1.00  0.00     0.031 C 
ATOM     63  C   UNL A   1      42.113  30.817  32.619  1.00  0.00     0.031 A 
BRANCH  50  64
ATOM     64  C   UNL A   1      45.142  33.083  28.574  1.00  0.00    -0.014 A 
ATOM     65  C   UNL A   1      44.207  34.132  28.480  1.00  0.00     0.010 A 
ATOM     66  C   UNL A   1      46.500  33.420  28.398  1.00  0.00     0.010 A 
ATOM     67  C   UNL A   1      44.592  35.446  28.207  1.00  0.00     0.020 A 
ATOM     68  C   UNL A   1      46.904  34.745  28.167  1.00  0.00     0.020 A 
ATOM     69  C   UNL A   1      45.943  35.749  28.070  1.00  0.00     0.054 A 
BRANCH  69  70
ATOM     70  S   UNL A   1      46.409  37.484  27.857  1.00  0.00     0.124 S 
ATOM     71  O   UNL A   1      45.161  38.173  28.175  1.00  0.00    -0.237 OA
ATOM     72  O   UNL A   1      47.483  37.642  28.833  1.00  0.00    -0.237 OA
ATOM     73  O   UNL A   1      46.826  37.559  26.458  1.00  0.00    -0.744 OA
ENDBRANCH  69  70
ENDBRANCH  50  64
BRANCH  51  74
ATOM     74  C   UNL A   1      36.861  31.096  29.882  1.00  0.00    -0.014 A 
ATOM     75  C   UNL A   1      36.725  31.498  28.537  1.00  0.00     0.010 A 
ATOM     76  C   UNL A   1      35.878  31.518  30.797  1.00  0.00     0.010 A 
ATOM     77  C   UNL A   1      35.710  32.369  28.138  1.00  0.00     0.020 A 
ATOM     78  C   UNL A   1      34.859  32.400  30.403  1.00  0.00     0.020 A 
ATOM     79  C   UNL A   1      34.812  32.855  29.084  1.00  0.00     0.054 A 
BRANCH  79  80
ATOM     80  S   UNL A   1      33.666  34.169  28.583  1.00  0.00     0.124 S 
ATOM     81  O   UNL A   1      32.730  33.437  27.726  1.00  0.00    -0.237 OA
ATOM     82  O   UNL A   1      33.113  34.609  29.868  1.00  0.00    -0.237 OA
ATOM     83  O   UNL A   1      34.511  35.135  27.909  1.00  0.00    -0.744 OA
ENDBRANCH  79  80
ENDBRANCH  51  74
BRANCH  63  84
ATOM     84  C   UNL A   1      41.838  29.697  33.606  1.00  0.00    -0.014 A 
ATOM     85  C   UNL A   1      41.999  29.974  34.976  1.00  0.00     0.010 A 
ATOM     86  C   UNL A   1      41.638  28.356  33.219  1.00  0.00     0.010 A 
ATOM     87  C   UNL A   1      41.998  28.947  35.926  1.00  0.00     0.020 A 
ATOM     88  C   UNL A   1      41.607  27.323  34.169  1.00  0.00     0.020 A 
ATOM     89  C   UNL A   1      41.818  27.625  35.516  1.00  0.00     0.054 A 
BRANCH  89  90
ATOM     90  S   UNL A   1      41.884  26.313  36.767  1.00  0.00     0.124 S 
ATOM     91  O   UNL A   1      42.998  26.745  37.611  1.00  0.00    -0.237 OA
ATOM     92  O   UNL A   1      40.565  26.388  37.393  1.00  0.00    -0.237 OA
ATOM     93  O   UNL A   1      42.127  25.098  35.994  1.00  0.00    -0.744 OA
ENDBRANCH  89  90
ENDBRANCH  63  84
ENDBRANCH  37  38
ENDBRANCH  29  32
ENDBRANCH  27  28
ENDBRANCH  26  27
ENDBRANCH  25  26
ENDBRANCH   1  25
TORSDOF 19
ENDMDL
MODEL 2
REMARK VINA RESULT:     -11.0      2.754      9.317
REMARK SMILES CNC(=O)CCn1c(SCC(=O)NCCCCNC(=O)c2ccc(-c3c4nc(c(-c5ccc(S(=O)(=O)[O-])cc5)c5ccc([nH]5)c(-c5ccc(S(=O)(=O)[O-])cc5)c5nc(c(-c6ccc(S(=O)(=O)[O-])cc6)c6ccc3[nH]6)C=C5)C=C4)cc2)nc2ccc(C)cc21
REMARK SMILES IDX 14 1 13 2 11 3 12 4 10 6 9 7 8 8 7 9 88 10 81 11 82 12 87 13
REMARK SMILES IDX 83 14 85 15 84 16 86 17 6 18 5 19 3 20 1 21 2 22 4 24 15 25
REMARK SMILES IDX 16 26 17 27 18 28 19 29 20 31 21 32 22 33 80 34 23 35 79 36
REMARK SMILES IDX 24 37 25 38 26 39 73 40 27 41 78 42 72 43 74 44 28 45 77 46
REMARK SMILES IDX 71 47 70 48 29 50 59 51 40 52 58 53 41 54 44 55 57 56 75 57
REMARK SMILES IDX 42 58 43 59 56 61 76 62 45 63 30 64 31 65 39 66 32 67 38 68
REMARK SMILES IDX 33 69 34 70 35 71 36 72 37 73 60 74 61 75 69 76 62 77 68 78
REMARK SMILES IDX 63 79 64 80 65 81 66 82 67 83 46 84 47 85 55 86 48 87 54 88
REMARK SMILES IDX 49 89 50 90 51 91 52 92 53 93
REMARK H PARENT 13 5 2 23 18 30 74 49 44 60
REMARK Flexibility Score: inf
ROOT
ATOM      1  C   UNL A   1      33.511  30.874  27.150  1.00  0.00     0.116 C 
ENDROOT
BRANCH   1   2
ATOM      2  N   UNL A   1      32.534  29.861  27.501  1.00  0.00    -0.355 N 
ATOM      3  C   UNL A   1      32.545  28.513  27.290  1.00  0.00     0.230 C 
ATOM      4  O   UNL A   1      31.617  27.863  27.782  1.00  0.00    -0.274 OA
ATOM      5  H   UNL A   1      31.734  30.201  27.965  1.00  0.00     0.163 HD
BRANCH   3   6
ATOM      6  C   UNL A   1      33.729  27.829  26.631  1.00  0.00     0.178 C 
BRANCH   6   7
ATOM      7  S   UNL A   1      33.416  27.215  24.958  1.00  0.00    -0.078 SA
BRANCH   7   8
ATOM      8  C   UNL A   1      33.864  25.549  25.068  1.00  0.00     0.169 A 
ATOM      9  N   UNL A   1      33.137  24.538  24.471  1.00  0.00    -0.318 N 
ATOM     10  C   UNL A   1      33.904  23.392  24.576  1.00  0.00     0.069 A 
ATOM     11  N   UNL A   1      34.905  25.091  25.718  1.00  0.00    -0.222 NA
ATOM     12  C   UNL A   1      34.884  23.738  25.507  1.00  0.00     0.090 A 
ATOM     13  C   UNL A   1      33.761  22.081  24.103  1.00  0.00     0.032 A 
ATOM     14  C   UNL A   1      35.653  22.729  26.104  1.00  0.00     0.031 A 
ATOM     15  C   UNL A   1      34.424  21.068  24.813  1.00  0.00    -0.049 A 
ATOM     16  C   UNL A   1      35.364  21.393  25.798  1.00  0.00     0.006 A 
ATOM     17  C   UNL A   1      33.968  19.647  24.622  1.00  0.00     0.044 C 
BRANCH   9  18
ATOM     18  C   UNL A   1      31.770  24.666  23.981  1.00  0.00     0.135 C 
BRANCH  18  19
ATOM     19  C   UNL A   1      31.502  24.694  22.476  1.00  0.00     0.122 C 
BRANCH  19  20
ATOM     20  C   UNL A   1      32.143  25.843  21.730  1.00  0.00     0.221 C 
ATOM     21  C   UNL A   1      30.497  27.636  22.474  1.00  0.00     0.142 C 
ATOM     22  N   UNL A   1      31.557  27.067  21.684  1.00  0.00    -0.359 N 
ATOM     23  H   UNL A   1      31.919  27.668  20.992  1.00  0.00     0.163 HD
ATOM     24  O   UNL A   1      33.210  25.664  21.139  1.00  0.00    -0.275 OA
ENDBRANCH  19  20
ENDBRANCH  18  19
ENDBRANCH   9  18
ENDBRANCH   7   8
ENDBRANCH   6   7
ENDBRANCH   3   6
ENDBRANCH   1   2
BRANCH   1  25
ATOM     25  C   UNL A   1      34.800  30.717  27.954  1.00  0.00     0.023 C 
BRANCH  25  26
ATOM     26  C   UNL A   1      35.689  31.967  27.995  1.00  0.00     0.023 C 
BRANCH  26  27
ATOM     27  C   UNL A   1      35.100  33.159  28.756  1.00  0.00     0.116 C 
BRANCH  27  28
ATOM     28  N   UNL A   1      34.603  32.834  30.077  1.00  0.00    -0.352 N 
ATOM     29  C   UNL A   1      35.144  32.227  31.179  1.00  0.00     0.251 C 
ATOM     30  H   UNL A   1      33.668  33.111  30.214  1.00  0.00     0.163 HD
ATOM     31  O   UNL A   1      34.479  32.299  32.216  1.00  0.00    -0.269 OA
BRANCH  29  32
ATOM     32  C   UNL A   1      36.414  31.447  31.190  1.00  0.00     0.039 A 
ATOM     33  C   UNL A   1      37.696  31.994  31.164  1.00  0.00     0.014 A 
ATOM     34  C   UNL A   1      36.284  30.046  31.133  1.00  0.00     0.014 A 
ATOM     35  C   UNL A   1      38.805  31.183  30.958  1.00  0.00     0.010 A 
ATOM     36  C   UNL A   1      37.394  29.226  30.952  1.00  0.00     0.010 A 
ATOM     37  C   UNL A   1      38.650  29.804  30.804  1.00  0.00    -0.014 A 
BRANCH  37  38
ATOM     38  C   UNL A   1      39.851  29.030  30.513  1.00  0.00     0.031 A 
ATOM     39  C   UNL A   1      40.770  28.789  31.661  1.00  0.00     0.074 A 
ATOM     40  C   UNL A   1      40.129  28.523  29.295  1.00  0.00     0.049 A 
ATOM     41  N   UNL A   1      42.000  29.167  31.788  1.00  0.00    -0.248 NA
ATOM     42  C   UNL A   1      40.218  28.129  32.851  1.00  0.00     0.031 C 
ATOM     43  C   UNL A   1      39.260  28.441  28.121  1.00  0.00     0.029 A 
ATOM     44  N   UNL A   1      41.252  27.864  28.896  1.00  0.00    -0.354 N 
ATOM     45  C   UNL A   1      42.436  28.683  33.020  1.00  0.00     0.074 A 
ATOM     46  C   UNL A   1      41.271  28.136  33.672  1.00  0.00     0.031 C 
ATOM     47  C   UNL A   1      39.788  27.558  27.242  1.00  0.00     0.029 A 
ATOM     48  C   UNL A   1      41.092  27.136  27.727  1.00  0.00     0.049 A 
ATOM     49  H   UNL A   1      42.102  27.903  29.393  1.00  0.00     0.167 HD
ATOM     50  C   UNL A   1      43.751  28.649  33.376  1.00  0.00     0.031 A 
ATOM     51  C   UNL A   1      41.932  26.184  27.253  1.00  0.00     0.031 A 
ATOM     52  C   UNL A   1      44.563  29.478  32.529  1.00  0.00     0.049 A 
ATOM     53  C   UNL A   1      43.267  26.432  27.850  1.00  0.00     0.074 A 
ATOM     54  C   UNL A   1      44.621  30.835  32.281  1.00  0.00     0.029 A 
ATOM     55  N   UNL A   1      45.257  28.876  31.506  1.00  0.00    -0.354 N 
ATOM     56  N   UNL A   1      43.999  27.473  27.566  1.00  0.00    -0.248 NA
ATOM     57  C   UNL A   1      43.619  25.743  29.082  1.00  0.00     0.031 C 
ATOM     58  C   UNL A   1      44.910  30.941  30.892  1.00  0.00     0.029 A 
ATOM     59  C   UNL A   1      45.068  29.648  30.386  1.00  0.00     0.049 A 
ATOM     60  H   UNL A   1      45.789  28.049  31.565  1.00  0.00     0.167 HD
ATOM     61  C   UNL A   1      44.592  27.827  28.767  1.00  0.00     0.074 A 
ATOM     62  C   UNL A   1      44.412  26.665  29.635  1.00  0.00     0.031 C 
ATOM     63  C   UNL A   1      44.928  29.124  29.042  1.00  0.00     0.031 A 
BRANCH  50  64
ATOM     64  C   UNL A   1      44.347  27.674  34.356  1.00  0.00    -0.014 A 
ATOM     65  C   UNL A   1      44.604  28.010  35.700  1.00  0.00     0.010 A 
ATOM     66  C   UNL A   1      44.443  26.310  34.009  1.00  0.00     0.010 A 
ATOM     67  C   UNL A   1      44.956  27.049  36.650  1.00  0.00     0.020 A 
ATOM     68  C   UNL A   1      44.753  25.330  34.965  1.00  0.00     0.020 A 
ATOM     69  C   UNL A   1      45.012  25.709  36.280  1.00  0.00     0.054 A 
BRANCH  69  70
ATOM     70  S   UNL A   1      45.334  24.482  37.571  1.00  0.00     0.124 S 
ATOM     71  O   UNL A   1      46.746  24.715  37.862  1.00  0.00    -0.237 OA
ATOM     72  O   UNL A   1      44.400  24.879  38.620  1.00  0.00    -0.237 OA
ATOM     73  O   UNL A   1      45.031  23.210  36.919  1.00  0.00    -0.744 OA
ENDBRANCH  69  70
ENDBRANCH  50  64
BRANCH  51  74
ATOM     74  C   UNL A   1      41.533  24.857  26.716  1.00  0.00    -0.014 A 
ATOM     75  C   UNL A   1      40.377  24.214  27.207  1.00  0.00     0.010 A 
ATOM     76  C   UNL A   1      42.442  24.089  25.965  1.00  0.00     0.010 A 
ATOM     77  C   UNL A   1      40.185  22.841  27.045  1.00  0.00     0.020 A 
ATOM     78  C   UNL A   1      42.259  22.706  25.805  1.00  0.00     0.020 A 
ATOM     79  C   UNL A   1      41.152  22.086  26.388  1.00  0.00     0.054 A 
BRANCH  79  80
ATOM     80  S   UNL A   1      40.992  20.279  26.412  1.00  0.00     0.124 S 
ATOM     81  O   UNL A   1      41.001  19.998  27.849  1.00  0.00    -0.237 OA
ATOM     82  O   UNL A   1      39.702  20.069  25.748  1.00  0.00    -0.237 OA
ATOM     83  O   UNL A   1      42.152  19.814  25.675  1.00  0.00    -0.744 OA
ENDBRANCH  79  80
ENDBRANCH  51  74
BRANCH  63  84
ATOM     84  C   UNL A   1      44.858  30.154  27.931  1.00  0.00    -0.014 A 
ATOM     85  C   UNL A   1      46.069  30.673  27.437  1.00  0.00     0.010 A 
ATOM     86  C   UNL A   1      43.657  30.766  27.517  1.00  0.00     0.010 A 
ATOM     87  C   UNL A   1      46.087  31.785  26.591  1.00  0.00     0.020 A 
ATOM     88  C   UNL A   1      43.665  31.865  26.644  1.00  0.00     0.020 A 
ATOM     89  C   UNL A   1      44.885  32.386  26.211  1.00  0.00     0.054 A 
BRANCH  89  90
ATOM     90  S   UNL A   1      44.950  33.865  25.162  1.00  0.00     0.124 S 
ATOM     91  O   UNL A   1      46.362  34.238  25.239  1.00  0.00    -0.237 OA
ATOM     92  O   UNL A   1      44.509  33.366  23.861  1.00  0.00    -0.237 OA
ATOM     93  O   UNL A   1      44.026  34.796  25.806  1.00  0.00    -0.744 OA
ENDBRANCH  89  90
ENDBRANCH  63  84
ENDBRANCH  37  38
ENDBRANCH  29  32
ENDBRANCH  27  28
ENDBRANCH  26  27
ENDBRANCH  25  26
ENDBRANCH   1  25
TORSDOF 19
ENDMDL
MODEL 3
REMARK VINA RESULT:     -10.4      2.244      3.088
REMARK SMILES CNC(=O)CCn1c(SCC(=O)NCCCCNC(=O)c2ccc(-c3c4nc(c(-c5ccc(S(=O)(=O)[O-])cc5)c5ccc([nH]5)c(-c5ccc(S(=O)(=O)[O-])cc5)c5nc(c(-c6ccc(S(=O)(=O)[O-])cc6)c6ccc3[nH]6)C=C5)C=C4)cc2)nc2ccc(C)cc21
REMARK SMILES IDX 14 1 13 2 11 3 12 4 10 6 9 7 8 8 7 9 88 10 81 11 82 12 87 13
REMARK SMILES IDX 83 14 85 15 84 16 86 17 6 18 5 19 3 20 1 21 2 22 4 24 15 25
REMARK SMILES IDX 16 26 17 27 18 28 19 29 20 31 21 32 22 33 80 34 23 35 79 36
REMARK SMILES IDX 24 37 25 38 26 39 73 40 27 41 78 42 72 43 74 44 28 45 77 46
REMARK SMILES IDX 71 47 70 48 29 50 59 51 40 52 58 53 41 54 44 55 57 56 75 57
REMARK SMILES IDX 42 58 43 59 56 61 76 62 45 63 30 64 31 65 39 66 32 67 38 68
REMARK SMILES IDX 33 69 34 70 35 71 36 72 37 73 60 74 61 75 69 76 62 77 68 78
REMARK SMILES IDX 63 79 64 80 65 81 66 82 67 83 46 84 47 85 55 86 48 87 54 88
REMARK SMILES IDX 49 89 50 90 51 91 52 92 53 93
REMARK H PARENT 13 5 2 23 18 30 74 49 44 60
REMARK Flexibility Score: inf
ROOT
ATOM      1  C   UNL A   1      39.431  22.324  26.562  1.00  0.00     0.116 C 
ENDROOT
BRANCH   1   2
ATOM      2  N   UNL A   1      38.406  21.393  26.131  1.00  0.00    -0.355 N 
ATOM      3  C   UNL A   1      37.335  21.579  25.305  1.00  0.00     0.230 C 
ATOM      4  O   UNL A   1      36.665  20.580  25.027  1.00  0.00    -0.274 OA
ATOM      5  H   UNL A   1      38.496  20.482  26.493  1.00  0.00     0.163 HD
BRANCH   3   6
ATOM      6  C   UNL A   1      37.085  22.914  24.629  1.00  0.00     0.178 C 
BRANCH   6   7
ATOM      7  S   UNL A   1      36.069  22.830  23.134  1.00  0.00    -0.078 SA
BRANCH   7   8
ATOM      8  C   UNL A   1      34.669  23.748  23.565  1.00  0.00     0.169 A 
ATOM      9  N   UNL A   1      33.717  23.288  24.452  1.00  0.00    -0.318 N 
ATOM     10  C   UNL A   1      32.885  24.359  24.721  1.00  0.00     0.069 A 
ATOM     11  N   UNL A   1      34.376  24.937  23.098  1.00  0.00    -0.222 NA
ATOM     12  C   UNL A   1      33.214  25.286  23.732  1.00  0.00     0.090 A 
ATOM     13  C   UNL A   1      31.802  24.554  25.589  1.00  0.00     0.032 A 
ATOM     14  C   UNL A   1      32.357  26.370  23.491  1.00  0.00     0.031 A 
ATOM     15  C   UNL A   1      30.875  25.550  25.243  1.00  0.00    -0.049 A 
ATOM     16  C   UNL A   1      31.156  26.449  24.207  1.00  0.00     0.006 A 
ATOM     17  C   UNL A   1      29.511  25.506  25.877  1.00  0.00     0.044 C 
BRANCH   9  18
ATOM     18  C   UNL A   1      33.563  21.900  24.872  1.00  0.00     0.135 C 
BRANCH  18  19
ATOM     19  C   UNL A   1      32.839  20.907  23.962  1.00  0.00     0.122 C 
BRANCH  19  20
ATOM     20  C   UNL A   1      32.534  19.565  24.589  1.00  0.00     0.221 C 
ATOM     21  C   UNL A   1      32.438  18.238  22.419  1.00  0.00     0.142 C 
ATOM     22  N   UNL A   1      32.246  18.480  23.825  1.00  0.00    -0.359 N 
ATOM     23  H   UNL A   1      31.835  17.732  24.316  1.00  0.00     0.163 HD
ATOM     24  O   UNL A   1      32.529  19.455  25.816  1.00  0.00    -0.275 OA
ENDBRANCH  19  20
ENDBRANCH  18  19
ENDBRANCH   9  18
ENDBRANCH   7   8
ENDBRANCH   6   7
ENDBRANCH   3   6
ENDBRANCH   1   2
BRANCH   1  25
ATOM     25  C   UNL A   1      40.681  21.597  27.055  1.00  0.00     0.023 C 
BRANCH  25  26
ATOM     26  C   UNL A   1      40.855  20.174  26.507  1.00  0.00     0.023 C 
BRANCH  26  27
ATOM     27  C   UNL A   1      42.267  19.594  26.641  1.00  0.00     0.116 C 
BRANCH  27  28
ATOM     28  N   UNL A   1      43.116  19.824  25.490  1.00  0.00    -0.352 N 
ATOM     29  C   UNL A   1      43.913  20.861  25.082  1.00  0.00     0.251 C 
ATOM     30  H   UNL A   1      43.121  19.067  24.860  1.00  0.00     0.163 HD
ATOM     31  O   UNL A   1      44.660  20.624  24.128  1.00  0.00    -0.269 OA
BRANCH  29  32
ATOM     32  C   UNL A   1      43.888  22.236  25.655  1.00  0.00     0.039 A 
ATOM     33  C   UNL A   1      44.537  22.636  26.822  1.00  0.00     0.014 A 
ATOM     34  C   UNL A   1      43.066  23.169  24.994  1.00  0.00     0.014 A 
ATOM     35  C   UNL A   1      44.274  23.879  27.385  1.00  0.00     0.010 A 
ATOM     36  C   UNL A   1      42.819  24.426  25.540  1.00  0.00     0.010 A 
ATOM     37  C   UNL A   1      43.379  24.755  26.770  1.00  0.00    -0.014 A 
BRANCH  37  38
ATOM     38  C   UNL A   1      43.096  26.008  27.461  1.00  0.00     0.031 A 
ATOM     39  C   UNL A   1      44.081  27.107  27.255  1.00  0.00     0.074 A 
ATOM     40  C   UNL A   1      42.003  26.202  28.225  1.00  0.00     0.049 A 
ATOM     41  N   UNL A   1      44.810  27.698  28.144  1.00  0.00    -0.248 NA
ATOM     42  C   UNL A   1      44.352  27.532  25.876  1.00  0.00     0.031 C 
ATOM     43  C   UNL A   1      40.819  25.351  28.356  1.00  0.00     0.029 A 
ATOM     44  N   UNL A   1      41.686  27.292  28.977  1.00  0.00    -0.354 N 
ATOM     45  C   UNL A   1      45.547  28.669  27.468  1.00  0.00     0.074 A 
ATOM     46  C   UNL A   1      45.296  28.457  26.063  1.00  0.00     0.031 C 
ATOM     47  C   UNL A   1      39.823  26.068  28.928  1.00  0.00     0.029 A 
ATOM     48  C   UNL A   1      40.348  27.362  29.331  1.00  0.00     0.049 A 
ATOM     49  H   UNL A   1      42.349  27.969  29.246  1.00  0.00     0.167 HD
ATOM     50  C   UNL A   1      46.219  29.666  28.110  1.00  0.00     0.031 A 
ATOM     51  C   UNL A   1      39.704  28.447  29.828  1.00  0.00     0.031 A 
ATOM     52  C   UNL A   1      46.384  29.392  29.511  1.00  0.00     0.049 A 
ATOM     53  C   UNL A   1      40.729  29.329  30.439  1.00  0.00     0.074 A 
ATOM     54  C   UNL A   1      47.051  28.421  30.230  1.00  0.00     0.029 A 
ATOM     55  N   UNL A   1      45.511  29.983  30.393  1.00  0.00    -0.354 N 
ATOM     56  N   UNL A   1      41.401  29.014  31.511  1.00  0.00    -0.248 NA
ATOM     57  C   UNL A   1      41.312  30.386  29.627  1.00  0.00     0.031 C 
ATOM     58  C   UNL A   1      46.212  28.149  31.346  1.00  0.00     0.029 A 
ATOM     59  C   UNL A   1      45.113  29.008  31.274  1.00  0.00     0.049 A 
ATOM     60  H   UNL A   1      45.226  30.926  30.394  1.00  0.00     0.167 HD
ATOM     61  C   UNL A   1      42.679  29.500  31.282  1.00  0.00     0.074 A 
ATOM     62  C   UNL A   1      42.536  30.430  30.163  1.00  0.00     0.031 C 
ATOM     63  C   UNL A   1      43.779  28.902  31.832  1.00  0.00     0.031 A 
BRANCH  50  64
ATOM     64  C   UNL A   1      46.528  31.012  27.511  1.00  0.00    -0.014 A 
ATOM     65  C   UNL A   1      45.599  32.072  27.508  1.00  0.00     0.010 A 
ATOM     66  C   UNL A   1      47.854  31.324  27.146  1.00  0.00     0.010 A 
ATOM     67  C   UNL A   1      45.959  33.371  27.145  1.00  0.00     0.020 A 
ATOM     68  C   UNL A   1      48.236  32.635  26.820  1.00  0.00     0.020 A 
ATOM     69  C   UNL A   1      47.282  33.649  26.819  1.00  0.00     0.054 A 
BRANCH  69  70
ATOM     70  S   UNL A   1      47.734  35.371  26.491  1.00  0.00     0.124 S 
ATOM     71  O   UNL A   1      48.030  35.337  25.061  1.00  0.00    -0.237 OA
ATOM     72  O   UNL A   1      46.520  36.090  26.867  1.00  0.00    -0.237 OA
ATOM     73  O   UNL A   1      48.884  35.596  27.363  1.00  0.00    -0.744 OA
ENDBRANCH  69  70
ENDBRANCH  50  64
BRANCH  51  74
ATOM     74  C   UNL A   1      38.376  28.951  29.391  1.00  0.00    -0.014 A 
ATOM     75  C   UNL A   1      38.167  29.318  28.045  1.00  0.00     0.010 A 
ATOM     76  C   UNL A   1      37.423  29.365  30.340  1.00  0.00     0.010 A 
ATOM     77  C   UNL A   1      37.110  30.151  27.674  1.00  0.00     0.020 A 
ATOM     78  C   UNL A   1      36.362  30.209  29.975  1.00  0.00     0.020 A 
ATOM     79  C   UNL A   1      36.242  30.632  28.650  1.00  0.00     0.054 A 
BRANCH  79  80
ATOM     80  S   UNL A   1      35.036  31.901  28.175  1.00  0.00     0.124 S 
ATOM     81  O   UNL A   1      34.435  32.239  29.467  1.00  0.00    -0.237 OA
ATOM     82  O   UNL A   1      35.889  32.945  27.598  1.00  0.00    -0.237 OA
ATOM     83  O   UNL A   1      34.164  31.224  27.235  1.00  0.00    -0.744 OA
ENDBRANCH  79  80
ENDBRANCH  51  74
BRANCH  63  84
ATOM     84  C   UNL A   1      43.583  27.829  32.887  1.00  0.00    -0.014 A 
ATOM     85  C   UNL A   1      43.433  28.242  34.224  1.00  0.00     0.010 A 
ATOM     86  C   UNL A   1      43.752  26.453  32.632  1.00  0.00     0.010 A 
ATOM     87  C   UNL A   1      43.487  27.320  35.274  1.00  0.00     0.020 A 
ATOM     88  C   UNL A   1      43.777  25.518  33.679  1.00  0.00     0.020 A 
ATOM     89  C   UNL A   1      43.675  25.965  34.998  1.00  0.00     0.054 A 
BRANCH  89  90
ATOM     90  S   UNL A   1      43.800  24.806  36.388  1.00  0.00     0.124 S 
ATOM     91  O   UNL A   1      44.114  23.546  35.714  1.00  0.00    -0.237 OA
ATOM     92  O   UNL A   1      44.886  25.368  37.190  1.00  0.00    -0.237 OA
ATOM     93  O   UNL A   1      42.483  24.862  37.016  1.00  0.00    -0.744 OA
ENDBRANCH  89  90
ENDBRANCH  63  84
ENDBRANCH  37  38
ENDBRANCH  29  32
ENDBRANCH  27  28
ENDBRANCH  26  27
ENDBRANCH  25  26
ENDBRANCH   1  25
TORSDOF 19
ENDMDL
