MODEL 1
REMARK VINA RESULT:     -12.6      0.000      0.000
REMARK SMILES O=C(CNC(=O)[C@@H](CC1=c2ccccc2=NC1)N1C(=O)N=C2C=CC=C[C@H]2C1=O)NCCCCNC(=O)c1ccc(-c2c3nc(c(-c4ccc(S(=O)(=O)[O-])cc4)c4ccc([nH]4)c(-c4ccc(S(=O)(=O)[O-])cc4)c4nc(c(-c5ccc(S(=O)(=O)[O-])cc5)c5ccc2[nH]5)C=C4)C=C3)cc1
REMARK SMILES IDX 32 1 31 2 30 3 1 4 2 5 3 7 4 8 5 9 6 11 7 12 8 13 9 14 10 15
REMARK SMILES IDX 17 16 11 17 15 18 16 19 12 20 14 21 13 22 18 23 19 24 28 25
REMARK SMILES IDX 21 26 20 27 27 28 29 29 22 30 26 31 23 32 25 33 24 34 33 35
REMARK SMILES IDX 34 36 35 37 36 38 37 40 38 41 39 42 97 43 40 44 96 45 41 46
REMARK SMILES IDX 42 47 43 48 90 49 44 50 95 51 89 52 91 53 45 54 94 55 88 56
REMARK SMILES IDX 87 57 46 59 76 60 57 61 75 62 58 63 61 64 74 65 92 66 59 67
REMARK SMILES IDX 60 68 73 70 93 71 62 72 47 73 48 74 56 75 49 76 55 77 50 78
REMARK SMILES IDX 51 79 52 80 53 81 54 82 77 83 78 84 86 85 79 86 85 87 80 88
REMARK SMILES IDX 81 89 82 90 83 91 84 92 63 93 64 94 72 95 65 96 71 97 66 98
REMARK SMILES IDX 67 99 68 100 69 101 70 102
REMARK H PARENT 30 6 4 10 35 39 91 58 61 69
REMARK Flexibility Score: inf
ROOT
ATOM      1  C   UNL A   1      41.097  22.178  27.767  1.00  0.00     0.023 C 
ENDROOT
BRANCH   1   2
ATOM      2  C   UNL A   1      40.124  21.681  26.698  1.00  0.00     0.116 C 
BRANCH   2   3
ATOM      3  N   UNL A   1      39.204  22.698  26.223  1.00  0.00    -0.355 N 
ATOM      4  O   UNL A   1      37.789  21.255  25.126  1.00  0.00    -0.273 OA
ATOM      5  C   UNL A   1      38.066  22.393  25.496  1.00  0.00     0.239 C 
ATOM      6  H   UNL A   1      39.396  23.642  26.427  1.00  0.00     0.163 HD
BRANCH   5   7
ATOM      7  C   UNL A   1      37.103  23.569  25.263  1.00  0.00     0.216 C 
BRANCH   7   8
ATOM      8  N   UNL A   1      35.757  23.141  24.905  1.00  0.00    -0.345 N 
ATOM      9  C   UNL A   1      35.270  23.440  23.648  1.00  0.00     0.244 C 
ATOM     10  H   UNL A   1      35.202  22.645  25.549  1.00  0.00     0.164 HD
ATOM     11  O   UNL A   1      35.887  23.088  22.645  1.00  0.00    -0.273 OA
BRANCH   9  12
ATOM     12  C   UNL A   1      33.825  23.970  23.624  1.00  0.00     0.188 C 
BRANCH  12  13
ATOM     13  C   UNL A   1      32.677  23.112  24.225  1.00  0.00     0.069 C 
BRANCH  13  14
ATOM     14  C   UNL A   1      32.702  21.649  24.580  1.00  0.00    -0.037 C 
ATOM     15  C   UNL A   1      32.466  20.672  23.697  1.00  0.00     0.001 A 
ATOM     16  C   UNL A   1      33.085  21.037  25.893  1.00  0.00     0.174 C 
ATOM     17  C   UNL A   1      32.026  20.625  22.337  1.00  0.00     0.010 A 
ATOM     18  C   UNL A   1      32.891  19.454  24.404  1.00  0.00     0.065 A 
ATOM     19  N   UNL A   1      33.269  19.583  25.637  1.00  0.00    -0.280 NA
ATOM     20  C   UNL A   1      32.028  19.445  21.694  1.00  0.00     0.001 A 
ATOM     21  C   UNL A   1      32.907  18.201  23.619  1.00  0.00     0.028 A 
ATOM     22  C   UNL A   1      32.504  18.233  22.337  1.00  0.00     0.002 A 
ENDBRANCH  13  14
ENDBRANCH  12  13
BRANCH  12  23
ATOM     23  N   UNL A   1      33.722  25.406  23.937  1.00  0.00    -0.249 N 
ATOM     24  C   UNL A   1      33.602  26.273  22.854  1.00  0.00     0.351 C 
ATOM     25  C   UNL A   1      33.724  25.823  25.253  1.00  0.00     0.244 C 
ATOM     26  N   UNL A   1      33.283  27.580  23.074  1.00  0.00    -0.197 NA
ATOM     27  O   UNL A   1      33.703  25.866  21.703  1.00  0.00    -0.246 OA
ATOM     28  C   UNL A   1      33.722  27.321  25.487  1.00  0.00     0.151 C 
ATOM     29  O   UNL A   1      33.817  25.037  26.198  1.00  0.00    -0.273 OA
ATOM     30  C   UNL A   1      33.261  28.074  24.264  1.00  0.00     0.062 C 
ATOM     31  C   UNL A   1      32.889  27.723  26.685  1.00  0.00    -0.007 C 
ATOM     32  C   UNL A   1      32.751  29.457  24.424  1.00  0.00     0.025 C 
ATOM     33  C   UNL A   1      32.194  28.871  26.719  1.00  0.00    -0.003 C 
ATOM     34  C   UNL A   1      32.230  29.793  25.610  1.00  0.00     0.002 C 
ENDBRANCH  12  23
ENDBRANCH   9  12
ENDBRANCH   7   8
ENDBRANCH   5   7
ENDBRANCH   2   3
ENDBRANCH   1   2
BRANCH   1  35
ATOM     35  C   UNL A   1      42.574  22.141  27.384  1.00  0.00     0.023 C 
BRANCH  35  36
ATOM     36  C   UNL A   1      43.220  23.478  27.053  1.00  0.00     0.116 C 
BRANCH  36  37
ATOM     37  N   UNL A   1      42.527  24.222  26.014  1.00  0.00    -0.352 N 
ATOM     38  C   UNL A   1      41.795  25.388  26.103  1.00  0.00     0.251 C 
ATOM     39  H   UNL A   1      42.588  23.835  25.110  1.00  0.00     0.163 HD
ATOM     40  O   UNL A   1      41.200  25.805  25.113  1.00  0.00    -0.269 OA
BRANCH  38  41
ATOM     41  C   UNL A   1      41.677  26.109  27.396  1.00  0.00     0.039 A 
ATOM     42  C   UNL A   1      40.656  25.813  28.299  1.00  0.00     0.014 A 
ATOM     43  C   UNL A   1      42.591  27.125  27.697  1.00  0.00     0.014 A 
ATOM     44  C   UNL A   1      40.421  26.659  29.380  1.00  0.00     0.010 A 
ATOM     45  C   UNL A   1      42.415  27.908  28.846  1.00  0.00     0.010 A 
ATOM     46  C   UNL A   1      41.293  27.723  29.666  1.00  0.00    -0.014 A 
BRANCH  46  47
ATOM     47  C   UNL A   1      40.997  28.622  30.817  1.00  0.00     0.031 A 
ATOM     48  C   UNL A   1      41.862  28.605  32.054  1.00  0.00     0.074 A 
ATOM     49  C   UNL A   1      39.988  29.513  30.720  1.00  0.00     0.049 A 
ATOM     50  N   UNL A   1      41.760  29.337  33.135  1.00  0.00    -0.248 NA
ATOM     51  C   UNL A   1      42.986  27.653  32.087  1.00  0.00     0.031 C 
ATOM     52  C   UNL A   1      39.091  29.643  29.569  1.00  0.00     0.029 A 
ATOM     53  N   UNL A   1      39.566  30.497  31.580  1.00  0.00    -0.354 N 
ATOM     54  C   UNL A   1      42.789  28.928  33.976  1.00  0.00     0.074 A 
ATOM     55  C   UNL A   1      43.489  27.861  33.298  1.00  0.00     0.031 C 
ATOM     56  C   UNL A   1      38.269  30.683  29.766  1.00  0.00     0.029 A 
ATOM     57  C   UNL A   1      38.522  31.249  31.087  1.00  0.00     0.049 A 
ATOM     58  H   UNL A   1      39.970  30.651  32.464  1.00  0.00     0.167 HD
ATOM     59  C   UNL A   1      43.130  29.412  35.194  1.00  0.00     0.031 A 
ATOM     60  C   UNL A   1      37.828  32.267  31.634  1.00  0.00     0.031 A 
ATOM     61  C   UNL A   1      42.446  30.492  35.857  1.00  0.00     0.049 A 
ATOM     62  C   UNL A   1      38.202  32.758  33.004  1.00  0.00     0.074 A 
ATOM     63  C   UNL A   1      42.729  31.050  37.092  1.00  0.00     0.029 A 
ATOM     64  N   UNL A   1      41.363  31.188  35.342  1.00  0.00    -0.354 N 
ATOM     65  N   UNL A   1      39.176  32.348  33.781  1.00  0.00    -0.248 NA
ATOM     66  C   UNL A   1      37.389  33.841  33.575  1.00  0.00     0.031 C 
ATOM     67  C   UNL A   1      41.782  32.041  37.351  1.00  0.00     0.029 A 
ATOM     68  C   UNL A   1      40.952  32.153  36.247  1.00  0.00     0.049 A 
ATOM     69  H   UNL A   1      40.947  31.021  34.466  1.00  0.00     0.167 HD
ATOM     70  C   UNL A   1      39.097  33.129  34.928  1.00  0.00     0.074 A 
ATOM     71  C   UNL A   1      37.998  34.052  34.734  1.00  0.00     0.031 C 
ATOM     72  C   UNL A   1      39.861  33.073  36.045  1.00  0.00     0.031 A 
BRANCH  59  73
ATOM     73  C   UNL A   1      44.310  28.807  35.912  1.00  0.00    -0.014 A 
ATOM     74  C   UNL A   1      44.096  27.850  36.923  1.00  0.00     0.010 A 
ATOM     75  C   UNL A   1      45.607  29.308  35.707  1.00  0.00     0.010 A 
ATOM     76  C   UNL A   1      45.147  27.444  37.751  1.00  0.00     0.020 A 
ATOM     77  C   UNL A   1      46.667  28.883  36.516  1.00  0.00     0.020 A 
ATOM     78  C   UNL A   1      46.423  27.977  37.552  1.00  0.00     0.054 A 
BRANCH  78  79
ATOM     79  S   UNL A   1      47.760  27.491  38.679  1.00  0.00     0.124 S 
ATOM     80  O   UNL A   1      47.260  26.234  39.226  1.00  0.00    -0.237 OA
ATOM     81  O   UNL A   1      48.907  27.380  37.781  1.00  0.00    -0.237 OA
ATOM     82  O   UNL A   1      47.829  28.603  39.625  1.00  0.00    -0.744 OA
ENDBRANCH  78  79
ENDBRANCH  59  73
BRANCH  60  83
ATOM     83  C   UNL A   1      36.704  32.874  30.867  1.00  0.00    -0.014 A 
ATOM     84  C   UNL A   1      36.971  33.799  29.839  1.00  0.00     0.010 A 
ATOM     85  C   UNL A   1      35.368  32.596  31.203  1.00  0.00     0.010 A 
ATOM     86  C   UNL A   1      35.930  34.479  29.205  1.00  0.00     0.020 A 
ATOM     87  C   UNL A   1      34.320  33.250  30.544  1.00  0.00     0.020 A 
ATOM     88  C   UNL A   1      34.610  34.210  29.571  1.00  0.00     0.054 A 
BRANCH  88  89
ATOM     89  S   UNL A   1      33.275  35.134  28.762  1.00  0.00     0.124 S 
ATOM     90  O   UNL A   1      32.646  34.098  27.949  1.00  0.00    -0.237 OA
ATOM     91  O   UNL A   1      32.485  35.613  29.895  1.00  0.00    -0.237 OA
ATOM     92  O   UNL A   1      33.983  36.172  28.017  1.00  0.00    -0.744 OA
ENDBRANCH  88  89
ENDBRANCH  60  83
BRANCH  72  93
ATOM     93  C   UNL A   1      39.559  34.030  37.168  1.00  0.00    -0.014 A 
ATOM     94  C   UNL A   1      40.199  35.284  37.209  1.00  0.00     0.010 A 
ATOM     95  C   UNL A   1      38.761  33.632  38.255  1.00  0.00     0.010 A 
ATOM     96  C   UNL A   1      40.081  36.103  38.333  1.00  0.00     0.020 A 
ATOM     97  C   UNL A   1      38.618  34.463  39.370  1.00  0.00     0.020 A 
ATOM     98  C   UNL A   1      39.301  35.681  39.413  1.00  0.00     0.054 A 
BRANCH  98  99
ATOM     99  S   UNL A   1      39.200  36.736  40.885  1.00  0.00     0.124 S 
ATOM    100  O   UNL A   1      40.608  36.966  41.195  1.00  0.00    -0.237 OA
ATOM    101  O   UNL A   1      38.463  37.899  40.395  1.00  0.00    -0.237 OA
ATOM    102  O   UNL A   1      38.475  35.911  41.848  1.00  0.00    -0.744 OA
ENDBRANCH  98  99
ENDBRANCH  72  93
ENDBRANCH  46  47
ENDBRANCH  38  41
ENDBRANCH  36  37
ENDBRANCH  35  36
ENDBRANCH   1  35
TORSDOF 19
ENDMDL
MODEL 2
REMARK VINA RESULT:     -12.4      0.392      7.697
REMARK SMILES O=C(CNC(=O)[C@@H](CC1=c2ccccc2=NC1)N1C(=O)N=C2C=CC=C[C@H]2C1=O)NCCCCNC(=O)c1ccc(-c2c3nc(c(-c4ccc(S(=O)(=O)[O-])cc4)c4ccc([nH]4)c(-c4ccc(S(=O)(=O)[O-])cc4)c4nc(c(-c5ccc(S(=O)(=O)[O-])cc5)c5ccc2[nH]5)C=C4)C=C3)cc1
REMARK SMILES IDX 32 1 31 2 30 3 1 4 2 5 3 7 4 8 5 9 6 11 7 12 8 13 9 14 10 15
REMARK SMILES IDX 17 16 11 17 15 18 16 19 12 20 14 21 13 22 18 23 19 24 28 25
REMARK SMILES IDX 21 26 20 27 27 28 29 29 22 30 26 31 23 32 25 33 24 34 33 35
REMARK SMILES IDX 34 36 35 37 36 38 37 40 38 41 39 42 97 43 40 44 96 45 41 46
REMARK SMILES IDX 42 47 43 48 90 49 44 50 95 51 89 52 91 53 45 54 94 55 88 56
REMARK SMILES IDX 87 57 46 59 76 60 57 61 75 62 58 63 61 64 74 65 92 66 59 67
REMARK SMILES IDX 60 68 73 70 93 71 62 72 47 73 48 74 56 75 49 76 55 77 50 78
REMARK SMILES IDX 51 79 52 80 53 81 54 82 77 83 78 84 86 85 79 86 85 87 80 88
REMARK SMILES IDX 81 89 82 90 83 91 84 92 63 93 64 94 72 95 65 96 71 97 66 98
REMARK SMILES IDX 67 99 68 100 69 101 70 102
REMARK H PARENT 30 6 4 10 35 39 91 58 61 69
REMARK Flexibility Score: inf
ROOT
ATOM      1  C   UNL A   1      40.842  21.986  27.610  1.00  0.00     0.023 C 
ENDROOT
BRANCH   1   2
ATOM      2  C   UNL A   1      39.948  21.584  26.438  1.00  0.00     0.116 C 
BRANCH   2   3
ATOM      3  N   UNL A   1      39.015  22.618  26.029  1.00  0.00    -0.355 N 
ATOM      4  O   UNL A   1      37.479  21.199  25.073  1.00  0.00    -0.273 OA
ATOM      5  C   UNL A   1      37.813  22.334  25.404  1.00  0.00     0.239 C 
ATOM      6  H   UNL A   1      39.246  23.559  26.204  1.00  0.00     0.163 HD
BRANCH   5   7
ATOM      7  C   UNL A   1      36.862  23.530  25.239  1.00  0.00     0.216 C 
BRANCH   7   8
ATOM      8  N   UNL A   1      35.527  23.141  24.801  1.00  0.00    -0.345 N 
ATOM      9  C   UNL A   1      35.141  23.414  23.504  1.00  0.00     0.244 C 
ATOM     10  H   UNL A   1      34.910  22.690  25.420  1.00  0.00     0.164 HD
ATOM     11  O   UNL A   1      35.811  23.004  22.558  1.00  0.00    -0.273 OA
BRANCH   9  12
ATOM     12  C   UNL A   1      33.723  23.997  23.361  1.00  0.00     0.188 C 
BRANCH  12  13
ATOM     13  C   UNL A   1      32.489  23.133  23.743  1.00  0.00     0.069 C 
BRANCH  13  14
ATOM     14  C   UNL A   1      32.477  21.753  24.344  1.00  0.00    -0.037 C 
ATOM     15  C   UNL A   1      32.350  20.635  23.620  1.00  0.00     0.001 A 
ATOM     16  C   UNL A   1      32.702  21.381  25.778  1.00  0.00     0.174 C 
ATOM     17  C   UNL A   1      32.074  20.347  22.246  1.00  0.00     0.010 A 
ATOM     18  C   UNL A   1      32.690  19.564  24.570  1.00  0.00     0.065 A 
ATOM     19  N   UNL A   1      32.919  19.909  25.798  1.00  0.00    -0.280 NA
ATOM     20  C   UNL A   1      32.156  19.076  21.819  1.00  0.00     0.001 A 
ATOM     21  C   UNL A   1      32.803  18.197  24.018  1.00  0.00     0.028 A 
ATOM     22  C   UNL A   1      32.556  18.001  22.712  1.00  0.00     0.002 A 
ENDBRANCH  13  14
ENDBRANCH  12  13
BRANCH  12  23
ATOM     23  N   UNL A   1      33.622  25.402  23.790  1.00  0.00    -0.249 N 
ATOM     24  C   UNL A   1      33.581  26.362  22.781  1.00  0.00     0.351 C 
ATOM     25  C   UNL A   1      33.548  25.706  25.135  1.00  0.00     0.244 C 
ATOM     26  N   UNL A   1      33.268  27.651  23.093  1.00  0.00    -0.197 NA
ATOM     27  O   UNL A   1      33.747  26.052  21.607  1.00  0.00    -0.246 OA
ATOM     28  C   UNL A   1      33.553  27.178  25.497  1.00  0.00     0.151 C 
ATOM     29  O   UNL A   1      33.571  24.840  26.012  1.00  0.00    -0.273 OA
ATOM     30  C   UNL A   1      33.179  28.041  24.318  1.00  0.00     0.062 C 
ATOM     31  C   UNL A   1      32.653  27.492  26.673  1.00  0.00    -0.007 C 
ATOM     32  C   UNL A   1      32.681  29.415  24.566  1.00  0.00     0.025 C 
ATOM     33  C   UNL A   1      31.974  28.647  26.764  1.00  0.00    -0.003 C 
ATOM     34  C   UNL A   1      32.092  29.659  25.743  1.00  0.00     0.002 C 
ENDBRANCH  12  23
ENDBRANCH   9  12
ENDBRANCH   7   8
ENDBRANCH   5   7
ENDBRANCH   2   3
ENDBRANCH   1   2
BRANCH   1  35
ATOM     35  C   UNL A   1      42.345  21.901  27.354  1.00  0.00     0.023 C 
BRANCH  35  36
ATOM     36  C   UNL A   1      43.071  23.223  27.147  1.00  0.00     0.116 C 
BRANCH  36  37
ATOM     37  N   UNL A   1      42.542  24.015  26.048  1.00  0.00    -0.352 N 
ATOM     38  C   UNL A   1      41.972  25.271  26.060  1.00  0.00     0.251 C 
ATOM     39  H   UNL A   1      42.598  23.590  25.161  1.00  0.00     0.163 HD
ATOM     40  O   UNL A   1      41.493  25.728  25.026  1.00  0.00    -0.269 OA
BRANCH  38  41
ATOM     41  C   UNL A   1      41.885  26.048  27.323  1.00  0.00     0.039 A 
ATOM     42  C   UNL A   1      40.883  25.795  28.260  1.00  0.00     0.014 A 
ATOM     43  C   UNL A   1      42.807  27.074  27.560  1.00  0.00     0.014 A 
ATOM     44  C   UNL A   1      40.674  26.688  29.308  1.00  0.00     0.010 A 
ATOM     45  C   UNL A   1      42.659  27.906  28.676  1.00  0.00     0.010 A 
ATOM     46  C   UNL A   1      41.554  27.761  29.528  1.00  0.00    -0.014 A 
BRANCH  46  47
ATOM     47  C   UNL A   1      41.286  28.710  30.645  1.00  0.00     0.031 A 
ATOM     48  C   UNL A   1      40.151  29.702  30.562  1.00  0.00     0.074 A 
ATOM     49  C   UNL A   1      42.023  28.632  31.773  1.00  0.00     0.049 A 
ATOM     50  N   UNL A   1      39.766  30.582  31.452  1.00  0.00    -0.248 NA
ATOM     51  C   UNL A   1      39.341  29.710  29.332  1.00  0.00     0.031 C 
ATOM     52  C   UNL A   1      43.136  27.702  31.985  1.00  0.00     0.029 A 
ATOM     53  N   UNL A   1      41.931  29.312  32.962  1.00  0.00    -0.354 N 
ATOM     54  C   UNL A   1      38.686  31.253  30.889  1.00  0.00     0.074 A 
ATOM     55  C   UNL A   1      38.492  30.703  29.566  1.00  0.00     0.031 C 
ATOM     56  C   UNL A   1      43.581  27.827  33.243  1.00  0.00     0.029 A 
ATOM     57  C   UNL A   1      42.842  28.897  33.907  1.00  0.00     0.049 A 
ATOM     58  H   UNL A   1      41.276  30.029  33.124  1.00  0.00     0.167 HD
ATOM     59  C   UNL A   1      37.915  32.223  31.433  1.00  0.00     0.031 A 
ATOM     60  C   UNL A   1      43.078  29.332  35.161  1.00  0.00     0.031 A 
ATOM     61  C   UNL A   1      38.094  32.752  32.760  1.00  0.00     0.049 A 
ATOM     62  C   UNL A   1      42.234  30.439  35.726  1.00  0.00     0.074 A 
ATOM     63  C   UNL A   1      37.354  33.735  33.395  1.00  0.00     0.029 A 
ATOM     64  N   UNL A   1      39.063  32.337  33.662  1.00  0.00    -0.354 N 
ATOM     65  N   UNL A   1      41.223  31.060  35.169  1.00  0.00    -0.248 NA
ATOM     66  C   UNL A   1      42.558  30.906  37.081  1.00  0.00     0.031 C 
ATOM     67  C   UNL A   1      37.911  33.958  34.655  1.00  0.00     0.029 A 
ATOM     68  C   UNL A   1      38.952  33.062  34.837  1.00  0.00     0.049 A 
ATOM     69  H   UNL A   1      39.730  31.633  33.492  1.00  0.00     0.167 HD
ATOM     70  C   UNL A   1      40.786  31.987  36.108  1.00  0.00     0.074 A 
ATOM     71  C   UNL A   1      41.623  31.826  37.278  1.00  0.00     0.031 C 
ATOM     72  C   UNL A   1      39.786  32.895  36.000  1.00  0.00     0.031 A 
BRANCH  59  73
ATOM     73  C   UNL A   1      36.778  32.790  30.619  1.00  0.00    -0.014 A 
ATOM     74  C   UNL A   1      37.006  33.896  29.778  1.00  0.00     0.010 A 
ATOM     75  C   UNL A   1      35.461  32.340  30.818  1.00  0.00     0.010 A 
ATOM     76  C   UNL A   1      35.933  34.575  29.192  1.00  0.00     0.020 A 
ATOM     77  C   UNL A   1      34.387  33.001  30.211  1.00  0.00     0.020 A 
ATOM     78  C   UNL A   1      34.629  34.132  29.426  1.00  0.00     0.054 A 
BRANCH  78  79
ATOM     79  S   UNL A   1      33.246  35.066  28.714  1.00  0.00     0.124 S 
ATOM     80  O   UNL A   1      32.586  34.059  27.889  1.00  0.00    -0.237 OA
ATOM     81  O   UNL A   1      32.508  35.494  29.900  1.00  0.00    -0.237 OA
ATOM     82  O   UNL A   1      33.904  36.144  27.980  1.00  0.00    -0.744 OA
ENDBRANCH  78  79
ENDBRANCH  59  73
BRANCH  60  83
ATOM     83  C   UNL A   1      44.176  28.706  35.952  1.00  0.00    -0.014 A 
ATOM     84  C   UNL A   1      45.491  29.201  35.846  1.00  0.00     0.010 A 
ATOM     85  C   UNL A   1      43.936  27.574  36.750  1.00  0.00     0.010 A 
ATOM     86  C   UNL A   1      46.551  28.543  36.471  1.00  0.00     0.020 A 
ATOM     87  C   UNL A   1      44.993  26.934  37.407  1.00  0.00     0.020 A 
ATOM     88  C   UNL A   1      46.298  27.404  37.237  1.00  0.00     0.054 A 
BRANCH  88  89
ATOM     89  S   UNL A   1      47.696  26.542  38.007  1.00  0.00     0.124 S 
ATOM     90  O   UNL A   1      48.641  26.460  36.898  1.00  0.00    -0.237 OA
ATOM     91  O   UNL A   1      48.073  27.446  39.091  1.00  0.00    -0.237 OA
ATOM     92  O   UNL A   1      47.118  25.270  38.433  1.00  0.00    -0.744 OA
ENDBRANCH  88  89
ENDBRANCH  60  83
BRANCH  72  93
ATOM     93  C   UNL A   1      39.518  33.806  37.169  1.00  0.00    -0.014 A 
ATOM     94  C   UNL A   1      40.231  35.014  37.290  1.00  0.00     0.010 A 
ATOM     95  C   UNL A   1      38.676  33.398  38.218  1.00  0.00     0.010 A 
ATOM     96  C   UNL A   1      40.139  35.777  38.456  1.00  0.00     0.020 A 
ATOM     97  C   UNL A   1      38.560  34.174  39.375  1.00  0.00     0.020 A 
ATOM     98  C   UNL A   1      39.314  35.344  39.497  1.00  0.00     0.054 A 
BRANCH  98  99
ATOM     99  S   UNL A   1      39.245  36.322  41.024  1.00  0.00     0.124 S 
ATOM    100  O   UNL A   1      38.761  37.611  40.541  1.00  0.00    -0.237 OA
ATOM    101  O   UNL A   1      38.305  35.564  41.847  1.00  0.00    -0.237 OA
ATOM    102  O   UNL A   1      40.626  36.311  41.500  1.00  0.00    -0.744 OA
ENDBRANCH  98  99
ENDBRANCH  72  93
ENDBRANCH  46  47
ENDBRANCH  38  41
ENDBRANCH  36  37
ENDBRANCH  35  36
ENDBRANCH   1  35
TORSDOF 19
ENDMDL
MODEL 3
REMARK VINA RESULT:     -11.8      2.739      9.576
REMARK SMILES O=C(CNC(=O)[C@@H](CC1=c2ccccc2=NC1)N1C(=O)N=C2C=CC=C[C@H]2C1=O)NCCCCNC(=O)c1ccc(-c2c3nc(c(-c4ccc(S(=O)(=O)[O-])cc4)c4ccc([nH]4)c(-c4ccc(S(=O)(=O)[O-])cc4)c4nc(c(-c5ccc(S(=O)(=O)[O-])cc5)c5ccc2[nH]5)C=C4)C=C3)cc1
REMARK SMILES IDX 32 1 31 2 30 3 1 4 2 5 3 7 4 8 5 9 6 11 7 12 8 13 9 14 10 15
REMARK SMILES IDX 17 16 11 17 15 18 16 19 12 20 14 21 13 22 18 23 19 24 28 25
REMARK SMILES IDX 21 26 20 27 27 28 29 29 22 30 26 31 23 32 25 33 24 34 33 35
REMARK SMILES IDX 34 36 35 37 36 38 37 40 38 41 39 42 97 43 40 44 96 45 41 46
REMARK SMILES IDX 42 47 43 48 90 49 44 50 95 51 89 52 91 53 45 54 94 55 88 56
REMARK SMILES IDX 87 57 46 59 76 60 57 61 75 62 58 63 61 64 74 65 92 66 59 67
REMARK SMILES IDX 60 68 73 70 93 71 62 72 47 73 48 74 56 75 49 76 55 77 50 78
REMARK SMILES IDX 51 79 52 80 53 81 54 82 77 83 78 84 86 85 79 86 85 87 80 88
REMARK SMILES IDX 81 89 82 90 83 91 84 92 63 93 64 94 72 95 65 96 71 97 66 98
REMARK SMILES IDX 67 99 68 100 69 101 70 102
REMARK H PARENT 30 6 4 10 35 39 91 58 61 69
REMARK Flexibility Score: inf
ROOT
ATOM      1  C   UNL A   1      35.158  32.823  29.047  1.00  0.00     0.023 C 
ENDROOT
BRANCH   1   2
ATOM      2  C   UNL A   1      35.592  31.822  27.978  1.00  0.00     0.116 C 
BRANCH   2   3
ATOM      3  N   UNL A   1      34.510  30.994  27.475  1.00  0.00    -0.355 N 
ATOM      4  O   UNL A   1      35.773  29.098  27.168  1.00  0.00    -0.273 OA
ATOM      5  C   UNL A   1      34.683  29.662  27.143  1.00  0.00     0.239 C 
ATOM      6  H   UNL A   1      33.618  31.397  27.367  1.00  0.00     0.163 HD
BRANCH   5   7
ATOM      7  C   UNL A   1      33.388  28.891  26.834  1.00  0.00     0.216 C 
BRANCH   7   8
ATOM      8  N   UNL A   1      33.620  27.670  26.073  1.00  0.00    -0.345 N 
ATOM      9  C   UNL A   1      33.202  27.609  24.759  1.00  0.00     0.244 C 
ATOM     10  H   UNL A   1      34.068  26.899  26.490  1.00  0.00     0.164 HD
ATOM     11  O   UNL A   1      33.585  28.449  23.948  1.00  0.00    -0.273 OA
BRANCH   9  12
ATOM     12  C   UNL A   1      32.487  26.303  24.368  1.00  0.00     0.188 C 
BRANCH  12  13
ATOM     13  C   UNL A   1      31.326  26.336  23.335  1.00  0.00     0.069 C 
BRANCH  13  14
ATOM     14  C   UNL A   1      29.963  26.953  23.495  1.00  0.00    -0.037 C 
ATOM     15  C   UNL A   1      29.634  28.151  23.000  1.00  0.00     0.001 A 
ATOM     16  C   UNL A   1      28.748  26.330  24.111  1.00  0.00     0.174 C 
ATOM     17  C   UNL A   1      30.350  29.212  22.361  1.00  0.00     0.010 A 
ATOM     18  C   UNL A   1      28.169  28.193  23.133  1.00  0.00     0.065 A 
ATOM     19  N   UNL A   1      27.598  27.195  23.731  1.00  0.00    -0.280 NA
ATOM     20  C   UNL A   1      29.662  30.248  21.854  1.00  0.00     0.001 A 
ATOM     21  C   UNL A   1      27.477  29.343  22.512  1.00  0.00     0.028 A 
ATOM     22  C   UNL A   1      28.211  30.292  21.905  1.00  0.00     0.002 A 
ENDBRANCH  13  14
ENDBRANCH  12  13
BRANCH  12  23
ATOM     23  N   UNL A   1      33.404  25.162  24.197  1.00  0.00    -0.249 N 
ATOM     24  C   UNL A   1      33.964  24.995  22.933  1.00  0.00     0.351 C 
ATOM     25  C   UNL A   1      33.684  24.341  25.271  1.00  0.00     0.244 C 
ATOM     26  N   UNL A   1      34.980  24.104  22.762  1.00  0.00    -0.197 NA
ATOM     27  O   UNL A   1      33.610  25.690  21.987  1.00  0.00    -0.246 OA
ATOM     28  C   UNL A   1      34.552  23.129  24.987  1.00  0.00     0.151 C 
ATOM     29  O   UNL A   1      33.189  24.515  26.386  1.00  0.00    -0.273 OA
ATOM     30  C   UNL A   1      35.320  23.287  23.699  1.00  0.00     0.062 C 
ATOM     31  C   UNL A   1      35.503  22.816  26.121  1.00  0.00    -0.007 C 
ATOM     32  C   UNL A   1      36.535  22.464  23.485  1.00  0.00     0.025 C 
ATOM     33  C   UNL A   1      36.731  22.317  25.906  1.00  0.00    -0.003 C 
ATOM     34  C   UNL A   1      37.192  22.035  24.569  1.00  0.00     0.002 C 
ENDBRANCH  12  23
ENDBRANCH   9  12
ENDBRANCH   7   8
ENDBRANCH   5   7
ENDBRANCH   2   3
ENDBRANCH   1   2
BRANCH   1  35
ATOM     35  C   UNL A   1      33.921  33.653  28.712  1.00  0.00     0.023 C 
BRANCH  35  36
ATOM     36  C   UNL A   1      33.989  35.134  29.053  1.00  0.00     0.116 C 
BRANCH  36  37
ATOM     37  N   UNL A   1      33.004  35.554  30.037  1.00  0.00    -0.352 N 
ATOM     38  C   UNL A   1      32.994  35.381  31.405  1.00  0.00     0.251 C 
ATOM     39  H   UNL A   1      32.225  36.035  29.670  1.00  0.00     0.163 HD
ATOM     40  O   UNL A   1      32.010  35.729  32.052  1.00  0.00    -0.269 OA
BRANCH  38  41
ATOM     41  C   UNL A   1      34.139  34.730  32.092  1.00  0.00     0.039 A 
ATOM     42  C   UNL A   1      35.371  35.373  32.211  1.00  0.00     0.014 A 
ATOM     43  C   UNL A   1      33.985  33.436  32.600  1.00  0.00     0.014 A 
ATOM     44  C   UNL A   1      36.487  34.657  32.635  1.00  0.00     0.010 A 
ATOM     45  C   UNL A   1      35.089  32.754  33.128  1.00  0.00     0.010 A 
ATOM     46  C   UNL A   1      36.365  33.334  33.093  1.00  0.00    -0.014 A 
BRANCH  46  47
ATOM     47  C   UNL A   1      37.584  32.590  33.517  1.00  0.00     0.031 A 
ATOM     48  C   UNL A   1      38.199  31.540  32.625  1.00  0.00     0.074 A 
ATOM     49  C   UNL A   1      38.186  32.913  34.681  1.00  0.00     0.049 A 
ATOM     50  N   UNL A   1      39.271  30.816  32.830  1.00  0.00    -0.248 NA
ATOM     51  C   UNL A   1      37.535  31.263  31.339  1.00  0.00     0.031 C 
ATOM     52  C   UNL A   1      37.703  33.925  35.624  1.00  0.00     0.029 A 
ATOM     53  N   UNL A   1      39.347  32.456  35.255  1.00  0.00    -0.354 N 
ATOM     54  C   UNL A   1      39.402  29.996  31.714  1.00  0.00     0.074 A 
ATOM     55  C   UNL A   1      38.284  30.284  30.845  1.00  0.00     0.031 C 
ATOM     56  C   UNL A   1      38.586  34.055  36.623  1.00  0.00     0.029 A 
ATOM     57  C   UNL A   1      39.662  33.085  36.439  1.00  0.00     0.049 A 
ATOM     58  H   UNL A   1      39.901  31.746  34.859  1.00  0.00     0.167 HD
ATOM     59  C   UNL A   1      40.377  29.099  31.432  1.00  0.00     0.031 A 
ATOM     60  C   UNL A   1      40.685  32.899  37.297  1.00  0.00     0.031 A 
ATOM     61  C   UNL A   1      41.503  28.831  32.288  1.00  0.00     0.049 A 
ATOM     62  C   UNL A   1      41.731  31.868  36.979  1.00  0.00     0.074 A 
ATOM     63  C   UNL A   1      42.542  27.941  32.077  1.00  0.00     0.029 A 
ATOM     64  N   UNL A   1      41.752  29.455  33.501  1.00  0.00    -0.354 N 
ATOM     65  N   UNL A   1      41.827  31.101  35.920  1.00  0.00    -0.248 NA
ATOM     66  C   UNL A   1      42.803  31.674  37.965  1.00  0.00     0.031 C 
ATOM     67  C   UNL A   1      43.386  27.981  33.188  1.00  0.00     0.029 A 
ATOM     68  C   UNL A   1      42.915  28.951  34.059  1.00  0.00     0.049 A 
ATOM     69  H   UNL A   1      41.187  30.152  33.906  1.00  0.00     0.167 HD
ATOM     70  C   UNL A   1      42.973  30.338  36.109  1.00  0.00     0.074 A 
ATOM     71  C   UNL A   1      43.552  30.754  37.370  1.00  0.00     0.031 C 
ATOM     72  C   UNL A   1      43.489  29.372  35.312  1.00  0.00     0.031 A 
BRANCH  59  73
ATOM     73  C   UNL A   1      40.305  28.333  30.135  1.00  0.00    -0.014 A 
ATOM     74  C   UNL A   1      39.517  27.169  30.055  1.00  0.00     0.010 A 
ATOM     75  C   UNL A   1      41.148  28.665  29.060  1.00  0.00     0.010 A 
ATOM     76  C   UNL A   1      39.610  26.323  28.945  1.00  0.00     0.020 A 
ATOM     77  C   UNL A   1      41.224  27.835  27.936  1.00  0.00     0.020 A 
ATOM     78  C   UNL A   1      40.476  26.654  27.900  1.00  0.00     0.054 A 
BRANCH  78  79
ATOM     79  S   UNL A   1      40.636  25.511  26.500  1.00  0.00     0.124 S 
ATOM     80  O   UNL A   1      41.026  26.405  25.415  1.00  0.00    -0.237 OA
ATOM     81  O   UNL A   1      41.669  24.587  26.962  1.00  0.00    -0.237 OA
ATOM     82  O   UNL A   1      39.302  24.927  26.381  1.00  0.00    -0.744 OA
ENDBRANCH  78  79
ENDBRANCH  59  73
BRANCH  60  83
ATOM     83  C   UNL A   1      40.747  33.717  38.541  1.00  0.00    -0.014 A 
ATOM     84  C   UNL A   1      40.110  33.266  39.714  1.00  0.00     0.010 A 
ATOM     85  C   UNL A   1      41.371  34.977  38.546  1.00  0.00     0.010 A 
ATOM     86  C   UNL A   1      40.042  34.080  40.845  1.00  0.00     0.020 A 
ATOM     87  C   UNL A   1      41.335  35.781  39.692  1.00  0.00     0.020 A 
ATOM     88  C   UNL A   1      40.643  35.340  40.823  1.00  0.00     0.054 A 
BRANCH  88  89
ATOM     89  S   UNL A   1      40.507  36.398  42.290  1.00  0.00     0.124 S 
ATOM     90  O   UNL A   1      39.529  37.389  41.852  1.00  0.00    -0.237 OA
ATOM     91  O   UNL A   1      40.044  35.465  43.315  1.00  0.00    -0.237 OA
ATOM     92  O   UNL A   1      41.866  36.899  42.475  1.00  0.00    -0.744 OA
ENDBRANCH  88  89
ENDBRANCH  60  83
BRANCH  72  93
ATOM     93  C   UNL A   1      44.748  28.676  35.755  1.00  0.00    -0.014 A 
ATOM     94  C   UNL A   1      44.664  27.554  36.603  1.00  0.00     0.010 A 
ATOM     95  C   UNL A   1      46.011  29.216  35.457  1.00  0.00     0.010 A 
ATOM     96  C   UNL A   1      45.816  27.013  37.177  1.00  0.00     0.020 A 
ATOM     97  C   UNL A   1      47.168  28.659  36.008  1.00  0.00     0.020 A 
ATOM     98  C   UNL A   1      47.060  27.578  36.887  1.00  0.00     0.054 A 
BRANCH  98  99
ATOM     99  S   UNL A   1      48.540  26.894  37.681  1.00  0.00     0.124 S 
ATOM    100  O   UNL A   1      47.966  26.065  38.737  1.00  0.00    -0.237 OA
ATOM    101  O   UNL A   1      49.183  26.166  36.588  1.00  0.00    -0.237 OA
ATOM    102  O   UNL A   1      49.263  28.078  38.139  1.00  0.00    -0.744 OA
ENDBRANCH  98  99
ENDBRANCH  72  93
ENDBRANCH  46  47
ENDBRANCH  38  41
ENDBRANCH  36  37
ENDBRANCH  35  36
ENDBRANCH   1  35
TORSDOF 19
ENDMDL
