MODEL 1
REMARK VINA RESULT:     -11.7      0.000      0.000
REMARK SMILES COC(=O)[C@@H]1C[C@@H](C(=O)NCCCCNC(=O)c2ccc(-c3c4nc(c(-c5ccc(S(=O)(=O)[O-])cc5)c5ccc([nH]5)c(-c5ccc(S(=O)(=O)[O-])cc5)c5nc(c(-c6ccc(S(=O)(=O)[O-])cc6)c6ccc3[nH]6)C=C5)C=C4)cc2)[C@@H](c2cccc(F)c2F)[N@H+]1C
REMARK SMILES IDX 13 1 12 2 11 3 10 4 8 5 9 6 7 8 5 9 6 10 87 11 78 12 88 13
REMARK SMILES IDX 3 15 4 16 2 17 1 18 79 19 80 20 85 21 81 22 83 23 86 24
REMARK SMILES IDX 82 25 84 26 14 27 15 28 16 29 17 31 18 32 19 33 77 34 20 35
REMARK SMILES IDX 76 36 21 37 22 38 23 39 70 40 24 41 75 42 69 43 71 44 25 45
REMARK SMILES IDX 74 46 68 47 67 48 26 50 56 51 37 52 55 53 38 54 41 55 54 56
REMARK SMILES IDX 72 57 39 58 40 59 53 61 73 62 42 63 27 64 28 65 36 66 29 67
REMARK SMILES IDX 35 68 30 69 31 70 32 71 33 72 34 73 57 74 58 75 66 76 59 77
REMARK SMILES IDX 65 78 60 79 61 80 62 81 63 82 64 83 43 84 44 85 52 86 45 87
REMARK SMILES IDX 51 88 46 89 47 90 48 91 49 92 50 93
REMARK H PARENT 10 7 87 14 15 30 71 49 41 60
REMARK Flexibility Score: inf
ROOT
ATOM      1  C   UNL A   1      40.126  22.687  27.599  1.00  0.00     0.023 C 
ENDROOT
BRANCH   1   2
ATOM      2  C   UNL A   1      39.390  22.446  26.283  1.00  0.00     0.023 C 
BRANCH   2   3
ATOM      3  C   UNL A   1      38.185  23.353  26.087  1.00  0.00     0.116 C 
BRANCH   3   4
ATOM      4  N   UNL A   1      37.628  23.285  24.749  1.00  0.00    -0.356 N 
ATOM      5  C   UNL A   1      36.411  22.953  24.250  1.00  0.00     0.229 C 
ATOM      6  O   UNL A   1      36.281  23.071  23.025  1.00  0.00    -0.275 OA
ATOM      7  H   UNL A   1      38.274  23.536  24.050  1.00  0.00     0.163 HD
BRANCH   5   8
ATOM      8  C   UNL A   1      35.227  22.456  25.073  1.00  0.00     0.148 C 
ATOM      9  C   UNL A   1      33.357  21.231  24.218  1.00  0.00     0.296 C 
ATOM     10  C   UNL A   1      34.800  21.057  24.628  1.00  0.00     0.097 C 
ATOM     11  N   UNL A   1      32.900  22.206  25.216  1.00  0.00    -0.319 N 
ATOM     12  C   UNL A   1      33.914  23.299  25.330  1.00  0.00     0.231 C 
ATOM     13  C   UNL A   1      31.481  22.453  25.180  1.00  0.00     0.333 C 
ATOM     14  H   UNL A   1      32.895  21.842  26.169  1.00  0.00     0.349 HD
BRANCH   9  15
ATOM     15  C   UNL A   1      32.644  19.881  24.223  1.00  0.00     0.364 C 
ATOM     16  O   UNL A   1      32.373  19.277  25.257  1.00  0.00    -0.245 OA
BRANCH  15  17
ATOM     17  O   UNL A   1      32.295  19.464  22.975  1.00  0.00    -0.465 OA
ATOM     18  C   UNL A   1      32.630  18.103  22.706  1.00  0.00     0.282 C 
ENDBRANCH  15  17
ENDBRANCH   9  15
BRANCH  12  19
ATOM     19  C   UNL A   1      33.769  24.668  24.640  1.00  0.00     0.049 A 
ATOM     20  C   UNL A   1      33.848  25.855  25.407  1.00  0.00     0.013 A 
ATOM     21  C   UNL A   1      33.425  24.897  23.296  1.00  0.00     0.167 A 
ATOM     22  C   UNL A   1      33.866  27.143  24.838  1.00  0.00     0.004 A 
ATOM     23  C   UNL A   1      33.442  26.174  22.719  1.00  0.00     0.159 A 
ATOM     24  F   UNL A   1      32.980  23.924  22.498  1.00  0.00    -0.203 F 
ATOM     25  C   UNL A   1      33.711  27.299  23.473  1.00  0.00     0.042 A 
ATOM     26  F   UNL A   1      33.176  26.311  21.412  1.00  0.00    -0.204 F 
ENDBRANCH  12  19
ENDBRANCH   5   8
ENDBRANCH   3   4
ENDBRANCH   2   3
ENDBRANCH   1   2
BRANCH   1  27
ATOM     27  C   UNL A   1      41.530  23.229  27.396  1.00  0.00     0.116 C 
BRANCH  27  28
ATOM     28  N   UNL A   1      41.611  24.072  26.209  1.00  0.00    -0.352 N 
ATOM     29  C   UNL A   1      41.404  25.422  26.104  1.00  0.00     0.251 C 
ATOM     30  H   UNL A   1      41.849  23.610  25.372  1.00  0.00     0.163 HD
ATOM     31  O   UNL A   1      41.274  25.946  25.001  1.00  0.00    -0.269 OA
BRANCH  29  32
ATOM     32  C   UNL A   1      41.321  26.226  27.336  1.00  0.00     0.039 A 
ATOM     33  C   UNL A   1      42.361  27.100  27.653  1.00  0.00     0.014 A 
ATOM     34  C   UNL A   1      40.184  26.144  28.145  1.00  0.00     0.014 A 
ATOM     35  C   UNL A   1      42.229  27.940  28.758  1.00  0.00     0.010 A 
ATOM     36  C   UNL A   1      40.011  27.053  29.176  1.00  0.00     0.010 A 
ATOM     37  C   UNL A   1      41.037  27.950  29.502  1.00  0.00    -0.014 A 
BRANCH  37  38
ATOM     38  C   UNL A   1      40.840  28.883  30.636  1.00  0.00     0.031 A 
ATOM     39  C   UNL A   1      41.672  28.731  31.879  1.00  0.00     0.074 A 
ATOM     40  C   UNL A   1      39.866  29.812  30.568  1.00  0.00     0.049 A 
ATOM     41  N   UNL A   1      41.602  29.397  33.002  1.00  0.00    -0.248 NA
ATOM     42  C   UNL A   1      42.695  27.670  31.875  1.00  0.00     0.031 C 
ATOM     43  C   UNL A   1      38.964  30.015  29.430  1.00  0.00     0.029 A 
ATOM     44  N   UNL A   1      39.467  30.758  31.477  1.00  0.00    -0.354 N 
ATOM     45  C   UNL A   1      42.554  28.823  33.838  1.00  0.00     0.074 A 
ATOM     46  C   UNL A   1      43.144  27.718  33.119  1.00  0.00     0.031 C 
ATOM     47  C   UNL A   1      38.143  31.044  29.696  1.00  0.00     0.029 A 
ATOM     48  C   UNL A   1      38.425  31.540  31.039  1.00  0.00     0.049 A 
ATOM     49  H   UNL A   1      39.887  30.867  32.361  1.00  0.00     0.167 HD
ATOM     50  C   UNL A   1      42.919  29.201  35.085  1.00  0.00     0.031 A 
ATOM     51  C   UNL A   1      37.763  32.540  31.653  1.00  0.00     0.031 A 
ATOM     52  C   UNL A   1      42.336  30.315  35.783  1.00  0.00     0.049 A 
ATOM     53  C   UNL A   1      38.182  32.933  33.044  1.00  0.00     0.074 A 
ATOM     54  C   UNL A   1      42.677  30.826  37.021  1.00  0.00     0.029 A 
ATOM     55  N   UNL A   1      41.290  31.088  35.301  1.00  0.00    -0.354 N 
ATOM     56  N   UNL A   1      39.139  32.431  33.789  1.00  0.00    -0.248 NA
ATOM     57  C   UNL A   1      37.438  34.032  33.674  1.00  0.00     0.031 C 
ATOM     58  C   UNL A   1      41.794  31.868  37.318  1.00  0.00     0.029 A 
ATOM     59  C   UNL A   1      40.948  32.052  36.234  1.00  0.00     0.049 A 
ATOM     60  H   UNL A   1      40.855  30.970  34.425  1.00  0.00     0.167 HD
ATOM     61  C   UNL A   1      39.126  33.167  34.968  1.00  0.00     0.074 A 
ATOM     62  C   UNL A   1      38.082  34.163  34.827  1.00  0.00     0.031 C 
ATOM     63  C   UNL A   1      39.903  33.030  36.071  1.00  0.00     0.031 A 
BRANCH  50  64
ATOM     64  C   UNL A   1      43.996  28.404  35.773  1.00  0.00    -0.014 A 
ATOM     65  C   UNL A   1      43.680  27.293  36.579  1.00  0.00     0.010 A 
ATOM     66  C   UNL A   1      45.347  28.739  35.574  1.00  0.00     0.010 A 
ATOM     67  C   UNL A   1      44.691  26.558  37.201  1.00  0.00     0.020 A 
ATOM     68  C   UNL A   1      46.364  27.986  36.169  1.00  0.00     0.020 A 
ATOM     69  C   UNL A   1      46.028  26.908  36.990  1.00  0.00     0.054 A 
BRANCH  69  70
ATOM     70  S   UNL A   1      47.320  25.911  37.780  1.00  0.00     0.124 S 
ATOM     71  O   UNL A   1      47.903  25.213  36.637  1.00  0.00    -0.237 OA
ATOM     72  O   UNL A   1      48.172  26.924  38.398  1.00  0.00    -0.237 OA
ATOM     73  O   UNL A   1      46.583  25.064  38.715  1.00  0.00    -0.744 OA
ENDBRANCH  69  70
ENDBRANCH  50  64
BRANCH  51  74
ATOM     74  C   UNL A   1      36.645  33.234  30.960  1.00  0.00    -0.014 A 
ATOM     75  C   UNL A   1      36.888  34.033  29.828  1.00  0.00     0.010 A 
ATOM     76  C   UNL A   1      35.323  33.093  31.422  1.00  0.00     0.010 A 
ATOM     77  C   UNL A   1      35.837  34.696  29.187  1.00  0.00     0.020 A 
ATOM     78  C   UNL A   1      34.265  33.727  30.765  1.00  0.00     0.020 A 
ATOM     79  C   UNL A   1      34.530  34.536  29.660  1.00  0.00     0.054 A 
BRANCH  79  80
ATOM     80  S   UNL A   1      33.177  35.372  28.787  1.00  0.00     0.124 S 
ATOM     81  O   UNL A   1      32.566  34.271  28.049  1.00  0.00    -0.237 OA
ATOM     82  O   UNL A   1      32.383  35.916  29.886  1.00  0.00    -0.237 OA
ATOM     83  O   UNL A   1      33.863  36.370  27.970  1.00  0.00    -0.744 OA
ENDBRANCH  79  80
ENDBRANCH  51  74
BRANCH  63  84
ATOM     84  C   UNL A   1      39.671  33.994  37.204  1.00  0.00    -0.014 A 
ATOM     85  C   UNL A   1      38.915  33.622  38.329  1.00  0.00     0.010 A 
ATOM     86  C   UNL A   1      40.275  35.264  37.169  1.00  0.00     0.010 A 
ATOM     87  C   UNL A   1      38.746  34.515  39.389  1.00  0.00     0.020 A 
ATOM     88  C   UNL A   1      40.135  36.146  38.242  1.00  0.00     0.020 A 
ATOM     89  C   UNL A   1      39.361  35.770  39.340  1.00  0.00     0.054 A 
BRANCH  89  90
ATOM     90  S   UNL A   1      39.170  36.888  40.756  1.00  0.00     0.124 S 
ATOM     91  O   UNL A   1      38.456  36.047  41.713  1.00  0.00    -0.237 OA
ATOM     92  O   UNL A   1      40.555  37.199  41.105  1.00  0.00    -0.237 OA
ATOM     93  O   UNL A   1      38.403  38.007  40.215  1.00  0.00    -0.744 OA
ENDBRANCH  89  90
ENDBRANCH  63  84
ENDBRANCH  37  38
ENDBRANCH  29  32
ENDBRANCH  27  28
ENDBRANCH   1  27
TORSDOF 17
ENDMDL
MODEL 2
REMARK VINA RESULT:     -11.4      6.249     10.645
REMARK SMILES COC(=O)[C@@H]1C[C@@H](C(=O)NCCCCNC(=O)c2ccc(-c3c4nc(c(-c5ccc(S(=O)(=O)[O-])cc5)c5ccc([nH]5)c(-c5ccc(S(=O)(=O)[O-])cc5)c5nc(c(-c6ccc(S(=O)(=O)[O-])cc6)c6ccc3[nH]6)C=C5)C=C4)cc2)[C@@H](c2cccc(F)c2F)[N@H+]1C
REMARK SMILES IDX 13 1 12 2 11 3 10 4 8 5 9 6 7 8 5 9 6 10 87 11 78 12 88 13
REMARK SMILES IDX 3 15 4 16 2 17 1 18 79 19 80 20 85 21 81 22 83 23 86 24
REMARK SMILES IDX 82 25 84 26 14 27 15 28 16 29 17 31 18 32 19 33 77 34 20 35
REMARK SMILES IDX 76 36 21 37 22 38 23 39 70 40 24 41 75 42 69 43 71 44 25 45
REMARK SMILES IDX 74 46 68 47 67 48 26 50 56 51 37 52 55 53 38 54 41 55 54 56
REMARK SMILES IDX 72 57 39 58 40 59 53 61 73 62 42 63 27 64 28 65 36 66 29 67
REMARK SMILES IDX 35 68 30 69 31 70 32 71 33 72 34 73 57 74 58 75 66 76 59 77
REMARK SMILES IDX 65 78 60 79 61 80 62 81 63 82 64 83 43 84 44 85 52 86 45 87
REMARK SMILES IDX 51 88 46 89 47 90 48 91 49 92 50 93
REMARK H PARENT 10 7 87 14 15 30 71 49 41 60
REMARK Flexibility Score: inf
ROOT
ATOM      1  C   UNL A   1      39.542  21.597  26.215  1.00  0.00     0.023 C 
ENDROOT
BRANCH   1   2
ATOM      2  C   UNL A   1      39.520  23.070  26.611  1.00  0.00     0.023 C 
BRANCH   2   3
ATOM      3  C   UNL A   1      38.228  23.780  26.238  1.00  0.00     0.116 C 
BRANCH   3   4
ATOM      4  N   UNL A   1      37.768  23.466  24.898  1.00  0.00    -0.356 N 
ATOM      5  C   UNL A   1      36.651  22.881  24.399  1.00  0.00     0.229 C 
ATOM      6  O   UNL A   1      36.575  22.832  23.164  1.00  0.00    -0.275 OA
ATOM      7  H   UNL A   1      38.405  23.737  24.199  1.00  0.00     0.163 HD
BRANCH   5   8
ATOM      8  C   UNL A   1      35.515  22.295  25.230  1.00  0.00     0.148 C 
ATOM      9  C   UNL A   1      33.685  21.010  24.376  1.00  0.00     0.296 C 
ATOM     10  C   UNL A   1      35.146  20.895  24.743  1.00  0.00     0.097 C 
ATOM     11  N   UNL A   1      33.208  21.923  25.423  1.00  0.00    -0.319 N 
ATOM     12  C   UNL A   1      34.169  23.061  25.554  1.00  0.00     0.231 C 
ATOM     13  C   UNL A   1      31.778  22.101  25.432  1.00  0.00     0.333 C 
ATOM     14  H   UNL A   1      33.247  21.524  26.361  1.00  0.00     0.349 HD
BRANCH   9  15
ATOM     15  C   UNL A   1      33.040  19.627  24.346  1.00  0.00     0.364 C 
ATOM     16  O   UNL A   1      32.340  19.240  23.414  1.00  0.00    -0.245 OA
BRANCH  15  17
ATOM     17  O   UNL A   1      33.376  18.866  25.424  1.00  0.00    -0.465 OA
ATOM     18  C   UNL A   1      32.585  17.686  25.565  1.00  0.00     0.282 C 
ENDBRANCH  15  17
ENDBRANCH   9  15
BRANCH  12  19
ATOM     19  C   UNL A   1      33.939  24.446  24.921  1.00  0.00     0.049 A 
ATOM     20  C   UNL A   1      33.760  25.578  25.752  1.00  0.00     0.013 A 
ATOM     21  C   UNL A   1      33.748  24.723  23.556  1.00  0.00     0.167 A 
ATOM     22  C   UNL A   1      33.684  26.894  25.258  1.00  0.00     0.004 A 
ATOM     23  C   UNL A   1      33.673  26.029  23.054  1.00  0.00     0.159 A 
ATOM     24  F   UNL A   1      33.544  23.760  22.655  1.00  0.00    -0.203 F 
ATOM     25  C   UNL A   1      33.691  27.124  23.894  1.00  0.00     0.042 A 
ATOM     26  F   UNL A   1      33.567  26.222  21.731  1.00  0.00    -0.204 F 
ENDBRANCH  12  19
ENDBRANCH   5   8
ENDBRANCH   3   4
ENDBRANCH   2   3
ENDBRANCH   1   2
BRANCH   1  27
ATOM     27  C   UNL A   1      40.422  20.756  27.124  1.00  0.00     0.116 C 
BRANCH  27  28
ATOM     28  N   UNL A   1      41.274  19.855  26.359  1.00  0.00    -0.352 N 
ATOM     29  C   UNL A   1      42.437  20.140  25.691  1.00  0.00     0.251 C 
ATOM     30  H   UNL A   1      40.976  18.917  26.317  1.00  0.00     0.163 HD
ATOM     31  O   UNL A   1      42.910  19.332  24.898  1.00  0.00    -0.269 OA
BRANCH  29  32
ATOM     32  C   UNL A   1      43.094  21.437  25.931  1.00  0.00     0.039 A 
ATOM     33  C   UNL A   1      43.020  22.431  24.956  1.00  0.00     0.014 A 
ATOM     34  C   UNL A   1      43.739  21.675  27.148  1.00  0.00     0.014 A 
ATOM     35  C   UNL A   1      43.545  23.693  25.231  1.00  0.00     0.010 A 
ATOM     36  C   UNL A   1      44.162  22.957  27.458  1.00  0.00     0.010 A 
ATOM     37  C   UNL A   1      44.083  23.975  26.499  1.00  0.00    -0.014 A 
BRANCH  37  38
ATOM     38  C   UNL A   1      44.581  25.327  26.844  1.00  0.00     0.031 A 
ATOM     39  C   UNL A   1      43.632  26.349  27.409  1.00  0.00     0.074 A 
ATOM     40  C   UNL A   1      45.862  25.648  26.580  1.00  0.00     0.049 A 
ATOM     41  N   UNL A   1      43.855  27.602  27.706  1.00  0.00    -0.248 NA
ATOM     42  C   UNL A   1      42.242  25.917  27.639  1.00  0.00     0.031 C 
ATOM     43  C   UNL A   1      46.858  24.751  25.984  1.00  0.00     0.029 A 
ATOM     44  N   UNL A   1      46.549  26.820  26.773  1.00  0.00    -0.354 N 
ATOM     45  C   UNL A   1      42.634  28.109  28.136  1.00  0.00     0.074 A 
ATOM     46  C   UNL A   1      41.661  27.050  28.004  1.00  0.00     0.031 C 
ATOM     47  C   UNL A   1      48.033  25.394  25.895  1.00  0.00     0.029 A 
ATOM     48  C   UNL A   1      47.865  26.760  26.377  1.00  0.00     0.049 A 
ATOM     49  H   UNL A   1      46.138  27.628  27.158  1.00  0.00     0.167 HD
ATOM     50  C   UNL A   1      42.356  29.342  28.622  1.00  0.00     0.031 A 
ATOM     51  C   UNL A   1      48.826  27.704  26.393  1.00  0.00     0.031 A 
ATOM     52  C   UNL A   1      43.338  30.382  28.765  1.00  0.00     0.049 A 
ATOM     53  C   UNL A   1      48.486  29.069  26.928  1.00  0.00     0.074 A 
ATOM     54  C   UNL A   1      43.179  31.643  29.307  1.00  0.00     0.029 A 
ATOM     55  N   UNL A   1      44.661  30.279  28.363  1.00  0.00    -0.354 N 
ATOM     56  N   UNL A   1      47.346  29.506  27.406  1.00  0.00    -0.248 NA
ATOM     57  C   UNL A   1      49.566  30.066  26.932  1.00  0.00     0.031 C 
ATOM     58  C   UNL A   1      44.390  32.328  29.173  1.00  0.00     0.029 A 
ATOM     59  C   UNL A   1      45.323  31.468  28.612  1.00  0.00     0.049 A 
ATOM     60  H   UNL A   1      45.070  29.478  27.960  1.00  0.00     0.167 HD
ATOM     61  C   UNL A   1      47.575  30.823  27.788  1.00  0.00     0.074 A 
ATOM     62  C   UNL A   1      48.969  31.102  27.507  1.00  0.00     0.031 C 
ATOM     63  C   UNL A   1      46.711  31.723  28.320  1.00  0.00     0.031 A 
BRANCH  50  64
ATOM     64  C   UNL A   1      40.935  29.629  29.031  1.00  0.00    -0.014 A 
ATOM     65  C   UNL A   1      39.897  29.676  28.080  1.00  0.00     0.010 A 
ATOM     66  C   UNL A   1      40.623  29.811  30.390  1.00  0.00     0.010 A 
ATOM     67  C   UNL A   1      38.584  29.934  28.477  1.00  0.00     0.020 A 
ATOM     68  C   UNL A   1      39.305  30.037  30.795  1.00  0.00     0.020 A 
ATOM     69  C   UNL A   1      38.295  30.111  29.834  1.00  0.00     0.054 A 
BRANCH  69  70
ATOM     70  S   UNL A   1      36.574  30.406  30.322  1.00  0.00     0.124 S 
ATOM     71  O   UNL A   1      36.644  31.756  30.876  1.00  0.00    -0.237 OA
ATOM     72  O   UNL A   1      35.858  30.284  29.054  1.00  0.00    -0.237 OA
ATOM     73  O   UNL A   1      36.301  29.349  31.293  1.00  0.00    -0.744 OA
ENDBRANCH  69  70
ENDBRANCH  50  64
BRANCH  51  74
ATOM     74  C   UNL A   1      50.191  27.390  25.891  1.00  0.00    -0.014 A 
ATOM     75  C   UNL A   1      50.507  27.545  24.530  1.00  0.00     0.010 A 
ATOM     76  C   UNL A   1      51.189  26.943  26.776  1.00  0.00     0.010 A 
ATOM     77  C   UNL A   1      51.787  27.235  24.059  1.00  0.00     0.020 A 
ATOM     78  C   UNL A   1      52.479  26.663  26.315  1.00  0.00     0.020 A 
ATOM     79  C   UNL A   1      52.766  26.798  24.957  1.00  0.00     0.054 A 
BRANCH  79  80
ATOM     80  S   UNL A   1      54.431  26.442  24.330  1.00  0.00     0.124 S 
ATOM     81  O   UNL A   1      55.237  27.442  25.024  1.00  0.00    -0.237 OA
ATOM     82  O   UNL A   1      54.636  25.058  24.751  1.00  0.00    -0.237 OA
ATOM     83  O   UNL A   1      54.301  26.633  22.887  1.00  0.00    -0.744 OA
ENDBRANCH  79  80
ENDBRANCH  51  74
BRANCH  63  84
ATOM     84  C   UNL A   1      47.252  33.087  28.654  1.00  0.00    -0.014 A 
ATOM     85  C   UNL A   1      47.843  33.347  29.902  1.00  0.00     0.010 A 
ATOM     86  C   UNL A   1      47.229  34.100  27.678  1.00  0.00     0.010 A 
ATOM     87  C   UNL A   1      48.378  34.607  30.179  1.00  0.00     0.020 A 
ATOM     88  C   UNL A   1      47.793  35.350  27.939  1.00  0.00     0.020 A 
ATOM     89  C   UNL A   1      48.353  35.600  29.193  1.00  0.00     0.054 A 
BRANCH  89  90
ATOM     90  S   UNL A   1      49.106  37.208  29.560  1.00  0.00     0.124 S 
ATOM     91  O   UNL A   1      48.815  37.363  30.982  1.00  0.00    -0.237 OA
ATOM     92  O   UNL A   1      50.512  36.986  29.227  1.00  0.00    -0.237 OA
ATOM     93  O   UNL A   1      48.401  38.132  28.674  1.00  0.00    -0.744 OA
ENDBRANCH  89  90
ENDBRANCH  63  84
ENDBRANCH  37  38
ENDBRANCH  29  32
ENDBRANCH  27  28
ENDBRANCH   1  27
TORSDOF 17
ENDMDL
MODEL 3
REMARK VINA RESULT:     -11.4      0.576      8.146
REMARK SMILES COC(=O)[C@@H]1C[C@@H](C(=O)NCCCCNC(=O)c2ccc(-c3c4nc(c(-c5ccc(S(=O)(=O)[O-])cc5)c5ccc([nH]5)c(-c5ccc(S(=O)(=O)[O-])cc5)c5nc(c(-c6ccc(S(=O)(=O)[O-])cc6)c6ccc3[nH]6)C=C5)C=C4)cc2)[C@@H](c2cccc(F)c2F)[N@H+]1C
REMARK SMILES IDX 13 1 12 2 11 3 10 4 8 5 9 6 7 8 5 9 6 10 87 11 78 12 88 13
REMARK SMILES IDX 3 15 4 16 2 17 1 18 79 19 80 20 85 21 81 22 83 23 86 24
REMARK SMILES IDX 82 25 84 26 14 27 15 28 16 29 17 31 18 32 19 33 77 34 20 35
REMARK SMILES IDX 76 36 21 37 22 38 23 39 70 40 24 41 75 42 69 43 71 44 25 45
REMARK SMILES IDX 74 46 68 47 67 48 26 50 56 51 37 52 55 53 38 54 41 55 54 56
REMARK SMILES IDX 72 57 39 58 40 59 53 61 73 62 42 63 27 64 28 65 36 66 29 67
REMARK SMILES IDX 35 68 30 69 31 70 32 71 33 72 34 73 57 74 58 75 66 76 59 77
REMARK SMILES IDX 65 78 60 79 61 80 62 81 63 82 64 83 43 84 44 85 52 86 45 87
REMARK SMILES IDX 51 88 46 89 47 90 48 91 49 92 50 93
REMARK H PARENT 10 7 87 14 15 30 71 49 41 60
REMARK Flexibility Score: inf
ROOT
ATOM      1  C   UNL A   1      40.417  22.349  27.457  1.00  0.00     0.023 C 
ENDROOT
BRANCH   1   2
ATOM      2  C   UNL A   1      39.667  22.213  26.134  1.00  0.00     0.023 C 
BRANCH   2   3
ATOM      3  C   UNL A   1      38.378  23.019  26.082  1.00  0.00     0.116 C 
BRANCH   3   4
ATOM      4  N   UNL A   1      37.768  23.039  24.766  1.00  0.00    -0.356 N 
ATOM      5  C   UNL A   1      36.534  22.731  24.295  1.00  0.00     0.229 C 
ATOM      6  O   UNL A   1      36.352  22.931  23.087  1.00  0.00    -0.275 OA
ATOM      7  H   UNL A   1      38.383  23.344  24.060  1.00  0.00     0.163 HD
BRANCH   5   8
ATOM      8  C   UNL A   1      35.388  22.167  25.128  1.00  0.00     0.148 C 
ATOM      9  C   UNL A   1      33.534  20.914  24.276  1.00  0.00     0.296 C 
ATOM     10  C   UNL A   1      34.992  20.773  24.643  1.00  0.00     0.097 C 
ATOM     11  N   UNL A   1      33.074  21.838  25.322  1.00  0.00    -0.319 N 
ATOM     12  C   UNL A   1      34.056  22.958  25.450  1.00  0.00     0.231 C 
ATOM     13  C   UNL A   1      31.648  22.042  25.330  1.00  0.00     0.333 C 
ATOM     14  H   UNL A   1      33.105  21.440  26.260  1.00  0.00     0.349 HD
BRANCH   9  15
ATOM     15  C   UNL A   1      32.864  19.543  24.250  1.00  0.00     0.364 C 
ATOM     16  O   UNL A   1      32.207  19.143  23.292  1.00  0.00    -0.245 OA
BRANCH  15  17
ATOM     17  O   UNL A   1      33.126  18.806  25.364  1.00  0.00    -0.465 OA
ATOM     18  C   UNL A   1      32.479  17.534  25.380  1.00  0.00     0.282 C 
ENDBRANCH  15  17
ENDBRANCH   9  15
BRANCH  12  19
ATOM     19  C   UNL A   1      33.851  24.346  24.814  1.00  0.00     0.049 A 
ATOM     20  C   UNL A   1      33.772  25.494  25.640  1.00  0.00     0.013 A 
ATOM     21  C   UNL A   1      33.593  24.617  23.459  1.00  0.00     0.167 A 
ATOM     22  C   UNL A   1      33.726  26.806  25.135  1.00  0.00     0.004 A 
ATOM     23  C   UNL A   1      33.548  25.920  22.945  1.00  0.00     0.159 A 
ATOM     24  F   UNL A   1      33.293  23.656  22.583  1.00  0.00    -0.203 F 
ATOM     25  C   UNL A   1      33.663  27.022  23.769  1.00  0.00     0.042 A 
ATOM     26  F   UNL A   1      33.372  26.105  21.628  1.00  0.00    -0.204 F 
ENDBRANCH  12  19
ENDBRANCH   5   8
ENDBRANCH   3   4
ENDBRANCH   2   3
ENDBRANCH   1   2
BRANCH   1  27
ATOM     27  C   UNL A   1      41.777  23.005  27.297  1.00  0.00     0.116 C 
BRANCH  27  28
ATOM     28  N   UNL A   1      41.801  23.912  26.156  1.00  0.00    -0.352 N 
ATOM     29  C   UNL A   1      41.534  25.256  26.127  1.00  0.00     0.251 C 
ATOM     30  H   UNL A   1      42.044  23.507  25.293  1.00  0.00     0.163 HD
ATOM     31  O   UNL A   1      41.363  25.831  25.056  1.00  0.00    -0.269 OA
BRANCH  29  32
ATOM     32  C   UNL A   1      41.438  25.989  27.402  1.00  0.00     0.039 A 
ATOM     33  C   UNL A   1      42.485  26.823  27.792  1.00  0.00     0.014 A 
ATOM     34  C   UNL A   1      40.281  25.882  28.180  1.00  0.00     0.014 A 
ATOM     35  C   UNL A   1      42.344  27.600  28.941  1.00  0.00     0.010 A 
ATOM     36  C   UNL A   1      40.101  26.733  29.258  1.00  0.00     0.010 A 
ATOM     37  C   UNL A   1      41.135  27.590  29.658  1.00  0.00    -0.014 A 
BRANCH  37  38
ATOM     38  C   UNL A   1      40.930  28.460  30.840  1.00  0.00     0.031 A 
ATOM     39  C   UNL A   1      39.857  29.514  30.811  1.00  0.00     0.074 A 
ATOM     40  C   UNL A   1      41.755  28.344  31.898  1.00  0.00     0.049 A 
ATOM     41  N   UNL A   1      39.569  30.418  31.710  1.00  0.00    -0.248 NA
ATOM     42  C   UNL A   1      39.020  29.586  29.600  1.00  0.00     0.031 C 
ATOM     43  C   UNL A   1      42.862  27.391  32.013  1.00  0.00     0.029 A 
ATOM     44  N   UNL A   1      41.794  29.037  33.082  1.00  0.00    -0.354 N 
ATOM     45  C   UNL A   1      38.536  31.173  31.166  1.00  0.00     0.074 A 
ATOM     46  C   UNL A   1      38.290  30.664  29.836  1.00  0.00     0.031 C 
ATOM     47  C   UNL A   1      43.447  27.536  33.212  1.00  0.00     0.029 A 
ATOM     48  C   UNL A   1      42.793  28.623  33.931  1.00  0.00     0.049 A 
ATOM     49  H   UNL A   1      41.167  29.764  33.301  1.00  0.00     0.167 HD
ATOM     50  C   UNL A   1      37.839  32.185  31.734  1.00  0.00     0.031 A 
ATOM     51  C   UNL A   1      43.146  29.075  35.150  1.00  0.00     0.031 A 
ATOM     52  C   UNL A   1      38.082  32.670  33.065  1.00  0.00     0.049 A 
ATOM     53  C   UNL A   1      42.362  30.208  35.754  1.00  0.00     0.074 A 
ATOM     54  C   UNL A   1      37.393  33.643  33.764  1.00  0.00     0.029 A 
ATOM     55  N   UNL A   1      39.095  32.217  33.898  1.00  0.00    -0.354 N 
ATOM     56  N   UNL A   1      41.336  30.857  35.257  1.00  0.00    -0.248 NA
ATOM     57  C   UNL A   1      42.779  30.664  37.087  1.00  0.00     0.031 C 
ATOM     58  C   UNL A   1      38.029  33.826  34.995  1.00  0.00     0.029 A 
ATOM     59  C   UNL A   1      39.072  32.917  35.091  1.00  0.00     0.049 A 
ATOM     60  H   UNL A   1      39.736  31.503  33.673  1.00  0.00     0.167 HD
ATOM     61  C   UNL A   1      40.970  31.784  36.225  1.00  0.00     0.074 A 
ATOM     62  C   UNL A   1      41.870  31.596  37.345  1.00  0.00     0.031 C 
ATOM     63  C   UNL A   1      39.982  32.713  36.191  1.00  0.00     0.031 A 
BRANCH  50  64
ATOM     64  C   UNL A   1      36.752  32.832  30.918  1.00  0.00    -0.014 A 
ATOM     65  C   UNL A   1      37.055  33.757  29.901  1.00  0.00     0.010 A 
ATOM     66  C   UNL A   1      35.408  32.478  31.139  1.00  0.00     0.010 A 
ATOM     67  C   UNL A   1      36.035  34.340  29.147  1.00  0.00     0.020 A 
ATOM     68  C   UNL A   1      34.387  33.035  30.365  1.00  0.00     0.020 A 
ATOM     69  C   UNL A   1      34.706  33.974  29.382  1.00  0.00     0.054 A 
BRANCH  69  70
ATOM     70  S   UNL A   1      33.407  34.720  28.360  1.00  0.00     0.124 S 
ATOM     71  O   UNL A   1      34.178  35.607  27.493  1.00  0.00    -0.237 OA
ATOM     72  O   UNL A   1      32.813  33.559  27.702  1.00  0.00    -0.237 OA
ATOM     73  O   UNL A   1      32.545  35.393  29.329  1.00  0.00    -0.744 OA
ENDBRANCH  69  70
ENDBRANCH  50  64
BRANCH  51  74
ATOM     74  C   UNL A   1      44.290  28.456  35.874  1.00  0.00    -0.014 A 
ATOM     75  C   UNL A   1      44.089  27.351  36.720  1.00  0.00     0.010 A 
ATOM     76  C   UNL A   1      45.593  28.963  35.712  1.00  0.00     0.010 A 
ATOM     77  C   UNL A   1      45.164  26.781  37.410  1.00  0.00     0.020 A 
ATOM     78  C   UNL A   1      46.675  28.375  36.375  1.00  0.00     0.020 A 
ATOM     79  C   UNL A   1      46.451  27.297  37.230  1.00  0.00     0.054 A 
BRANCH  79  80
ATOM     80  S   UNL A   1      47.836  26.514  38.103  1.00  0.00     0.124 S 
ATOM     81  O   UNL A   1      47.165  25.886  39.236  1.00  0.00    -0.237 OA
ATOM     82  O   UNL A   1      48.367  25.600  37.094  1.00  0.00    -0.237 OA
ATOM     83  O   UNL A   1      48.709  27.638  38.435  1.00  0.00    -0.744 OA
ENDBRANCH  79  80
ENDBRANCH  51  74
BRANCH  63  84
ATOM     84  C   UNL A   1      39.806  33.581  37.408  1.00  0.00    -0.014 A 
ATOM     85  C   UNL A   1      40.336  34.881  37.454  1.00  0.00     0.010 A 
ATOM     86  C   UNL A   1      39.041  33.110  38.491  1.00  0.00     0.010 A 
ATOM     87  C   UNL A   1      40.128  35.687  38.575  1.00  0.00     0.020 A 
ATOM     88  C   UNL A   1      38.803  33.925  39.598  1.00  0.00     0.020 A 
ATOM     89  C   UNL A   1      39.358  35.205  39.639  1.00  0.00     0.054 A 
BRANCH  89  90
ATOM     90  S   UNL A   1      39.055  36.294  41.057  1.00  0.00     0.124 S 
ATOM     91  O   UNL A   1      37.908  35.653  41.693  1.00  0.00    -0.237 OA
ATOM     92  O   UNL A   1      40.312  36.209  41.798  1.00  0.00    -0.237 OA
ATOM     93  O   UNL A   1      38.785  37.593  40.446  1.00  0.00    -0.744 OA
ENDBRANCH  89  90
ENDBRANCH  63  84
ENDBRANCH  37  38
ENDBRANCH  29  32
ENDBRANCH  27  28
ENDBRANCH   1  27
TORSDOF 17
ENDMDL
