MODEL 1
REMARK VINA RESULT:     -12.5      0.000      0.000
REMARK SMILES Cc1ccc(C(F)(F)F)cc1/C=C/C(=O)NCCCCNC(=O)c1ccc(-c2c3nc(c(-c4ccc(S(=O)(=O)[O-])cc4)c4ccc([nH]4)c(-c4ccc(S(=O)(=O)[O-])cc4)c4nc(c(-c5ccc(S(=O)(=O)[O-])cc5)c5ccc2[nH]5)C=C4)C=C3)cc1
REMARK SMILES IDX 19 1 18 2 17 3 16 4 14 5 15 6 13 8 12 9 11 10 1 11 2 12 3 13
REMARK SMILES IDX 4 14 10 15 5 16 6 17 7 18 8 19 9 20 20 21 21 22 22 23 23 25
REMARK SMILES IDX 24 26 25 27 83 28 26 29 82 30 27 31 28 32 29 33 76 34 30 35
REMARK SMILES IDX 81 36 75 37 77 38 31 39 80 40 74 41 73 42 32 44 62 45 43 46
REMARK SMILES IDX 61 47 44 48 47 49 60 50 78 51 45 52 46 53 59 55 79 56 48 57
REMARK SMILES IDX 33 58 34 59 42 60 35 61 41 62 36 63 37 64 38 65 39 66 40 67
REMARK SMILES IDX 63 68 64 69 72 70 65 71 71 72 66 73 67 74 68 75 69 76 70 77
REMARK SMILES IDX 49 78 50 79 58 80 51 81 57 82 52 83 53 84 54 85 55 86 56 87
REMARK H PARENT 16 7 21 24 77 43 47 54
REMARK Flexibility Score: inf
ROOT
ATOM      1  C   UNL A   1      37.627  22.222  24.983  1.00  0.00     0.023 C 
ENDROOT
BRANCH   1   2
ATOM      2  C   UNL A   1      36.284  21.550  25.293  1.00  0.00     0.023 C 
BRANCH   2   3
ATOM      3  C   UNL A   1      35.548  22.113  26.517  1.00  0.00     0.116 C 
BRANCH   3   4
ATOM      4  N   UNL A   1      34.126  21.800  26.507  1.00  0.00    -0.353 N 
ATOM      5  C   UNL A   1      33.051  22.605  26.291  1.00  0.00     0.243 C 
ATOM      6  O   UNL A   1      31.927  22.124  26.168  1.00  0.00    -0.270 OA
ATOM      7  H   UNL A   1      33.908  20.856  26.684  1.00  0.00     0.163 HD
BRANCH   5   8
ATOM      8  C   UNL A   1      33.228  24.065  26.146  1.00  0.00     0.072 C 
ATOM      9  C   UNL A   1      33.007  24.697  24.984  1.00  0.00     0.014 C 
BRANCH   9  10
ATOM     10  C   UNL A   1      33.242  26.132  24.785  1.00  0.00    -0.022 A 
ATOM     11  C   UNL A   1      33.489  25.841  22.251  1.00  0.00     0.045 C 
ATOM     12  C   UNL A   1      33.494  26.670  23.509  1.00  0.00    -0.044 A 
ATOM     13  C   UNL A   1      33.808  28.034  23.392  1.00  0.00     0.004 A 
ATOM     14  C   UNL A   1      33.850  28.859  24.516  1.00  0.00     0.013 A 
ATOM     15  C   UNL A   1      33.284  26.974  25.910  1.00  0.00     0.021 A 
ATOM     16  C   UNL A   1      33.579  28.340  25.788  1.00  0.00     0.056 A 
BRANCH  16  17
ATOM     17  C   UNL A   1      33.644  29.236  26.997  1.00  0.00     0.416 C 
ATOM     18  F   UNL A   1      32.453  29.305  27.657  1.00  0.00    -0.166 F 
ATOM     19  F   UNL A   1      34.551  28.809  27.920  1.00  0.00    -0.166 F 
ATOM     20  F   UNL A   1      33.983  30.524  26.713  1.00  0.00    -0.166 F 
ENDBRANCH  16  17
ENDBRANCH   9  10
ENDBRANCH   5   8
ENDBRANCH   3   4
ENDBRANCH   2   3
ENDBRANCH   1   2
BRANCH   1  21
ATOM     21  C   UNL A   1      38.020  23.261  26.026  1.00  0.00     0.116 C 
BRANCH  21  22
ATOM     22  N   UNL A   1      39.202  22.922  26.802  1.00  0.00    -0.352 N 
ATOM     23  C   UNL A   1      40.076  23.799  27.440  1.00  0.00     0.251 C 
ATOM     24  H   UNL A   1      39.407  21.963  26.887  1.00  0.00     0.163 HD
ATOM     25  O   UNL A   1      41.150  23.453  27.863  1.00  0.00    -0.269 OA
BRANCH  23  26
ATOM     26  C   UNL A   1      39.565  25.171  27.684  1.00  0.00     0.039 A 
ATOM     27  C   UNL A   1      40.001  26.174  26.811  1.00  0.00     0.014 A 
ATOM     28  C   UNL A   1      38.944  25.485  28.888  1.00  0.00     0.014 A 
ATOM     29  C   UNL A   1      39.990  27.501  27.235  1.00  0.00     0.010 A 
ATOM     30  C   UNL A   1      39.025  26.788  29.345  1.00  0.00     0.010 A 
ATOM     31  C   UNL A   1      39.597  27.787  28.541  1.00  0.00    -0.014 A 
BRANCH  31  32
ATOM     32  C   UNL A   1      39.845  29.068  29.199  1.00  0.00     0.031 A 
ATOM     33  C   UNL A   1      38.852  30.165  29.104  1.00  0.00     0.074 A 
ATOM     34  C   UNL A   1      40.920  29.216  30.006  1.00  0.00     0.049 A 
ATOM     35  N   UNL A   1      39.101  31.409  29.350  1.00  0.00    -0.248 NA
ATOM     36  C   UNL A   1      37.486  29.937  28.643  1.00  0.00     0.031 C 
ATOM     37  C   UNL A   1      41.113  30.256  31.015  1.00  0.00     0.029 A 
ATOM     38  N   UNL A   1      42.166  28.587  29.934  1.00  0.00    -0.354 N 
ATOM     39  C   UNL A   1      37.889  32.064  29.417  1.00  0.00     0.074 A 
ATOM     40  C   UNL A   1      36.939  31.138  28.849  1.00  0.00     0.031 C 
ATOM     41  C   UNL A   1      42.428  30.400  31.237  1.00  0.00     0.029 A 
ATOM     42  C   UNL A   1      43.119  29.564  30.271  1.00  0.00     0.049 A 
ATOM     43  H   UNL A   1      42.341  27.648  29.696  1.00  0.00     0.167 HD
ATOM     44  C   UNL A   1      37.794  33.244  30.097  1.00  0.00     0.031 A 
ATOM     45  C   UNL A   1      44.125  29.981  29.447  1.00  0.00     0.031 A 
ATOM     46  C   UNL A   1      39.108  33.749  30.498  1.00  0.00     0.049 A 
ATOM     47  C   UNL A   1      44.104  31.471  29.185  1.00  0.00     0.074 A 
ATOM     48  C   UNL A   1      39.788  33.779  31.704  1.00  0.00     0.029 A 
ATOM     49  N   UNL A   1      40.035  34.092  29.518  1.00  0.00    -0.354 N 
ATOM     50  N   UNL A   1      43.097  32.243  29.483  1.00  0.00    -0.248 NA
ATOM     51  C   UNL A   1      45.182  32.201  28.521  1.00  0.00     0.031 C 
ATOM     52  C   UNL A   1      41.154  34.053  31.432  1.00  0.00     0.029 A 
ATOM     53  C   UNL A   1      41.296  34.219  30.066  1.00  0.00     0.049 A 
ATOM     54  H   UNL A   1      39.821  34.225  28.566  1.00  0.00     0.167 HD
ATOM     55  C   UNL A   1      43.351  33.520  29.060  1.00  0.00     0.074 A 
ATOM     56  C   UNL A   1      44.679  33.449  28.478  1.00  0.00     0.031 C 
ATOM     57  C   UNL A   1      42.440  34.524  29.216  1.00  0.00     0.031 A 
BRANCH  44  58
ATOM     58  C   UNL A   1      36.488  33.773  30.672  1.00  0.00    -0.014 A 
ATOM     59  C   UNL A   1      35.410  34.062  29.807  1.00  0.00     0.010 A 
ATOM     60  C   UNL A   1      36.282  34.099  32.026  1.00  0.00     0.010 A 
ATOM     61  C   UNL A   1      34.257  34.739  30.244  1.00  0.00     0.020 A 
ATOM     62  C   UNL A   1      35.152  34.800  32.474  1.00  0.00     0.020 A 
ATOM     63  C   UNL A   1      34.151  35.135  31.574  1.00  0.00     0.054 A 
BRANCH  63  64
ATOM     64  S   UNL A   1      32.713  36.096  32.111  1.00  0.00     0.124 S 
ATOM     65  O   UNL A   1      33.265  36.912  33.190  1.00  0.00    -0.237 OA
ATOM     66  O   UNL A   1      32.347  36.819  30.897  1.00  0.00    -0.237 OA
ATOM     67  O   UNL A   1      31.755  35.079  32.539  1.00  0.00    -0.744 OA
ENDBRANCH  63  64
ENDBRANCH  44  58
BRANCH  45  68
ATOM     68  C   UNL A   1      44.604  28.949  28.489  1.00  0.00    -0.014 A 
ATOM     69  C   UNL A   1      44.035  28.962  27.199  1.00  0.00     0.010 A 
ATOM     70  C   UNL A   1      45.849  28.326  28.685  1.00  0.00     0.010 A 
ATOM     71  C   UNL A   1      44.778  28.537  26.096  1.00  0.00     0.020 A 
ATOM     72  C   UNL A   1      46.594  27.894  27.578  1.00  0.00     0.020 A 
ATOM     73  C   UNL A   1      46.079  28.073  26.290  1.00  0.00     0.054 A 
BRANCH  73  74
ATOM     74  S   UNL A   1      47.151  27.930  24.829  1.00  0.00     0.124 S 
ATOM     75  O   UNL A   1      46.889  26.566  24.381  1.00  0.00    -0.237 OA
ATOM     76  O   UNL A   1      46.619  28.988  23.971  1.00  0.00    -0.237 OA
ATOM     77  O   UNL A   1      48.486  28.173  25.369  1.00  0.00    -0.744 OA
ENDBRANCH  73  74
ENDBRANCH  45  68
BRANCH  57  78
ATOM     78  C   UNL A   1      42.556  35.912  28.643  1.00  0.00    -0.014 A 
ATOM     79  C   UNL A   1      42.002  36.306  27.415  1.00  0.00     0.010 A 
ATOM     80  C   UNL A   1      43.143  36.926  29.439  1.00  0.00     0.010 A 
ATOM     81  C   UNL A   1      42.079  37.635  26.975  1.00  0.00     0.020 A 
ATOM     82  C   UNL A   1      43.191  38.260  29.028  1.00  0.00     0.020 A 
ATOM     83  C   UNL A   1      42.676  38.604  27.784  1.00  0.00     0.054 A 
BRANCH  83  84
ATOM     84  S   UNL A   1      42.710  40.334  27.247  1.00  0.00     0.124 S 
ATOM     85  O   UNL A   1      43.298  40.998  28.408  1.00  0.00    -0.237 OA
ATOM     86  O   UNL A   1      43.555  40.294  26.055  1.00  0.00    -0.237 OA
ATOM     87  O   UNL A   1      41.304  40.639  26.994  1.00  0.00    -0.744 OA
ENDBRANCH  83  84
ENDBRANCH  57  78
ENDBRANCH  31  32
ENDBRANCH  23  26
ENDBRANCH  21  22
ENDBRANCH   1  21
TORSDOF 16
ENDMDL
MODEL 2
REMARK VINA RESULT:     -12.4      1.512      2.024
REMARK SMILES Cc1ccc(C(F)(F)F)cc1/C=C/C(=O)NCCCCNC(=O)c1ccc(-c2c3nc(c(-c4ccc(S(=O)(=O)[O-])cc4)c4ccc([nH]4)c(-c4ccc(S(=O)(=O)[O-])cc4)c4nc(c(-c5ccc(S(=O)(=O)[O-])cc5)c5ccc2[nH]5)C=C4)C=C3)cc1
REMARK SMILES IDX 19 1 18 2 17 3 16 4 14 5 15 6 13 8 12 9 11 10 1 11 2 12 3 13
REMARK SMILES IDX 4 14 10 15 5 16 6 17 7 18 8 19 9 20 20 21 21 22 22 23 23 25
REMARK SMILES IDX 24 26 25 27 83 28 26 29 82 30 27 31 28 32 29 33 76 34 30 35
REMARK SMILES IDX 81 36 75 37 77 38 31 39 80 40 74 41 73 42 32 44 62 45 43 46
REMARK SMILES IDX 61 47 44 48 47 49 60 50 78 51 45 52 46 53 59 55 79 56 48 57
REMARK SMILES IDX 33 58 34 59 42 60 35 61 41 62 36 63 37 64 38 65 39 66 40 67
REMARK SMILES IDX 63 68 64 69 72 70 65 71 71 72 66 73 67 74 68 75 69 76 70 77
REMARK SMILES IDX 49 78 50 79 58 80 51 81 57 82 52 83 53 84 54 85 55 86 56 87
REMARK H PARENT 16 7 21 24 77 43 47 54
REMARK Flexibility Score: inf
ROOT
ATOM      1  C   UNL A   1      37.401  22.135  25.336  1.00  0.00     0.023 C 
ENDROOT
BRANCH   1   2
ATOM      2  C   UNL A   1      35.912  22.340  25.031  1.00  0.00     0.023 C 
BRANCH   2   3
ATOM      3  C   UNL A   1      35.272  23.550  25.727  1.00  0.00     0.116 C 
BRANCH   3   4
ATOM      4  N   UNL A   1      34.162  23.174  26.592  1.00  0.00    -0.353 N 
ATOM      5  C   UNL A   1      32.917  23.708  26.704  1.00  0.00     0.243 C 
ATOM      6  O   UNL A   1      32.058  23.152  27.386  1.00  0.00    -0.270 OA
ATOM      7  H   UNL A   1      34.341  22.412  27.189  1.00  0.00     0.163 HD
BRANCH   5   8
ATOM      8  C   UNL A   1      32.561  24.937  25.963  1.00  0.00     0.072 C 
ATOM      9  C   UNL A   1      32.513  26.139  26.558  1.00  0.00     0.014 C 
BRANCH   9  10
ATOM     10  C   UNL A   1      32.094  27.366  25.871  1.00  0.00    -0.022 A 
ATOM     11  C   UNL A   1      33.682  28.809  27.272  1.00  0.00     0.045 C 
ATOM     12  C   UNL A   1      32.620  28.624  26.219  1.00  0.00    -0.044 A 
ATOM     13  C   UNL A   1      32.111  29.774  25.594  1.00  0.00     0.004 A 
ATOM     14  C   UNL A   1      31.114  29.681  24.623  1.00  0.00     0.013 A 
ATOM     15  C   UNL A   1      31.091  27.284  24.889  1.00  0.00     0.021 A 
ATOM     16  C   UNL A   1      30.599  28.433  24.252  1.00  0.00     0.056 A 
BRANCH  16  17
ATOM     17  C   UNL A   1      29.510  28.345  23.216  1.00  0.00     0.416 C 
ATOM     18  F   UNL A   1      28.907  29.547  22.991  1.00  0.00    -0.166 F 
ATOM     19  F   UNL A   1      29.972  27.932  22.001  1.00  0.00    -0.166 F 
ATOM     20  F   UNL A   1      28.505  27.485  23.542  1.00  0.00    -0.166 F 
ENDBRANCH  16  17
ENDBRANCH   9  10
ENDBRANCH   5   8
ENDBRANCH   3   4
ENDBRANCH   2   3
ENDBRANCH   1   2
BRANCH   1  21
ATOM     21  C   UNL A   1      38.012  23.302  26.101  1.00  0.00     0.116 C 
BRANCH  21  22
ATOM     22  N   UNL A   1      39.213  22.972  26.850  1.00  0.00    -0.352 N 
ATOM     23  C   UNL A   1      40.102  23.856  27.457  1.00  0.00     0.251 C 
ATOM     24  H   UNL A   1      39.422  22.014  26.937  1.00  0.00     0.163 HD
ATOM     25  O   UNL A   1      41.187  23.515  27.855  1.00  0.00    -0.269 OA
BRANCH  23  26
ATOM     26  C   UNL A   1      39.595  25.229  27.703  1.00  0.00     0.039 A 
ATOM     27  C   UNL A   1      40.054  26.237  26.847  1.00  0.00     0.014 A 
ATOM     28  C   UNL A   1      38.952  25.537  28.897  1.00  0.00     0.014 A 
ATOM     29  C   UNL A   1      40.043  27.560  27.281  1.00  0.00     0.010 A 
ATOM     30  C   UNL A   1      39.031  26.836  29.366  1.00  0.00     0.010 A 
ATOM     31  C   UNL A   1      39.625  27.838  28.582  1.00  0.00    -0.014 A 
BRANCH  31  32
ATOM     32  C   UNL A   1      39.868  29.112  29.256  1.00  0.00     0.031 A 
ATOM     33  C   UNL A   1      38.871  30.207  29.171  1.00  0.00     0.074 A 
ATOM     34  C   UNL A   1      40.940  29.253  30.067  1.00  0.00     0.049 A 
ATOM     35  N   UNL A   1      39.117  31.449  29.432  1.00  0.00    -0.248 NA
ATOM     36  C   UNL A   1      37.508  29.981  28.703  1.00  0.00     0.031 C 
ATOM     37  C   UNL A   1      41.128  30.282  31.089  1.00  0.00     0.029 A 
ATOM     38  N   UNL A   1      42.188  28.628  29.992  1.00  0.00    -0.354 N 
ATOM     39  C   UNL A   1      37.903  32.099  29.503  1.00  0.00     0.074 A 
ATOM     40  C   UNL A   1      36.957  31.177  28.922  1.00  0.00     0.031 C 
ATOM     41  C   UNL A   1      42.441  30.427  31.316  1.00  0.00     0.029 A 
ATOM     42  C   UNL A   1      43.137  29.604  30.343  1.00  0.00     0.049 A 
ATOM     43  H   UNL A   1      42.366  27.692  29.743  1.00  0.00     0.167 HD
ATOM     44  C   UNL A   1      37.802  33.271  30.197  1.00  0.00     0.031 A 
ATOM     45  C   UNL A   1      44.144  30.033  29.527  1.00  0.00     0.031 A 
ATOM     46  C   UNL A   1      39.114  33.775  30.607  1.00  0.00     0.049 A 
ATOM     47  C   UNL A   1      44.120  31.527  29.282  1.00  0.00     0.074 A 
ATOM     48  C   UNL A   1      39.790  33.792  31.816  1.00  0.00     0.029 A 
ATOM     49  N   UNL A   1      40.042  34.132  29.634  1.00  0.00    -0.354 N 
ATOM     50  N   UNL A   1      43.110  32.292  29.586  1.00  0.00    -0.248 NA
ATOM     51  C   UNL A   1      45.198  32.267  28.630  1.00  0.00     0.031 C 
ATOM     52  C   UNL A   1      41.156  34.073  31.551  1.00  0.00     0.029 A 
ATOM     53  C   UNL A   1      41.302  34.256  30.188  1.00  0.00     0.049 A 
ATOM     54  H   UNL A   1      39.831  34.276  28.683  1.00  0.00     0.167 HD
ATOM     55  C   UNL A   1      43.361  33.575  29.179  1.00  0.00     0.074 A 
ATOM     56  C   UNL A   1      44.691  33.514  28.600  1.00  0.00     0.031 C 
ATOM     57  C   UNL A   1      42.447  34.574  29.344  1.00  0.00     0.031 A 
BRANCH  44  58
ATOM     58  C   UNL A   1      36.493  33.789  30.774  1.00  0.00    -0.014 A 
ATOM     59  C   UNL A   1      35.371  33.945  29.932  1.00  0.00     0.010 A 
ATOM     60  C   UNL A   1      36.321  34.232  32.099  1.00  0.00     0.010 A 
ATOM     61  C   UNL A   1      34.202  34.604  30.352  1.00  0.00     0.020 A 
ATOM     62  C   UNL A   1      35.174  34.917  32.528  1.00  0.00     0.020 A 
ATOM     63  C   UNL A   1      34.125  35.118  31.643  1.00  0.00     0.054 A 
BRANCH  63  64
ATOM     64  S   UNL A   1      32.661  36.057  32.148  1.00  0.00     0.124 S 
ATOM     65  O   UNL A   1      32.326  36.795  30.933  1.00  0.00    -0.237 OA
ATOM     66  O   UNL A   1      31.725  35.002  32.525  1.00  0.00    -0.237 OA
ATOM     67  O   UNL A   1      33.143  36.882  33.255  1.00  0.00    -0.744 OA
ENDBRANCH  63  64
ENDBRANCH  44  58
BRANCH  45  68
ATOM     68  C   UNL A   1      44.629  29.014  28.559  1.00  0.00    -0.014 A 
ATOM     69  C   UNL A   1      44.051  29.030  27.272  1.00  0.00     0.010 A 
ATOM     70  C   UNL A   1      45.883  28.405  28.741  1.00  0.00     0.010 A 
ATOM     71  C   UNL A   1      44.791  28.621  26.161  1.00  0.00     0.020 A 
ATOM     72  C   UNL A   1      46.625  27.990  27.625  1.00  0.00     0.020 A 
ATOM     73  C   UNL A   1      46.099  28.172  26.343  1.00  0.00     0.054 A 
BRANCH  73  74
ATOM     74  S   UNL A   1      47.162  28.052  24.873  1.00  0.00     0.124 S 
ATOM     75  O   UNL A   1      46.917  26.686  24.420  1.00  0.00    -0.237 OA
ATOM     76  O   UNL A   1      46.608  29.107  24.025  1.00  0.00    -0.237 OA
ATOM     77  O   UNL A   1      48.497  28.313  25.404  1.00  0.00    -0.744 OA
ENDBRANCH  73  74
ENDBRANCH  45  68
BRANCH  57  78
ATOM     78  C   UNL A   1      42.561  35.970  28.788  1.00  0.00    -0.014 A 
ATOM     79  C   UNL A   1      43.261  37.011  29.415  1.00  0.00     0.010 A 
ATOM     80  C   UNL A   1      42.048  36.227  27.494  1.00  0.00     0.010 A 
ATOM     81  C   UNL A   1      43.396  38.267  28.806  1.00  0.00     0.020 A 
ATOM     82  C   UNL A   1      42.209  37.461  26.861  1.00  0.00     0.020 A 
ATOM     83  C   UNL A   1      42.866  38.486  27.533  1.00  0.00     0.054 A 
BRANCH  83  84
ATOM     84  S   UNL A   1      43.103  40.085  26.717  1.00  0.00     0.124 S 
ATOM     85  O   UNL A   1      41.843  40.244  25.994  1.00  0.00    -0.237 OA
ATOM     86  O   UNL A   1      43.300  41.002  27.838  1.00  0.00    -0.237 OA
ATOM     87  O   UNL A   1      44.283  39.870  25.884  1.00  0.00    -0.744 OA
ENDBRANCH  83  84
ENDBRANCH  57  78
ENDBRANCH  31  32
ENDBRANCH  23  26
ENDBRANCH  21  22
ENDBRANCH   1  21
TORSDOF 16
ENDMDL
MODEL 3
REMARK VINA RESULT:     -12.3      5.314     11.658
REMARK SMILES Cc1ccc(C(F)(F)F)cc1/C=C/C(=O)NCCCCNC(=O)c1ccc(-c2c3nc(c(-c4ccc(S(=O)(=O)[O-])cc4)c4ccc([nH]4)c(-c4ccc(S(=O)(=O)[O-])cc4)c4nc(c(-c5ccc(S(=O)(=O)[O-])cc5)c5ccc2[nH]5)C=C4)C=C3)cc1
REMARK SMILES IDX 19 1 18 2 17 3 16 4 14 5 15 6 13 8 12 9 11 10 1 11 2 12 3 13
REMARK SMILES IDX 4 14 10 15 5 16 6 17 7 18 8 19 9 20 20 21 21 22 22 23 23 25
REMARK SMILES IDX 24 26 25 27 83 28 26 29 82 30 27 31 28 32 29 33 76 34 30 35
REMARK SMILES IDX 81 36 75 37 77 38 31 39 80 40 74 41 73 42 32 44 62 45 43 46
REMARK SMILES IDX 61 47 44 48 47 49 60 50 78 51 45 52 46 53 59 55 79 56 48 57
REMARK SMILES IDX 33 58 34 59 42 60 35 61 41 62 36 63 37 64 38 65 39 66 40 67
REMARK SMILES IDX 63 68 64 69 72 70 65 71 71 72 66 73 67 74 68 75 69 76 70 77
REMARK SMILES IDX 49 78 50 79 58 80 51 81 57 82 52 83 53 84 54 85 55 86 56 87
REMARK H PARENT 16 7 21 24 77 43 47 54
REMARK Flexibility Score: inf
ROOT
ATOM      1  C   UNL A   1      34.028  29.321  26.124  1.00  0.00     0.023 C 
ENDROOT
BRANCH   1   2
ATOM      2  C   UNL A   1      33.042  28.150  26.047  1.00  0.00     0.023 C 
BRANCH   2   3
ATOM      3  C   UNL A   1      33.623  26.856  25.459  1.00  0.00     0.116 C 
BRANCH   3   4
ATOM      4  N   UNL A   1      33.364  26.725  24.032  1.00  0.00    -0.353 N 
ATOM      5  C   UNL A   1      33.251  25.612  23.258  1.00  0.00     0.243 C 
ATOM      6  O   UNL A   1      32.874  25.699  22.091  1.00  0.00    -0.270 OA
ATOM      7  H   UNL A   1      33.252  27.577  23.551  1.00  0.00     0.163 HD
BRANCH   5   8
ATOM      8  C   UNL A   1      33.529  24.276  23.826  1.00  0.00     0.072 C 
ATOM      9  C   UNL A   1      34.749  23.721  23.776  1.00  0.00     0.014 C 
BRANCH   9  10
ATOM     10  C   UNL A   1      35.044  22.369  24.264  1.00  0.00    -0.022 A 
ATOM     11  C   UNL A   1      37.479  22.979  24.781  1.00  0.00     0.045 C 
ATOM     12  C   UNL A   1      36.328  22.008  24.713  1.00  0.00    -0.044 A 
ATOM     13  C   UNL A   1      36.576  20.675  25.077  1.00  0.00     0.004 A 
ATOM     14  C   UNL A   1      35.563  19.716  25.021  1.00  0.00     0.013 A 
ATOM     15  C   UNL A   1      34.031  21.395  24.215  1.00  0.00     0.021 A 
ATOM     16  C   UNL A   1      34.276  20.068  24.599  1.00  0.00     0.056 A 
BRANCH  16  17
ATOM     17  C   UNL A   1      33.195  19.022  24.525  1.00  0.00     0.416 C 
ATOM     18  F   UNL A   1      32.101  19.453  23.835  1.00  0.00    -0.166 F 
ATOM     19  F   UNL A   1      33.603  17.885  23.895  1.00  0.00    -0.166 F 
ATOM     20  F   UNL A   1      32.728  18.624  25.742  1.00  0.00    -0.166 F 
ENDBRANCH  16  17
ENDBRANCH   9  10
ENDBRANCH   5   8
ENDBRANCH   3   4
ENDBRANCH   2   3
ENDBRANCH   1   2
BRANCH   1  21
ATOM     21  C   UNL A   1      34.192  29.862  27.539  1.00  0.00     0.116 C 
BRANCH  21  22
ATOM     22  N   UNL A   1      34.969  31.086  27.634  1.00  0.00    -0.352 N 
ATOM     23  C   UNL A   1      36.291  31.220  28.051  1.00  0.00     0.251 C 
ATOM     24  H   UNL A   1      34.507  31.916  27.372  1.00  0.00     0.163 HD
ATOM     25  O   UNL A   1      36.783  32.287  28.318  1.00  0.00    -0.269 OA
BRANCH  23  26
ATOM     26  C   UNL A   1      37.111  29.983  28.034  1.00  0.00     0.039 A 
ATOM     27  C   UNL A   1      37.154  29.235  29.216  1.00  0.00     0.014 A 
ATOM     28  C   UNL A   1      38.021  29.758  27.006  1.00  0.00     0.014 A 
ATOM     29  C   UNL A   1      38.236  28.389  29.450  1.00  0.00     0.010 A 
ATOM     30  C   UNL A   1      39.141  28.995  27.281  1.00  0.00     0.010 A 
ATOM     31  C   UNL A   1      39.276  28.353  28.523  1.00  0.00    -0.014 A 
BRANCH  31  32
ATOM     32  C   UNL A   1      40.588  27.772  28.799  1.00  0.00     0.031 A 
ATOM     33  C   UNL A   1      40.855  26.345  28.492  1.00  0.00     0.074 A 
ATOM     34  C   UNL A   1      41.604  28.561  29.215  1.00  0.00     0.049 A 
ATOM     35  N   UNL A   1      41.831  25.656  28.983  1.00  0.00    -0.248 NA
ATOM     36  C   UNL A   1      39.972  25.557  27.637  1.00  0.00     0.031 C 
ATOM     37  C   UNL A   1      43.029  28.240  29.170  1.00  0.00     0.029 A 
ATOM     38  N   UNL A   1      41.551  29.736  29.970  1.00  0.00    -0.354 N 
ATOM     39  C   UNL A   1      41.904  24.480  28.265  1.00  0.00     0.074 A 
ATOM     40  C   UNL A   1      40.660  24.417  27.535  1.00  0.00     0.031 C 
ATOM     41  C   UNL A   1      43.665  28.981  30.088  1.00  0.00     0.029 A 
ATOM     42  C   UNL A   1      42.648  29.686  30.848  1.00  0.00     0.049 A 
ATOM     43  H   UNL A   1      40.880  30.453  29.902  1.00  0.00     0.167 HD
ATOM     44  C   UNL A   1      43.074  23.778  28.234  1.00  0.00     0.031 A 
ATOM     45  C   UNL A   1      42.551  29.700  32.210  1.00  0.00     0.031 A 
ATOM     46  C   UNL A   1      44.054  24.311  29.182  1.00  0.00     0.049 A 
ATOM     47  C   UNL A   1      43.201  28.502  32.867  1.00  0.00     0.074 A 
ATOM     48  C   UNL A   1      45.192  25.087  29.036  1.00  0.00     0.029 A 
ATOM     49  N   UNL A   1      43.773  24.280  30.544  1.00  0.00    -0.354 N 
ATOM     50  N   UNL A   1      43.578  27.437  32.217  1.00  0.00    -0.248 NA
ATOM     51  C   UNL A   1      43.428  28.379  34.306  1.00  0.00     0.031 C 
ATOM     52  C   UNL A   1      45.541  25.599  30.313  1.00  0.00     0.029 A 
ATOM     53  C   UNL A   1      44.633  25.110  31.236  1.00  0.00     0.049 A 
ATOM     54  H   UNL A   1      43.059  23.742  30.957  1.00  0.00     0.167 HD
ATOM     55  C   UNL A   1      44.063  26.505  33.094  1.00  0.00     0.074 A 
ATOM     56  C   UNL A   1      43.964  27.148  34.392  1.00  0.00     0.031 C 
ATOM     57  C   UNL A   1      44.492  25.279  32.677  1.00  0.00     0.031 A 
BRANCH  44  58
ATOM     58  C   UNL A   1      43.436  22.808  27.119  1.00  0.00    -0.014 A 
ATOM     59  C   UNL A   1      42.691  21.619  26.958  1.00  0.00     0.010 A 
ATOM     60  C   UNL A   1      44.543  22.949  26.262  1.00  0.00     0.010 A 
ATOM     61  C   UNL A   1      43.095  20.592  26.086  1.00  0.00     0.020 A 
ATOM     62  C   UNL A   1      44.978  21.924  25.408  1.00  0.00     0.020 A 
ATOM     63  C   UNL A   1      44.260  20.739  25.338  1.00  0.00     0.054 A 
BRANCH  63  64
ATOM     64  S   UNL A   1      44.834  19.374  24.295  1.00  0.00     0.124 S 
ATOM     65  O   UNL A   1      44.089  18.236  24.828  1.00  0.00    -0.237 OA
ATOM     66  O   UNL A   1      44.444  19.814  22.959  1.00  0.00    -0.237 OA
ATOM     67  O   UNL A   1      46.274  19.333  24.539  1.00  0.00    -0.744 OA
ENDBRANCH  63  64
ENDBRANCH  44  58
BRANCH  45  68
ATOM     68  C   UNL A   1      41.367  30.428  32.736  1.00  0.00    -0.014 A 
ATOM     69  C   UNL A   1      40.192  29.674  32.941  1.00  0.00     0.010 A 
ATOM     70  C   UNL A   1      41.531  31.644  33.423  1.00  0.00     0.010 A 
ATOM     71  C   UNL A   1      39.295  30.025  33.951  1.00  0.00     0.020 A 
ATOM     72  C   UNL A   1      40.627  32.000  34.435  1.00  0.00     0.020 A 
ATOM     73  C   UNL A   1      39.560  31.147  34.736  1.00  0.00     0.054 A 
BRANCH  73  74
ATOM     74  S   UNL A   1      38.624  31.336  36.283  1.00  0.00     0.124 S 
ATOM     75  O   UNL A   1      38.387  29.950  36.676  1.00  0.00    -0.237 OA
ATOM     76  O   UNL A   1      39.576  32.073  37.113  1.00  0.00    -0.237 OA
ATOM     77  O   UNL A   1      37.442  32.086  35.868  1.00  0.00    -0.744 OA
ENDBRANCH  73  74
ENDBRANCH  45  68
BRANCH  57  78
ATOM     78  C   UNL A   1      44.886  24.134  33.573  1.00  0.00    -0.014 A 
ATOM     79  C   UNL A   1      44.025  23.087  33.936  1.00  0.00     0.010 A 
ATOM     80  C   UNL A   1      46.239  24.023  33.975  1.00  0.00     0.010 A 
ATOM     81  C   UNL A   1      44.477  22.009  34.711  1.00  0.00     0.020 A 
ATOM     82  C   UNL A   1      46.709  22.935  34.714  1.00  0.00     0.020 A 
ATOM     83  C   UNL A   1      45.817  21.941  35.098  1.00  0.00     0.054 A 
BRANCH  83  84
ATOM     84  S   UNL A   1      46.415  20.512  36.037  1.00  0.00     0.124 S 
ATOM     85  O   UNL A   1      45.695  20.659  37.300  1.00  0.00    -0.237 OA
ATOM     86  O   UNL A   1      46.005  19.378  35.211  1.00  0.00    -0.237 OA
ATOM     87  O   UNL A   1      47.858  20.732  36.106  1.00  0.00    -0.744 OA
ENDBRANCH  83  84
ENDBRANCH  57  78
ENDBRANCH  31  32
ENDBRANCH  23  26
ENDBRANCH  21  22
ENDBRANCH   1  21
TORSDOF 16
ENDMDL
