MODEL 1
REMARK VINA RESULT:     -13.8      0.000      0.000
REMARK SMILES C[C@]12C(=O)N(c3ccc(C(=O)NCCCCNC(=O)c4ccc(-c5c6nc(c(-c7ccc(S(=O)(=O)[O-])cc7)c7ccc([nH]7)c(-c7ccc(S(=O)(=O)[O-])cc7)c7nc(c(-c8ccc(S(=O)(=O)[O-])cc8)c8ccc5[nH]8)C=C7)C=C6)cc4)cc3)C(=O)[C@H]1[C@H]1c3ccccc3[C@@H]2c2ccccc21
REMARK SMILES IDX 15 1 14 2 13 3 12 4 10 5 11 6 9 8 6 9 7 10 81 11 8 12 80 13
REMARK SMILES IDX 5 14 1 15 2 16 3 17 84 18 92 19 4 20 82 21 85 22 91 23 93 24
REMARK SMILES IDX 83 25 86 26 98 27 90 28 94 29 87 30 97 31 89 32 95 33 88 34
REMARK SMILES IDX 96 35 16 36 17 37 18 38 19 40 20 41 21 42 79 43 22 44 78 45
REMARK SMILES IDX 23 46 24 47 25 48 72 49 26 50 77 51 71 52 73 53 27 54 76 55
REMARK SMILES IDX 70 56 69 57 28 59 58 60 39 61 57 62 40 63 43 64 56 65 74 66
REMARK SMILES IDX 41 67 42 68 55 70 75 71 44 72 29 73 30 74 38 75 31 76 37 77
REMARK SMILES IDX 32 78 33 79 34 80 35 81 36 82 59 83 60 84 68 85 61 86 67 87
REMARK SMILES IDX 62 88 63 89 64 90 65 91 66 92 45 93 46 94 54 95 47 96 53 97
REMARK SMILES IDX 48 98 49 99 50 100 51 101 52 102
REMARK H PARENT 12 7 17 39 73 58 43 69
REMARK Flexibility Score: inf
ROOT
ATOM      1  C   UNL A   1      41.060  22.052  27.410  1.00  0.00     0.023 C 
ENDROOT
BRANCH   1   2
ATOM      2  C   UNL A   1      40.296  21.363  26.287  1.00  0.00     0.023 C 
BRANCH   2   3
ATOM      3  C   UNL A   1      38.883  21.872  26.040  1.00  0.00     0.116 C 
BRANCH   3   4
ATOM      4  N   UNL A   1      37.995  20.875  25.474  1.00  0.00    -0.352 N 
ATOM      5  C   UNL A   1      36.655  20.943  25.190  1.00  0.00     0.251 C 
ATOM      6  O   UNL A   1      36.070  19.951  24.761  1.00  0.00    -0.269 OA
ATOM      7  H   UNL A   1      38.420  20.013  25.260  1.00  0.00     0.163 HD
BRANCH   5   8
ATOM      8  C   UNL A   1      35.885  22.185  25.435  1.00  0.00     0.039 A 
ATOM      9  C   UNL A   1      34.387  24.522  26.017  1.00  0.00     0.052 A 
ATOM     10  C   UNL A   1      34.495  23.466  26.942  1.00  0.00     0.027 A 
ATOM     11  C   UNL A   1      35.050  24.373  24.788  1.00  0.00     0.027 A 
ATOM     12  C   UNL A   1      35.232  22.311  26.658  1.00  0.00     0.016 A 
ATOM     13  C   UNL A   1      35.750  23.198  24.484  1.00  0.00     0.016 A 
BRANCH   9  14
ATOM     14  N   UNL A   1      33.444  25.584  26.204  1.00  0.00    -0.250 N 
ATOM     15  C   UNL A   1      30.669  27.288  26.588  1.00  0.00     0.024 C 
ATOM     16  C   UNL A   1      31.358  26.384  25.546  1.00  0.00     0.071 C 
ATOM     17  C   UNL A   1      32.089  25.314  26.315  1.00  0.00     0.241 C 
ATOM     18  C   UNL A   1      32.495  27.134  24.792  1.00  0.00     0.107 C 
ATOM     19  C   UNL A   1      30.393  25.748  24.497  1.00  0.00     0.066 C 
ATOM     20  O   UNL A   1      31.515  24.435  26.925  1.00  0.00    -0.273 OA
ATOM     21  C   UNL A   1      33.646  26.900  25.746  1.00  0.00     0.238 C 
ATOM     22  C   UNL A   1      32.035  27.481  23.326  1.00  0.00     0.063 C 
ATOM     23  C   UNL A   1      31.246  25.117  23.378  1.00  0.00    -0.036 A 
ATOM     24  C   UNL A   1      29.677  26.933  23.858  1.00  0.00    -0.036 A 
ATOM     25  O   UNL A   1      34.574  27.661  25.962  1.00  0.00    -0.274 OA
ATOM     26  C   UNL A   1      32.049  26.058  22.654  1.00  0.00    -0.036 A 
ATOM     27  C   UNL A   1      30.559  27.889  23.281  1.00  0.00    -0.036 A 
ATOM     28  C   UNL A   1      31.422  23.756  23.177  1.00  0.00     0.005 A 
ATOM     29  C   UNL A   1      28.299  27.070  23.773  1.00  0.00     0.005 A 
ATOM     30  C   UNL A   1      33.005  25.635  21.738  1.00  0.00     0.004 A 
ATOM     31  C   UNL A   1      30.036  28.980  22.599  1.00  0.00     0.004 A 
ATOM     32  C   UNL A   1      32.390  23.335  22.261  1.00  0.00     0.000 A 
ATOM     33  C   UNL A   1      27.785  28.171  23.093  1.00  0.00     0.000 A 
ATOM     34  C   UNL A   1      33.169  24.263  21.548  1.00  0.00     0.000 A 
ATOM     35  C   UNL A   1      28.645  29.115  22.512  1.00  0.00     0.000 A 
ENDBRANCH   9  14
ENDBRANCH   5   8
ENDBRANCH   3   4
ENDBRANCH   2   3
ENDBRANCH   1   2
BRANCH   1  36
ATOM     36  C   UNL A   1      42.193  22.974  26.978  1.00  0.00     0.116 C 
BRANCH  36  37
ATOM     37  N   UNL A   1      41.830  23.923  25.931  1.00  0.00    -0.352 N 
ATOM     38  C   UNL A   1      41.552  25.269  26.027  1.00  0.00     0.251 C 
ATOM     39  H   UNL A   1      41.775  23.547  25.024  1.00  0.00     0.163 HD
ATOM     40  O   UNL A   1      41.228  25.903  25.027  1.00  0.00    -0.269 OA
BRANCH  38  41
ATOM     41  C   UNL A   1      41.586  25.923  27.350  1.00  0.00     0.039 A 
ATOM     42  C   UNL A   1      40.511  25.796  28.231  1.00  0.00     0.014 A 
ATOM     43  C   UNL A   1      42.665  26.752  27.667  1.00  0.00     0.014 A 
ATOM     44  C   UNL A   1      40.412  26.665  29.310  1.00  0.00     0.010 A 
ATOM     45  C   UNL A   1      42.607  27.553  28.811  1.00  0.00     0.010 A 
ATOM     46  C   UNL A   1      41.448  27.569  29.602  1.00  0.00    -0.014 A 
BRANCH  46  47
ATOM     47  C   UNL A   1      41.276  28.541  30.715  1.00  0.00     0.031 A 
ATOM     48  C   UNL A   1      40.138  29.531  30.705  1.00  0.00     0.074 A 
ATOM     49  C   UNL A   1      42.100  28.473  31.779  1.00  0.00     0.049 A 
ATOM     50  N   UNL A   1      39.817  30.417  31.613  1.00  0.00    -0.248 NA
ATOM     51  C   UNL A   1      39.246  29.531  29.533  1.00  0.00     0.031 C 
ATOM     52  C   UNL A   1      43.219  27.538  31.915  1.00  0.00     0.029 A 
ATOM     53  N   UNL A   1      42.103  29.170  32.961  1.00  0.00    -0.354 N 
ATOM     54  C   UNL A   1      38.704  31.089  31.117  1.00  0.00     0.074 A 
ATOM     55  C   UNL A   1      38.418  30.529  29.815  1.00  0.00     0.031 C 
ATOM     56  C   UNL A   1      43.753  27.668  33.137  1.00  0.00     0.029 A 
ATOM     57  C   UNL A   1      43.066  28.744  33.846  1.00  0.00     0.049 A 
ATOM     58  H   UNL A   1      41.477  29.903  33.157  1.00  0.00     0.167 HD
ATOM     59  C   UNL A   1      37.980  32.073  31.701  1.00  0.00     0.031 A 
ATOM     60  C   UNL A   1      43.373  29.169  35.087  1.00  0.00     0.031 A 
ATOM     61  C   UNL A   1      38.252  32.609  33.009  1.00  0.00     0.049 A 
ATOM     62  C   UNL A   1      42.577  30.284  35.698  1.00  0.00     0.074 A 
ATOM     63  C   UNL A   1      37.563  33.600  33.687  1.00  0.00     0.029 A 
ATOM     64  N   UNL A   1      39.281  32.196  33.842  1.00  0.00    -0.354 N 
ATOM     65  N   UNL A   1      41.539  30.915  35.203  1.00  0.00    -0.248 NA
ATOM     66  C   UNL A   1      42.992  30.751  37.028  1.00  0.00     0.031 C 
ATOM     67  C   UNL A   1      38.207  33.826  34.905  1.00  0.00     0.029 A 
ATOM     68  C   UNL A   1      39.258  32.929  35.017  1.00  0.00     0.049 A 
ATOM     69  H   UNL A   1      39.930  31.487  33.631  1.00  0.00     0.167 HD
ATOM     70  C   UNL A   1      41.173  31.851  36.163  1.00  0.00     0.074 A 
ATOM     71  C   UNL A   1      42.085  31.688  37.277  1.00  0.00     0.031 C 
ATOM     72  C   UNL A   1      40.175  32.765  36.117  1.00  0.00     0.031 A 
BRANCH  59  73
ATOM     73  C   UNL A   1      36.812  32.652  30.946  1.00  0.00    -0.014 A 
ATOM     74  C   UNL A   1      37.044  33.499  29.846  1.00  0.00     0.010 A 
ATOM     75  C   UNL A   1      35.494  32.470  31.401  1.00  0.00     0.010 A 
ATOM     76  C   UNL A   1      35.987  34.180  29.236  1.00  0.00     0.020 A 
ATOM     77  C   UNL A   1      34.430  33.130  30.777  1.00  0.00     0.020 A 
ATOM     78  C   UNL A   1      34.688  34.000  29.714  1.00  0.00     0.054 A 
BRANCH  78  79
ATOM     79  S   UNL A   1      33.330  34.915  28.931  1.00  0.00     0.124 S 
ATOM     80  O   UNL A   1      32.436  35.163  30.058  1.00  0.00    -0.237 OA
ATOM     81  O   UNL A   1      34.007  36.093  28.392  1.00  0.00    -0.237 OA
ATOM     82  O   UNL A   1      32.826  33.984  27.924  1.00  0.00    -0.744 OA
ENDBRANCH  78  79
ENDBRANCH  59  73
BRANCH  60  83
ATOM     83  C   UNL A   1      44.488  28.509  35.819  1.00  0.00    -0.014 A 
ATOM     84  C   UNL A   1      45.813  28.950  35.640  1.00  0.00     0.010 A 
ATOM     85  C   UNL A   1      44.246  27.378  36.617  1.00  0.00     0.010 A 
ATOM     86  C   UNL A   1      46.879  28.237  36.190  1.00  0.00     0.020 A 
ATOM     87  C   UNL A   1      45.310  26.680  37.197  1.00  0.00     0.020 A 
ATOM     88  C   UNL A   1      46.622  27.095  36.951  1.00  0.00     0.054 A 
BRANCH  88  89
ATOM     89  S   UNL A   1      48.022  26.150  37.610  1.00  0.00     0.124 S 
ATOM     90  O   UNL A   1      47.644  25.995  39.011  1.00  0.00    -0.237 OA
ATOM     91  O   UNL A   1      47.988  24.927  36.810  1.00  0.00    -0.237 OA
ATOM     92  O   UNL A   1      49.168  27.020  37.361  1.00  0.00    -0.744 OA
ENDBRANCH  88  89
ENDBRANCH  60  83
BRANCH  72  93
ATOM     93  C   UNL A   1      39.998  33.682  37.297  1.00  0.00    -0.014 A 
ATOM     94  C   UNL A   1      39.233  33.262  38.400  1.00  0.00     0.010 A 
ATOM     95  C   UNL A   1      40.477  35.003  37.256  1.00  0.00     0.010 A 
ATOM     96  C   UNL A   1      38.920  34.155  39.427  1.00  0.00     0.020 A 
ATOM     97  C   UNL A   1      40.188  35.892  38.295  1.00  0.00     0.020 A 
ATOM     98  C   UNL A   1      39.389  35.470  39.360  1.00  0.00     0.054 A 
BRANCH  98  99
ATOM     99  S   UNL A   1      38.946  36.627  40.686  1.00  0.00     0.124 S 
ATOM    100  O   UNL A   1      38.487  37.792  39.935  1.00  0.00    -0.237 OA
ATOM    101  O   UNL A   1      37.909  35.900  41.416  1.00  0.00    -0.237 OA
ATOM    102  O   UNL A   1      40.199  36.806  41.415  1.00  0.00    -0.744 OA
ENDBRANCH  98  99
ENDBRANCH  72  93
ENDBRANCH  46  47
ENDBRANCH  38  41
ENDBRANCH  36  37
ENDBRANCH   1  36
TORSDOF 15
ENDMDL
MODEL 2
REMARK VINA RESULT:     -13.6      5.915     11.560
REMARK SMILES C[C@]12C(=O)N(c3ccc(C(=O)NCCCCNC(=O)c4ccc(-c5c6nc(c(-c7ccc(S(=O)(=O)[O-])cc7)c7ccc([nH]7)c(-c7ccc(S(=O)(=O)[O-])cc7)c7nc(c(-c8ccc(S(=O)(=O)[O-])cc8)c8ccc5[nH]8)C=C7)C=C6)cc4)cc3)C(=O)[C@H]1[C@H]1c3ccccc3[C@@H]2c2ccccc21
REMARK SMILES IDX 15 1 14 2 13 3 12 4 10 5 11 6 9 8 6 9 7 10 81 11 8 12 80 13
REMARK SMILES IDX 5 14 1 15 2 16 3 17 84 18 92 19 4 20 82 21 85 22 91 23 93 24
REMARK SMILES IDX 83 25 86 26 98 27 90 28 94 29 87 30 97 31 89 32 95 33 88 34
REMARK SMILES IDX 96 35 16 36 17 37 18 38 19 40 20 41 21 42 79 43 22 44 78 45
REMARK SMILES IDX 23 46 24 47 25 48 72 49 26 50 77 51 71 52 73 53 27 54 76 55
REMARK SMILES IDX 70 56 69 57 28 59 58 60 39 61 57 62 40 63 43 64 56 65 74 66
REMARK SMILES IDX 41 67 42 68 55 70 75 71 44 72 29 73 30 74 38 75 31 76 37 77
REMARK SMILES IDX 32 78 33 79 34 80 35 81 36 82 59 83 60 84 68 85 61 86 67 87
REMARK SMILES IDX 62 88 63 89 64 90 65 91 66 92 45 93 46 94 54 95 47 96 53 97
REMARK SMILES IDX 48 98 49 99 50 100 51 101 52 102
REMARK H PARENT 12 7 17 39 73 58 43 69
REMARK Flexibility Score: inf
ROOT
ATOM      1  C   UNL A   1      35.110  31.899  28.054  1.00  0.00     0.023 C 
ENDROOT
BRANCH   1   2
ATOM      2  C   UNL A   1      35.216  30.494  27.474  1.00  0.00     0.023 C 
BRANCH   2   3
ATOM      3  C   UNL A   1      33.919  29.699  27.431  1.00  0.00     0.116 C 
BRANCH   3   4
ATOM      4  N   UNL A   1      33.073  30.022  26.298  1.00  0.00    -0.352 N 
ATOM      5  C   UNL A   1      32.359  29.200  25.464  1.00  0.00     0.251 C 
ATOM      6  O   UNL A   1      31.745  29.679  24.514  1.00  0.00    -0.269 OA
ATOM      7  H   UNL A   1      33.001  30.983  26.095  1.00  0.00     0.163 HD
BRANCH   5   8
ATOM      8  C   UNL A   1      32.353  27.732  25.662  1.00  0.00     0.039 A 
ATOM      9  C   UNL A   1      32.234  24.932  26.095  1.00  0.00     0.052 A 
ATOM     10  C   UNL A   1      31.223  25.794  26.560  1.00  0.00     0.027 A 
ATOM     11  C   UNL A   1      33.312  25.513  25.408  1.00  0.00     0.027 A 
ATOM     12  C   UNL A   1      31.279  27.176  26.349  1.00  0.00     0.016 A 
ATOM     13  C   UNL A   1      33.393  26.902  25.237  1.00  0.00     0.016 A 
BRANCH   9  14
ATOM     14  N   UNL A   1      32.302  23.565  26.518  1.00  0.00    -0.250 N 
ATOM     15  C   UNL A   1      33.388  20.591  27.372  1.00  0.00     0.024 C 
ATOM     16  C   UNL A   1      33.380  21.533  26.151  1.00  0.00     0.071 C 
ATOM     17  C   UNL A   1      33.524  22.935  26.684  1.00  0.00     0.241 C 
ATOM     18  C   UNL A   1      31.993  21.552  25.445  1.00  0.00     0.107 C 
ATOM     19  C   UNL A   1      34.482  21.231  25.089  1.00  0.00     0.066 C 
ATOM     20  O   UNL A   1      34.552  23.345  27.188  1.00  0.00    -0.273 OA
ATOM     21  C   UNL A   1      31.293  22.616  26.261  1.00  0.00     0.238 C 
ATOM     22  C   UNL A   1      32.065  20.750  24.090  1.00  0.00     0.063 C 
ATOM     23  C   UNL A   1      34.172  22.056  23.823  1.00  0.00    -0.036 A 
ATOM     24  C   UNL A   1      34.260  19.773  24.701  1.00  0.00    -0.036 A 
ATOM     25  O   UNL A   1      30.103  22.659  26.526  1.00  0.00    -0.274 OA
ATOM     26  C   UNL A   1      32.924  21.724  23.201  1.00  0.00    -0.036 A 
ATOM     27  C   UNL A   1      32.948  19.505  24.220  1.00  0.00    -0.036 A 
ATOM     28  C   UNL A   1      34.888  23.165  23.396  1.00  0.00     0.005 A 
ATOM     29  C   UNL A   1      35.236  18.787  24.740  1.00  0.00     0.005 A 
ATOM     30  C   UNL A   1      32.411  22.491  22.162  1.00  0.00     0.004 A 
ATOM     31  C   UNL A   1      32.633  18.232  23.761  1.00  0.00     0.004 A 
ATOM     32  C   UNL A   1      34.364  23.938  22.356  1.00  0.00     0.000 A 
ATOM     33  C   UNL A   1      34.907  17.514  24.284  1.00  0.00     0.000 A 
ATOM     34  C   UNL A   1      33.143  23.603  21.744  1.00  0.00     0.000 A 
ATOM     35  C   UNL A   1      33.619  17.239  23.799  1.00  0.00     0.000 A 
ENDBRANCH   9  14
ENDBRANCH   5   8
ENDBRANCH   3   4
ENDBRANCH   2   3
ENDBRANCH   1   2
BRANCH   1  36
ATOM     36  C   UNL A   1      35.884  32.147  29.344  1.00  0.00     0.116 C 
BRANCH  36  37
ATOM     37  N   UNL A   1      35.705  31.116  30.360  1.00  0.00    -0.352 N 
ATOM     38  C   UNL A   1      36.619  30.221  30.869  1.00  0.00     0.251 C 
ATOM     39  H   UNL A   1      34.798  31.049  30.735  1.00  0.00     0.163 HD
ATOM     40  O   UNL A   1      36.271  29.393  31.706  1.00  0.00    -0.269 OA
BRANCH  38  41
ATOM     41  C   UNL A   1      38.003  30.226  30.352  1.00  0.00     0.039 A 
ATOM     42  C   UNL A   1      38.256  29.978  29.003  1.00  0.00     0.014 A 
ATOM     43  C   UNL A   1      39.060  30.383  31.253  1.00  0.00     0.014 A 
ATOM     44  C   UNL A   1      39.549  29.664  28.602  1.00  0.00     0.010 A 
ATOM     45  C   UNL A   1      40.372  30.164  30.822  1.00  0.00     0.010 A 
ATOM     46  C   UNL A   1      40.619  29.732  29.510  1.00  0.00    -0.014 A 
BRANCH  46  47
ATOM     47  C   UNL A   1      41.976  29.312  29.070  1.00  0.00     0.031 A 
ATOM     48  C   UNL A   1      42.220  27.919  28.544  1.00  0.00     0.074 A 
ATOM     49  C   UNL A   1      42.975  30.217  29.066  1.00  0.00     0.049 A 
ATOM     50  N   UNL A   1      43.329  27.402  28.080  1.00  0.00    -0.248 NA
ATOM     51  C   UNL A   1      41.080  26.985  28.537  1.00  0.00     0.031 C 
ATOM     52  C   UNL A   1      42.853  31.602  29.523  1.00  0.00     0.029 A 
ATOM     53  N   UNL A   1      44.272  30.124  28.627  1.00  0.00    -0.354 N 
ATOM     54  C   UNL A   1      43.028  26.086  27.745  1.00  0.00     0.074 A 
ATOM     55  C   UNL A   1      41.639  25.871  28.083  1.00  0.00     0.031 C 
ATOM     56  C   UNL A   1      44.001  32.249  29.275  1.00  0.00     0.029 A 
ATOM     57  C   UNL A   1      44.965  31.309  28.710  1.00  0.00     0.049 A 
ATOM     58  H   UNL A   1      44.668  29.290  28.286  1.00  0.00     0.167 HD
ATOM     59  C   UNL A   1      43.833  25.148  27.193  1.00  0.00     0.031 A 
ATOM     60  C   UNL A   1      46.234  31.614  28.378  1.00  0.00     0.031 A 
ATOM     61  C   UNL A   1      45.209  25.375  26.832  1.00  0.00     0.049 A 
ATOM     62  C   UNL A   1      47.117  30.547  27.800  1.00  0.00     0.074 A 
ATOM     63  C   UNL A   1      46.099  24.485  26.256  1.00  0.00     0.029 A 
ATOM     64  N   UNL A   1      45.890  26.570  26.999  1.00  0.00    -0.354 N 
ATOM     65  N   UNL A   1      46.815  29.305  27.506  1.00  0.00    -0.248 NA
ATOM     66  C   UNL A   1      48.510  30.915  27.513  1.00  0.00     0.031 C 
ATOM     67  C   UNL A   1      47.333  25.124  26.126  1.00  0.00     0.029 A 
ATOM     68  C   UNL A   1      47.195  26.433  26.558  1.00  0.00     0.049 A 
ATOM     69  H   UNL A   1      45.504  27.394  27.374  1.00  0.00     0.167 HD
ATOM     70  C   UNL A   1      47.978  28.744  26.995  1.00  0.00     0.074 A 
ATOM     71  C   UNL A   1      48.984  29.787  26.997  1.00  0.00     0.031 C 
ATOM     72  C   UNL A   1      48.191  27.475  26.571  1.00  0.00     0.031 A 
BRANCH  59  73
ATOM     73  C   UNL A   1      43.267  23.776  26.931  1.00  0.00    -0.014 A 
ATOM     74  C   UNL A   1      43.115  22.870  27.998  1.00  0.00     0.010 A 
ATOM     75  C   UNL A   1      43.012  23.335  25.621  1.00  0.00     0.010 A 
ATOM     76  C   UNL A   1      42.753  21.542  27.759  1.00  0.00     0.020 A 
ATOM     77  C   UNL A   1      42.625  22.013  25.379  1.00  0.00     0.020 A 
ATOM     78  C   UNL A   1      42.522  21.119  26.448  1.00  0.00     0.054 A 
BRANCH  78  79
ATOM     79  S   UNL A   1      42.082  19.384  26.151  1.00  0.00     0.124 S 
ATOM     80  O   UNL A   1      40.640  19.463  25.943  1.00  0.00    -0.237 OA
ATOM     81  O   UNL A   1      42.873  19.052  24.968  1.00  0.00    -0.237 OA
ATOM     82  O   UNL A   1      42.504  18.710  27.377  1.00  0.00    -0.744 OA
ENDBRANCH  78  79
ENDBRANCH  59  73
BRANCH  60  83
ATOM     83  C   UNL A   1      46.719  33.006  28.585  1.00  0.00    -0.014 A 
ATOM     84  C   UNL A   1      46.536  33.977  27.583  1.00  0.00     0.010 A 
ATOM     85  C   UNL A   1      47.450  33.341  29.737  1.00  0.00     0.010 A 
ATOM     86  C   UNL A   1      47.130  35.235  27.697  1.00  0.00     0.020 A 
ATOM     87  C   UNL A   1      48.020  34.612  29.869  1.00  0.00     0.020 A 
ATOM     88  C   UNL A   1      47.882  35.539  28.832  1.00  0.00     0.054 A 
BRANCH  88  89
ATOM     89  S   UNL A   1      48.693  37.158  28.936  1.00  0.00     0.124 S 
ATOM     90  O   UNL A   1      48.987  37.434  27.533  1.00  0.00    -0.237 OA
ATOM     91  O   UNL A   1      47.659  37.997  29.539  1.00  0.00    -0.237 OA
ATOM     92  O   UNL A   1      49.855  36.904  29.782  1.00  0.00    -0.744 OA
ENDBRANCH  88  89
ENDBRANCH  60  83
BRANCH  72  93
ATOM     93  C   UNL A   1      49.565  27.116  26.071  1.00  0.00    -0.014 A 
ATOM     94  C   UNL A   1      49.879  27.283  24.710  1.00  0.00     0.010 A 
ATOM     95  C   UNL A   1      50.495  26.492  26.920  1.00  0.00     0.010 A 
ATOM     96  C   UNL A   1      51.085  26.802  24.198  1.00  0.00     0.020 A 
ATOM     97  C   UNL A   1      51.715  26.032  26.415  1.00  0.00     0.020 A 
ATOM     98  C   UNL A   1      51.990  26.167  25.052  1.00  0.00     0.054 A 
BRANCH  98  99
ATOM     99  S   UNL A   1      53.539  25.519  24.364  1.00  0.00     0.124 S 
ATOM    100  O   UNL A   1      53.408  25.849  22.948  1.00  0.00    -0.237 OA
ATOM    101  O   UNL A   1      54.557  26.271  25.094  1.00  0.00    -0.237 OA
ATOM    102  O   UNL A   1      53.483  24.094  24.681  1.00  0.00    -0.744 OA
ENDBRANCH  98  99
ENDBRANCH  72  93
ENDBRANCH  46  47
ENDBRANCH  38  41
ENDBRANCH  36  37
ENDBRANCH   1  36
TORSDOF 15
ENDMDL
MODEL 3
REMARK VINA RESULT:     -13.4      6.178     11.427
REMARK SMILES C[C@]12C(=O)N(c3ccc(C(=O)NCCCCNC(=O)c4ccc(-c5c6nc(c(-c7ccc(S(=O)(=O)[O-])cc7)c7ccc([nH]7)c(-c7ccc(S(=O)(=O)[O-])cc7)c7nc(c(-c8ccc(S(=O)(=O)[O-])cc8)c8ccc5[nH]8)C=C7)C=C6)cc4)cc3)C(=O)[C@H]1[C@H]1c3ccccc3[C@@H]2c2ccccc21
REMARK SMILES IDX 15 1 14 2 13 3 12 4 10 5 11 6 9 8 6 9 7 10 81 11 8 12 80 13
REMARK SMILES IDX 5 14 1 15 2 16 3 17 84 18 92 19 4 20 82 21 85 22 91 23 93 24
REMARK SMILES IDX 83 25 86 26 98 27 90 28 94 29 87 30 97 31 89 32 95 33 88 34
REMARK SMILES IDX 96 35 16 36 17 37 18 38 19 40 20 41 21 42 79 43 22 44 78 45
REMARK SMILES IDX 23 46 24 47 25 48 72 49 26 50 77 51 71 52 73 53 27 54 76 55
REMARK SMILES IDX 70 56 69 57 28 59 58 60 39 61 57 62 40 63 43 64 56 65 74 66
REMARK SMILES IDX 41 67 42 68 55 70 75 71 44 72 29 73 30 74 38 75 31 76 37 77
REMARK SMILES IDX 32 78 33 79 34 80 35 81 36 82 59 83 60 84 68 85 61 86 67 87
REMARK SMILES IDX 62 88 63 89 64 90 65 91 66 92 45 93 46 94 54 95 47 96 53 97
REMARK SMILES IDX 48 98 49 99 50 100 51 101 52 102
REMARK H PARENT 12 7 17 39 73 58 43 69
REMARK Flexibility Score: inf
ROOT
ATOM      1  C   UNL A   1      34.694  30.621  27.559  1.00  0.00     0.023 C 
ENDROOT
BRANCH   1   2
ATOM      2  C   UNL A   1      33.818  30.026  26.464  1.00  0.00     0.023 C 
BRANCH   2   3
ATOM      3  C   UNL A   1      32.328  30.314  26.581  1.00  0.00     0.116 C 
BRANCH   3   4
ATOM      4  N   UNL A   1      31.605  30.166  25.333  1.00  0.00    -0.352 N 
ATOM      5  C   UNL A   1      31.236  29.035  24.651  1.00  0.00     0.251 C 
ATOM      6  O   UNL A   1      30.672  29.132  23.565  1.00  0.00    -0.269 OA
ATOM      7  H   UNL A   1      31.336  31.013  24.906  1.00  0.00     0.163 HD
BRANCH   5   8
ATOM      8  C   UNL A   1      31.551  27.688  25.184  1.00  0.00     0.039 A 
ATOM      9  C   UNL A   1      32.183  25.077  26.091  1.00  0.00     0.052 A 
ATOM     10  C   UNL A   1      32.267  25.425  24.730  1.00  0.00     0.027 A 
ATOM     11  C   UNL A   1      31.770  26.075  26.988  1.00  0.00     0.027 A 
ATOM     12  C   UNL A   1      31.955  26.712  24.278  1.00  0.00     0.016 A 
ATOM     13  C   UNL A   1      31.411  27.351  26.532  1.00  0.00     0.016 A 
BRANCH   9  14
ATOM     14  N   UNL A   1      32.264  23.712  26.518  1.00  0.00    -0.250 N 
ATOM     15  C   UNL A   1      33.379  20.751  27.380  1.00  0.00     0.024 C 
ATOM     16  C   UNL A   1      33.363  21.690  26.157  1.00  0.00     0.071 C 
ATOM     17  C   UNL A   1      33.493  23.095  26.686  1.00  0.00     0.241 C 
ATOM     18  C   UNL A   1      31.976  21.693  25.449  1.00  0.00     0.107 C 
ATOM     19  C   UNL A   1      34.469  21.396  25.097  1.00  0.00     0.066 C 
ATOM     20  O   UNL A   1      34.515  23.516  27.190  1.00  0.00    -0.273 OA
ATOM     21  C   UNL A   1      31.265  22.752  26.263  1.00  0.00     0.238 C 
ATOM     22  C   UNL A   1      32.058  20.889  24.097  1.00  0.00     0.063 C 
ATOM     23  C   UNL A   1      34.152  22.214  23.828  1.00  0.00    -0.036 A 
ATOM     24  C   UNL A   1      34.261  19.935  24.712  1.00  0.00    -0.036 A 
ATOM     25  O   UNL A   1      30.075  22.784  26.527  1.00  0.00    -0.274 OA
ATOM     26  C   UNL A   1      32.907  21.869  23.206  1.00  0.00    -0.036 A 
ATOM     27  C   UNL A   1      32.952  19.652  24.231  1.00  0.00    -0.036 A 
ATOM     28  C   UNL A   1      34.857  23.330  23.399  1.00  0.00     0.005 A 
ATOM     29  C   UNL A   1      35.247  18.959  24.755  1.00  0.00     0.005 A 
ATOM     30  C   UNL A   1      32.388  22.629  22.164  1.00  0.00     0.004 A 
ATOM     31  C   UNL A   1      32.650  18.376  23.775  1.00  0.00     0.004 A 
ATOM     32  C   UNL A   1      34.326  24.095  22.357  1.00  0.00     0.000 A 
ATOM     33  C   UNL A   1      34.931  17.681  24.302  1.00  0.00     0.000 A 
ATOM     34  C   UNL A   1      33.109  23.747  21.745  1.00  0.00     0.000 A 
ATOM     35  C   UNL A   1      33.647  17.393  23.816  1.00  0.00     0.000 A 
ENDBRANCH   9  14
ENDBRANCH   5   8
ENDBRANCH   3   4
ENDBRANCH   2   3
ENDBRANCH   1   2
BRANCH   1  36
ATOM     36  C   UNL A   1      35.861  29.758  28.021  1.00  0.00     0.116 C 
BRANCH  36  37
ATOM     37  N   UNL A   1      35.951  29.593  29.468  1.00  0.00    -0.352 N 
ATOM     38  C   UNL A   1      37.008  29.160  30.236  1.00  0.00     0.251 C 
ATOM     39  H   UNL A   1      35.135  29.824  29.968  1.00  0.00     0.163 HD
ATOM     40  O   UNL A   1      36.882  29.052  31.453  1.00  0.00    -0.269 OA
BRANCH  38  41
ATOM     41  C   UNL A   1      38.270  28.767  29.577  1.00  0.00     0.039 A 
ATOM     42  C   UNL A   1      39.200  27.970  30.245  1.00  0.00     0.014 A 
ATOM     43  C   UNL A   1      38.563  29.288  28.314  1.00  0.00     0.014 A 
ATOM     44  C   UNL A   1      40.496  27.883  29.753  1.00  0.00     0.010 A 
ATOM     45  C   UNL A   1      39.841  29.113  27.775  1.00  0.00     0.010 A 
ATOM     46  C   UNL A   1      40.839  28.471  28.524  1.00  0.00    -0.014 A 
BRANCH  46  47
ATOM     47  C   UNL A   1      42.253  28.430  28.065  1.00  0.00     0.031 A 
ATOM     48  C   UNL A   1      43.190  29.578  28.348  1.00  0.00     0.074 A 
ATOM     49  C   UNL A   1      42.716  27.316  27.465  1.00  0.00     0.049 A 
ATOM     50  N   UNL A   1      44.461  29.687  28.058  1.00  0.00    -0.248 NA
ATOM     51  C   UNL A   1      42.635  30.753  29.042  1.00  0.00     0.031 C 
ATOM     52  C   UNL A   1      41.913  26.129  27.164  1.00  0.00     0.029 A 
ATOM     53  N   UNL A   1      43.977  26.981  27.040  1.00  0.00    -0.354 N 
ATOM     54  C   UNL A   1      44.852  30.942  28.514  1.00  0.00     0.074 A 
ATOM     55  C   UNL A   1      43.679  31.572  29.077  1.00  0.00     0.031 C 
ATOM     56  C   UNL A   1      42.712  25.172  26.671  1.00  0.00     0.029 A 
ATOM     57  C   UNL A   1      44.069  25.698  26.551  1.00  0.00     0.049 A 
ATOM     58  H   UNL A   1      44.742  27.598  27.079  1.00  0.00     0.167 HD
ATOM     59  C   UNL A   1      46.081  31.510  28.479  1.00  0.00     0.031 A 
ATOM     60  C   UNL A   1      45.118  25.016  26.054  1.00  0.00     0.031 A 
ATOM     61  C   UNL A   1      47.253  30.869  27.941  1.00  0.00     0.049 A 
ATOM     62  C   UNL A   1      46.462  25.680  25.994  1.00  0.00     0.074 A 
ATOM     63  C   UNL A   1      48.543  31.364  27.874  1.00  0.00     0.029 A 
ATOM     64  N   UNL A   1      47.284  29.596  27.393  1.00  0.00    -0.354 N 
ATOM     65  N   UNL A   1      46.805  26.873  26.417  1.00  0.00    -0.248 NA
ATOM     66  C   UNL A   1      47.560  24.916  25.387  1.00  0.00     0.031 C 
ATOM     67  C   UNL A   1      49.343  30.415  27.235  1.00  0.00     0.029 A 
ATOM     68  C   UNL A   1      48.567  29.300  26.965  1.00  0.00     0.049 A 
ATOM     69  H   UNL A   1      46.510  28.992  27.319  1.00  0.00     0.167 HD
ATOM     70  C   UNL A   1      48.158  27.001  26.132  1.00  0.00     0.074 A 
ATOM     71  C   UNL A   1      48.578  25.756  25.522  1.00  0.00     0.031 C 
ATOM     72  C   UNL A   1      48.974  28.060  26.351  1.00  0.00     0.031 A 
BRANCH  59  73
ATOM     73  C   UNL A   1      46.248  32.901  29.035  1.00  0.00    -0.014 A 
ATOM     74  C   UNL A   1      46.124  34.012  28.180  1.00  0.00     0.010 A 
ATOM     75  C   UNL A   1      46.657  33.105  30.364  1.00  0.00     0.010 A 
ATOM     76  C   UNL A   1      46.439  35.297  28.632  1.00  0.00     0.020 A 
ATOM     77  C   UNL A   1      46.948  34.391  30.828  1.00  0.00     0.020 A 
ATOM     78  C   UNL A   1      46.860  35.476  29.951  1.00  0.00     0.054 A 
BRANCH  78  79
ATOM     79  S   UNL A   1      47.295  37.146  30.514  1.00  0.00     0.124 S 
ATOM     80  O   UNL A   1      48.747  37.062  30.633  1.00  0.00    -0.237 OA
ATOM     81  O   UNL A   1      46.798  37.989  29.429  1.00  0.00    -0.237 OA
ATOM     82  O   UNL A   1      46.569  37.280  31.776  1.00  0.00    -0.744 OA
ENDBRANCH  78  79
ENDBRANCH  59  73
BRANCH  60  83
ATOM     83  C   UNL A   1      44.914  23.617  25.590  1.00  0.00    -0.014 A 
ATOM     84  C   UNL A   1      45.163  22.538  26.459  1.00  0.00     0.010 A 
ATOM     85  C   UNL A   1      44.568  23.353  24.254  1.00  0.00     0.010 A 
ATOM     86  C   UNL A   1      45.134  21.224  25.987  1.00  0.00     0.020 A 
ATOM     87  C   UNL A   1      44.507  22.036  23.785  1.00  0.00     0.020 A 
ATOM     88  C   UNL A   1      44.823  20.983  24.648  1.00  0.00     0.054 A 
BRANCH  88  89
ATOM     89  S   UNL A   1      44.846  19.275  24.039  1.00  0.00     0.124 S 
ATOM     90  O   UNL A   1      46.233  18.890  24.286  1.00  0.00    -0.237 OA
ATOM     91  O   UNL A   1      43.852  18.618  24.885  1.00  0.00    -0.237 OA
ATOM     92  O   UNL A   1      44.473  19.408  22.634  1.00  0.00    -0.744 OA
ENDBRANCH  88  89
ENDBRANCH  60  83
BRANCH  72  93
ATOM     93  C   UNL A   1      50.414  27.945  25.931  1.00  0.00    -0.014 A 
ATOM     94  C   UNL A   1      50.776  28.208  24.597  1.00  0.00     0.010 A 
ATOM     95  C   UNL A   1      51.383  27.450  26.821  1.00  0.00     0.010 A 
ATOM     96  C   UNL A   1      52.072  27.945  24.150  1.00  0.00     0.020 A 
ATOM     97  C   UNL A   1      52.689  27.211  26.383  1.00  0.00     0.020 A 
ATOM     98  C   UNL A   1      53.018  27.435  25.044  1.00  0.00     0.054 A 
BRANCH  98  99
ATOM     99  S   UNL A   1      54.688  27.069  24.439  1.00  0.00     0.124 S 
ATOM    100  O   UNL A   1      54.416  26.366  23.190  1.00  0.00    -0.237 OA
ATOM    101  O   UNL A   1      55.279  28.399  24.297  1.00  0.00    -0.237 OA
ATOM    102  O   UNL A   1      55.265  26.252  25.504  1.00  0.00    -0.744 OA
ENDBRANCH  98  99
ENDBRANCH  72  93
ENDBRANCH  46  47
ENDBRANCH  38  41
ENDBRANCH  36  37
ENDBRANCH   1  36
TORSDOF 15
ENDMDL
