MODEL 1
REMARK VINA RESULT:     -10.0      0.000      0.000
REMARK SMILES C[C@@H](CC(=O)NCCCCNC(=O)c1ccc(-c2c3nc(c(-c4ccc(S(=O)(=O)[O-])cc4)c4ccc([nH]4)c(-c4ccc(S(=O)(=O)[O-])cc4)c4nc(c(-c5ccc(S(=O)(=O)[O-])cc5)c5ccc2[nH]5)C=C4)C=C3)cc1)CC(=O)N(C)C[C@H]1CCC[N@H+]1C
REMARK SMILES IDX 7 1 6 2 4 3 5 4 3 6 2 7 1 8 74 9 75 10 76 11 77 12 78 13
REMARK SMILES IDX 79 14 80 15 81 16 84 17 82 18 83 19 85 20 8 22 9 23 10 24
REMARK SMILES IDX 11 25 12 26 13 28 14 29 15 30 73 31 16 32 72 33 17 34 18 35
REMARK SMILES IDX 19 36 66 37 20 38 71 39 65 40 67 41 21 42 70 43 64 44 63 45
REMARK SMILES IDX 22 47 52 48 33 49 51 50 34 51 37 52 50 53 68 54 35 55 36 56
REMARK SMILES IDX 49 58 69 59 38 60 23 61 24 62 32 63 25 64 31 65 26 66 27 67
REMARK SMILES IDX 28 68 29 69 30 70 53 71 54 72 62 73 55 74 61 75 56 76 57 77
REMARK SMILES IDX 58 78 59 79 60 80 39 81 40 82 48 83 41 84 47 85 42 86 43 87
REMARK SMILES IDX 44 88 45 89 46 90
REMARK H PARENT 6 5 84 21 11 27 67 46 37 57
REMARK Flexibility Score: inf
ROOT
ATOM      1  C   UNL A   1      36.613  23.055  25.616  1.00  0.00     0.116 C 
ENDROOT
BRANCH   1   2
ATOM      2  N   UNL A   1      35.856  22.227  26.533  1.00  0.00    -0.356 N 
ATOM      3  C   UNL A   1      34.511  22.102  26.688  1.00  0.00     0.220 C 
ATOM      4  O   UNL A   1      34.095  21.421  27.626  1.00  0.00    -0.275 OA
ATOM      5  H   UNL A   1      36.400  21.669  27.135  1.00  0.00     0.163 HD
BRANCH   3   6
ATOM      6  C   UNL A   1      33.544  22.779  25.731  1.00  0.00     0.103 C 
BRANCH   6   7
ATOM      7  C   UNL A   1      32.372  21.936  25.180  1.00  0.00     0.004 C 
ATOM      8  C   UNL A   1      32.577  21.569  23.707  1.00  0.00     0.009 C 
BRANCH   7   9
ATOM      9  C   UNL A   1      30.985  22.548  25.465  1.00  0.00     0.104 C 
BRANCH   9  10
ATOM     10  C   UNL A   1      31.075  23.983  25.968  1.00  0.00     0.222 C 
ATOM     11  O   UNL A   1      31.025  24.199  27.183  1.00  0.00    -0.275 OA
BRANCH  10  12
ATOM     12  N   UNL A   1      31.130  25.025  25.044  1.00  0.00    -0.340 N 
ATOM     13  C   UNL A   1      30.578  24.990  23.697  1.00  0.00     0.147 C 
BRANCH  12  14
ATOM     14  C   UNL A   1      31.935  26.205  25.392  1.00  0.00     0.184 C 
BRANCH  14  15
ATOM     15  C   UNL A   1      31.119  27.475  25.790  1.00  0.00     0.203 C 
ATOM     16  C   UNL A   1      31.402  27.843  27.259  1.00  0.00     0.073 C 
ATOM     17  N   UNL A   1      31.407  28.749  25.099  1.00  0.00    -0.333 N 
ATOM     18  C   UNL A   1      32.220  29.128  27.232  1.00  0.00     0.068 C 
ATOM     19  C   UNL A   1      32.554  29.349  25.770  1.00  0.00     0.262 C 
ATOM     20  C   UNL A   1      31.571  28.690  23.662  1.00  0.00     0.333 C 
ATOM     21  H   UNL A   1      30.574  29.331  25.176  1.00  0.00     0.348 HD
ENDBRANCH  14  15
ENDBRANCH  12  14
ENDBRANCH  10  12
ENDBRANCH   9  10
ENDBRANCH   7   9
ENDBRANCH   6   7
ENDBRANCH   3   6
ENDBRANCH   1   2
BRANCH   1  22
ATOM     22  C   UNL A   1      37.317  22.196  24.567  1.00  0.00     0.023 C 
BRANCH  22  23
ATOM     23  C   UNL A   1      37.891  20.876  25.074  1.00  0.00     0.023 C 
BRANCH  23  24
ATOM     24  C   UNL A   1      39.145  21.006  25.926  1.00  0.00     0.116 C 
BRANCH  24  25
ATOM     25  N   UNL A   1      39.951  19.794  25.955  1.00  0.00    -0.352 N 
ATOM     26  C   UNL A   1      41.312  19.661  26.128  1.00  0.00     0.251 C 
ATOM     27  H   UNL A   1      39.456  18.953  25.834  1.00  0.00     0.163 HD
ATOM     28  O   UNL A   1      41.837  18.560  26.018  1.00  0.00    -0.269 OA
BRANCH  26  29
ATOM     29  C   UNL A   1      42.133  20.861  26.397  1.00  0.00     0.039 A 
ATOM     30  C   UNL A   1      42.653  21.579  25.316  1.00  0.00     0.014 A 
ATOM     31  C   UNL A   1      42.346  21.305  27.705  1.00  0.00     0.014 A 
ATOM     32  C   UNL A   1      43.304  22.794  25.545  1.00  0.00     0.010 A 
ATOM     33  C   UNL A   1      42.921  22.552  27.924  1.00  0.00     0.010 A 
ATOM     34  C   UNL A   1      43.395  23.315  26.846  1.00  0.00    -0.014 A 
BRANCH  34  35
ATOM     35  C   UNL A   1      43.952  24.667  27.104  1.00  0.00     0.031 A 
ATOM     36  C   UNL A   1      43.039  25.806  27.469  1.00  0.00     0.074 A 
ATOM     37  C   UNL A   1      45.269  24.890  26.919  1.00  0.00     0.049 A 
ATOM     38  N   UNL A   1      43.326  27.071  27.636  1.00  0.00    -0.248 NA
ATOM     39  C   UNL A   1      41.612  25.487  27.636  1.00  0.00     0.031 C 
ATOM     40  C   UNL A   1      46.252  23.882  26.509  1.00  0.00     0.029 A 
ATOM     41  N   UNL A   1      46.007  26.041  27.038  1.00  0.00    -0.354 N 
ATOM     42  C   UNL A   1      42.117  27.701  27.901  1.00  0.00     0.074 A 
ATOM     43  C   UNL A   1      41.087  26.688  27.830  1.00  0.00     0.031 C 
ATOM     44  C   UNL A   1      47.465  24.454  26.437  1.00  0.00     0.029 A 
ATOM     45  C   UNL A   1      47.343  25.872  26.756  1.00  0.00     0.049 A 
ATOM     46  H   UNL A   1      45.618  26.905  27.300  1.00  0.00     0.167 HD
ATOM     47  C   UNL A   1      41.885  29.002  28.197  1.00  0.00     0.031 A 
ATOM     48  C   UNL A   1      48.357  26.760  26.747  1.00  0.00     0.031 A 
ATOM     49  C   UNL A   1      42.913  30.004  28.294  1.00  0.00     0.049 A 
ATOM     50  C   UNL A   1      48.077  28.194  27.096  1.00  0.00     0.074 A 
ATOM     51  C   UNL A   1      42.788  31.334  28.657  1.00  0.00     0.029 A 
ATOM     52  N   UNL A   1      44.255  29.786  28.027  1.00  0.00    -0.354 N 
ATOM     53  N   UNL A   1      46.934  28.757  27.409  1.00  0.00    -0.248 NA
ATOM     54  C   UNL A   1      49.225  29.111  27.099  1.00  0.00     0.031 C 
ATOM     55  C   UNL A   1      44.051  31.929  28.573  1.00  0.00     0.029 A 
ATOM     56  C   UNL A   1      44.969  30.960  28.199  1.00  0.00     0.049 A 
ATOM     57  H   UNL A   1      44.645  28.923  27.755  1.00  0.00     0.167 HD
ATOM     58  C   UNL A   1      47.228  30.091  27.661  1.00  0.00     0.074 A 
ATOM     59  C   UNL A   1      48.658  30.247  27.482  1.00  0.00     0.031 C 
ATOM     60  C   UNL A   1      46.390  31.098  28.008  1.00  0.00     0.031 A 
BRANCH  47  61
ATOM     61  C   UNL A   1      40.457  29.412  28.438  1.00  0.00    -0.014 A 
ATOM     62  C   UNL A   1      39.515  29.398  27.394  1.00  0.00     0.010 A 
ATOM     63  C   UNL A   1      40.045  29.792  29.727  1.00  0.00     0.010 A 
ATOM     64  C   UNL A   1      38.198  29.803  27.623  1.00  0.00     0.020 A 
ATOM     65  C   UNL A   1      38.721  30.173  29.967  1.00  0.00     0.020 A 
ATOM     66  C   UNL A   1      37.811  30.196  28.908  1.00  0.00     0.054 A 
BRANCH  66  67
ATOM     67  S   UNL A   1      36.093  30.709  29.183  1.00  0.00     0.124 S 
ATOM     68  O   UNL A   1      35.352  29.635  28.524  1.00  0.00    -0.237 OA
ATOM     69  O   UNL A   1      35.994  30.736  30.640  1.00  0.00    -0.237 OA
ATOM     70  O   UNL A   1      36.013  32.013  28.531  1.00  0.00    -0.744 OA
ENDBRANCH  66  67
ENDBRANCH  47  61
BRANCH  48  71
ATOM     71  C   UNL A   1      49.733  26.308  26.412  1.00  0.00    -0.014 A 
ATOM     72  C   UNL A   1      50.558  25.752  27.404  1.00  0.00     0.010 A 
ATOM     73  C   UNL A   1      50.218  26.411  25.095  1.00  0.00     0.010 A 
ATOM     74  C   UNL A   1      51.848  25.315  27.091  1.00  0.00     0.020 A 
ATOM     75  C   UNL A   1      51.500  25.954  24.773  1.00  0.00     0.020 A 
ATOM     76  C   UNL A   1      52.310  25.418  25.775  1.00  0.00     0.054 A 
BRANCH  76  77
ATOM     77  S   UNL A   1      53.963  24.783  25.374  1.00  0.00     0.124 S 
ATOM     78  O   UNL A   1      54.673  24.972  26.635  1.00  0.00    -0.237 OA
ATOM     79  O   UNL A   1      53.690  23.398  25.002  1.00  0.00    -0.237 OA
ATOM     80  O   UNL A   1      54.397  25.641  24.273  1.00  0.00    -0.744 OA
ENDBRANCH  76  77
ENDBRANCH  48  71
BRANCH  60  81
ATOM     81  C   UNL A   1      46.998  32.454  28.233  1.00  0.00    -0.014 A 
ATOM     82  C   UNL A   1      47.479  32.830  29.500  1.00  0.00     0.010 A 
ATOM     83  C   UNL A   1      47.136  33.344  27.151  1.00  0.00     0.010 A 
ATOM     84  C   UNL A   1      48.063  34.085  29.688  1.00  0.00     0.020 A 
ATOM     85  C   UNL A   1      47.741  34.590  27.332  1.00  0.00     0.020 A 
ATOM     86  C   UNL A   1      48.190  34.957  28.602  1.00  0.00     0.054 A 
BRANCH  86  87
ATOM     87  S   UNL A   1      48.994  36.563  28.860  1.00  0.00     0.124 S 
ATOM     88  O   UNL A   1      47.961  37.494  28.414  1.00  0.00    -0.237 OA
ATOM     89  O   UNL A   1      49.262  36.562  30.296  1.00  0.00    -0.237 OA
ATOM     90  O   UNL A   1      50.181  36.493  28.011  1.00  0.00    -0.744 OA
ENDBRANCH  86  87
ENDBRANCH  60  81
ENDBRANCH  34  35
ENDBRANCH  26  29
ENDBRANCH  24  25
ENDBRANCH  23  24
ENDBRANCH  22  23
ENDBRANCH   1  22
TORSDOF 20
ENDMDL
MODEL 2
REMARK VINA RESULT:     -10.0      0.723      8.234
REMARK SMILES C[C@@H](CC(=O)NCCCCNC(=O)c1ccc(-c2c3nc(c(-c4ccc(S(=O)(=O)[O-])cc4)c4ccc([nH]4)c(-c4ccc(S(=O)(=O)[O-])cc4)c4nc(c(-c5ccc(S(=O)(=O)[O-])cc5)c5ccc2[nH]5)C=C4)C=C3)cc1)CC(=O)N(C)C[C@H]1CCC[N@H+]1C
REMARK SMILES IDX 7 1 6 2 4 3 5 4 3 6 2 7 1 8 74 9 75 10 76 11 77 12 78 13
REMARK SMILES IDX 79 14 80 15 81 16 84 17 82 18 83 19 85 20 8 22 9 23 10 24
REMARK SMILES IDX 11 25 12 26 13 28 14 29 15 30 73 31 16 32 72 33 17 34 18 35
REMARK SMILES IDX 19 36 66 37 20 38 71 39 65 40 67 41 21 42 70 43 64 44 63 45
REMARK SMILES IDX 22 47 52 48 33 49 51 50 34 51 37 52 50 53 68 54 35 55 36 56
REMARK SMILES IDX 49 58 69 59 38 60 23 61 24 62 32 63 25 64 31 65 26 66 27 67
REMARK SMILES IDX 28 68 29 69 30 70 53 71 54 72 62 73 55 74 61 75 56 76 57 77
REMARK SMILES IDX 58 78 59 79 60 80 39 81 40 82 48 83 41 84 47 85 42 86 43 87
REMARK SMILES IDX 44 88 45 89 46 90
REMARK H PARENT 6 5 84 21 11 27 67 46 37 57
REMARK Flexibility Score: inf
ROOT
ATOM      1  C   UNL A   1      36.622  22.878  25.582  1.00  0.00     0.116 C 
ENDROOT
BRANCH   1   2
ATOM      2  N   UNL A   1      35.812  22.154  26.539  1.00  0.00    -0.356 N 
ATOM      3  C   UNL A   1      34.460  22.066  26.648  1.00  0.00     0.220 C 
ATOM      4  O   UNL A   1      33.992  21.483  27.628  1.00  0.00    -0.275 OA
ATOM      5  H   UNL A   1      36.319  21.647  27.214  1.00  0.00     0.163 HD
BRANCH   3   6
ATOM      6  C   UNL A   1      33.546  22.664  25.591  1.00  0.00     0.103 C 
BRANCH   6   7
ATOM      7  C   UNL A   1      32.191  21.966  25.336  1.00  0.00     0.004 C 
ATOM      8  C   UNL A   1      32.289  20.924  24.218  1.00  0.00     0.009 C 
BRANCH   7   9
ATOM      9  C   UNL A   1      31.018  22.950  25.146  1.00  0.00     0.104 C 
BRANCH   9  10
ATOM     10  C   UNL A   1      31.007  24.052  26.197  1.00  0.00     0.222 C 
ATOM     11  O   UNL A   1      31.014  23.742  27.393  1.00  0.00    -0.275 OA
BRANCH  10  12
ATOM     12  N   UNL A   1      30.907  25.380  25.789  1.00  0.00    -0.340 N 
ATOM     13  C   UNL A   1      29.916  25.906  24.860  1.00  0.00     0.147 C 
BRANCH  12  14
ATOM     14  C   UNL A   1      31.971  26.306  26.205  1.00  0.00     0.184 C 
BRANCH  14  15
ATOM     15  C   UNL A   1      31.628  27.822  26.061  1.00  0.00     0.203 C 
ATOM     16  C   UNL A   1      31.766  28.524  27.425  1.00  0.00     0.073 C 
ATOM     17  N   UNL A   1      32.484  28.664  25.200  1.00  0.00    -0.333 N 
ATOM     18  C   UNL A   1      32.994  29.422  27.325  1.00  0.00     0.068 C 
ATOM     19  C   UNL A   1      33.636  29.062  26.001  1.00  0.00     0.262 C 
ATOM     20  C   UNL A   1      32.863  28.113  23.916  1.00  0.00     0.333 C 
ATOM     21  H   UNL A   1      31.927  29.467  24.910  1.00  0.00     0.348 HD
ENDBRANCH  14  15
ENDBRANCH  12  14
ENDBRANCH  10  12
ENDBRANCH   9  10
ENDBRANCH   7   9
ENDBRANCH   6   7
ENDBRANCH   3   6
ENDBRANCH   1   2
BRANCH   1  22
ATOM     22  C   UNL A   1      37.201  21.929  24.535  1.00  0.00     0.023 C 
BRANCH  22  23
ATOM     23  C   UNL A   1      37.926  20.704  25.085  1.00  0.00     0.023 C 
BRANCH  23  24
ATOM     24  C   UNL A   1      39.209  21.004  25.845  1.00  0.00     0.116 C 
BRANCH  24  25
ATOM     25  N   UNL A   1      40.057  19.835  26.029  1.00  0.00    -0.352 N 
ATOM     26  C   UNL A   1      41.406  19.777  26.307  1.00  0.00     0.251 C 
ATOM     27  H   UNL A   1      39.605  18.966  25.942  1.00  0.00     0.163 HD
ATOM     28  O   UNL A   1      41.980  18.696  26.325  1.00  0.00    -0.269 OA
BRANCH  26  29
ATOM     29  C   UNL A   1      42.157  21.031  26.535  1.00  0.00     0.039 A 
ATOM     30  C   UNL A   1      42.614  21.754  25.430  1.00  0.00     0.014 A 
ATOM     31  C   UNL A   1      42.365  21.516  27.829  1.00  0.00     0.014 A 
ATOM     32  C   UNL A   1      43.194  23.011  25.620  1.00  0.00     0.010 A 
ATOM     33  C   UNL A   1      42.867  22.800  28.010  1.00  0.00     0.010 A 
ATOM     34  C   UNL A   1      43.276  23.565  26.907  1.00  0.00    -0.014 A 
BRANCH  34  35
ATOM     35  C   UNL A   1      43.755  24.954  27.125  1.00  0.00     0.031 A 
ATOM     36  C   UNL A   1      45.201  25.302  26.895  1.00  0.00     0.074 A 
ATOM     37  C   UNL A   1      42.908  25.880  27.619  1.00  0.00     0.049 A 
ATOM     38  N   UNL A   1      45.822  26.430  27.122  1.00  0.00    -0.248 NA
ATOM     39  C   UNL A   1      46.066  24.233  26.372  1.00  0.00     0.031 C 
ATOM     40  C   UNL A   1      41.495  25.654  27.939  1.00  0.00     0.029 A 
ATOM     41  N   UNL A   1      43.114  27.195  27.951  1.00  0.00    -0.354 N 
ATOM     42  C   UNL A   1      47.153  26.199  26.796  1.00  0.00     0.074 A 
ATOM     43  C   UNL A   1      47.257  24.813  26.397  1.00  0.00     0.031 C 
ATOM     44  C   UNL A   1      40.958  26.797  28.395  1.00  0.00     0.029 A 
ATOM     45  C   UNL A   1      41.993  27.825  28.438  1.00  0.00     0.049 A 
ATOM     46  H   UNL A   1      43.983  27.646  27.850  1.00  0.00     0.167 HD
ATOM     47  C   UNL A   1      48.192  27.068  26.809  1.00  0.00     0.031 A 
ATOM     48  C   UNL A   1      41.816  29.086  28.878  1.00  0.00     0.031 A 
ATOM     49  C   UNL A   1      48.082  28.453  27.181  1.00  0.00     0.049 A 
ATOM     50  C   UNL A   1      42.980  30.037  28.865  1.00  0.00     0.074 A 
ATOM     51  C   UNL A   1      49.062  29.431  27.158  1.00  0.00     0.029 A 
ATOM     52  N   UNL A   1      46.924  29.058  27.642  1.00  0.00    -0.354 N 
ATOM     53  N   UNL A   1      44.217  29.816  28.489  1.00  0.00    -0.248 NA
ATOM     54  C   UNL A   1      42.722  31.407  29.327  1.00  0.00     0.031 C 
ATOM     55  C   UNL A   1      48.503  30.619  27.642  1.00  0.00     0.029 A 
ATOM     56  C   UNL A   1      47.166  30.391  27.925  1.00  0.00     0.049 A 
ATOM     57  H   UNL A   1      46.055  28.606  27.752  1.00  0.00     0.167 HD
ATOM     58  C   UNL A   1      44.882  31.025  28.655  1.00  0.00     0.074 A 
ATOM     59  C   UNL A   1      43.906  31.977  29.147  1.00  0.00     0.031 C 
ATOM     60  C   UNL A   1      46.184  31.321  28.422  1.00  0.00     0.031 A 
BRANCH  47  61
ATOM     61  C   UNL A   1      49.541  26.537  26.405  1.00  0.00    -0.014 A 
ATOM     62  C   UNL A   1      50.397  25.942  27.350  1.00  0.00     0.010 A 
ATOM     63  C   UNL A   1      49.950  26.609  25.062  1.00  0.00     0.010 A 
ATOM     64  C   UNL A   1      51.657  25.475  26.969  1.00  0.00     0.020 A 
ATOM     65  C   UNL A   1      51.200  26.118  24.671  1.00  0.00     0.020 A 
ATOM     66  C   UNL A   1      52.053  25.573  25.631  1.00  0.00     0.054 A 
BRANCH  66  67
ATOM     67  S   UNL A   1      53.690  24.949  25.160  1.00  0.00     0.124 S 
ATOM     68  O   UNL A   1      53.449  23.510  25.079  1.00  0.00    -0.237 OA
ATOM     69  O   UNL A   1      53.934  25.617  23.884  1.00  0.00    -0.237 OA
ATOM     70  O   UNL A   1      54.552  25.376  26.259  1.00  0.00    -0.744 OA
ENDBRANCH  66  67
ENDBRANCH  47  61
BRANCH  48  71
ATOM     71  C   UNL A   1      40.476  29.525  29.349  1.00  0.00    -0.014 A 
ATOM     72  C   UNL A   1      40.227  29.696  30.722  1.00  0.00     0.010 A 
ATOM     73  C   UNL A   1      39.448  29.797  28.428  1.00  0.00     0.010 A 
ATOM     74  C   UNL A   1      38.973  30.120  31.168  1.00  0.00     0.020 A 
ATOM     75  C   UNL A   1      38.198  30.243  28.869  1.00  0.00     0.020 A 
ATOM     76  C   UNL A   1      37.966  30.393  30.237  1.00  0.00     0.054 A 
BRANCH  76  77
ATOM     77  S   UNL A   1      36.365  31.007  30.832  1.00  0.00     0.124 S 
ATOM     78  O   UNL A   1      35.581  31.050  29.602  1.00  0.00    -0.237 OA
ATOM     79  O   UNL A   1      35.972  29.986  31.799  1.00  0.00    -0.237 OA
ATOM     80  O   UNL A   1      36.696  32.308  31.413  1.00  0.00    -0.744 OA
ENDBRANCH  76  77
ENDBRANCH  48  71
BRANCH  60  81
ATOM     81  C   UNL A   1      46.626  32.734  28.682  1.00  0.00    -0.014 A 
ATOM     82  C   UNL A   1      47.266  33.081  29.885  1.00  0.00     0.010 A 
ATOM     83  C   UNL A   1      46.445  33.715  27.690  1.00  0.00     0.010 A 
ATOM     84  C   UNL A   1      47.693  34.393  30.103  1.00  0.00     0.020 A 
ATOM     85  C   UNL A   1      46.892  35.022  27.896  1.00  0.00     0.020 A 
ATOM     86  C   UNL A   1      47.503  35.356  29.107  1.00  0.00     0.054 A 
BRANCH  86  87
ATOM     87  S   UNL A   1      48.107  37.042  29.393  1.00  0.00     0.124 S 
ATOM     88  O   UNL A   1      47.634  37.740  28.201  1.00  0.00    -0.237 OA
ATOM     89  O   UNL A   1      47.448  37.413  30.642  1.00  0.00    -0.237 OA
ATOM     90  O   UNL A   1      49.556  36.877  29.486  1.00  0.00    -0.744 OA
ENDBRANCH  86  87
ENDBRANCH  60  81
ENDBRANCH  34  35
ENDBRANCH  26  29
ENDBRANCH  24  25
ENDBRANCH  23  24
ENDBRANCH  22  23
ENDBRANCH   1  22
TORSDOF 20
ENDMDL
MODEL 3
REMARK VINA RESULT:      -9.7      6.477     11.717
REMARK SMILES C[C@@H](CC(=O)NCCCCNC(=O)c1ccc(-c2c3nc(c(-c4ccc(S(=O)(=O)[O-])cc4)c4ccc([nH]4)c(-c4ccc(S(=O)(=O)[O-])cc4)c4nc(c(-c5ccc(S(=O)(=O)[O-])cc5)c5ccc2[nH]5)C=C4)C=C3)cc1)CC(=O)N(C)C[C@H]1CCC[N@H+]1C
REMARK SMILES IDX 7 1 6 2 4 3 5 4 3 6 2 7 1 8 74 9 75 10 76 11 77 12 78 13
REMARK SMILES IDX 79 14 80 15 81 16 84 17 82 18 83 19 85 20 8 22 9 23 10 24
REMARK SMILES IDX 11 25 12 26 13 28 14 29 15 30 73 31 16 32 72 33 17 34 18 35
REMARK SMILES IDX 19 36 66 37 20 38 71 39 65 40 67 41 21 42 70 43 64 44 63 45
REMARK SMILES IDX 22 47 52 48 33 49 51 50 34 51 37 52 50 53 68 54 35 55 36 56
REMARK SMILES IDX 49 58 69 59 38 60 23 61 24 62 32 63 25 64 31 65 26 66 27 67
REMARK SMILES IDX 28 68 29 69 30 70 53 71 54 72 62 73 55 74 61 75 56 76 57 77
REMARK SMILES IDX 58 78 59 79 60 80 39 81 40 82 48 83 41 84 47 85 42 86 43 87
REMARK SMILES IDX 44 88 45 89 46 90
REMARK H PARENT 6 5 84 21 11 27 67 46 37 57
REMARK Flexibility Score: inf
ROOT
ATOM      1  C   UNL A   1      33.381  28.368  26.612  1.00  0.00     0.116 C 
ENDROOT
BRANCH   1   2
ATOM      2  N   UNL A   1      32.213  27.511  26.579  1.00  0.00    -0.356 N 
ATOM      3  C   UNL A   1      32.122  26.167  26.397  1.00  0.00     0.220 C 
ATOM      4  O   UNL A   1      31.001  25.670  26.284  1.00  0.00    -0.275 OA
ATOM      5  H   UNL A   1      31.354  27.974  26.709  1.00  0.00     0.163 HD
BRANCH   3   6
ATOM      6  C   UNL A   1      33.366  25.297  26.339  1.00  0.00     0.103 C 
BRANCH   6   7
ATOM      7  C   UNL A   1      33.876  24.864  24.945  1.00  0.00     0.004 C 
ATOM      8  C   UNL A   1      35.226  24.146  25.030  1.00  0.00     0.009 C 
BRANCH   7   9
ATOM      9  C   UNL A   1      33.859  26.002  23.903  1.00  0.00     0.104 C 
BRANCH   9  10
ATOM     10  C   UNL A   1      33.056  25.640  22.660  1.00  0.00     0.222 C 
ATOM     11  O   UNL A   1      33.643  25.516  21.580  1.00  0.00    -0.275 OA
BRANCH  10  12
ATOM     12  N   UNL A   1      31.670  25.537  22.752  1.00  0.00    -0.340 N 
ATOM     13  C   UNL A   1      30.934  24.336  23.122  1.00  0.00     0.147 C 
BRANCH  12  14
ATOM     14  C   UNL A   1      30.867  26.683  22.299  1.00  0.00     0.184 C 
BRANCH  14  15
ATOM     15  C   UNL A   1      30.483  27.709  23.411  1.00  0.00     0.203 C 
ATOM     16  C   UNL A   1      30.884  29.131  22.976  1.00  0.00     0.073 C 
ATOM     17  N   UNL A   1      29.055  27.887  23.748  1.00  0.00    -0.333 N 
ATOM     18  C   UNL A   1      29.585  29.878  22.696  1.00  0.00     0.068 C 
ATOM     19  C   UNL A   1      28.501  28.823  22.777  1.00  0.00     0.262 C 
ATOM     20  C   UNL A   1      28.260  26.684  23.879  1.00  0.00     0.333 C 
ATOM     21  H   UNL A   1      29.011  28.254  24.698  1.00  0.00     0.348 HD
ENDBRANCH  14  15
ENDBRANCH  12  14
ENDBRANCH  10  12
ENDBRANCH   9  10
ENDBRANCH   7   9
ENDBRANCH   6   7
ENDBRANCH   3   6
ENDBRANCH   1   2
BRANCH   1  22
ATOM     22  C   UNL A   1      33.086  29.710  25.944  1.00  0.00     0.023 C 
BRANCH  22  23
ATOM     23  C   UNL A   1      32.547  30.800  26.866  1.00  0.00     0.023 C 
BRANCH  23  24
ATOM     24  C   UNL A   1      33.595  31.762  27.404  1.00  0.00     0.116 C 
BRANCH  24  25
ATOM     25  N   UNL A   1      33.084  33.109  27.619  1.00  0.00    -0.352 N 
ATOM     26  C   UNL A   1      33.467  34.043  28.557  1.00  0.00     0.251 C 
ATOM     27  H   UNL A   1      32.366  33.392  27.009  1.00  0.00     0.163 HD
ATOM     28  O   UNL A   1      32.851  35.095  28.660  1.00  0.00    -0.269 OA
BRANCH  26  29
ATOM     29  C   UNL A   1      34.593  33.741  29.468  1.00  0.00     0.039 A 
ATOM     30  C   UNL A   1      34.360  32.937  30.587  1.00  0.00     0.014 A 
ATOM     31  C   UNL A   1      35.882  34.205  29.191  1.00  0.00     0.014 A 
ATOM     32  C   UNL A   1      35.437  32.520  31.373  1.00  0.00     0.010 A 
ATOM     33  C   UNL A   1      36.960  33.724  29.927  1.00  0.00     0.010 A 
ATOM     34  C   UNL A   1      36.750  32.868  31.017  1.00  0.00    -0.014 A 
BRANCH  34  35
ATOM     35  C   UNL A   1      37.922  32.323  31.749  1.00  0.00     0.031 A 
ATOM     36  C   UNL A   1      38.714  31.182  31.169  1.00  0.00     0.074 A 
ATOM     37  C   UNL A   1      38.218  32.795  32.977  1.00  0.00     0.049 A 
ATOM     38  N   UNL A   1      39.704  30.514  31.701  1.00  0.00    -0.248 NA
ATOM     39  C   UNL A   1      38.320  30.711  29.832  1.00  0.00     0.031 C 
ATOM     40  C   UNL A   1      37.491  33.861  33.675  1.00  0.00     0.029 A 
ATOM     41  N   UNL A   1      39.199  32.431  33.864  1.00  0.00    -0.354 N 
ATOM     42  C   UNL A   1      40.034  29.529  30.777  1.00  0.00     0.074 A 
ATOM     43  C   UNL A   1      39.110  29.660  29.672  1.00  0.00     0.031 C 
ATOM     44  C   UNL A   1      38.069  34.080  34.867  1.00  0.00     0.029 A 
ATOM     45  C   UNL A   1      39.178  33.148  35.037  1.00  0.00     0.049 A 
ATOM     46  H   UNL A   1      39.857  31.723  33.677  1.00  0.00     0.167 HD
ATOM     47  C   UNL A   1      41.027  28.611  30.835  1.00  0.00     0.031 A 
ATOM     48  C   UNL A   1      39.959  33.062  36.132  1.00  0.00     0.031 A 
ATOM     49  C   UNL A   1      41.962  28.499  31.923  1.00  0.00     0.049 A 
ATOM     50  C   UNL A   1      41.067  32.047  36.164  1.00  0.00     0.074 A 
ATOM     51  C   UNL A   1      43.047  27.648  32.041  1.00  0.00     0.029 A 
ATOM     52  N   UNL A   1      41.923  29.262  33.079  1.00  0.00    -0.354 N 
ATOM     53  N   UNL A   1      41.403  31.168  35.250  1.00  0.00    -0.248 NA
ATOM     54  C   UNL A   1      41.905  32.019  37.370  1.00  0.00     0.031 C 
ATOM     55  C   UNL A   1      43.642  27.872  33.288  1.00  0.00     0.029 A 
ATOM     56  C   UNL A   1      42.953  28.891  33.926  1.00  0.00     0.049 A 
ATOM     57  H   UNL A   1      41.260  29.965  33.271  1.00  0.00     0.167 HD
ATOM     58  C   UNL A   1      42.502  30.492  35.765  1.00  0.00     0.074 A 
ATOM     59  C   UNL A   1      42.785  31.075  37.061  1.00  0.00     0.031 C 
ATOM     60  C   UNL A   1      43.213  29.478  35.216  1.00  0.00     0.031 A 
BRANCH  47  61
ATOM     61  C   UNL A   1      41.151  27.654  29.680  1.00  0.00    -0.014 A 
ATOM     62  C   UNL A   1      40.329  26.515  29.593  1.00  0.00     0.010 A 
ATOM     63  C   UNL A   1      42.080  27.907  28.656  1.00  0.00     0.010 A 
ATOM     64  C   UNL A   1      40.468  25.621  28.530  1.00  0.00     0.020 A 
ATOM     65  C   UNL A   1      42.205  27.027  27.575  1.00  0.00     0.020 A 
ATOM     66  C   UNL A   1      41.412  25.879  27.530  1.00  0.00     0.054 A 
BRANCH  66  67
ATOM     67  S   UNL A   1      41.567  24.708  26.154  1.00  0.00     0.124 S 
ATOM     68  O   UNL A   1      41.485  25.595  24.996  1.00  0.00    -0.237 OA
ATOM     69  O   UNL A   1      42.876  24.104  26.391  1.00  0.00    -0.237 OA
ATOM     70  O   UNL A   1      40.428  23.810  26.334  1.00  0.00    -0.744 OA
ENDBRANCH  66  67
ENDBRANCH  47  61
BRANCH  48  71
ATOM     71  C   UNL A   1      39.729  33.979  37.279  1.00  0.00    -0.014 A 
ATOM     72  C   UNL A   1      40.283  35.271  37.278  1.00  0.00     0.010 A 
ATOM     73  C   UNL A   1      38.935  33.575  38.369  1.00  0.00     0.010 A 
ATOM     74  C   UNL A   1      40.058  36.140  38.349  1.00  0.00     0.020 A 
ATOM     75  C   UNL A   1      38.690  34.449  39.432  1.00  0.00     0.020 A 
ATOM     76  C   UNL A   1      39.261  35.723  39.419  1.00  0.00     0.054 A 
BRANCH  76  77
ATOM     77  S   UNL A   1      38.925  36.890  40.769  1.00  0.00     0.124 S 
ATOM     78  O   UNL A   1      38.158  36.066  41.697  1.00  0.00    -0.237 OA
ATOM     79  O   UNL A   1      40.267  37.260  41.210  1.00  0.00    -0.237 OA
ATOM     80  O   UNL A   1      38.178  37.961  40.113  1.00  0.00    -0.744 OA
ENDBRANCH  76  77
ENDBRANCH  48  71
BRANCH  60  81
ATOM     81  C   UNL A   1      44.375  28.943  36.006  1.00  0.00    -0.014 A 
ATOM     82  C   UNL A   1      45.655  29.512  35.885  1.00  0.00     0.010 A 
ATOM     83  C   UNL A   1      44.172  27.892  36.919  1.00  0.00     0.010 A 
ATOM     84  C   UNL A   1      46.719  29.021  36.644  1.00  0.00     0.020 A 
ATOM     85  C   UNL A   1      45.230  27.414  37.696  1.00  0.00     0.020 A 
ATOM     86  C   UNL A   1      46.500  27.974  37.544  1.00  0.00     0.054 A 
BRANCH  86  87
ATOM     87  S   UNL A   1      47.888  27.383  38.553  1.00  0.00     0.124 S 
ATOM     88  O   UNL A   1      47.199  26.751  39.675  1.00  0.00    -0.237 OA
ATOM     89  O   UNL A   1      48.580  26.472  37.646  1.00  0.00    -0.237 OA
ATOM     90  O   UNL A   1      48.621  28.605  38.878  1.00  0.00    -0.744 OA
ENDBRANCH  86  87
ENDBRANCH  60  81
ENDBRANCH  34  35
ENDBRANCH  26  29
ENDBRANCH  24  25
ENDBRANCH  23  24
ENDBRANCH  22  23
ENDBRANCH   1  22
TORSDOF 20
ENDMDL
