MODEL 1
REMARK VINA RESULT:     -11.3      0.000      0.000
REMARK SMILES O=C(NCCCCNC(=O)[C@H]1[NH2+][C@@H]2CC[C@H]1CC2(F)F)c1ccc(-c2c3nc(c(-c4ccc(S(=O)(=O)[O-])cc4)c4ccc([nH]4)c(-c4ccc(S(=O)(=O)[O-])cc4)c4nc(c(-c5ccc(S(=O)(=O)[O-])cc5)c5ccc2[nH]5)C=C4)C=C3)cc1
REMARK SMILES IDX 4 1 3 2 1 3 2 4 21 6 22 7 80 8 23 9 79 10 24 11 25 12 26 13
REMARK SMILES IDX 73 14 27 15 78 16 72 17 74 18 28 19 77 20 71 21 70 22 29 24
REMARK SMILES IDX 59 25 40 26 58 27 41 28 44 29 57 30 75 31 42 32 43 33 56 35
REMARK SMILES IDX 76 36 45 37 30 38 31 39 39 40 32 41 38 42 33 43 34 44 35 45
REMARK SMILES IDX 36 46 37 47 60 48 61 49 69 50 62 51 68 52 63 53 64 54 65 55
REMARK SMILES IDX 66 56 67 57 46 58 47 59 55 60 48 61 54 62 49 63 50 64 51 65
REMARK SMILES IDX 52 66 53 67 5 68 6 69 7 70 8 71 9 72 10 74 11 75 12 76 16 77
REMARK SMILES IDX 13 78 15 81 17 82 14 83 18 84 19 85 20 86
REMARK H PARENT 3 5 74 23 44 34 8 73 12 79 12 80
REMARK Flexibility Score: inf
ROOT
ATOM      1  C   UNL A   1      39.742  23.348  27.194  1.00  0.00     0.116 C 
ENDROOT
BRANCH   1   2
ATOM      2  N   UNL A   1      40.323  24.137  26.118  1.00  0.00    -0.352 N 
ATOM      3  O   UNL A   1      41.126  25.980  25.098  1.00  0.00    -0.269 OA
ATOM      4  C   UNL A   1      40.752  25.444  26.138  1.00  0.00     0.251 C 
ATOM      5  H   UNL A   1      40.422  23.671  25.257  1.00  0.00     0.163 HD
BRANCH   4   6
ATOM      6  C   UNL A   1      40.723  26.212  27.403  1.00  0.00     0.039 A 
ATOM      7  C   UNL A   1      39.786  25.920  28.396  1.00  0.00     0.014 A 
ATOM      8  C   UNL A   1      41.632  27.259  27.584  1.00  0.00     0.014 A 
ATOM      9  C   UNL A   1      39.652  26.772  29.488  1.00  0.00     0.010 A 
ATOM     10  C   UNL A   1      41.545  28.068  28.722  1.00  0.00     0.010 A 
ATOM     11  C   UNL A   1      40.521  27.862  29.660  1.00  0.00    -0.014 A 
BRANCH  11  12
ATOM     12  C   UNL A   1      40.339  28.759  30.831  1.00  0.00     0.031 A 
ATOM     13  C   UNL A   1      41.255  28.676  32.026  1.00  0.00     0.074 A 
ATOM     14  C   UNL A   1      39.373  29.699  30.791  1.00  0.00     0.049 A 
ATOM     15  N   UNL A   1      41.287  29.435  33.091  1.00  0.00    -0.248 NA
ATOM     16  C   UNL A   1      42.259  27.600  32.030  1.00  0.00     0.031 C 
ATOM     17  C   UNL A   1      38.415  29.876  29.698  1.00  0.00     0.029 A 
ATOM     18  N   UNL A   1      39.058  30.699  31.675  1.00  0.00    -0.354 N 
ATOM     19  C   UNL A   1      42.290  28.916  33.903  1.00  0.00     0.074 A 
ATOM     20  C   UNL A   1      42.831  27.765  33.215  1.00  0.00     0.031 C 
ATOM     21  C   UNL A   1      37.662  30.958  29.945  1.00  0.00     0.029 A 
ATOM     22  C   UNL A   1      38.049  31.521  31.234  1.00  0.00     0.049 A 
ATOM     23  H   UNL A   1      39.510  30.816  32.542  1.00  0.00     0.167 HD
ATOM     24  C   UNL A   1      42.723  29.360  35.109  1.00  0.00     0.031 A 
ATOM     25  C   UNL A   1      37.495  32.610  31.798  1.00  0.00     0.031 A 
ATOM     26  C   UNL A   1      42.197  30.515  35.787  1.00  0.00     0.049 A 
ATOM     27  C   UNL A   1      38.003  33.090  33.127  1.00  0.00     0.074 A 
ATOM     28  C   UNL A   1      42.598  31.061  36.995  1.00  0.00     0.029 A 
ATOM     29  N   UNL A   1      41.159  31.305  35.318  1.00  0.00    -0.354 N 
ATOM     30  N   UNL A   1      38.973  32.600  33.861  1.00  0.00    -0.248 NA
ATOM     31  C   UNL A   1      37.346  34.273  33.698  1.00  0.00     0.031 C 
ATOM     32  C   UNL A   1      41.777  32.161  37.274  1.00  0.00     0.029 A 
ATOM     33  C   UNL A   1      40.895  32.325  36.218  1.00  0.00     0.049 A 
ATOM     34  H   UNL A   1      40.680  31.162  34.469  1.00  0.00     0.167 HD
ATOM     35  C   UNL A   1      39.054  33.425  34.976  1.00  0.00     0.074 A 
ATOM     36  C   UNL A   1      38.047  34.454  34.810  1.00  0.00     0.031 C 
ATOM     37  C   UNL A   1      39.886  33.338  36.042  1.00  0.00     0.031 A 
BRANCH  24  38
ATOM     38  C   UNL A   1      43.812  28.571  35.789  1.00  0.00    -0.014 A 
ATOM     39  C   UNL A   1      45.168  28.891  35.607  1.00  0.00     0.010 A 
ATOM     40  C   UNL A   1      43.467  27.515  36.653  1.00  0.00     0.010 A 
ATOM     41  C   UNL A   1      46.163  28.146  36.247  1.00  0.00     0.020 A 
ATOM     42  C   UNL A   1      44.458  26.781  37.312  1.00  0.00     0.020 A 
ATOM     43  C   UNL A   1      45.801  27.089  37.088  1.00  0.00     0.054 A 
BRANCH  43  44
ATOM     44  S   UNL A   1      47.109  26.139  37.914  1.00  0.00     0.124 S 
ATOM     45  O   UNL A   1      46.605  24.774  37.799  1.00  0.00    -0.237 OA
ATOM     46  O   UNL A   1      48.287  26.442  37.107  1.00  0.00    -0.237 OA
ATOM     47  O   UNL A   1      47.129  26.684  39.269  1.00  0.00    -0.744 OA
ENDBRANCH  43  44
ENDBRANCH  24  38
BRANCH  25  48
ATOM     48  C   UNL A   1      36.403  33.329  31.091  1.00  0.00    -0.014 A 
ATOM     49  C   UNL A   1      35.160  33.529  31.715  1.00  0.00     0.010 A 
ATOM     50  C   UNL A   1      36.616  33.846  29.800  1.00  0.00     0.010 A 
ATOM     51  C   UNL A   1      34.145  34.230  31.057  1.00  0.00     0.020 A 
ATOM     52  C   UNL A   1      35.611  34.568  29.150  1.00  0.00     0.020 A 
ATOM     53  C   UNL A   1      34.378  34.747  29.779  1.00  0.00     0.054 A 
BRANCH  53  54
ATOM     54  S   UNL A   1      33.074  35.711  28.969  1.00  0.00     0.124 S 
ATOM     55  O   UNL A   1      32.268  36.148  30.106  1.00  0.00    -0.237 OA
ATOM     56  O   UNL A   1      33.829  36.760  28.287  1.00  0.00    -0.237 OA
ATOM     57  O   UNL A   1      32.435  34.740  28.083  1.00  0.00    -0.744 OA
ENDBRANCH  53  54
ENDBRANCH  25  48
BRANCH  37  58
ATOM     58  C   UNL A   1      39.758  34.400  37.098  1.00  0.00    -0.014 A 
ATOM     59  C   UNL A   1      38.966  34.194  38.242  1.00  0.00     0.010 A 
ATOM     60  C   UNL A   1      40.457  35.611  36.953  1.00  0.00     0.010 A 
ATOM     61  C   UNL A   1      38.844  35.200  39.204  1.00  0.00     0.020 A 
ATOM     62  C   UNL A   1      40.355  36.610  37.924  1.00  0.00     0.020 A 
ATOM     63  C   UNL A   1      39.534  36.404  39.035  1.00  0.00     0.054 A 
BRANCH  63  64
ATOM     64  S   UNL A   1      39.381  37.690  40.306  1.00  0.00     0.124 S 
ATOM     65  O   UNL A   1      40.743  38.213  40.374  1.00  0.00    -0.237 OA
ATOM     66  O   UNL A   1      38.388  38.595  39.734  1.00  0.00    -0.237 OA
ATOM     67  O   UNL A   1      38.936  36.954  41.488  1.00  0.00    -0.744 OA
ENDBRANCH  63  64
ENDBRANCH  37  58
ENDBRANCH  11  12
ENDBRANCH   4   6
ENDBRANCH   1   2
BRANCH   1  68
ATOM     68  C   UNL A   1      40.603  22.159  27.609  1.00  0.00     0.023 C 
BRANCH  68  69
ATOM     69  C   UNL A   1      40.582  20.956  26.660  1.00  0.00     0.023 C 
BRANCH  69  70
ATOM     70  C   UNL A   1      41.803  20.042  26.750  1.00  0.00     0.116 C 
BRANCH  70  71
ATOM     71  N   UNL A   1      42.636  20.130  25.565  1.00  0.00    -0.351 N 
ATOM     72  C   UNL A   1      43.691  20.939  25.277  1.00  0.00     0.278 C 
ATOM     73  H   UNL A   1      42.399  19.497  24.849  1.00  0.00     0.163 HD
ATOM     74  O   UNL A   1      44.291  20.742  24.218  1.00  0.00    -0.268 OA
BRANCH  72  75
ATOM     75  C   UNL A   1      44.167  22.014  26.274  1.00  0.00     0.276 C 
ATOM     76  N   UNL A   1      45.660  21.988  26.352  1.00  0.00    -0.328 N 
ATOM     77  C   UNL A   1      43.651  23.436  25.924  1.00  0.00     0.064 C 
ATOM     78  C   UNL A   1      46.198  23.373  26.216  1.00  0.00     0.253 C 
ATOM     79  H   UNL A   1      46.027  21.407  25.599  1.00  0.00     0.347 HD
ATOM     80  H   UNL A   1      45.943  21.605  27.254  1.00  0.00     0.347 HD
ATOM     81  C   UNL A   1      44.054  24.351  27.100  1.00  0.00     0.017 C 
ATOM     82  C   UNL A   1      44.327  23.996  24.650  1.00  0.00     0.094 C 
ATOM     83  C   UNL A   1      45.572  24.246  27.318  1.00  0.00     0.072 C 
ATOM     84  C   UNL A   1      45.842  23.981  24.838  1.00  0.00     0.298 C 
ATOM     85  F   UNL A   1      46.332  25.244  24.748  1.00  0.00    -0.200 F 
ATOM     86  F   UNL A   1      46.434  23.269  23.848  1.00  0.00    -0.200 F 
ENDBRANCH  72  75
ENDBRANCH  70  71
ENDBRANCH  69  70
ENDBRANCH  68  69
ENDBRANCH   1  68
TORSDOF 14
ENDMDL
MODEL 2
REMARK VINA RESULT:     -11.3      4.803     12.366
REMARK SMILES O=C(NCCCCNC(=O)[C@H]1[NH2+][C@@H]2CC[C@H]1CC2(F)F)c1ccc(-c2c3nc(c(-c4ccc(S(=O)(=O)[O-])cc4)c4ccc([nH]4)c(-c4ccc(S(=O)(=O)[O-])cc4)c4nc(c(-c5ccc(S(=O)(=O)[O-])cc5)c5ccc2[nH]5)C=C4)C=C3)cc1
REMARK SMILES IDX 4 1 3 2 1 3 2 4 21 6 22 7 80 8 23 9 79 10 24 11 25 12 26 13
REMARK SMILES IDX 73 14 27 15 78 16 72 17 74 18 28 19 77 20 71 21 70 22 29 24
REMARK SMILES IDX 59 25 40 26 58 27 41 28 44 29 57 30 75 31 42 32 43 33 56 35
REMARK SMILES IDX 76 36 45 37 30 38 31 39 39 40 32 41 38 42 33 43 34 44 35 45
REMARK SMILES IDX 36 46 37 47 60 48 61 49 69 50 62 51 68 52 63 53 64 54 65 55
REMARK SMILES IDX 66 56 67 57 46 58 47 59 55 60 48 61 54 62 49 63 50 64 51 65
REMARK SMILES IDX 52 66 53 67 5 68 6 69 7 70 8 71 9 72 10 74 11 75 12 76 16 77
REMARK SMILES IDX 13 78 15 81 17 82 14 83 18 84 19 85 20 86
REMARK H PARENT 3 5 74 23 44 34 8 73 12 79 12 80
REMARK Flexibility Score: inf
ROOT
ATOM      1  C   UNL A   1      34.497  32.472  28.023  1.00  0.00     0.116 C 
ENDROOT
BRANCH   1   2
ATOM      2  N   UNL A   1      33.882  31.166  27.838  1.00  0.00    -0.352 N 
ATOM      3  O   UNL A   1      33.802  28.926  27.594  1.00  0.00    -0.269 OA
ATOM      4  C   UNL A   1      34.466  29.921  27.875  1.00  0.00     0.251 C 
ATOM      5  H   UNL A   1      32.913  31.175  27.664  1.00  0.00     0.163 HD
BRANCH   4   6
ATOM      6  C   UNL A   1      35.902  29.788  28.211  1.00  0.00     0.039 A 
ATOM      7  C   UNL A   1      36.886  30.014  27.247  1.00  0.00     0.014 A 
ATOM      8  C   UNL A   1      36.265  29.403  29.505  1.00  0.00     0.014 A 
ATOM      9  C   UNL A   1      38.212  29.699  27.529  1.00  0.00     0.010 A 
ATOM     10  C   UNL A   1      37.608  29.162  29.809  1.00  0.00     0.010 A 
ATOM     11  C   UNL A   1      38.589  29.259  28.809  1.00  0.00    -0.014 A 
BRANCH  11  12
ATOM     12  C   UNL A   1      40.011  28.918  29.071  1.00  0.00     0.031 A 
ATOM     13  C   UNL A   1      40.912  29.862  29.826  1.00  0.00     0.074 A 
ATOM     14  C   UNL A   1      40.480  27.718  28.674  1.00  0.00     0.049 A 
ATOM     15  N   UNL A   1      42.151  29.685  30.210  1.00  0.00    -0.248 NA
ATOM     16  C   UNL A   1      40.356  31.175  30.191  1.00  0.00     0.031 C 
ATOM     17  C   UNL A   1      39.712  26.719  27.927  1.00  0.00     0.029 A 
ATOM     18  N   UNL A   1      41.700  27.122  28.870  1.00  0.00    -0.354 N 
ATOM     19  C   UNL A   1      42.532  30.868  30.835  1.00  0.00     0.074 A 
ATOM     20  C   UNL A   1      41.398  31.763  30.764  1.00  0.00     0.031 C 
ATOM     21  C   UNL A   1      40.455  25.612  27.782  1.00  0.00     0.029 A 
ATOM     22  C   UNL A   1      41.766  25.839  28.382  1.00  0.00     0.049 A 
ATOM     23  H   UNL A   1      42.454  27.569  29.317  1.00  0.00     0.167 HD
ATOM     24  C   UNL A   1      43.715  31.178  31.419  1.00  0.00     0.031 A 
ATOM     25  C   UNL A   1      42.767  24.939  28.414  1.00  0.00     0.031 A 
ATOM     26  C   UNL A   1      44.839  30.283  31.506  1.00  0.00     0.049 A 
ATOM     27  C   UNL A   1      44.062  25.302  29.080  1.00  0.00     0.074 A 
ATOM     28  C   UNL A   1      46.066  30.497  32.110  1.00  0.00     0.029 A 
ATOM     29  N   UNL A   1      44.874  29.002  30.977  1.00  0.00    -0.354 N 
ATOM     30  N   UNL A   1      44.388  26.417  29.691  1.00  0.00    -0.248 NA
ATOM     31  C   UNL A   1      45.121  24.284  29.066  1.00  0.00     0.031 C 
ATOM     32  C   UNL A   1      46.857  29.359  31.915  1.00  0.00     0.029 A 
ATOM     33  C   UNL A   1      46.105  28.419  31.227  1.00  0.00     0.049 A 
ATOM     34  H   UNL A   1      44.132  28.570  30.495  1.00  0.00     0.167 HD
ATOM     35  C   UNL A   1      45.686  26.228  30.148  1.00  0.00     0.074 A 
ATOM     36  C   UNL A   1      46.078  24.887  29.760  1.00  0.00     0.031 C 
ATOM     37  C   UNL A   1      46.482  27.087  30.829  1.00  0.00     0.031 A 
BRANCH  24  38
ATOM     38  C   UNL A   1      43.865  32.564  31.991  1.00  0.00    -0.014 A 
ATOM     39  C   UNL A   1      43.624  32.823  33.351  1.00  0.00     0.010 A 
ATOM     40  C   UNL A   1      44.292  33.616  31.159  1.00  0.00     0.010 A 
ATOM     41  C   UNL A   1      43.768  34.117  33.861  1.00  0.00     0.020 A 
ATOM     42  C   UNL A   1      44.457  34.907  31.669  1.00  0.00     0.020 A 
ATOM     43  C   UNL A   1      44.175  35.152  33.014  1.00  0.00     0.054 A 
BRANCH  43  44
ATOM     44  S   UNL A   1      44.362  36.822  33.700  1.00  0.00     0.124 S 
ATOM     45  O   UNL A   1      43.172  37.492  33.185  1.00  0.00    -0.237 OA
ATOM     46  O   UNL A   1      44.372  36.581  35.140  1.00  0.00    -0.237 OA
ATOM     47  O   UNL A   1      45.630  37.286  33.141  1.00  0.00    -0.744 OA
ENDBRANCH  43  44
ENDBRANCH  24  38
BRANCH  25  48
ATOM     48  C   UNL A   1      42.568  23.598  27.806  1.00  0.00    -0.014 A 
ATOM     49  C   UNL A   1      43.007  23.336  26.497  1.00  0.00     0.010 A 
ATOM     50  C   UNL A   1      41.967  22.565  28.549  1.00  0.00     0.010 A 
ATOM     51  C   UNL A   1      42.843  22.065  25.938  1.00  0.00     0.020 A 
ATOM     52  C   UNL A   1      41.824  21.287  28.002  1.00  0.00     0.020 A 
ATOM     53  C   UNL A   1      42.254  21.048  26.695  1.00  0.00     0.054 A 
BRANCH  53  54
ATOM     54  S   UNL A   1      42.112  19.389  25.979  1.00  0.00     0.124 S 
ATOM     55  O   UNL A   1      40.674  19.280  25.748  1.00  0.00    -0.237 OA
ATOM     56  O   UNL A   1      42.941  19.485  24.780  1.00  0.00    -0.237 OA
ATOM     57  O   UNL A   1      42.647  18.521  27.026  1.00  0.00    -0.744 OA
ENDBRANCH  53  54
ENDBRANCH  25  48
BRANCH  37  58
ATOM     58  C   UNL A   1      47.848  26.592  31.218  1.00  0.00    -0.014 A 
ATOM     59  C   UNL A   1      48.961  26.802  30.385  1.00  0.00     0.010 A 
ATOM     60  C   UNL A   1      48.022  25.927  32.444  1.00  0.00     0.010 A 
ATOM     61  C   UNL A   1      50.218  26.318  30.754  1.00  0.00     0.020 A 
ATOM     62  C   UNL A   1      49.282  25.462  32.827  1.00  0.00     0.020 A 
ATOM     63  C   UNL A   1      50.369  25.645  31.970  1.00  0.00     0.054 A 
BRANCH  63  64
ATOM     64  S   UNL A   1      52.014  25.044  32.442  1.00  0.00     0.124 S 
ATOM     65  O   UNL A   1      52.193  25.651  33.759  1.00  0.00    -0.237 OA
ATOM     66  O   UNL A   1      51.844  23.594  32.437  1.00  0.00    -0.237 OA
ATOM     67  O   UNL A   1      52.886  25.566  31.392  1.00  0.00    -0.744 OA
ENDBRANCH  63  64
ENDBRANCH  37  58
ENDBRANCH  11  12
ENDBRANCH   4   6
ENDBRANCH   1   2
BRANCH   1  68
ATOM     68  C   UNL A   1      34.124  33.138  29.344  1.00  0.00     0.023 C 
BRANCH  68  69
ATOM     69  C   UNL A   1      33.877  34.649  29.283  1.00  0.00     0.023 C 
BRANCH  69  70
ATOM     70  C   UNL A   1      33.774  35.341  30.641  1.00  0.00     0.116 C 
BRANCH  70  71
ATOM     71  N   UNL A   1      33.679  34.389  31.732  1.00  0.00    -0.351 N 
ATOM     72  C   UNL A   1      34.615  33.956  32.618  1.00  0.00     0.278 C 
ATOM     73  H   UNL A   1      32.786  33.990  31.851  1.00  0.00     0.163 HD
ATOM     74  O   UNL A   1      34.244  33.200  33.519  1.00  0.00    -0.268 OA
BRANCH  72  75
ATOM     75  C   UNL A   1      36.073  34.453  32.545  1.00  0.00     0.276 C 
ATOM     76  N   UNL A   1      36.689  34.375  33.905  1.00  0.00    -0.328 N 
ATOM     77  C   UNL A   1      36.924  33.680  31.502  1.00  0.00     0.064 C 
ATOM     78  C   UNL A   1      38.018  33.701  33.822  1.00  0.00     0.253 C 
ATOM     79  H   UNL A   1      36.078  33.841  34.523  1.00  0.00     0.347 HD
ATOM     80  H   UNL A   1      36.813  35.317  34.273  1.00  0.00     0.347 HD
ATOM     81  C   UNL A   1      38.283  34.407  31.420  1.00  0.00     0.017 C 
ATOM     82  C   UNL A   1      37.204  32.226  31.950  1.00  0.00     0.094 C 
ATOM     83  C   UNL A   1      38.895  34.485  32.828  1.00  0.00     0.072 C 
ATOM     84  C   UNL A   1      37.879  32.244  33.320  1.00  0.00     0.298 C 
ATOM     85  F   UNL A   1      39.103  31.662  33.240  1.00  0.00    -0.200 F 
ATOM     86  F   UNL A   1      37.163  31.513  34.209  1.00  0.00    -0.200 F 
ENDBRANCH  72  75
ENDBRANCH  70  71
ENDBRANCH  69  70
ENDBRANCH  68  69
ENDBRANCH   1  68
TORSDOF 14
ENDMDL
MODEL 3
REMARK VINA RESULT:     -11.3      3.412      4.071
REMARK SMILES O=C(NCCCCNC(=O)[C@H]1[NH2+][C@@H]2CC[C@H]1CC2(F)F)c1ccc(-c2c3nc(c(-c4ccc(S(=O)(=O)[O-])cc4)c4ccc([nH]4)c(-c4ccc(S(=O)(=O)[O-])cc4)c4nc(c(-c5ccc(S(=O)(=O)[O-])cc5)c5ccc2[nH]5)C=C4)C=C3)cc1
REMARK SMILES IDX 4 1 3 2 1 3 2 4 21 6 22 7 80 8 23 9 79 10 24 11 25 12 26 13
REMARK SMILES IDX 73 14 27 15 78 16 72 17 74 18 28 19 77 20 71 21 70 22 29 24
REMARK SMILES IDX 59 25 40 26 58 27 41 28 44 29 57 30 75 31 42 32 43 33 56 35
REMARK SMILES IDX 76 36 45 37 30 38 31 39 39 40 32 41 38 42 33 43 34 44 35 45
REMARK SMILES IDX 36 46 37 47 60 48 61 49 69 50 62 51 68 52 63 53 64 54 65 55
REMARK SMILES IDX 66 56 67 57 46 58 47 59 55 60 48 61 54 62 49 63 50 64 51 65
REMARK SMILES IDX 52 66 53 67 5 68 6 69 7 70 8 71 9 72 10 74 11 75 12 76 16 77
REMARK SMILES IDX 13 78 15 81 17 82 14 83 18 84 19 85 20 86
REMARK H PARENT 3 5 74 23 44 34 8 73 12 79 12 80
REMARK Flexibility Score: inf
ROOT
ATOM      1  C   UNL A   1      40.136  21.521  26.744  1.00  0.00     0.116 C 
ENDROOT
BRANCH   1   2
ATOM      2  N   UNL A   1      39.055  22.048  25.924  1.00  0.00    -0.352 N 
ATOM      3  O   UNL A   1      37.548  23.561  25.201  1.00  0.00    -0.269 OA
ATOM      4  C   UNL A   1      38.537  23.322  25.890  1.00  0.00     0.251 C 
ATOM      5  H   UNL A   1      38.637  21.403  25.309  1.00  0.00     0.163 HD
BRANCH   4   6
ATOM      6  C   UNL A   1      39.145  24.390  26.715  1.00  0.00     0.039 A 
ATOM      7  C   UNL A   1      38.874  24.480  28.082  1.00  0.00     0.014 A 
ATOM      8  C   UNL A   1      39.978  25.331  26.103  1.00  0.00     0.014 A 
ATOM      9  C   UNL A   1      39.299  25.596  28.796  1.00  0.00     0.010 A 
ATOM     10  C   UNL A   1      40.470  26.412  26.843  1.00  0.00     0.010 A 
ATOM     11  C   UNL A   1      40.093  26.580  28.185  1.00  0.00    -0.014 A 
BRANCH  11  12
ATOM     12  C   UNL A   1      40.517  27.766  28.974  1.00  0.00     0.031 A 
ATOM     13  C   UNL A   1      41.913  27.869  29.535  1.00  0.00     0.074 A 
ATOM     14  C   UNL A   1      39.652  28.787  29.138  1.00  0.00     0.049 A 
ATOM     15  N   UNL A   1      42.470  28.867  30.174  1.00  0.00    -0.248 NA
ATOM     16  C   UNL A   1      42.795  26.704  29.363  1.00  0.00     0.031 C 
ATOM     17  C   UNL A   1      38.270  28.805  28.654  1.00  0.00     0.029 A 
ATOM     18  N   UNL A   1      39.814  30.015  29.727  1.00  0.00    -0.354 N 
ATOM     19  C   UNL A   1      43.753  28.442  30.504  1.00  0.00     0.074 A 
ATOM     20  C   UNL A   1      43.886  27.090  30.010  1.00  0.00     0.031 C 
ATOM     21  C   UNL A   1      37.731  30.007  28.909  1.00  0.00     0.029 A 
ATOM     22  C   UNL A   1      38.711  30.825  29.616  1.00  0.00     0.049 A 
ATOM     23  H   UNL A   1      40.642  30.289  30.184  1.00  0.00     0.167 HD
ATOM     24  C   UNL A   1      44.731  29.118  31.155  1.00  0.00     0.031 A 
ATOM     25  C   UNL A   1      38.504  32.089  30.032  1.00  0.00     0.031 A 
ATOM     26  C   UNL A   1      44.606  30.471  31.632  1.00  0.00     0.049 A 
ATOM     27  C   UNL A   1      39.609  32.821  30.737  1.00  0.00     0.074 A 
ATOM     28  C   UNL A   1      45.556  31.250  32.271  1.00  0.00     0.029 A 
ATOM     29  N   UNL A   1      43.463  31.247  31.522  1.00  0.00    -0.354 N 
ATOM     30  N   UNL A   1      40.824  32.409  31.011  1.00  0.00    -0.248 NA
ATOM     31  C   UNL A   1      39.317  34.190  31.182  1.00  0.00     0.031 C 
ATOM     32  C   UNL A   1      44.975  32.486  32.579  1.00  0.00     0.029 A 
ATOM     33  C   UNL A   1      43.678  32.491  32.093  1.00  0.00     0.049 A 
ATOM     34  H   UNL A   1      42.622  30.957  31.099  1.00  0.00     0.167 HD
ATOM     35  C   UNL A   1      41.447  33.475  31.648  1.00  0.00     0.074 A 
ATOM     36  C   UNL A   1      40.481  34.555  31.702  1.00  0.00     0.031 C 
ATOM     37  C   UNL A   1      42.706  33.552  32.144  1.00  0.00     0.031 A 
BRANCH  24  38
ATOM     38  C   UNL A   1      46.024  28.390  31.414  1.00  0.00    -0.014 A 
ATOM     39  C   UNL A   1      46.228  27.663  32.599  1.00  0.00     0.010 A 
ATOM     40  C   UNL A   1      47.037  28.404  30.436  1.00  0.00     0.010 A 
ATOM     41  C   UNL A   1      47.436  26.995  32.820  1.00  0.00     0.020 A 
ATOM     42  C   UNL A   1      48.238  27.720  30.644  1.00  0.00     0.020 A 
ATOM     43  C   UNL A   1      48.437  27.035  31.845  1.00  0.00     0.054 A 
BRANCH  43  44
ATOM     44  S   UNL A   1      49.994  26.155  32.150  1.00  0.00     0.124 S 
ATOM     45  O   UNL A   1      50.123  25.346  30.941  1.00  0.00    -0.237 OA
ATOM     46  O   UNL A   1      50.960  27.242  32.284  1.00  0.00    -0.237 OA
ATOM     47  O   UNL A   1      49.733  25.405  33.377  1.00  0.00    -0.744 OA
ENDBRANCH  43  44
ENDBRANCH  24  38
BRANCH  25  48
ATOM     48  C   UNL A   1      37.195  32.743  29.773  1.00  0.00    -0.014 A 
ATOM     49  C   UNL A   1      36.187  32.732  30.751  1.00  0.00     0.010 A 
ATOM     50  C   UNL A   1      36.966  33.411  28.556  1.00  0.00     0.010 A 
ATOM     51  C   UNL A   1      34.966  33.372  30.514  1.00  0.00     0.020 A 
ATOM     52  C   UNL A   1      35.757  34.072  28.326  1.00  0.00     0.020 A 
ATOM     53  C   UNL A   1      34.760  34.040  29.304  1.00  0.00     0.054 A 
BRANCH  53  54
ATOM     54  S   UNL A   1      33.199  34.923  29.041  1.00  0.00     0.124 S 
ATOM     55  O   UNL A   1      33.661  36.219  28.553  1.00  0.00    -0.237 OA
ATOM     56  O   UNL A   1      32.518  34.082  28.059  1.00  0.00    -0.237 OA
ATOM     57  O   UNL A   1      32.588  34.933  30.368  1.00  0.00    -0.744 OA
ENDBRANCH  53  54
ENDBRANCH  25  48
BRANCH  37  58
ATOM     58  C   UNL A   1      43.116  34.859  32.765  1.00  0.00    -0.014 A 
ATOM     59  C   UNL A   1      42.911  35.108  34.134  1.00  0.00     0.010 A 
ATOM     60  C   UNL A   1      43.735  35.840  31.972  1.00  0.00     0.010 A 
ATOM     61  C   UNL A   1      43.282  36.334  34.690  1.00  0.00     0.020 A 
ATOM     62  C   UNL A   1      44.128  37.059  32.530  1.00  0.00     0.020 A 
ATOM     63  C   UNL A   1      43.882  37.305  33.882  1.00  0.00     0.054 A 
BRANCH  63  64
ATOM     64  S   UNL A   1      44.377  38.883  34.626  1.00  0.00     0.124 S 
ATOM     65  O   UNL A   1      43.334  39.786  34.146  1.00  0.00    -0.237 OA
ATOM     66  O   UNL A   1      44.347  38.592  36.057  1.00  0.00    -0.237 OA
ATOM     67  O   UNL A   1      45.710  39.121  34.075  1.00  0.00    -0.744 OA
ENDBRANCH  63  64
ENDBRANCH  37  58
ENDBRANCH  11  12
ENDBRANCH   4   6
ENDBRANCH   1   2
BRANCH   1  68
ATOM     68  C   UNL A   1      40.842  20.321  26.120  1.00  0.00     0.023 C 
BRANCH  68  69
ATOM     69  C   UNL A   1      42.040  19.772  26.900  1.00  0.00     0.023 C 
BRANCH  69  70
ATOM     70  C   UNL A   1      43.284  19.490  26.059  1.00  0.00     0.116 C 
BRANCH  70  71
ATOM     71  N   UNL A   1      43.445  20.452  24.985  1.00  0.00    -0.351 N 
ATOM     72  C   UNL A   1      44.098  21.645  24.949  1.00  0.00     0.278 C 
ATOM     73  H   UNL A   1      43.007  20.200  24.139  1.00  0.00     0.163 HD
ATOM     74  O   UNL A   1      44.160  22.231  23.866  1.00  0.00    -0.268 OA
BRANCH  72  75
ATOM     75  C   UNL A   1      44.802  22.206  26.200  1.00  0.00     0.276 C 
ATOM     76  N   UNL A   1      45.982  23.021  25.778  1.00  0.00    -0.328 N 
ATOM     77  C   UNL A   1      43.852  23.029  27.111  1.00  0.00     0.064 C 
ATOM     78  C   UNL A   1      45.968  24.336  26.482  1.00  0.00     0.253 C 
ATOM     79  H   UNL A   1      45.943  23.176  24.771  1.00  0.00     0.347 HD
ATOM     80  H   UNL A   1      46.839  22.522  26.017  1.00  0.00     0.347 HD
ATOM     81  C   UNL A   1      44.649  23.360  28.391  1.00  0.00     0.017 C 
ATOM     82  C   UNL A   1      43.450  24.373  26.458  1.00  0.00     0.094 C 
ATOM     83  C   UNL A   1      45.953  24.072  27.999  1.00  0.00     0.072 C 
ATOM     84  C   UNL A   1      44.711  25.159  26.109  1.00  0.00     0.298 C 
ATOM     85  F   UNL A   1      44.717  26.343  26.774  1.00  0.00    -0.200 F 
ATOM     86  F   UNL A   1      44.729  25.462  24.788  1.00  0.00    -0.200 F 
ENDBRANCH  72  75
ENDBRANCH  70  71
ENDBRANCH  69  70
ENDBRANCH  68  69
ENDBRANCH   1  68
TORSDOF 14
ENDMDL
