MODEL 1
REMARK VINA RESULT:     -12.0      0.000      0.000
REMARK SMILES Cc1ccccc1OCC(=O)c1nc(C)c(C(=O)NCCCCNC(=O)c2ccc(-c3c4nc(c(-c5ccc(S(=O)(=O)[O-])cc5)c5ccc([nH]5)c(-c5ccc(S(=O)(=O)[O-])cc5)c5nc(c(-c6ccc(S(=O)(=O)[O-])cc6)c6ccc3[nH]6)C=C5)C=C4)cc2)s1
REMARK SMILES IDX 21 1 20 2 19 3 17 4 18 5 16 7 12 8 13 9 87 10 14 11 15 12
REMARK SMILES IDX 10 13 11 14 9 15 8 16 7 17 1 18 2 19 3 20 4 21 6 22 5 23
REMARK SMILES IDX 22 24 23 25 24 26 25 27 26 29 27 30 28 31 86 32 29 33 85 34
REMARK SMILES IDX 30 35 31 36 32 37 79 38 33 39 84 40 78 41 80 42 34 43 83 44
REMARK SMILES IDX 77 45 76 46 35 48 65 49 46 50 64 51 47 52 50 53 63 54 81 55
REMARK SMILES IDX 48 56 49 57 62 59 82 60 51 61 36 62 37 63 45 64 38 65 44 66
REMARK SMILES IDX 39 67 40 68 41 69 42 70 43 71 66 72 67 73 75 74 68 75 74 76
REMARK SMILES IDX 69 77 70 78 71 79 72 80 73 81 52 82 53 83 61 84 54 85 60 86
REMARK SMILES IDX 55 87 56 88 57 89 58 90 59 91
REMARK H PARENT 19 6 24 28 80 47 50 58
REMARK Flexibility Score: inf
ROOT
ATOM      1  C   UNL A   1      36.211  21.743  24.637  1.00  0.00     0.023 C 
ENDROOT
BRANCH   1   2
ATOM      2  C   UNL A   1      35.478  20.557  25.284  1.00  0.00     0.116 C 
BRANCH   2   3
ATOM      3  N   UNL A   1      34.231  20.254  24.618  1.00  0.00    -0.351 N 
ATOM      4  C   UNL A   1      32.991  20.832  24.566  1.00  0.00     0.263 C 
ATOM      5  O   UNL A   1      32.223  20.209  23.817  1.00  0.00    -0.268 OA
ATOM      6  H   UNL A   1      34.286  19.436  24.072  1.00  0.00     0.163 HD
BRANCH   4   7
ATOM      7  C   UNL A   1      32.556  22.032  25.286  1.00  0.00     0.115 A 
ATOM      8  C   UNL A   1      31.359  24.177  25.625  1.00  0.00     0.164 A 
ATOM      9  N   UNL A   1      32.036  23.843  26.696  1.00  0.00    -0.237 NA
ATOM     10  S   UNL A   1      31.496  23.077  24.345  1.00  0.00    -0.105 S 
ATOM     11  C   UNL A   1      32.704  22.630  26.538  1.00  0.00     0.062 A 
ATOM     12  C   UNL A   1      33.431  22.233  27.770  1.00  0.00     0.068 C 
BRANCH   8  13
ATOM     13  C   UNL A   1      30.542  25.385  25.614  1.00  0.00     0.228 C 
ATOM     14  O   UNL A   1      30.301  26.037  26.641  1.00  0.00    -0.288 OA
BRANCH  13  15
ATOM     15  C   UNL A   1      29.846  25.830  24.325  1.00  0.00     0.313 C 
BRANCH  15  16
ATOM     16  O   UNL A   1      30.186  27.010  23.649  1.00  0.00    -0.485 OA
BRANCH  16  17
ATOM     17  C   UNL A   1      31.458  27.401  23.368  1.00  0.00     0.122 A 
ATOM     18  C   UNL A   1      32.172  25.836  21.424  1.00  0.00     0.048 C 
ATOM     19  C   UNL A   1      32.378  26.947  22.412  1.00  0.00    -0.009 A 
ATOM     20  C   UNL A   1      33.620  27.619  22.311  1.00  0.00     0.007 A 
ATOM     21  C   UNL A   1      33.967  28.670  23.158  1.00  0.00     0.001 A 
ATOM     22  C   UNL A   1      31.833  28.454  24.225  1.00  0.00     0.047 A 
ATOM     23  C   UNL A   1      33.073  29.083  24.130  1.00  0.00     0.004 A 
ENDBRANCH  16  17
ENDBRANCH  15  16
ENDBRANCH  13  15
ENDBRANCH   8  13
ENDBRANCH   4   7
ENDBRANCH   2   3
ENDBRANCH   1   2
BRANCH   1  24
ATOM     24  C   UNL A   1      36.566  22.895  25.582  1.00  0.00     0.023 C 
BRANCH  24  25
ATOM     25  C   UNL A   1      38.059  23.175  25.650  1.00  0.00     0.116 C 
BRANCH  25  26
ATOM     26  N   UNL A   1      38.709  22.884  26.918  1.00  0.00    -0.352 N 
ATOM     27  C   UNL A   1      39.816  23.626  27.352  1.00  0.00     0.251 C 
ATOM     28  H   UNL A   1      38.365  22.154  27.483  1.00  0.00     0.163 HD
ATOM     29  O   UNL A   1      40.891  23.154  27.629  1.00  0.00    -0.269 OA
BRANCH  27  30
ATOM     30  C   UNL A   1      39.553  25.083  27.484  1.00  0.00     0.039 A 
ATOM     31  C   UNL A   1      40.230  25.993  26.667  1.00  0.00     0.014 A 
ATOM     32  C   UNL A   1      38.834  25.518  28.593  1.00  0.00     0.014 A 
ATOM     33  C   UNL A   1      40.322  27.328  27.066  1.00  0.00     0.010 A 
ATOM     34  C   UNL A   1      39.045  26.796  29.055  1.00  0.00     0.010 A 
ATOM     35  C   UNL A   1      39.809  27.702  28.308  1.00  0.00    -0.014 A 
BRANCH  35  36
ATOM     36  C   UNL A   1      40.038  28.982  28.969  1.00  0.00     0.031 A 
ATOM     37  C   UNL A   1      39.016  30.057  28.869  1.00  0.00     0.074 A 
ATOM     38  C   UNL A   1      41.069  29.120  29.835  1.00  0.00     0.049 A 
ATOM     39  N   UNL A   1      39.230  31.294  29.168  1.00  0.00    -0.248 NA
ATOM     40  C   UNL A   1      37.654  29.818  28.392  1.00  0.00     0.031 C 
ATOM     41  C   UNL A   1      41.205  30.140  30.874  1.00  0.00     0.029 A 
ATOM     42  N   UNL A   1      42.313  28.485  29.834  1.00  0.00    -0.354 N 
ATOM     43  C   UNL A   1      38.007  31.922  29.230  1.00  0.00     0.074 A 
ATOM     44  C   UNL A   1      37.063  30.984  28.673  1.00  0.00     0.031 C 
ATOM     45  C   UNL A   1      42.506  30.277  31.174  1.00  0.00     0.029 A 
ATOM     46  C   UNL A   1      43.247  29.458  30.233  1.00  0.00     0.049 A 
ATOM     47  H   UNL A   1      42.498  27.548  29.600  1.00  0.00     0.167 HD
ATOM     48  C   UNL A   1      37.890  33.116  29.876  1.00  0.00     0.031 A 
ATOM     49  C   UNL A   1      44.285  29.897  29.459  1.00  0.00     0.031 A 
ATOM     50  C   UNL A   1      39.177  33.601  30.355  1.00  0.00     0.049 A 
ATOM     51  C   UNL A   1      44.256  31.393  29.221  1.00  0.00     0.074 A 
ATOM     52  C   UNL A   1      39.798  33.575  31.593  1.00  0.00     0.029 A 
ATOM     53  N   UNL A   1      40.148  33.953  29.430  1.00  0.00    -0.354 N 
ATOM     54  N   UNL A   1      43.216  32.143  29.460  1.00  0.00    -0.248 NA
ATOM     55  C   UNL A   1      45.369  32.159  28.668  1.00  0.00     0.031 C 
ATOM     56  C   UNL A   1      41.176  33.852  31.395  1.00  0.00     0.029 A 
ATOM     57  C   UNL A   1      41.380  34.068  30.042  1.00  0.00     0.049 A 
ATOM     58  H   UNL A   1      39.983  34.101  28.470  1.00  0.00     0.167 HD
ATOM     59  C   UNL A   1      43.486  33.443  29.116  1.00  0.00     0.074 A 
ATOM     60  C   UNL A   1      44.853  33.402  28.631  1.00  0.00     0.031 C 
ATOM     61  C   UNL A   1      42.552  34.430  29.258  1.00  0.00     0.031 A 
BRANCH  48  62
ATOM     62  C   UNL A   1      36.567  33.706  30.297  1.00  0.00    -0.014 A 
ATOM     63  C   UNL A   1      35.676  34.179  29.310  1.00  0.00     0.010 A 
ATOM     64  C   UNL A   1      36.154  33.849  31.635  1.00  0.00     0.010 A 
ATOM     65  C   UNL A   1      34.480  34.832  29.638  1.00  0.00     0.020 A 
ATOM     66  C   UNL A   1      34.975  34.531  31.979  1.00  0.00     0.020 A 
ATOM     67  C   UNL A   1      34.147  35.025  30.975  1.00  0.00     0.054 A 
BRANCH  67  68
ATOM     68  S   UNL A   1      32.625  35.924  31.375  1.00  0.00     0.124 S 
ATOM     69  O   UNL A   1      33.136  37.184  31.913  1.00  0.00    -0.237 OA
ATOM     70  O   UNL A   1      31.964  36.016  30.077  1.00  0.00    -0.237 OA
ATOM     71  O   UNL A   1      31.961  35.063  32.353  1.00  0.00    -0.744 OA
ENDBRANCH  67  68
ENDBRANCH  48  62
BRANCH  49  72
ATOM     72  C   UNL A   1      44.812  28.873  28.513  1.00  0.00    -0.014 A 
ATOM     73  C   UNL A   1      45.709  27.925  29.050  1.00  0.00     0.010 A 
ATOM     74  C   UNL A   1      44.082  28.543  27.358  1.00  0.00     0.010 A 
ATOM     75  C   UNL A   1      45.698  26.605  28.595  1.00  0.00     0.020 A 
ATOM     76  C   UNL A   1      44.079  27.219  26.893  1.00  0.00     0.020 A 
ATOM     77  C   UNL A   1      44.811  26.246  27.581  1.00  0.00     0.054 A 
BRANCH  77  78
ATOM     78  S   UNL A   1      44.464  24.476  27.328  1.00  0.00     0.124 S 
ATOM     79  O   UNL A   1      43.842  24.090  28.591  1.00  0.00    -0.237 OA
ATOM     80  O   UNL A   1      43.573  24.504  26.166  1.00  0.00    -0.237 OA
ATOM     81  O   UNL A   1      45.786  23.910  27.079  1.00  0.00    -0.744 OA
ENDBRANCH  77  78
ENDBRANCH  49  72
BRANCH  61  82
ATOM     82  C   UNL A   1      42.638  35.852  28.747  1.00  0.00    -0.014 A 
ATOM     83  C   UNL A   1      43.136  36.935  29.483  1.00  0.00     0.010 A 
ATOM     84  C   UNL A   1      42.313  36.104  27.388  1.00  0.00     0.010 A 
ATOM     85  C   UNL A   1      43.258  38.211  28.912  1.00  0.00     0.020 A 
ATOM     86  C   UNL A   1      42.475  37.358  26.794  1.00  0.00     0.020 A 
ATOM     87  C   UNL A   1      42.926  38.416  27.571  1.00  0.00     0.054 A 
BRANCH  87  88
ATOM     88  S   UNL A   1      43.157  40.049  26.824  1.00  0.00     0.124 S 
ATOM     89  O   UNL A   1      41.835  40.313  26.264  1.00  0.00    -0.237 OA
ATOM     90  O   UNL A   1      43.531  40.880  27.966  1.00  0.00    -0.237 OA
ATOM     91  O   UNL A   1      44.221  39.831  25.848  1.00  0.00    -0.744 OA
ENDBRANCH  87  88
ENDBRANCH  61  82
ENDBRANCH  35  36
ENDBRANCH  27  30
ENDBRANCH  25  26
ENDBRANCH  24  25
ENDBRANCH   1  24
TORSDOF 18
ENDMDL
MODEL 2
REMARK VINA RESULT:     -12.0      1.818      2.380
REMARK SMILES Cc1ccccc1OCC(=O)c1nc(C)c(C(=O)NCCCCNC(=O)c2ccc(-c3c4nc(c(-c5ccc(S(=O)(=O)[O-])cc5)c5ccc([nH]5)c(-c5ccc(S(=O)(=O)[O-])cc5)c5nc(c(-c6ccc(S(=O)(=O)[O-])cc6)c6ccc3[nH]6)C=C5)C=C4)cc2)s1
REMARK SMILES IDX 21 1 20 2 19 3 17 4 18 5 16 7 12 8 13 9 87 10 14 11 15 12
REMARK SMILES IDX 10 13 11 14 9 15 8 16 7 17 1 18 2 19 3 20 4 21 6 22 5 23
REMARK SMILES IDX 22 24 23 25 24 26 25 27 26 29 27 30 28 31 86 32 29 33 85 34
REMARK SMILES IDX 30 35 31 36 32 37 79 38 33 39 84 40 78 41 80 42 34 43 83 44
REMARK SMILES IDX 77 45 76 46 35 48 65 49 46 50 64 51 47 52 50 53 63 54 81 55
REMARK SMILES IDX 48 56 49 57 62 59 82 60 51 61 36 62 37 63 45 64 38 65 44 66
REMARK SMILES IDX 39 67 40 68 41 69 42 70 43 71 66 72 67 73 75 74 68 75 74 76
REMARK SMILES IDX 69 77 70 78 71 79 72 80 73 81 52 82 53 83 61 84 54 85 60 86
REMARK SMILES IDX 55 87 56 88 57 89 58 90 59 91
REMARK H PARENT 19 6 24 28 80 47 50 58
REMARK Flexibility Score: inf
ROOT
ATOM      1  C   UNL A   1      36.367  20.328  25.002  1.00  0.00     0.023 C 
ENDROOT
BRANCH   1   2
ATOM      2  C   UNL A   1      35.222  21.040  25.740  1.00  0.00     0.116 C 
BRANCH   2   3
ATOM      3  N   UNL A   1      33.949  20.383  25.542  1.00  0.00    -0.351 N 
ATOM      4  C   UNL A   1      32.701  20.782  25.145  1.00  0.00     0.263 C 
ATOM      5  O   UNL A   1      31.907  19.830  25.097  1.00  0.00    -0.268 OA
ATOM      6  H   UNL A   1      33.989  19.419  25.741  1.00  0.00     0.163 HD
BRANCH   4   7
ATOM      7  C   UNL A   1      32.285  22.147  24.812  1.00  0.00     0.115 A 
ATOM      8  C   UNL A   1      31.013  24.263  25.048  1.00  0.00     0.164 A 
ATOM      9  N   UNL A   1      31.839  24.322  24.033  1.00  0.00    -0.237 NA
ATOM     10  S   UNL A   1      31.046  22.791  25.885  1.00  0.00    -0.105 S 
ATOM     11  C   UNL A   1      32.581  23.150  23.889  1.00  0.00     0.062 A 
ATOM     12  C   UNL A   1      33.548  23.240  22.767  1.00  0.00     0.068 C 
BRANCH   8  13
ATOM     13  C   UNL A   1      30.191  25.415  25.402  1.00  0.00     0.228 C 
ATOM     14  O   UNL A   1      29.503  25.452  26.432  1.00  0.00    -0.288 OA
BRANCH  13  15
ATOM     15  C   UNL A   1      30.062  26.592  24.432  1.00  0.00     0.313 C 
BRANCH  15  16
ATOM     16  O   UNL A   1      30.635  27.847  24.682  1.00  0.00    -0.485 OA
BRANCH  16  17
ATOM     17  C   UNL A   1      31.817  28.043  25.325  1.00  0.00     0.122 A 
ATOM     18  C   UNL A   1      33.600  27.520  23.513  1.00  0.00     0.048 C 
ATOM     19  C   UNL A   1      33.143  27.931  24.882  1.00  0.00    -0.009 A 
ATOM     20  C   UNL A   1      34.178  28.282  25.781  1.00  0.00     0.007 A 
ATOM     21  C   UNL A   1      33.919  28.681  27.092  1.00  0.00     0.001 A 
ATOM     22  C   UNL A   1      31.576  28.432  26.657  1.00  0.00     0.047 A 
ATOM     23  C   UNL A   1      32.610  28.745  27.537  1.00  0.00     0.004 A 
ENDBRANCH  16  17
ENDBRANCH  15  16
ENDBRANCH  13  15
ENDBRANCH   8  13
ENDBRANCH   4   7
ENDBRANCH   2   3
ENDBRANCH   1   2
BRANCH   1  24
ATOM     24  C   UNL A   1      37.561  21.210  24.628  1.00  0.00     0.023 C 
BRANCH  24  25
ATOM     25  C   UNL A   1      37.887  22.255  25.684  1.00  0.00     0.116 C 
BRANCH  25  26
ATOM     26  N   UNL A   1      39.032  21.971  26.535  1.00  0.00    -0.352 N 
ATOM     27  C   UNL A   1      40.171  22.787  26.513  1.00  0.00     0.251 C 
ATOM     28  H   UNL A   1      39.006  21.193  27.139  1.00  0.00     0.163 HD
ATOM     29  O   UNL A   1      41.288  22.397  26.277  1.00  0.00    -0.269 OA
BRANCH  27  30
ATOM     30  C   UNL A   1      39.902  24.211  26.847  1.00  0.00     0.039 A 
ATOM     31  C   UNL A   1      40.478  25.229  26.083  1.00  0.00     0.014 A 
ATOM     32  C   UNL A   1      39.295  24.490  28.067  1.00  0.00     0.014 A 
ATOM     33  C   UNL A   1      40.592  26.509  26.630  1.00  0.00     0.010 A 
ATOM     34  C   UNL A   1      39.535  25.710  28.658  1.00  0.00     0.010 A 
ATOM     35  C   UNL A   1      40.204  26.718  27.954  1.00  0.00    -0.014 A 
BRANCH  35  36
ATOM     36  C   UNL A   1      40.482  27.916  28.738  1.00  0.00     0.031 A 
ATOM     37  C   UNL A   1      39.486  29.019  28.777  1.00  0.00     0.074 A 
ATOM     38  C   UNL A   1      41.535  27.937  29.588  1.00  0.00     0.049 A 
ATOM     39  N   UNL A   1      39.739  30.213  29.198  1.00  0.00    -0.248 NA
ATOM     40  C   UNL A   1      38.108  28.865  28.311  1.00  0.00     0.031 C 
ATOM     41  C   UNL A   1      41.722  28.839  30.724  1.00  0.00     0.029 A 
ATOM     42  N   UNL A   1      42.762  27.276  29.489  1.00  0.00    -0.354 N 
ATOM     43  C   UNL A   1      38.535  30.860  29.356  1.00  0.00     0.074 A 
ATOM     44  C   UNL A   1      37.555  30.008  28.727  1.00  0.00     0.031 C 
ATOM     45  C   UNL A   1      43.031  28.913  31.005  1.00  0.00     0.029 A 
ATOM     46  C   UNL A   1      43.730  28.179  29.965  1.00  0.00     0.049 A 
ATOM     47  H   UNL A   1      42.916  26.364  29.154  1.00  0.00     0.167 HD
ATOM     48  C   UNL A   1      38.464  31.981  30.126  1.00  0.00     0.031 A 
ATOM     49  C   UNL A   1      44.761  28.672  29.215  1.00  0.00     0.031 A 
ATOM     50  C   UNL A   1      39.774  32.383  30.621  1.00  0.00     0.049 A 
ATOM     51  C   UNL A   1      44.767  30.185  29.136  1.00  0.00     0.074 A 
ATOM     52  C   UNL A   1      40.422  32.212  31.833  1.00  0.00     0.029 A 
ATOM     53  N   UNL A   1      40.734  32.807  29.713  1.00  0.00    -0.354 N 
ATOM     54  N   UNL A   1      43.753  30.931  29.477  1.00  0.00    -0.248 NA
ATOM     55  C   UNL A   1      45.886  30.978  28.638  1.00  0.00     0.031 C 
ATOM     56  C   UNL A   1      41.802  32.475  31.630  1.00  0.00     0.029 A 
ATOM     57  C   UNL A   1      41.981  32.827  30.303  1.00  0.00     0.049 A 
ATOM     58  H   UNL A   1      40.551  33.059  28.779  1.00  0.00     0.167 HD
ATOM     59  C   UNL A   1      44.049  32.252  29.265  1.00  0.00     0.074 A 
ATOM     60  C   UNL A   1      45.403  32.230  28.744  1.00  0.00     0.031 C 
ATOM     61  C   UNL A   1      43.145  33.241  29.532  1.00  0.00     0.031 A 
BRANCH  48  62
ATOM     62  C   UNL A   1      37.168  32.556  30.639  1.00  0.00    -0.014 A 
ATOM     63  C   UNL A   1      36.890  33.925  30.437  1.00  0.00     0.010 A 
ATOM     64  C   UNL A   1      36.199  31.817  31.344  1.00  0.00     0.010 A 
ATOM     65  C   UNL A   1      35.755  34.542  30.978  1.00  0.00     0.020 A 
ATOM     66  C   UNL A   1      35.074  32.430  31.921  1.00  0.00     0.020 A 
ATOM     67  C   UNL A   1      34.862  33.793  31.739  1.00  0.00     0.054 A 
BRANCH  67  68
ATOM     68  S   UNL A   1      33.432  34.626  32.478  1.00  0.00     0.124 S 
ATOM     69  O   UNL A   1      32.657  35.022  31.303  1.00  0.00    -0.237 OA
ATOM     70  O   UNL A   1      32.841  33.570  33.294  1.00  0.00    -0.237 OA
ATOM     71  O   UNL A   1      34.025  35.734  33.225  1.00  0.00    -0.744 OA
ENDBRANCH  67  68
ENDBRANCH  48  62
BRANCH  49  72
ATOM     72  C   UNL A   1      45.240  27.740  28.155  1.00  0.00    -0.014 A 
ATOM     73  C   UNL A   1      44.560  27.791  26.920  1.00  0.00     0.010 A 
ATOM     74  C   UNL A   1      46.563  27.264  28.186  1.00  0.00     0.010 A 
ATOM     75  C   UNL A   1      45.254  27.603  25.722  1.00  0.00     0.020 A 
ATOM     76  C   UNL A   1      47.258  27.065  26.983  1.00  0.00     0.020 A 
ATOM     77  C   UNL A   1      46.621  27.334  25.768  1.00  0.00     0.054 A 
BRANCH  77  78
ATOM     78  S   UNL A   1      47.593  27.562  24.244  1.00  0.00     0.124 S 
ATOM     79  O   UNL A   1      48.886  28.005  24.755  1.00  0.00    -0.237 OA
ATOM     80  O   UNL A   1      47.569  26.216  23.665  1.00  0.00    -0.237 OA
ATOM     81  O   UNL A   1      46.828  28.564  23.509  1.00  0.00    -0.744 OA
ENDBRANCH  77  78
ENDBRANCH  49  72
BRANCH  61  82
ATOM     82  C   UNL A   1      43.257  34.706  29.170  1.00  0.00    -0.014 A 
ATOM     83  C   UNL A   1      42.776  35.272  27.981  1.00  0.00     0.010 A 
ATOM     84  C   UNL A   1      43.767  35.608  30.140  1.00  0.00     0.010 A 
ATOM     85  C   UNL A   1      42.845  36.655  27.751  1.00  0.00     0.020 A 
ATOM     86  C   UNL A   1      43.798  36.990  29.943  1.00  0.00     0.020 A 
ATOM     87  C   UNL A   1      43.357  37.506  28.733  1.00  0.00     0.054 A 
BRANCH  87  88
ATOM     88  S   UNL A   1      43.373  39.295  28.455  1.00  0.00     0.124 S 
ATOM     89  O   UNL A   1      44.567  39.702  29.189  1.00  0.00    -0.237 OA
ATOM     90  O   UNL A   1      43.466  39.399  27.001  1.00  0.00    -0.237 OA
ATOM     91  O   UNL A   1      42.103  39.741  29.023  1.00  0.00    -0.744 OA
ENDBRANCH  87  88
ENDBRANCH  61  82
ENDBRANCH  35  36
ENDBRANCH  27  30
ENDBRANCH  25  26
ENDBRANCH  24  25
ENDBRANCH   1  24
TORSDOF 18
ENDMDL
MODEL 3
REMARK VINA RESULT:     -11.4      1.934      2.691
REMARK SMILES Cc1ccccc1OCC(=O)c1nc(C)c(C(=O)NCCCCNC(=O)c2ccc(-c3c4nc(c(-c5ccc(S(=O)(=O)[O-])cc5)c5ccc([nH]5)c(-c5ccc(S(=O)(=O)[O-])cc5)c5nc(c(-c6ccc(S(=O)(=O)[O-])cc6)c6ccc3[nH]6)C=C5)C=C4)cc2)s1
REMARK SMILES IDX 21 1 20 2 19 3 17 4 18 5 16 7 12 8 13 9 87 10 14 11 15 12
REMARK SMILES IDX 10 13 11 14 9 15 8 16 7 17 1 18 2 19 3 20 4 21 6 22 5 23
REMARK SMILES IDX 22 24 23 25 24 26 25 27 26 29 27 30 28 31 86 32 29 33 85 34
REMARK SMILES IDX 30 35 31 36 32 37 79 38 33 39 84 40 78 41 80 42 34 43 83 44
REMARK SMILES IDX 77 45 76 46 35 48 65 49 46 50 64 51 47 52 50 53 63 54 81 55
REMARK SMILES IDX 48 56 49 57 62 59 82 60 51 61 36 62 37 63 45 64 38 65 44 66
REMARK SMILES IDX 39 67 40 68 41 69 42 70 43 71 66 72 67 73 75 74 68 75 74 76
REMARK SMILES IDX 69 77 70 78 71 79 72 80 73 81 52 82 53 83 61 84 54 85 60 86
REMARK SMILES IDX 55 87 56 88 57 89 58 90 59 91
REMARK H PARENT 19 6 24 28 80 47 50 58
REMARK Flexibility Score: inf
ROOT
ATOM      1  C   UNL A   1      35.148  22.867  25.871  1.00  0.00     0.023 C 
ENDROOT
BRANCH   1   2
ATOM      2  C   UNL A   1      35.183  21.350  26.114  1.00  0.00     0.116 C 
BRANCH   2   3
ATOM      3  N   UNL A   1      34.231  20.641  25.288  1.00  0.00    -0.351 N 
ATOM      4  C   UNL A   1      33.138  20.994  24.542  1.00  0.00     0.263 C 
ATOM      5  O   UNL A   1      32.638  20.015  23.967  1.00  0.00    -0.268 OA
ATOM      6  H   UNL A   1      34.411  19.673  25.255  1.00  0.00     0.163 HD
BRANCH   4   7
ATOM      7  C   UNL A   1      32.573  22.338  24.403  1.00  0.00     0.115 A 
ATOM      8  C   UNL A   1      31.196  24.305  25.021  1.00  0.00     0.164 A 
ATOM      9  N   UNL A   1      31.847  24.520  23.905  1.00  0.00    -0.237 NA
ATOM     10  S   UNL A   1      31.470  22.780  25.703  1.00  0.00    -0.105 S 
ATOM     11  C   UNL A   1      32.645  23.435  23.544  1.00  0.00     0.062 A 
ATOM     12  C   UNL A   1      33.417  23.702  22.305  1.00  0.00     0.068 C 
BRANCH   8  13
ATOM     13  C   UNL A   1      30.353  25.347  25.598  1.00  0.00     0.228 C 
ATOM     14  O   UNL A   1      29.658  25.160  26.607  1.00  0.00    -0.288 OA
BRANCH  13  15
ATOM     15  C   UNL A   1      30.209  26.698  24.892  1.00  0.00     0.313 C 
BRANCH  15  16
ATOM     16  O   UNL A   1      31.309  27.499  24.556  1.00  0.00    -0.485 OA
BRANCH  16  17
ATOM     17  C   UNL A   1      32.121  28.114  25.458  1.00  0.00     0.122 A 
ATOM     18  C   UNL A   1      34.045  26.409  25.821  1.00  0.00     0.048 C 
ATOM     19  C   UNL A   1      33.329  27.710  26.045  1.00  0.00    -0.009 A 
ATOM     20  C   UNL A   1      33.989  28.619  26.905  1.00  0.00     0.007 A 
ATOM     21  C   UNL A   1      33.453  29.868  27.218  1.00  0.00     0.001 A 
ATOM     22  C   UNL A   1      31.588  29.372  25.799  1.00  0.00     0.047 A 
ATOM     23  C   UNL A   1      32.239  30.242  26.671  1.00  0.00     0.004 A 
ENDBRANCH  16  17
ENDBRANCH  15  16
ENDBRANCH  13  15
ENDBRANCH   8  13
ENDBRANCH   4   7
ENDBRANCH   2   3
ENDBRANCH   1   2
BRANCH   1  24
ATOM     24  C   UNL A   1      36.306  23.430  25.042  1.00  0.00     0.023 C 
BRANCH  24  25
ATOM     25  C   UNL A   1      37.420  22.423  24.809  1.00  0.00     0.116 C 
BRANCH  25  26
ATOM     26  N   UNL A   1      38.077  21.906  25.999  1.00  0.00    -0.352 N 
ATOM     27  C   UNL A   1      39.342  22.367  26.386  1.00  0.00     0.251 C 
ATOM     28  H   UNL A   1      37.625  21.220  26.543  1.00  0.00     0.163 HD
ATOM     29  O   UNL A   1      40.309  21.662  26.545  1.00  0.00    -0.269 OA
BRANCH  27  30
ATOM     30  C   UNL A   1      39.404  23.832  26.631  1.00  0.00     0.039 A 
ATOM     31  C   UNL A   1      40.220  24.640  25.835  1.00  0.00     0.014 A 
ATOM     32  C   UNL A   1      38.847  24.320  27.808  1.00  0.00     0.014 A 
ATOM     33  C   UNL A   1      40.614  25.891  26.315  1.00  0.00     0.010 A 
ATOM     34  C   UNL A   1      39.349  25.486  28.340  1.00  0.00     0.010 A 
ATOM     35  C   UNL A   1      40.252  26.266  27.609  1.00  0.00    -0.014 A 
BRANCH  35  36
ATOM     36  C   UNL A   1      40.781  27.415  28.337  1.00  0.00     0.031 A 
ATOM     37  C   UNL A   1      39.876  28.537  28.699  1.00  0.00     0.074 A 
ATOM     38  C   UNL A   1      42.028  27.366  28.859  1.00  0.00     0.049 A 
ATOM     39  N   UNL A   1      40.280  29.701  29.085  1.00  0.00    -0.248 NA
ATOM     40  C   UNL A   1      38.418  28.440  28.630  1.00  0.00     0.031 C 
ATOM     41  C   UNL A   1      42.555  28.203  29.937  1.00  0.00     0.029 A 
ATOM     42  N   UNL A   1      43.154  26.684  28.394  1.00  0.00    -0.354 N 
ATOM     43  C   UNL A   1      39.191  30.367  29.600  1.00  0.00     0.074 A 
ATOM     44  C   UNL A   1      38.045  29.573  29.233  1.00  0.00     0.031 C 
ATOM     45  C   UNL A   1      43.893  28.231  29.845  1.00  0.00     0.029 A 
ATOM     46  C   UNL A   1      44.249  27.537  28.620  1.00  0.00     0.049 A 
ATOM     47  H   UNL A   1      43.176  25.787  27.990  1.00  0.00     0.167 HD
ATOM     48  C   UNL A   1      39.378  31.448  30.408  1.00  0.00     0.031 A 
ATOM     49  C   UNL A   1      45.049  28.044  27.635  1.00  0.00     0.031 A 
ATOM     50  C   UNL A   1      40.788  31.792  30.535  1.00  0.00     0.049 A 
ATOM     51  C   UNL A   1      45.089  29.559  27.624  1.00  0.00     0.074 A 
ATOM     52  C   UNL A   1      41.740  31.543  31.511  1.00  0.00     0.029 A 
ATOM     53  N   UNL A   1      41.474  32.241  29.416  1.00  0.00    -0.354 N 
ATOM     54  N   UNL A   1      44.237  30.309  28.267  1.00  0.00    -0.248 NA
ATOM     55  C   UNL A   1      46.055  30.350  26.869  1.00  0.00     0.031 C 
ATOM     56  C   UNL A   1      43.018  31.784  30.943  1.00  0.00     0.029 A 
ATOM     57  C   UNL A   1      42.835  32.200  29.636  1.00  0.00     0.049 A 
ATOM     58  H   UNL A   1      41.048  32.546  28.582  1.00  0.00     0.167 HD
ATOM     59  C   UNL A   1      44.512  31.633  28.038  1.00  0.00     0.074 A 
ATOM     60  C   UNL A   1      45.667  31.606  27.160  1.00  0.00     0.031 C 
ATOM     61  C   UNL A   1      43.755  32.627  28.590  1.00  0.00     0.031 A 
BRANCH  48  62
ATOM     62  C   UNL A   1      38.297  32.025  31.286  1.00  0.00    -0.014 A 
ATOM     63  C   UNL A   1      37.651  33.217  30.895  1.00  0.00     0.010 A 
ATOM     64  C   UNL A   1      37.890  31.465  32.512  1.00  0.00     0.010 A 
ATOM     65  C   UNL A   1      36.713  33.860  31.715  1.00  0.00     0.020 A 
ATOM     66  C   UNL A   1      36.977  32.116  33.359  1.00  0.00     0.020 A 
ATOM     67  C   UNL A   1      36.398  33.316  32.956  1.00  0.00     0.054 A 
BRANCH  67  68
ATOM     68  S   UNL A   1      35.228  34.196  34.023  1.00  0.00     0.124 S 
ATOM     69  O   UNL A   1      33.939  33.665  33.581  1.00  0.00    -0.237 OA
ATOM     70  O   UNL A   1      35.652  33.786  35.359  1.00  0.00    -0.237 OA
ATOM     71  O   UNL A   1      35.456  35.603  33.701  1.00  0.00    -0.744 OA
ENDBRANCH  67  68
ENDBRANCH  48  62
BRANCH  49  72
ATOM     72  C   UNL A   1      45.181  27.159  26.444  1.00  0.00    -0.014 A 
ATOM     73  C   UNL A   1      46.220  26.205  26.482  1.00  0.00     0.010 A 
ATOM     74  C   UNL A   1      44.066  26.920  25.621  1.00  0.00     0.010 A 
ATOM     75  C   UNL A   1      46.043  24.944  25.909  1.00  0.00     0.020 A 
ATOM     76  C   UNL A   1      43.893  25.657  25.035  1.00  0.00     0.020 A 
ATOM     77  C   UNL A   1      44.838  24.653  25.271  1.00  0.00     0.054 A 
BRANCH  77  78
ATOM     78  S   UNL A   1      44.431  22.906  24.956  1.00  0.00     0.124 S 
ATOM     79  O   UNL A   1      45.285  22.581  23.818  1.00  0.00    -0.237 OA
ATOM     80  O   UNL A   1      44.801  22.275  26.225  1.00  0.00    -0.237 OA
ATOM     81  O   UNL A   1      42.999  22.943  24.680  1.00  0.00    -0.744 OA
ENDBRANCH  77  78
ENDBRANCH  49  72
BRANCH  61  82
ATOM     82  C   UNL A   1      43.816  34.106  28.276  1.00  0.00    -0.014 A 
ATOM     83  C   UNL A   1      43.492  34.671  27.034  1.00  0.00     0.010 A 
ATOM     84  C   UNL A   1      44.097  35.013  29.331  1.00  0.00     0.010 A 
ATOM     85  C   UNL A   1      43.496  36.062  26.842  1.00  0.00     0.020 A 
ATOM     86  C   UNL A   1      44.058  36.399  29.165  1.00  0.00     0.020 A 
ATOM     87  C   UNL A   1      43.780  36.918  27.908  1.00  0.00     0.054 A 
BRANCH  87  88
ATOM     88  S   UNL A   1      43.710  38.710  27.667  1.00  0.00     0.124 S 
ATOM     89  O   UNL A   1      42.612  38.842  26.713  1.00  0.00    -0.237 OA
ATOM     90  O   UNL A   1      43.435  39.211  29.011  1.00  0.00    -0.237 OA
ATOM     91  O   UNL A   1      45.036  39.038  27.148  1.00  0.00    -0.744 OA
ENDBRANCH  87  88
ENDBRANCH  61  82
ENDBRANCH  35  36
ENDBRANCH  27  30
ENDBRANCH  25  26
ENDBRANCH  24  25
ENDBRANCH   1  24
TORSDOF 18
ENDMDL
