MODEL 1
REMARK VINA RESULT:     -13.2      0.000      0.000
REMARK SMILES Cc1ccnc(C(=O)c2[nH]c3cc(Cl)c(F)cc3c2CC(=O)NCCCCNC(=O)c2ccc(-c3c4nc(c(-c5ccc(S(=O)(=O)[O-])cc5)c5ccc([nH]5)c(-c5ccc(S(=O)(=O)[O-])cc5)c5nc(c(-c6ccc(S(=O)(=O)[O-])cc6)c6ccc3[nH]6)C=C5)C=C4)cc2)c1
REMARK SMILES IDX 25 1 24 2 23 3 21 4 22 5 20 7 19 8 9 9 10 10 11 11 18 13
REMARK SMILES IDX 12 14 17 15 13 16 15 17 14 18 16 19 7 20 8 21 6 22 1 23 2 24
REMARK SMILES IDX 3 25 91 26 4 27 5 28 26 29 27 30 28 31 29 32 30 34 31 35
REMARK SMILES IDX 32 36 90 37 33 38 89 39 34 40 35 41 36 42 83 43 37 44 88 45
REMARK SMILES IDX 82 46 84 47 38 48 87 49 81 50 80 51 39 53 69 54 50 55 68 56
REMARK SMILES IDX 51 57 54 58 67 59 85 60 52 61 53 62 66 64 86 65 55 66 40 67
REMARK SMILES IDX 41 68 49 69 42 70 48 71 43 72 44 73 45 74 46 75 47 76 70 77
REMARK SMILES IDX 71 78 79 79 72 80 78 81 73 82 74 83 75 84 76 85 77 86 56 87
REMARK SMILES IDX 57 88 65 89 58 90 64 91 59 92 60 93 61 94 62 95 63 96
REMARK H PARENT 23 6 10 12 28 33 84 52 54 63
REMARK Flexibility Score: inf
ROOT
ATOM      1  C   UNL A   1      39.160  23.217  27.132  1.00  0.00     0.023 C 
ENDROOT
BRANCH   1   2
ATOM      2  C   UNL A   1      38.262  24.240  26.427  1.00  0.00     0.116 C 
BRANCH   2   3
ATOM      3  N   UNL A   1      37.599  23.762  25.230  1.00  0.00    -0.356 N 
ATOM      4  C   UNL A   1      36.295  23.433  25.002  1.00  0.00     0.224 C 
ATOM      5  O   UNL A   1      35.958  23.283  23.823  1.00  0.00    -0.275 OA
ATOM      6  H   UNL A   1      38.189  23.656  24.450  1.00  0.00     0.163 HD
BRANCH   4   7
ATOM      7  C   UNL A   1      35.262  23.325  26.109  1.00  0.00     0.138 C 
BRANCH   7   8
ATOM      8  C   UNL A   1      34.042  22.502  25.811  1.00  0.00    -0.002 A 
ATOM      9  C   UNL A   1      32.694  22.834  25.966  1.00  0.00     0.093 A 
ATOM     10  N   UNL A   1      31.964  21.704  25.646  1.00  0.00    -0.351 N 
ATOM     11  C   UNL A   1      32.779  20.675  25.245  1.00  0.00     0.048 A 
ATOM     12  H   UNL A   1      30.984  21.644  25.699  1.00  0.00     0.167 HD
ATOM     13  C   UNL A   1      34.088  21.117  25.405  1.00  0.00     0.007 A 
ATOM     14  C   UNL A   1      32.456  19.393  24.777  1.00  0.00     0.050 A 
ATOM     15  C   UNL A   1      35.135  20.206  25.140  1.00  0.00     0.051 A 
ATOM     16  C   UNL A   1      33.513  18.533  24.465  1.00  0.00     0.078 A 
ATOM     17  C   UNL A   1      34.830  18.933  24.654  1.00  0.00     0.142 A 
ATOM     18  Cl  UNL A   1      33.166  16.962  23.846  1.00  0.00    -0.081 Cl
ATOM     19  F   UNL A   1      35.848  18.108  24.360  1.00  0.00    -0.205 F 
BRANCH   9  20
ATOM     20  C   UNL A   1      31.991  24.006  26.483  1.00  0.00     0.227 C 
ATOM     21  O   UNL A   1      31.256  23.879  27.462  1.00  0.00    -0.285 OA
BRANCH  20  22
ATOM     22  C   UNL A   1      32.069  25.347  25.804  1.00  0.00     0.113 A 
ATOM     23  C   UNL A   1      31.853  29.077  26.490  1.00  0.00     0.044 C 
ATOM     24  C   UNL A   1      32.040  27.756  25.809  1.00  0.00    -0.047 A 
ATOM     25  C   UNL A   1      32.262  27.719  24.434  1.00  0.00     0.023 A 
ATOM     26  C   UNL A   1      32.007  26.544  26.512  1.00  0.00     0.036 A 
ATOM     27  C   UNL A   1      32.381  26.488  23.816  1.00  0.00     0.112 A 
ATOM     28  N   UNL A   1      32.267  25.308  24.459  1.00  0.00    -0.253 NA
ENDBRANCH  20  22
ENDBRANCH   9  20
ENDBRANCH   7   8
ENDBRANCH   4   7
ENDBRANCH   2   3
ENDBRANCH   1   2
BRANCH   1  29
ATOM     29  C   UNL A   1      39.668  22.023  26.309  1.00  0.00     0.023 C 
BRANCH  29  30
ATOM     30  C   UNL A   1      41.079  21.550  26.634  1.00  0.00     0.116 C 
BRANCH  30  31
ATOM     31  N   UNL A   1      42.062  21.992  25.669  1.00  0.00    -0.352 N 
ATOM     32  C   UNL A   1      42.715  23.167  25.429  1.00  0.00     0.251 C 
ATOM     33  H   UNL A   1      42.320  21.281  25.040  1.00  0.00     0.163 HD
ATOM     34  O   UNL A   1      43.528  23.141  24.499  1.00  0.00    -0.269 OA
BRANCH  32  35
ATOM     35  C   UNL A   1      42.502  24.447  26.163  1.00  0.00     0.039 A 
ATOM     36  C   UNL A   1      42.955  24.741  27.449  1.00  0.00     0.014 A 
ATOM     37  C   UNL A   1      41.775  25.436  25.471  1.00  0.00     0.014 A 
ATOM     38  C   UNL A   1      42.645  25.961  28.049  1.00  0.00     0.010 A 
ATOM     39  C   UNL A   1      41.476  26.663  26.060  1.00  0.00     0.010 A 
ATOM     40  C   UNL A   1      41.886  26.913  27.366  1.00  0.00    -0.014 A 
BRANCH  40  41
ATOM     41  C   UNL A   1      41.611  28.180  28.043  1.00  0.00     0.031 A 
ATOM     42  C   UNL A   1      42.651  29.239  27.904  1.00  0.00     0.074 A 
ATOM     43  C   UNL A   1      40.457  28.456  28.683  1.00  0.00     0.049 A 
ATOM     44  N   UNL A   1      43.354  29.798  28.834  1.00  0.00    -0.248 NA
ATOM     45  C   UNL A   1      43.001  29.674  26.544  1.00  0.00     0.031 C 
ATOM     46  C   UNL A   1      39.218  27.676  28.672  1.00  0.00     0.029 A 
ATOM     47  N   UNL A   1      40.122  29.567  29.404  1.00  0.00    -0.354 N 
ATOM     48  C   UNL A   1      44.125  30.776  28.205  1.00  0.00     0.074 A 
ATOM     49  C   UNL A   1      43.953  30.576  26.788  1.00  0.00     0.031 C 
ATOM     50  C   UNL A   1      38.208  28.438  29.149  1.00  0.00     0.029 A 
ATOM     51  C   UNL A   1      38.762  29.686  29.648  1.00  0.00     0.049 A 
ATOM     52  H   UNL A   1      40.784  30.222  29.721  1.00  0.00     0.167 HD
ATOM     53  C   UNL A   1      44.718  31.793  28.891  1.00  0.00     0.031 A 
ATOM     54  C   UNL A   1      38.123  30.752  30.180  1.00  0.00     0.031 A 
ATOM     55  C   UNL A   1      44.726  31.556  30.307  1.00  0.00     0.049 A 
ATOM     56  C   UNL A   1      39.104  31.543  30.953  1.00  0.00     0.074 A 
ATOM     57  C   UNL A   1      45.399  30.716  31.165  1.00  0.00     0.029 A 
ATOM     58  N   UNL A   1      43.671  32.088  31.003  1.00  0.00    -0.354 N 
ATOM     59  N   UNL A   1      39.682  31.112  32.038  1.00  0.00    -0.248 NA
ATOM     60  C   UNL A   1      39.684  32.748  30.374  1.00  0.00     0.031 C 
ATOM     61  C   UNL A   1      44.526  30.521  32.273  1.00  0.00     0.029 A 
ATOM     62  C   UNL A   1      43.364  31.264  32.055  1.00  0.00     0.049 A 
ATOM     63  H   UNL A   1      43.207  32.928  30.781  1.00  0.00     0.167 HD
ATOM     64  C   UNL A   1      40.922  31.725  32.040  1.00  0.00     0.074 A 
ATOM     65  C   UNL A   1      40.796  32.837  31.109  1.00  0.00     0.031 C 
ATOM     66  C   UNL A   1      42.013  31.099  32.564  1.00  0.00     0.031 A 
BRANCH  53  67
ATOM     67  C   UNL A   1      44.994  33.169  28.328  1.00  0.00    -0.014 A 
ATOM     68  C   UNL A   1      43.984  33.998  27.802  1.00  0.00     0.010 A 
ATOM     69  C   UNL A   1      46.250  33.771  28.566  1.00  0.00     0.010 A 
ATOM     70  C   UNL A   1      44.206  35.349  27.520  1.00  0.00     0.020 A 
ATOM     71  C   UNL A   1      46.472  35.136  28.325  1.00  0.00     0.020 A 
ATOM     72  C   UNL A   1      45.443  35.916  27.800  1.00  0.00     0.054 A 
BRANCH  72  73
ATOM     73  S   UNL A   1      45.645  37.700  27.562  1.00  0.00     0.124 S 
ATOM     74  O   UNL A   1      44.268  38.124  27.308  1.00  0.00    -0.237 OA
ATOM     75  O   UNL A   1      46.201  38.123  28.849  1.00  0.00    -0.237 OA
ATOM     76  O   UNL A   1      46.551  37.800  26.431  1.00  0.00    -0.744 OA
ENDBRANCH  72  73
ENDBRANCH  53  67
BRANCH  54  77
ATOM     77  C   UNL A   1      36.797  31.294  29.807  1.00  0.00    -0.014 A 
ATOM     78  C   UNL A   1      36.547  31.656  28.469  1.00  0.00     0.010 A 
ATOM     79  C   UNL A   1      35.910  31.754  30.798  1.00  0.00     0.010 A 
ATOM     80  C   UNL A   1      35.506  32.528  28.139  1.00  0.00     0.020 A 
ATOM     81  C   UNL A   1      34.864  32.633  30.473  1.00  0.00     0.020 A 
ATOM     82  C   UNL A   1      34.698  33.046  29.151  1.00  0.00     0.054 A 
BRANCH  82  83
ATOM     83  S   UNL A   1      33.508  34.345  28.716  1.00  0.00     0.124 S 
ATOM     84  O   UNL A   1      32.602  33.634  27.817  1.00  0.00    -0.237 OA
ATOM     85  O   UNL A   1      32.945  34.705  30.015  1.00  0.00    -0.237 OA
ATOM     86  O   UNL A   1      34.331  35.375  28.089  1.00  0.00    -0.744 OA
ENDBRANCH  82  83
ENDBRANCH  54  77
BRANCH  66  87
ATOM     87  C   UNL A   1      41.791  29.968  33.541  1.00  0.00    -0.014 A 
ATOM     88  C   UNL A   1      41.864  30.272  34.913  1.00  0.00     0.010 A 
ATOM     89  C   UNL A   1      41.668  28.619  33.156  1.00  0.00     0.010 A 
ATOM     90  C   UNL A   1      41.853  29.260  35.874  1.00  0.00     0.020 A 
ATOM     91  C   UNL A   1      41.628  27.600  34.118  1.00  0.00     0.020 A 
ATOM     92  C   UNL A   1      41.749  27.927  35.471  1.00  0.00     0.054 A 
BRANCH  92  93
ATOM     93  S   UNL A   1      41.804  26.637  36.744  1.00  0.00     0.124 S 
ATOM     94  O   UNL A   1      40.529  26.829  37.430  1.00  0.00    -0.237 OA
ATOM     95  O   UNL A   1      41.909  25.410  35.957  1.00  0.00    -0.237 OA
ATOM     96  O   UNL A   1      42.988  26.968  37.533  1.00  0.00    -0.744 OA
ENDBRANCH  92  93
ENDBRANCH  66  87
ENDBRANCH  40  41
ENDBRANCH  32  35
ENDBRANCH  30  31
ENDBRANCH  29  30
ENDBRANCH   1  29
TORSDOF 17
ENDMDL
MODEL 2
REMARK VINA RESULT:     -13.1      2.203      3.658
REMARK SMILES Cc1ccnc(C(=O)c2[nH]c3cc(Cl)c(F)cc3c2CC(=O)NCCCCNC(=O)c2ccc(-c3c4nc(c(-c5ccc(S(=O)(=O)[O-])cc5)c5ccc([nH]5)c(-c5ccc(S(=O)(=O)[O-])cc5)c5nc(c(-c6ccc(S(=O)(=O)[O-])cc6)c6ccc3[nH]6)C=C5)C=C4)cc2)c1
REMARK SMILES IDX 25 1 24 2 23 3 21 4 22 5 20 7 19 8 9 9 10 10 11 11 18 13
REMARK SMILES IDX 12 14 17 15 13 16 15 17 14 18 16 19 7 20 8 21 6 22 1 23 2 24
REMARK SMILES IDX 3 25 91 26 4 27 5 28 26 29 27 30 28 31 29 32 30 34 31 35
REMARK SMILES IDX 32 36 90 37 33 38 89 39 34 40 35 41 36 42 83 43 37 44 88 45
REMARK SMILES IDX 82 46 84 47 38 48 87 49 81 50 80 51 39 53 69 54 50 55 68 56
REMARK SMILES IDX 51 57 54 58 67 59 85 60 52 61 53 62 66 64 86 65 55 66 40 67
REMARK SMILES IDX 41 68 49 69 42 70 48 71 43 72 44 73 45 74 46 75 47 76 70 77
REMARK SMILES IDX 71 78 79 79 72 80 78 81 73 82 74 83 75 84 76 85 77 86 56 87
REMARK SMILES IDX 57 88 65 89 58 90 64 91 59 92 60 93 61 94 62 95 63 96
REMARK H PARENT 23 6 10 12 28 33 84 52 54 63
REMARK Flexibility Score: inf
ROOT
ATOM      1  C   UNL A   1      37.585  21.939  24.991  1.00  0.00     0.023 C 
ENDROOT
BRANCH   1   2
ATOM      2  C   UNL A   1      36.135  21.486  25.193  1.00  0.00     0.116 C 
BRANCH   2   3
ATOM      3  N   UNL A   1      35.538  21.863  26.459  1.00  0.00    -0.356 N 
ATOM      4  C   UNL A   1      34.716  22.901  26.786  1.00  0.00     0.224 C 
ATOM      5  O   UNL A   1      34.163  22.847  27.889  1.00  0.00    -0.275 OA
ATOM      6  H   UNL A   1      35.763  21.269  27.211  1.00  0.00     0.163 HD
BRANCH   4   7
ATOM      7  C   UNL A   1      34.410  24.046  25.837  1.00  0.00     0.138 C 
BRANCH   7   8
ATOM      8  C   UNL A   1      33.153  24.823  26.104  1.00  0.00    -0.002 A 
ATOM      9  C   UNL A   1      31.832  24.372  26.164  1.00  0.00     0.093 A 
ATOM     10  N   UNL A   1      31.036  25.489  26.340  1.00  0.00    -0.351 N 
ATOM     11  C   UNL A   1      31.789  26.632  26.446  1.00  0.00     0.048 A 
ATOM     12  H   UNL A   1      30.054  25.467  26.384  1.00  0.00     0.167 HD
ATOM     13  C   UNL A   1      33.111  26.261  26.230  1.00  0.00     0.007 A 
ATOM     14  C   UNL A   1      31.395  27.955  26.694  1.00  0.00     0.050 A 
ATOM     15  C   UNL A   1      34.091  27.278  26.201  1.00  0.00     0.051 A 
ATOM     16  C   UNL A   1      32.395  28.932  26.718  1.00  0.00     0.078 A 
ATOM     17  C   UNL A   1      33.719  28.597  26.465  1.00  0.00     0.142 A 
ATOM     18  Cl  UNL A   1      31.966  30.566  27.060  1.00  0.00    -0.081 Cl
ATOM     19  F   UNL A   1      34.681  29.533  26.483  1.00  0.00    -0.205 F 
BRANCH   9  20
ATOM     20  C   UNL A   1      31.193  23.074  25.960  1.00  0.00     0.227 C 
ATOM     21  O   UNL A   1      30.296  22.722  26.726  1.00  0.00    -0.285 OA
BRANCH  20  22
ATOM     22  C   UNL A   1      31.657  22.115  24.896  1.00  0.00     0.113 A 
ATOM     23  C   UNL A   1      33.086  18.628  24.413  1.00  0.00     0.044 C 
ATOM     24  C   UNL A   1      32.522  19.992  24.155  1.00  0.00    -0.047 A 
ATOM     25  C   UNL A   1      32.444  20.465  22.847  1.00  0.00     0.023 A 
ATOM     26  C   UNL A   1      32.058  20.815  25.190  1.00  0.00     0.036 A 
ATOM     27  C   UNL A   1      31.968  21.746  22.634  1.00  0.00     0.112 A 
ATOM     28  N   UNL A   1      31.598  22.585  23.622  1.00  0.00    -0.253 NA
ENDBRANCH  20  22
ENDBRANCH   9  20
ENDBRANCH   7   8
ENDBRANCH   4   7
ENDBRANCH   2   3
ENDBRANCH   1   2
BRANCH   1  29
ATOM     29  C   UNL A   1      38.698  21.056  25.578  1.00  0.00     0.023 C 
BRANCH  29  30
ATOM     30  C   UNL A   1      39.739  21.780  26.424  1.00  0.00     0.116 C 
BRANCH  30  31
ATOM     31  N   UNL A   1      40.989  21.988  25.729  1.00  0.00    -0.352 N 
ATOM     32  C   UNL A   1      41.909  22.998  25.682  1.00  0.00     0.251 C 
ATOM     33  H   UNL A   1      41.235  21.226  25.158  1.00  0.00     0.163 HD
ATOM     34  O   UNL A   1      42.894  22.783  24.968  1.00  0.00    -0.269 OA
BRANCH  32  35
ATOM     35  C   UNL A   1      41.799  24.309  26.382  1.00  0.00     0.039 A 
ATOM     36  C   UNL A   1      42.389  24.641  27.601  1.00  0.00     0.014 A 
ATOM     37  C   UNL A   1      41.025  25.288  25.729  1.00  0.00     0.014 A 
ATOM     38  C   UNL A   1      42.167  25.889  28.181  1.00  0.00     0.010 A 
ATOM     39  C   UNL A   1      40.813  26.543  26.296  1.00  0.00     0.010 A 
ATOM     40  C   UNL A   1      41.360  26.833  27.542  1.00  0.00    -0.014 A 
BRANCH  40  41
ATOM     41  C   UNL A   1      41.183  28.131  28.192  1.00  0.00     0.031 A 
ATOM     42  C   UNL A   1      42.251  29.141  27.946  1.00  0.00     0.074 A 
ATOM     43  C   UNL A   1      40.088  28.475  28.899  1.00  0.00     0.049 A 
ATOM     44  N   UNL A   1      43.038  29.700  28.808  1.00  0.00    -0.248 NA
ATOM     45  C   UNL A   1      42.523  29.518  26.552  1.00  0.00     0.031 C 
ATOM     46  C   UNL A   1      38.821  27.746  28.999  1.00  0.00     0.029 A 
ATOM     47  N   UNL A   1      39.847  29.620  29.602  1.00  0.00    -0.354 N 
ATOM     48  C   UNL A   1      43.801  30.625  28.094  1.00  0.00     0.074 A 
ATOM     49  C   UNL A   1      43.524  30.387  26.700  1.00  0.00     0.031 C 
ATOM     50  C   UNL A   1      37.877  28.564  29.516  1.00  0.00     0.029 A 
ATOM     51  C   UNL A   1      38.512  29.803  29.934  1.00  0.00     0.049 A 
ATOM     52  H   UNL A   1      40.554  30.258  29.852  1.00  0.00     0.167 HD
ATOM     53  C   UNL A   1      44.480  31.637  28.703  1.00  0.00     0.031 A 
ATOM     54  C   UNL A   1      37.954  30.911  30.471  1.00  0.00     0.031 A 
ATOM     55  C   UNL A   1      44.577  31.445  30.123  1.00  0.00     0.049 A 
ATOM     56  C   UNL A   1      39.016  31.685  31.149  1.00  0.00     0.074 A 
ATOM     57  C   UNL A   1      45.274  30.605  30.962  1.00  0.00     0.029 A 
ATOM     58  N   UNL A   1      43.593  32.042  30.870  1.00  0.00    -0.354 N 
ATOM     59  N   UNL A   1      39.651  31.265  32.206  1.00  0.00    -0.248 NA
ATOM     60  C   UNL A   1      39.602  32.845  30.491  1.00  0.00     0.031 C 
ATOM     61  C   UNL A   1      44.472  30.482  32.132  1.00  0.00     0.029 A 
ATOM     62  C   UNL A   1      43.328  31.265  31.968  1.00  0.00     0.049 A 
ATOM     63  H   UNL A   1      43.149  32.893  30.651  1.00  0.00     0.167 HD
ATOM     64  C   UNL A   1      40.910  31.825  32.103  1.00  0.00     0.074 A 
ATOM     65  C   UNL A   1      40.764  32.912  31.145  1.00  0.00     0.031 C 
ATOM     66  C   UNL A   1      42.010  31.172  32.573  1.00  0.00     0.031 A 
BRANCH  53  67
ATOM     67  C   UNL A   1      44.770  32.982  28.076  1.00  0.00    -0.014 A 
ATOM     68  C   UNL A   1      43.949  34.110  28.270  1.00  0.00     0.010 A 
ATOM     69  C   UNL A   1      46.035  33.211  27.491  1.00  0.00     0.010 A 
ATOM     70  C   UNL A   1      44.355  35.395  27.898  1.00  0.00     0.020 A 
ATOM     71  C   UNL A   1      46.470  34.501  27.152  1.00  0.00     0.020 A 
ATOM     72  C   UNL A   1      45.621  35.587  27.358  1.00  0.00     0.054 A 
BRANCH  72  73
ATOM     73  S   UNL A   1      46.168  37.282  27.029  1.00  0.00     0.124 S 
ATOM     74  O   UNL A   1      46.892  37.122  25.767  1.00  0.00    -0.237 OA
ATOM     75  O   UNL A   1      44.897  38.003  26.932  1.00  0.00    -0.237 OA
ATOM     76  O   UNL A   1      46.985  37.614  28.183  1.00  0.00    -0.744 OA
ENDBRANCH  72  73
ENDBRANCH  53  67
BRANCH  54  77
ATOM     77  C   UNL A   1      36.627  31.495  30.170  1.00  0.00    -0.014 A 
ATOM     78  C   UNL A   1      36.180  31.549  28.836  1.00  0.00     0.010 A 
ATOM     79  C   UNL A   1      35.959  32.280  31.129  1.00  0.00     0.010 A 
ATOM     80  C   UNL A   1      35.165  32.430  28.450  1.00  0.00     0.020 A 
ATOM     81  C   UNL A   1      34.941  33.167  30.747  1.00  0.00     0.020 A 
ATOM     82  C   UNL A   1      34.583  33.265  29.402  1.00  0.00     0.054 A 
BRANCH  82  83
ATOM     83  S   UNL A   1      33.435  34.549  28.828  1.00  0.00     0.124 S 
ATOM     84  O   UNL A   1      34.352  35.564  28.315  1.00  0.00    -0.237 OA
ATOM     85  O   UNL A   1      32.653  33.843  27.817  1.00  0.00    -0.237 OA
ATOM     86  O   UNL A   1      32.700  34.922  30.033  1.00  0.00    -0.744 OA
ENDBRANCH  82  83
ENDBRANCH  54  77
BRANCH  66  87
ATOM     87  C   UNL A   1      41.812  30.083  33.601  1.00  0.00    -0.014 A 
ATOM     88  C   UNL A   1      42.218  30.353  34.921  1.00  0.00     0.010 A 
ATOM     89  C   UNL A   1      41.389  28.778  33.282  1.00  0.00     0.010 A 
ATOM     90  C   UNL A   1      42.241  29.346  35.886  1.00  0.00     0.020 A 
ATOM     91  C   UNL A   1      41.382  27.768  34.255  1.00  0.00     0.020 A 
ATOM     92  C   UNL A   1      41.835  28.054  35.545  1.00  0.00     0.054 A 
BRANCH  92  93
ATOM     93  S   UNL A   1      41.939  26.758  36.808  1.00  0.00     0.124 S 
ATOM     94  O   UNL A   1      43.061  27.214  37.624  1.00  0.00    -0.237 OA
ATOM     95  O   UNL A   1      40.629  26.830  37.454  1.00  0.00    -0.237 OA
ATOM     96  O   UNL A   1      42.185  25.537  36.044  1.00  0.00    -0.744 OA
ENDBRANCH  92  93
ENDBRANCH  66  87
ENDBRANCH  40  41
ENDBRANCH  32  35
ENDBRANCH  30  31
ENDBRANCH  29  30
ENDBRANCH   1  29
TORSDOF 17
ENDMDL
MODEL 3
REMARK VINA RESULT:     -13.0      2.738      9.053
REMARK SMILES Cc1ccnc(C(=O)c2[nH]c3cc(Cl)c(F)cc3c2CC(=O)NCCCCNC(=O)c2ccc(-c3c4nc(c(-c5ccc(S(=O)(=O)[O-])cc5)c5ccc([nH]5)c(-c5ccc(S(=O)(=O)[O-])cc5)c5nc(c(-c6ccc(S(=O)(=O)[O-])cc6)c6ccc3[nH]6)C=C5)C=C4)cc2)c1
REMARK SMILES IDX 25 1 24 2 23 3 21 4 22 5 20 7 19 8 9 9 10 10 11 11 18 13
REMARK SMILES IDX 12 14 17 15 13 16 15 17 14 18 16 19 7 20 8 21 6 22 1 23 2 24
REMARK SMILES IDX 3 25 91 26 4 27 5 28 26 29 27 30 28 31 29 32 30 34 31 35
REMARK SMILES IDX 32 36 90 37 33 38 89 39 34 40 35 41 36 42 83 43 37 44 88 45
REMARK SMILES IDX 82 46 84 47 38 48 87 49 81 50 80 51 39 53 69 54 50 55 68 56
REMARK SMILES IDX 51 57 54 58 67 59 85 60 52 61 53 62 66 64 86 65 55 66 40 67
REMARK SMILES IDX 41 68 49 69 42 70 48 71 43 72 44 73 45 74 46 75 47 76 70 77
REMARK SMILES IDX 71 78 79 79 72 80 78 81 73 82 74 83 75 84 76 85 77 86 56 87
REMARK SMILES IDX 57 88 65 89 58 90 64 91 59 92 60 93 61 94 62 95 63 96
REMARK H PARENT 23 6 10 12 28 33 84 52 54 63
REMARK Flexibility Score: inf
ROOT
ATOM      1  C   UNL A   1      31.950  28.413  27.244  1.00  0.00     0.023 C 
ENDROOT
BRANCH   1   2
ATOM      2  C   UNL A   1      32.151  27.205  26.321  1.00  0.00     0.116 C 
BRANCH   2   3
ATOM      3  N   UNL A   1      31.420  26.011  26.694  1.00  0.00    -0.356 N 
ATOM      4  C   UNL A   1      31.752  24.692  26.593  1.00  0.00     0.224 C 
ATOM      5  O   UNL A   1      31.041  23.891  27.209  1.00  0.00    -0.275 OA
ATOM      6  H   UNL A   1      30.534  26.180  27.087  1.00  0.00     0.163 HD
BRANCH   4   7
ATOM      7  C   UNL A   1      32.972  24.201  25.836  1.00  0.00     0.138 C 
BRANCH   7   8
ATOM      8  C   UNL A   1      32.724  23.583  24.490  1.00  0.00    -0.002 A 
ATOM      9  C   UNL A   1      32.511  24.207  23.257  1.00  0.00     0.093 A 
ATOM     10  N   UNL A   1      32.234  23.206  22.345  1.00  0.00    -0.351 N 
ATOM     11  C   UNL A   1      32.307  21.963  22.923  1.00  0.00     0.048 A 
ATOM     12  H   UNL A   1      32.013  23.364  21.400  1.00  0.00     0.167 HD
ATOM     13  C   UNL A   1      32.540  22.166  24.279  1.00  0.00     0.007 A 
ATOM     14  C   UNL A   1      32.165  20.689  22.353  1.00  0.00     0.050 A 
ATOM     15  C   UNL A   1      32.573  21.035  25.125  1.00  0.00     0.051 A 
ATOM     16  C   UNL A   1      32.262  19.586  23.206  1.00  0.00     0.078 A 
ATOM     17  C   UNL A   1      32.453  19.760  24.571  1.00  0.00     0.142 A 
ATOM     18  Cl  UNL A   1      32.136  17.999  22.546  1.00  0.00    -0.081 Cl
ATOM     19  F   UNL A   1      32.542  18.703  25.393  1.00  0.00    -0.205 F 
BRANCH   9  20
ATOM     20  C   UNL A   1      32.409  25.600  22.831  1.00  0.00     0.227 C 
ATOM     21  O   UNL A   1      33.402  26.158  22.365  1.00  0.00    -0.285 OA
BRANCH  20  22
ATOM     22  C   UNL A   1      31.150  26.403  23.023  1.00  0.00     0.113 A 
ATOM     23  C   UNL A   1      29.671  29.854  22.442  1.00  0.00     0.044 C 
ATOM     24  C   UNL A   1      29.835  28.411  22.808  1.00  0.00    -0.047 A 
ATOM     25  C   UNL A   1      28.780  27.734  23.415  1.00  0.00     0.023 A 
ATOM     26  C   UNL A   1      31.020  27.707  22.552  1.00  0.00     0.036 A 
ATOM     27  C   UNL A   1      28.968  26.416  23.791  1.00  0.00     0.112 A 
ATOM     28  N   UNL A   1      30.127  25.746  23.633  1.00  0.00    -0.253 NA
ENDBRANCH  20  22
ENDBRANCH   9  20
ENDBRANCH   7   8
ENDBRANCH   4   7
ENDBRANCH   2   3
ENDBRANCH   1   2
BRANCH   1  29
ATOM     29  C   UNL A   1      32.325  29.800  26.699  1.00  0.00     0.023 C 
BRANCH  29  30
ATOM     30  C   UNL A   1      33.741  30.270  27.006  1.00  0.00     0.116 C 
BRANCH  30  31
ATOM     31  N   UNL A   1      33.793  31.270  28.050  1.00  0.00    -0.352 N 
ATOM     32  C   UNL A   1      34.749  31.699  28.926  1.00  0.00     0.251 C 
ATOM     33  H   UNL A   1      32.942  31.753  28.153  1.00  0.00     0.163 HD
ATOM     34  O   UNL A   1      34.408  32.624  29.670  1.00  0.00    -0.269 OA
BRANCH  32  35
ATOM     35  C   UNL A   1      36.119  31.130  29.066  1.00  0.00     0.039 A 
ATOM     36  C   UNL A   1      37.311  31.855  29.094  1.00  0.00     0.014 A 
ATOM     37  C   UNL A   1      36.191  29.728  29.184  1.00  0.00     0.014 A 
ATOM     38  C   UNL A   1      38.538  31.199  29.177  1.00  0.00     0.010 A 
ATOM     39  C   UNL A   1      37.414  29.069  29.284  1.00  0.00     0.010 A 
ATOM     40  C   UNL A   1      38.594  29.806  29.248  1.00  0.00    -0.014 A 
BRANCH  40  41
ATOM     41  C   UNL A   1      39.912  29.180  29.353  1.00  0.00     0.031 A 
ATOM     42  C   UNL A   1      40.473  29.057  30.729  1.00  0.00     0.074 A 
ATOM     43  C   UNL A   1      40.574  28.641  28.310  1.00  0.00     0.049 A 
ATOM     44  N   UNL A   1      41.555  29.585  31.202  1.00  0.00    -0.248 NA
ATOM     45  C   UNL A   1      39.686  28.312  31.721  1.00  0.00     0.031 C 
ATOM     46  C   UNL A   1      40.067  28.394  26.959  1.00  0.00     0.029 A 
ATOM     47  N   UNL A   1      41.827  28.100  28.279  1.00  0.00    -0.354 N 
ATOM     48  C   UNL A   1      41.681  29.109  32.508  1.00  0.00     0.074 A 
ATOM     49  C   UNL A   1      40.448  28.427  32.810  1.00  0.00     0.031 C 
ATOM     50  C   UNL A   1      40.907  27.552  26.316  1.00  0.00     0.029 A 
ATOM     51  C   UNL A   1      42.081  27.341  27.146  1.00  0.00     0.049 A 
ATOM     52  H   UNL A   1      42.491  28.236  28.993  1.00  0.00     0.167 HD
ATOM     53  C   UNL A   1      42.857  29.161  33.194  1.00  0.00     0.031 A 
ATOM     54  C   UNL A   1      43.157  26.553  26.921  1.00  0.00     0.031 A 
ATOM     55  C   UNL A   1      43.815  30.022  32.560  1.00  0.00     0.049 A 
ATOM     56  C   UNL A   1      44.263  27.021  27.783  1.00  0.00     0.074 A 
ATOM     57  C   UNL A   1      43.966  31.380  32.395  1.00  0.00     0.029 A 
ATOM     58  N   UNL A   1      44.681  29.408  31.693  1.00  0.00    -0.354 N 
ATOM     59  N   UNL A   1      44.846  28.177  27.644  1.00  0.00    -0.248 NA
ATOM     60  C   UNL A   1      44.568  26.314  29.021  1.00  0.00     0.031 C 
ATOM     61  C   UNL A   1      44.702  31.539  31.186  1.00  0.00     0.029 A 
ATOM     62  C   UNL A   1      44.986  30.272  30.673  1.00  0.00     0.049 A 
ATOM     63  H   UNL A   1      45.028  28.491  31.788  1.00  0.00     0.167 HD
ATOM     64  C   UNL A   1      45.241  28.526  28.922  1.00  0.00     0.074 A 
ATOM     65  C   UNL A   1      45.207  27.283  29.681  1.00  0.00     0.031 C 
ATOM     66  C   UNL A   1      45.269  29.829  29.318  1.00  0.00     0.031 A 
BRANCH  53  67
ATOM     67  C   UNL A   1      43.279  28.174  34.259  1.00  0.00    -0.014 A 
ATOM     68  C   UNL A   1      43.490  26.806  33.995  1.00  0.00     0.010 A 
ATOM     69  C   UNL A   1      43.738  28.658  35.504  1.00  0.00     0.010 A 
ATOM     70  C   UNL A   1      44.116  25.961  34.916  1.00  0.00     0.020 A 
ATOM     71  C   UNL A   1      44.404  27.828  36.419  1.00  0.00     0.020 A 
ATOM     72  C   UNL A   1      44.587  26.481  36.116  1.00  0.00     0.054 A 
BRANCH  72  73
ATOM     73  S   UNL A   1      45.524  25.389  37.216  1.00  0.00     0.124 S 
ATOM     74  O   UNL A   1      44.520  25.050  38.225  1.00  0.00    -0.237 OA
ATOM     75  O   UNL A   1      45.901  24.295  36.318  1.00  0.00    -0.237 OA
ATOM     76  O   UNL A   1      46.622  26.220  37.679  1.00  0.00    -0.744 OA
ENDBRANCH  72  73
ENDBRANCH  53  67
BRANCH  54  77
ATOM     77  C   UNL A   1      43.192  25.239  26.241  1.00  0.00    -0.014 A 
ATOM     78  C   UNL A   1      42.729  24.094  26.920  1.00  0.00     0.010 A 
ATOM     79  C   UNL A   1      43.967  25.056  25.081  1.00  0.00     0.010 A 
ATOM     80  C   UNL A   1      43.107  22.812  26.513  1.00  0.00     0.020 A 
ATOM     81  C   UNL A   1      44.352  23.771  24.669  1.00  0.00     0.020 A 
ATOM     82  C   UNL A   1      43.953  22.662  25.415  1.00  0.00     0.054 A 
BRANCH  82  83
ATOM     83  S   UNL A   1      44.603  21.006  25.055  1.00  0.00     0.124 S 
ATOM     84  O   UNL A   1      45.927  21.062  25.670  1.00  0.00    -0.237 OA
ATOM     85  O   UNL A   1      43.639  20.136  25.723  1.00  0.00    -0.237 OA
ATOM     86  O   UNL A   1      44.593  20.938  23.597  1.00  0.00    -0.744 OA
ENDBRANCH  82  83
ENDBRANCH  54  77
BRANCH  66  87
ATOM     87  C   UNL A   1      45.324  30.900  28.254  1.00  0.00    -0.014 A 
ATOM     88  C   UNL A   1      46.594  31.325  27.824  1.00  0.00     0.010 A 
ATOM     89  C   UNL A   1      44.190  31.592  27.786  1.00  0.00     0.010 A 
ATOM     90  C   UNL A   1      46.737  32.431  26.984  1.00  0.00     0.020 A 
ATOM     91  C   UNL A   1      44.324  32.686  26.919  1.00  0.00     0.020 A 
ATOM     92  C   UNL A   1      45.601  33.115  26.546  1.00  0.00     0.054 A 
BRANCH  92  93
ATOM     93  S   UNL A   1      45.829  34.583  25.509  1.00  0.00     0.124 S 
ATOM     94  O   UNL A   1      45.046  34.246  24.322  1.00  0.00    -0.237 OA
ATOM     95  O   UNL A   1      45.276  35.654  26.337  1.00  0.00    -0.237 OA
ATOM     96  O   UNL A   1      47.274  34.649  25.299  1.00  0.00    -0.744 OA
ENDBRANCH  92  93
ENDBRANCH  66  87
ENDBRANCH  40  41
ENDBRANCH  32  35
ENDBRANCH  30  31
ENDBRANCH  29  30
ENDBRANCH   1  29
TORSDOF 17
ENDMDL
