MODEL 1
REMARK VINA RESULT:     -10.0      0.000      0.000
REMARK SMILES CCCCCC[C@@H](C(=O)NCCCCNC(=O)c1ccc(-c2c3nc(c(-c4ccc(S(=O)(=O)[O-])cc4)c4ccc([nH]4)c(-c4ccc(S(=O)(=O)[O-])cc4)c4nc(c(-c5ccc(S(=O)(=O)[O-])cc5)c5ccc2[nH]5)C=C4)C=C3)cc1)c1ccccc1C
REMARK SMILES IDX 11 1 10 2 8 3 9 4 7 6 6 7 5 8 4 9 3 10 2 11 1 12 78 13 79 14
REMARK SMILES IDX 83 15 80 16 82 17 84 18 81 19 12 20 13 21 14 22 15 23 16 24
REMARK SMILES IDX 17 26 18 27 19 28 77 29 20 30 76 31 21 32 22 33 23 34 70 35
REMARK SMILES IDX 24 36 75 37 69 38 71 39 25 40 74 41 68 42 67 43 26 45 56 46
REMARK SMILES IDX 37 47 55 48 38 49 41 50 54 51 72 52 39 53 40 54 53 56 73 57
REMARK SMILES IDX 42 58 27 59 28 60 36 61 29 62 35 63 30 64 31 65 32 66 33 67
REMARK SMILES IDX 34 68 57 69 58 70 66 71 59 72 65 73 60 74 61 75 62 76 63 77
REMARK SMILES IDX 64 78 43 79 44 80 52 81 45 82 51 83 46 84 47 85 48 86 49 87
REMARK SMILES IDX 50 88
REMARK H PARENT 10 5 15 25 71 44 41 55
REMARK Flexibility Score: inf
ROOT
ATOM      1  C   UNL A   1      33.585  23.649  24.366  1.00  0.00     0.116 C 
ENDROOT
BRANCH   1   2
ATOM      2  N   UNL A   1      34.033  24.646  23.412  1.00  0.00    -0.356 N 
ATOM      3  C   UNL A   1      33.326  25.639  22.791  1.00  0.00     0.227 C 
ATOM      4  O   UNL A   1      33.763  26.025  21.703  1.00  0.00    -0.274 OA
ATOM      5  H   UNL A   1      34.988  24.600  23.177  1.00  0.00     0.163 HD
BRANCH   3   6
ATOM      6  C   UNL A   1      32.072  26.274  23.448  1.00  0.00     0.109 C 
BRANCH   6   7
ATOM      7  C   UNL A   1      31.402  27.187  22.368  1.00  0.00     0.018 C 
BRANCH   7   8
ATOM      8  C   UNL A   1      31.461  28.702  22.561  1.00  0.00     0.001 C 
BRANCH   8   9
ATOM      9  C   UNL A   1      30.290  29.307  23.341  1.00  0.00     0.000 C 
BRANCH   9  10
ATOM     10  C   UNL A   1      28.910  28.842  22.869  1.00  0.00    -0.000 C 
BRANCH  10  11
ATOM     11  C   UNL A   1      27.980  29.946  22.353  1.00  0.00    -0.003 C 
ATOM     12  C   UNL A   1      27.575  30.960  23.415  1.00  0.00     0.004 C 
ENDBRANCH  10  11
ENDBRANCH   9  10
ENDBRANCH   8   9
ENDBRANCH   7   8
ENDBRANCH   6   7
BRANCH   6  13
ATOM     13  C   UNL A   1      32.447  27.058  24.750  1.00  0.00    -0.033 A 
ATOM     14  C   UNL A   1      33.588  27.895  24.773  1.00  0.00     0.005 A 
ATOM     15  C   UNL A   1      31.680  27.016  25.943  1.00  0.00    -0.047 A 
ATOM     16  C   UNL A   1      34.055  28.504  25.940  1.00  0.00     0.000 A 
ATOM     17  C   UNL A   1      32.188  27.602  27.125  1.00  0.00     0.004 A 
ATOM     18  C   UNL A   1      30.335  26.348  26.069  1.00  0.00     0.044 C 
ATOM     19  C   UNL A   1      33.377  28.322  27.129  1.00  0.00     0.000 A 
ENDBRANCH   6  13
ENDBRANCH   3   6
ENDBRANCH   1   2
BRANCH   1  20
ATOM     20  C   UNL A   1      34.768  22.758  24.766  1.00  0.00     0.023 C 
BRANCH  20  21
ATOM     21  C   UNL A   1      35.777  23.397  25.707  1.00  0.00     0.023 C 
BRANCH  21  22
ATOM     22  C   UNL A   1      37.112  23.712  25.059  1.00  0.00     0.116 C 
BRANCH  22  23
ATOM     23  N   UNL A   1      38.162  22.753  25.384  1.00  0.00    -0.352 N 
ATOM     24  C   UNL A   1      39.278  22.951  26.165  1.00  0.00     0.251 C 
ATOM     25  H   UNL A   1      38.060  21.853  24.997  1.00  0.00     0.163 HD
ATOM     26  O   UNL A   1      40.123  22.070  26.284  1.00  0.00    -0.269 OA
BRANCH  24  27
ATOM     27  C   UNL A   1      39.457  24.265  26.815  1.00  0.00     0.039 A 
ATOM     28  C   UNL A   1      38.982  24.452  28.114  1.00  0.00     0.014 A 
ATOM     29  C   UNL A   1      40.191  25.265  26.174  1.00  0.00     0.014 A 
ATOM     30  C   UNL A   1      39.313  25.622  28.801  1.00  0.00     0.010 A 
ATOM     31  C   UNL A   1      40.606  26.375  26.895  1.00  0.00     0.010 A 
ATOM     32  C   UNL A   1      40.162  26.572  28.211  1.00  0.00    -0.014 A 
BRANCH  32  33
ATOM     33  C   UNL A   1      40.574  27.804  28.928  1.00  0.00     0.031 A 
ATOM     34  C   UNL A   1      41.933  27.862  29.575  1.00  0.00     0.074 A 
ATOM     35  C   UNL A   1      39.710  28.830  29.066  1.00  0.00     0.049 A 
ATOM     36  N   UNL A   1      42.448  28.796  30.331  1.00  0.00    -0.248 NA
ATOM     37  C   UNL A   1      42.810  26.694  29.382  1.00  0.00     0.031 C 
ATOM     38  C   UNL A   1      38.345  28.872  28.535  1.00  0.00     0.029 A 
ATOM     39  N   UNL A   1      39.854  30.036  29.704  1.00  0.00    -0.354 N 
ATOM     40  C   UNL A   1      43.690  28.313  30.728  1.00  0.00     0.074 A 
ATOM     41  C   UNL A   1      43.824  26.982  30.182  1.00  0.00     0.031 C 
ATOM     42  C   UNL A   1      37.791  30.059  28.840  1.00  0.00     0.029 A 
ATOM     43  C   UNL A   1      38.745  30.844  29.616  1.00  0.00     0.049 A 
ATOM     44  H   UNL A   1      40.674  30.298  30.181  1.00  0.00     0.167 HD
ATOM     45  C   UNL A   1      44.648  28.932  31.458  1.00  0.00     0.031 A 
ATOM     46  C   UNL A   1      38.526  32.081  30.102  1.00  0.00     0.031 A 
ATOM     47  C   UNL A   1      44.530  30.272  31.961  1.00  0.00     0.049 A 
ATOM     48  C   UNL A   1      39.622  32.769  30.869  1.00  0.00     0.074 A 
ATOM     49  C   UNL A   1      45.464  31.016  32.658  1.00  0.00     0.029 A 
ATOM     50  N   UNL A   1      43.410  31.075  31.805  1.00  0.00    -0.354 N 
ATOM     51  N   UNL A   1      40.812  32.317  31.191  1.00  0.00    -0.248 NA
ATOM     52  C   UNL A   1      39.355  34.140  31.323  1.00  0.00     0.031 C 
ATOM     53  C   UNL A   1      44.898  32.263  32.948  1.00  0.00     0.029 A 
ATOM     54  C   UNL A   1      43.628  32.307  32.393  1.00  0.00     0.049 A 
ATOM     55  H   UNL A   1      42.582  30.807  31.343  1.00  0.00     0.167 HD
ATOM     56  C   UNL A   1      41.445  33.359  31.856  1.00  0.00     0.074 A 
ATOM     57  C   UNL A   1      40.512  34.468  31.882  1.00  0.00     0.031 C 
ATOM     58  C   UNL A   1      42.689  33.399  32.397  1.00  0.00     0.031 A 
BRANCH  45  59
ATOM     59  C   UNL A   1      45.908  28.158  31.738  1.00  0.00    -0.014 A 
ATOM     60  C   UNL A   1      46.009  27.323  32.867  1.00  0.00     0.010 A 
ATOM     61  C   UNL A   1      47.003  28.261  30.863  1.00  0.00     0.010 A 
ATOM     62  C   UNL A   1      47.199  26.647  33.144  1.00  0.00     0.020 A 
ATOM     63  C   UNL A   1      48.186  27.562  31.122  1.00  0.00     0.020 A 
ATOM     64  C   UNL A   1      48.283  26.776  32.273  1.00  0.00     0.054 A 
BRANCH  64  65
ATOM     65  S   UNL A   1      49.815  25.883  32.651  1.00  0.00     0.124 S 
ATOM     66  O   UNL A   1      49.932  24.989  31.501  1.00  0.00    -0.237 OA
ATOM     67  O   UNL A   1      50.806  26.955  32.714  1.00  0.00    -0.237 OA
ATOM     68  O   UNL A   1      49.529  25.228  33.925  1.00  0.00    -0.744 OA
ENDBRANCH  64  65
ENDBRANCH  45  59
BRANCH  46  69
ATOM     69  C   UNL A   1      37.232  32.769  29.841  1.00  0.00    -0.014 A 
ATOM     70  C   UNL A   1      36.190  32.701  30.782  1.00  0.00     0.010 A 
ATOM     71  C   UNL A   1      37.036  33.500  28.656  1.00  0.00     0.010 A 
ATOM     72  C   UNL A   1      34.967  33.331  30.536  1.00  0.00     0.020 A 
ATOM     73  C   UNL A   1      35.822  34.153  28.416  1.00  0.00     0.020 A 
ATOM     74  C   UNL A   1      34.791  34.054  29.352  1.00  0.00     0.054 A 
BRANCH  74  75
ATOM     75  S   UNL A   1      33.211  34.904  29.072  1.00  0.00     0.124 S 
ATOM     76  O   UNL A   1      33.650  36.217  28.610  1.00  0.00    -0.237 OA
ATOM     77  O   UNL A   1      32.571  34.059  28.067  1.00  0.00    -0.237 OA
ATOM     78  O   UNL A   1      32.576  34.882  30.389  1.00  0.00    -0.744 OA
ENDBRANCH  74  75
ENDBRANCH  46  69
BRANCH  58  79
ATOM     79  C   UNL A   1      43.129  34.694  33.020  1.00  0.00    -0.014 A 
ATOM     80  C   UNL A   1      43.038  34.906  34.406  1.00  0.00     0.010 A 
ATOM     81  C   UNL A   1      43.691  35.694  32.205  1.00  0.00     0.010 A 
ATOM     82  C   UNL A   1      43.471  36.111  34.964  1.00  0.00     0.020 A 
ATOM     83  C   UNL A   1      44.148  36.890  32.763  1.00  0.00     0.020 A 
ATOM     84  C   UNL A   1      44.021  37.097  34.138  1.00  0.00     0.054 A 
BRANCH  84  85
ATOM     85  S   UNL A   1      44.613  38.638  34.889  1.00  0.00     0.124 S 
ATOM     86  O   UNL A   1      46.063  38.475  34.811  1.00  0.00    -0.237 OA
ATOM     87  O   UNL A   1      44.047  39.661  34.015  1.00  0.00    -0.237 OA
ATOM     88  O   UNL A   1      44.053  38.601  36.238  1.00  0.00    -0.744 OA
ENDBRANCH  84  85
ENDBRANCH  58  79
ENDBRANCH  32  33
ENDBRANCH  24  27
ENDBRANCH  22  23
ENDBRANCH  21  22
ENDBRANCH  20  21
ENDBRANCH   1  20
TORSDOF 20
ENDMDL
MODEL 2
REMARK VINA RESULT:      -9.6      2.555      9.110
REMARK SMILES CCCCCC[C@@H](C(=O)NCCCCNC(=O)c1ccc(-c2c3nc(c(-c4ccc(S(=O)(=O)[O-])cc4)c4ccc([nH]4)c(-c4ccc(S(=O)(=O)[O-])cc4)c4nc(c(-c5ccc(S(=O)(=O)[O-])cc5)c5ccc2[nH]5)C=C4)C=C3)cc1)c1ccccc1C
REMARK SMILES IDX 11 1 10 2 8 3 9 4 7 6 6 7 5 8 4 9 3 10 2 11 1 12 78 13 79 14
REMARK SMILES IDX 83 15 80 16 82 17 84 18 81 19 12 20 13 21 14 22 15 23 16 24
REMARK SMILES IDX 17 26 18 27 19 28 77 29 20 30 76 31 21 32 22 33 23 34 70 35
REMARK SMILES IDX 24 36 75 37 69 38 71 39 25 40 74 41 68 42 67 43 26 45 56 46
REMARK SMILES IDX 37 47 55 48 38 49 41 50 54 51 72 52 39 53 40 54 53 56 73 57
REMARK SMILES IDX 42 58 27 59 28 60 36 61 29 62 35 63 30 64 31 65 32 66 33 67
REMARK SMILES IDX 34 68 57 69 58 70 66 71 59 72 65 73 60 74 61 75 62 76 63 77
REMARK SMILES IDX 64 78 43 79 44 80 52 81 45 82 51 83 46 84 47 85 48 86 49 87
REMARK SMILES IDX 50 88
REMARK H PARENT 10 5 15 25 71 44 41 55
REMARK Flexibility Score: inf
ROOT
ATOM      1  C   UNL A   1      33.608  25.892  25.479  1.00  0.00     0.116 C 
ENDROOT
BRANCH   1   2
ATOM      2  N   UNL A   1      33.472  26.282  24.088  1.00  0.00    -0.356 N 
ATOM      3  C   UNL A   1      33.507  25.510  22.958  1.00  0.00     0.227 C 
ATOM      4  O   UNL A   1      33.857  26.077  21.919  1.00  0.00    -0.274 OA
ATOM      5  H   UNL A   1      33.333  27.245  23.935  1.00  0.00     0.163 HD
BRANCH   3   6
ATOM      6  C   UNL A   1      33.083  24.019  22.982  1.00  0.00     0.109 C 
BRANCH   6   7
ATOM      7  C   UNL A   1      31.706  23.947  23.724  1.00  0.00     0.018 C 
BRANCH   7   8
ATOM      8  C   UNL A   1      30.533  24.746  23.156  1.00  0.00     0.001 C 
BRANCH   8   9
ATOM      9  C   UNL A   1      29.794  25.629  24.165  1.00  0.00     0.000 C 
BRANCH   9  10
ATOM     10  C   UNL A   1      29.350  26.985  23.611  1.00  0.00    -0.000 C 
BRANCH  10  11
ATOM     11  C   UNL A   1      30.476  27.989  23.339  1.00  0.00    -0.003 C 
ATOM     12  C   UNL A   1      30.041  29.445  23.431  1.00  0.00     0.004 C 
ENDBRANCH  10  11
ENDBRANCH   9  10
ENDBRANCH   8   9
ENDBRANCH   7   8
ENDBRANCH   6   7
BRANCH   6  13
ATOM     13  C   UNL A   1      34.176  23.126  23.657  1.00  0.00    -0.033 A 
ATOM     14  C   UNL A   1      35.547  23.360  23.395  1.00  0.00     0.005 A 
ATOM     15  C   UNL A   1      33.886  22.080  24.571  1.00  0.00    -0.047 A 
ATOM     16  C   UNL A   1      36.560  22.511  23.849  1.00  0.00     0.000 A 
ATOM     17  C   UNL A   1      34.916  21.204  24.987  1.00  0.00     0.004 A 
ATOM     18  C   UNL A   1      32.518  21.794  25.133  1.00  0.00     0.044 C 
ATOM     19  C   UNL A   1      36.238  21.405  24.612  1.00  0.00     0.000 A 
ENDBRANCH   6  13
ENDBRANCH   3   6
ENDBRANCH   1   2
BRANCH   1  20
ATOM     20  C   UNL A   1      32.403  26.412  26.274  1.00  0.00     0.023 C 
BRANCH  20  21
ATOM     21  C   UNL A   1      32.391  27.910  26.535  1.00  0.00     0.023 C 
BRANCH  21  22
ATOM     22  C   UNL A   1      33.681  28.443  27.130  1.00  0.00     0.116 C 
BRANCH  22  23
ATOM     23  N   UNL A   1      33.590  29.827  27.581  1.00  0.00    -0.352 N 
ATOM     24  C   UNL A   1      34.570  30.591  28.171  1.00  0.00     0.251 C 
ATOM     25  H   UNL A   1      32.720  30.269  27.447  1.00  0.00     0.163 HD
ATOM     26  O   UNL A   1      34.324  31.724  28.576  1.00  0.00    -0.269 OA
BRANCH  24  27
ATOM     27  C   UNL A   1      35.911  29.999  28.351  1.00  0.00     0.039 A 
ATOM     28  C   UNL A   1      36.847  30.110  27.321  1.00  0.00     0.014 A 
ATOM     29  C   UNL A   1      36.265  29.436  29.577  1.00  0.00     0.014 A 
ATOM     30  C   UNL A   1      38.168  29.723  27.555  1.00  0.00     0.010 A 
ATOM     31  C   UNL A   1      37.598  29.151  29.839  1.00  0.00     0.010 A 
ATOM     32  C   UNL A   1      38.562  29.281  28.827  1.00  0.00    -0.014 A 
BRANCH  32  33
ATOM     33  C   UNL A   1      39.966  28.906  29.125  1.00  0.00     0.031 A 
ATOM     34  C   UNL A   1      40.880  29.918  29.764  1.00  0.00     0.074 A 
ATOM     35  C   UNL A   1      40.439  27.699  28.756  1.00  0.00     0.049 A 
ATOM     36  N   UNL A   1      42.160  29.831  30.014  1.00  0.00    -0.248 NA
ATOM     37  C   UNL A   1      40.284  31.215  30.127  1.00  0.00     0.031 C 
ATOM     38  C   UNL A   1      39.669  26.652  28.078  1.00  0.00     0.029 A 
ATOM     39  N   UNL A   1      41.690  27.151  28.894  1.00  0.00    -0.354 N 
ATOM     40  C   UNL A   1      42.525  31.069  30.531  1.00  0.00     0.074 A 
ATOM     41  C   UNL A   1      41.348  31.907  30.502  1.00  0.00     0.031 C 
ATOM     42  C   UNL A   1      40.456  25.577  27.892  1.00  0.00     0.029 A 
ATOM     43  C   UNL A   1      41.790  25.871  28.404  1.00  0.00     0.049 A 
ATOM     44  H   UNL A   1      42.444  27.631  29.305  1.00  0.00     0.167 HD
ATOM     45  C   UNL A   1      43.725  31.467  31.017  1.00  0.00     0.031 A 
ATOM     46  C   UNL A   1      42.840  25.027  28.375  1.00  0.00     0.031 A 
ATOM     47  C   UNL A   1      44.882  30.618  31.087  1.00  0.00     0.049 A 
ATOM     48  C   UNL A   1      44.151  25.474  28.963  1.00  0.00     0.074 A 
ATOM     49  C   UNL A   1      46.127  30.901  31.615  1.00  0.00     0.029 A 
ATOM     50  N   UNL A   1      44.926  29.310  30.626  1.00  0.00    -0.354 N 
ATOM     51  N   UNL A   1      44.464  26.632  29.496  1.00  0.00    -0.248 NA
ATOM     52  C   UNL A   1      45.246  24.494  28.963  1.00  0.00     0.031 C 
ATOM     53  C   UNL A   1      46.936  29.771  31.450  1.00  0.00     0.029 A 
ATOM     54  C   UNL A   1      46.179  28.772  30.857  1.00  0.00     0.049 A 
ATOM     55  H   UNL A   1      44.177  28.836  30.198  1.00  0.00     0.167 HD
ATOM     56  C   UNL A   1      45.780  26.508  29.923  1.00  0.00     0.074 A 
ATOM     57  C   UNL A   1      46.202  25.160  29.596  1.00  0.00     0.031 C 
ATOM     58  C   UNL A   1      46.572  27.425  30.533  1.00  0.00     0.031 A 
BRANCH  45  59
ATOM     59  C   UNL A   1      43.831  32.883  31.516  1.00  0.00    -0.014 A 
ATOM     60  C   UNL A   1      43.516  33.206  32.850  1.00  0.00     0.010 A 
ATOM     61  C   UNL A   1      44.255  33.903  30.647  1.00  0.00     0.010 A 
ATOM     62  C   UNL A   1      43.570  34.530  33.290  1.00  0.00     0.020 A 
ATOM     63  C   UNL A   1      44.340  35.226  31.093  1.00  0.00     0.020 A 
ATOM     64  C   UNL A   1      43.976  35.533  32.407  1.00  0.00     0.054 A 
BRANCH  64  65
ATOM     65  S   UNL A   1      44.046  37.243  33.004  1.00  0.00     0.124 S 
ATOM     66  O   UNL A   1      45.342  37.272  33.679  1.00  0.00    -0.237 OA
ATOM     67  O   UNL A   1      43.967  38.020  31.769  1.00  0.00    -0.237 OA
ATOM     68  O   UNL A   1      42.883  37.352  33.880  1.00  0.00    -0.744 OA
ENDBRANCH  64  65
ENDBRANCH  45  59
BRANCH  46  69
ATOM     69  C   UNL A   1      42.685  23.659  27.809  1.00  0.00    -0.014 A 
ATOM     70  C   UNL A   1      43.047  23.398  26.476  1.00  0.00     0.010 A 
ATOM     71  C   UNL A   1      42.183  22.610  28.599  1.00  0.00     0.010 A 
ATOM     72  C   UNL A   1      42.889  22.119  25.934  1.00  0.00     0.020 A 
ATOM     73  C   UNL A   1      42.046  21.323  28.069  1.00  0.00     0.020 A 
ATOM     74  C   UNL A   1      42.389  21.088  26.736  1.00  0.00     0.054 A 
BRANCH  74  75
ATOM     75  S   UNL A   1      42.234  19.424  26.026  1.00  0.00     0.124 S 
ATOM     76  O   UNL A   1      43.083  19.520  24.843  1.00  0.00    -0.237 OA
ATOM     77  O   UNL A   1      42.739  18.574  27.101  1.00  0.00    -0.237 OA
ATOM     78  O   UNL A   1      40.802  19.299  25.763  1.00  0.00    -0.744 OA
ENDBRANCH  74  75
ENDBRANCH  46  69
BRANCH  58  79
ATOM     79  C   UNL A   1      47.955  26.989  30.929  1.00  0.00    -0.014 A 
ATOM     80  C   UNL A   1      48.193  26.340  32.152  1.00  0.00     0.010 A 
ATOM     81  C   UNL A   1      49.022  27.188  30.034  1.00  0.00     0.010 A 
ATOM     82  C   UNL A   1      49.485  25.927  32.489  1.00  0.00     0.020 A 
ATOM     83  C   UNL A   1      50.309  26.754  30.357  1.00  0.00     0.020 A 
ATOM     84  C   UNL A   1      50.535  26.139  31.590  1.00  0.00     0.054 A 
BRANCH  84  85
ATOM     85  S   UNL A   1      52.196  25.560  32.032  1.00  0.00     0.124 S 
ATOM     86  O   UNL A   1      52.499  26.375  33.205  1.00  0.00    -0.237 OA
ATOM     87  O   UNL A   1      51.983  24.139  32.291  1.00  0.00    -0.237 OA
ATOM     88  O   UNL A   1      52.992  25.858  30.844  1.00  0.00    -0.744 OA
ENDBRANCH  84  85
ENDBRANCH  58  79
ENDBRANCH  32  33
ENDBRANCH  24  27
ENDBRANCH  22  23
ENDBRANCH  21  22
ENDBRANCH  20  21
ENDBRANCH   1  20
TORSDOF 20
ENDMDL
MODEL 3
REMARK VINA RESULT:      -9.5      4.301      9.909
REMARK SMILES CCCCCC[C@@H](C(=O)NCCCCNC(=O)c1ccc(-c2c3nc(c(-c4ccc(S(=O)(=O)[O-])cc4)c4ccc([nH]4)c(-c4ccc(S(=O)(=O)[O-])cc4)c4nc(c(-c5ccc(S(=O)(=O)[O-])cc5)c5ccc2[nH]5)C=C4)C=C3)cc1)c1ccccc1C
REMARK SMILES IDX 11 1 10 2 8 3 9 4 7 6 6 7 5 8 4 9 3 10 2 11 1 12 78 13 79 14
REMARK SMILES IDX 83 15 80 16 82 17 84 18 81 19 12 20 13 21 14 22 15 23 16 24
REMARK SMILES IDX 17 26 18 27 19 28 77 29 20 30 76 31 21 32 22 33 23 34 70 35
REMARK SMILES IDX 24 36 75 37 69 38 71 39 25 40 74 41 68 42 67 43 26 45 56 46
REMARK SMILES IDX 37 47 55 48 38 49 41 50 54 51 72 52 39 53 40 54 53 56 73 57
REMARK SMILES IDX 42 58 27 59 28 60 36 61 29 62 35 63 30 64 31 65 32 66 33 67
REMARK SMILES IDX 34 68 57 69 58 70 66 71 59 72 65 73 60 74 61 75 62 76 63 77
REMARK SMILES IDX 64 78 43 79 44 80 52 81 45 82 51 83 46 84 47 85 48 86 49 87
REMARK SMILES IDX 50 88
REMARK H PARENT 10 5 15 25 71 44 41 55
REMARK Flexibility Score: inf
ROOT
ATOM      1  C   UNL A   1      36.824  23.207  25.582  1.00  0.00     0.116 C 
ENDROOT
BRANCH   1   2
ATOM      2  N   UNL A   1      36.377  23.587  24.255  1.00  0.00    -0.356 N 
ATOM      3  C   UNL A   1      35.173  23.366  23.643  1.00  0.00     0.227 C 
ATOM      4  O   UNL A   1      35.183  23.330  22.409  1.00  0.00    -0.274 OA
ATOM      5  H   UNL A   1      37.039  24.077  23.715  1.00  0.00     0.163 HD
BRANCH   3   6
ATOM      6  C   UNL A   1      33.864  23.219  24.461  1.00  0.00     0.109 C 
BRANCH   6   7
ATOM      7  C   UNL A   1      32.840  22.457  23.555  1.00  0.00     0.018 C 
BRANCH   7   8
ATOM      8  C   UNL A   1      32.794  20.931  23.637  1.00  0.00     0.001 C 
BRANCH   8   9
ATOM      9  C   UNL A   1      32.970  20.347  25.042  1.00  0.00     0.000 C 
BRANCH   9  10
ATOM     10  C   UNL A   1      32.895  18.820  25.103  1.00  0.00    -0.000 C 
BRANCH  10  11
ATOM     11  C   UNL A   1      33.016  18.095  23.757  1.00  0.00    -0.003 C 
ATOM     12  C   UNL A   1      33.849  16.822  23.813  1.00  0.00     0.004 C 
ENDBRANCH  10  11
ENDBRANCH   9  10
ENDBRANCH   8   9
ENDBRANCH   7   8
ENDBRANCH   6   7
BRANCH   6  13
ATOM     13  C   UNL A   1      33.327  24.611  24.934  1.00  0.00    -0.033 A 
ATOM     14  C   UNL A   1      33.644  25.781  24.204  1.00  0.00     0.005 A 
ATOM     15  C   UNL A   1      32.489  24.790  26.065  1.00  0.00    -0.047 A 
ATOM     16  C   UNL A   1      33.320  27.064  24.652  1.00  0.00     0.000 A 
ATOM     17  C   UNL A   1      32.206  26.095  26.530  1.00  0.00     0.004 A 
ATOM     18  C   UNL A   1      31.879  23.665  26.860  1.00  0.00     0.044 C 
ATOM     19  C   UNL A   1      32.635  27.223  25.841  1.00  0.00     0.000 A 
ENDBRANCH   6  13
ENDBRANCH   3   6
ENDBRANCH   1   2
BRANCH   1  20
ATOM     20  C   UNL A   1      36.851  21.676  25.691  1.00  0.00     0.023 C 
BRANCH  20  21
ATOM     21  C   UNL A   1      38.103  21.006  25.148  1.00  0.00     0.023 C 
BRANCH  21  22
ATOM     22  C   UNL A   1      39.272  21.006  26.115  1.00  0.00     0.116 C 
BRANCH  22  23
ATOM     23  N   UNL A   1      40.069  19.785  26.070  1.00  0.00    -0.352 N 
ATOM     24  C   UNL A   1      41.437  19.664  26.164  1.00  0.00     0.251 C 
ATOM     25  H   UNL A   1      39.568  18.946  25.957  1.00  0.00     0.163 HD
ATOM     26  O   UNL A   1      41.980  18.572  26.026  1.00  0.00    -0.269 OA
BRANCH  24  27
ATOM     27  C   UNL A   1      42.238  20.884  26.386  1.00  0.00     0.039 A 
ATOM     28  C   UNL A   1      42.611  21.663  25.289  1.00  0.00     0.014 A 
ATOM     29  C   UNL A   1      42.519  21.306  27.687  1.00  0.00     0.014 A 
ATOM     30  C   UNL A   1      43.201  22.910  25.505  1.00  0.00     0.010 A 
ATOM     31  C   UNL A   1      43.007  22.588  27.899  1.00  0.00     0.010 A 
ATOM     32  C   UNL A   1      43.364  23.399  26.811  1.00  0.00    -0.014 A 
BRANCH  32  33
ATOM     33  C   UNL A   1      43.943  24.739  27.077  1.00  0.00     0.031 A 
ATOM     34  C   UNL A   1      43.041  25.855  27.532  1.00  0.00     0.074 A 
ATOM     35  C   UNL A   1      45.249  24.973  26.838  1.00  0.00     0.049 A 
ATOM     36  N   UNL A   1      43.322  27.118  27.722  1.00  0.00    -0.248 NA
ATOM     37  C   UNL A   1      41.627  25.514  27.761  1.00  0.00     0.031 C 
ATOM     38  C   UNL A   1      46.216  23.989  26.341  1.00  0.00     0.029 A 
ATOM     39  N   UNL A   1      45.989  26.121  26.977  1.00  0.00    -0.354 N 
ATOM     40  C   UNL A   1      42.117  27.723  28.058  1.00  0.00     0.074 A 
ATOM     41  C   UNL A   1      41.094  26.704  27.986  1.00  0.00     0.031 C 
ATOM     42  C   UNL A   1      47.426  24.568  26.251  1.00  0.00     0.029 A 
ATOM     43  C   UNL A   1      47.315  25.968  26.648  1.00  0.00     0.049 A 
ATOM     44  H   UNL A   1      45.605  26.974  27.283  1.00  0.00     0.167 HD
ATOM     45  C   UNL A   1      41.882  29.006  28.423  1.00  0.00     0.031 A 
ATOM     46  C   UNL A   1      48.327  26.856  26.669  1.00  0.00     0.031 A 
ATOM     47  C   UNL A   1      42.908  30.005  28.537  1.00  0.00     0.049 A 
ATOM     48  C   UNL A   1      48.054  28.263  27.124  1.00  0.00     0.074 A 
ATOM     49  C   UNL A   1      42.790  31.317  28.958  1.00  0.00     0.029 A 
ATOM     50  N   UNL A   1      44.247  29.794  28.244  1.00  0.00    -0.354 N 
ATOM     51  N   UNL A   1      46.915  28.805  27.489  1.00  0.00    -0.248 NA
ATOM     52  C   UNL A   1      49.204  29.175  27.189  1.00  0.00     0.031 C 
ATOM     53  C   UNL A   1      44.056  31.910  28.893  1.00  0.00     0.029 A 
ATOM     54  C   UNL A   1      44.967  30.953  28.473  1.00  0.00     0.049 A 
ATOM     55  H   UNL A   1      44.629  28.946  27.921  1.00  0.00     0.167 HD
ATOM     56  C   UNL A   1      47.218  30.111  27.856  1.00  0.00     0.074 A 
ATOM     57  C   UNL A   1      48.648  30.274  27.680  1.00  0.00     0.031 C 
ATOM     58  C   UNL A   1      46.391  31.088  28.301  1.00  0.00     0.031 A 
BRANCH  45  59
ATOM     59  C   UNL A   1      40.460  29.385  28.733  1.00  0.00    -0.014 A 
ATOM     60  C   UNL A   1      40.047  29.628  30.057  1.00  0.00     0.010 A 
ATOM     61  C   UNL A   1      39.523  29.505  27.692  1.00  0.00     0.010 A 
ATOM     62  C   UNL A   1      38.713  29.932  30.339  1.00  0.00     0.020 A 
ATOM     63  C   UNL A   1      38.194  29.839  27.967  1.00  0.00     0.020 A 
ATOM     64  C   UNL A   1      37.793  30.029  29.292  1.00  0.00     0.054 A 
BRANCH  64  65
ATOM     65  S   UNL A   1      36.069  30.432  29.683  1.00  0.00     0.124 S 
ATOM     66  O   UNL A   1      35.917  29.842  31.011  1.00  0.00    -0.237 OA
ATOM     67  O   UNL A   1      36.062  31.892  29.642  1.00  0.00    -0.237 OA
ATOM     68  O   UNL A   1      35.311  29.779  28.620  1.00  0.00    -0.744 OA
ENDBRANCH  64  65
ENDBRANCH  45  59
BRANCH  46  69
ATOM     69  C   UNL A   1      49.703  26.431  26.290  1.00  0.00    -0.014 A 
ATOM     70  C   UNL A   1      50.215  26.740  25.018  1.00  0.00     0.010 A 
ATOM     71  C   UNL A   1      50.510  25.723  27.199  1.00  0.00     0.010 A 
ATOM     72  C   UNL A   1      51.500  26.330  24.651  1.00  0.00     0.020 A 
ATOM     73  C   UNL A   1      51.806  25.333  26.845  1.00  0.00     0.020 A 
ATOM     74  C   UNL A   1      52.288  25.628  25.568  1.00  0.00     0.054 A 
BRANCH  74  75
ATOM     75  S   UNL A   1      53.971  25.145  25.087  1.00  0.00     0.124 S 
ATOM     76  O   UNL A   1      54.764  25.663  26.197  1.00  0.00    -0.237 OA
ATOM     77  O   UNL A   1      53.871  23.690  25.003  1.00  0.00    -0.237 OA
ATOM     78  O   UNL A   1      54.165  25.823  23.806  1.00  0.00    -0.744 OA
ENDBRANCH  74  75
ENDBRANCH  46  69
BRANCH  58  79
ATOM     79  C   UNL A   1      47.015  32.405  28.674  1.00  0.00    -0.014 A 
ATOM     80  C   UNL A   1      47.176  33.430  27.726  1.00  0.00     0.010 A 
ATOM     81  C   UNL A   1      47.397  32.633  30.008  1.00  0.00     0.010 A 
ATOM     82  C   UNL A   1      47.741  34.651  28.100  1.00  0.00     0.020 A 
ATOM     83  C   UNL A   1      47.939  33.861  30.391  1.00  0.00     0.020 A 
ATOM     84  C   UNL A   1      48.122  34.858  29.430  1.00  0.00     0.054 A 
BRANCH  84  85
ATOM     85  S   UNL A   1      48.817  36.465  29.902  1.00  0.00     0.124 S 
ATOM     86  O   UNL A   1      49.234  36.222  31.280  1.00  0.00    -0.237 OA
ATOM     87  O   UNL A   1      49.901  36.643  28.939  1.00  0.00    -0.237 OA
ATOM     88  O   UNL A   1      47.694  37.387  29.744  1.00  0.00    -0.744 OA
ENDBRANCH  84  85
ENDBRANCH  58  79
ENDBRANCH  32  33
ENDBRANCH  24  27
ENDBRANCH  22  23
ENDBRANCH  21  22
ENDBRANCH  20  21
ENDBRANCH   1  20
TORSDOF 20
ENDMDL
