MODEL 1
REMARK VINA RESULT:     -11.5      0.000      0.000
REMARK SMILES O=C(NCCCCNC(=O)c1ccc2nc(C3CCCCC3)[nH]c2c1)c1ccc(-c2c3nc(c(-c4ccc(S(=O)(=O)[O-])cc4)c4ccc([nH]4)c(-c4ccc(S(=O)(=O)[O-])cc4)c4nc(c(-c5ccc(S(=O)(=O)[O-])cc5)c5ccc2[nH]5)C=C4)C=C3)cc1
REMARK SMILES IDX 4 1 3 2 1 3 2 4 26 6 27 7 85 8 28 9 84 10 29 11 30 12 31 13
REMARK SMILES IDX 78 14 32 15 83 16 77 17 79 18 33 19 82 20 76 21 75 22 34 24
REMARK SMILES IDX 64 25 45 26 63 27 46 28 49 29 62 30 80 31 47 32 48 33 61 35
REMARK SMILES IDX 81 36 50 37 35 38 36 39 44 40 37 41 43 42 38 43 39 44 40 45
REMARK SMILES IDX 41 46 42 47 65 48 66 49 74 50 67 51 73 52 68 53 69 54 70 55
REMARK SMILES IDX 71 56 72 57 51 58 52 59 60 60 53 61 59 62 54 63 55 64 56 65
REMARK SMILES IDX 57 66 58 67 5 68 6 69 7 70 8 71 9 72 10 74 11 75 12 76 25 77
REMARK SMILES IDX 13 78 24 79 14 80 23 81 15 82 16 83 17 85 18 86 22 87 19 88
REMARK SMILES IDX 21 89 20 90
REMARK H PARENT 3 5 79 23 49 34 8 73 23 84
REMARK Flexibility Score: inf
ROOT
ATOM      1  C   UNL A   1      33.938  28.225  26.875  1.00  0.00     0.116 C 
ENDROOT
BRANCH   1   2
ATOM      2  N   UNL A   1      33.600  29.591  27.244  1.00  0.00    -0.352 N 
ATOM      3  O   UNL A   1      33.851  31.575  28.284  1.00  0.00    -0.269 OA
ATOM      4  C   UNL A   1      34.351  30.510  27.935  1.00  0.00     0.251 C 
ATOM      5  H   UNL A   1      32.710  29.900  26.958  1.00  0.00     0.163 HD
BRANCH   4   6
ATOM      6  C   UNL A   1      35.756  30.198  28.279  1.00  0.00     0.039 A 
ATOM      7  C   UNL A   1      36.773  30.350  27.333  1.00  0.00     0.014 A 
ATOM      8  C   UNL A   1      36.056  29.756  29.570  1.00  0.00     0.014 A 
ATOM      9  C   UNL A   1      38.069  29.948  27.641  1.00  0.00     0.010 A 
ATOM     10  C   UNL A   1      37.371  29.420  29.899  1.00  0.00     0.010 A 
ATOM     11  C   UNL A   1      38.384  29.496  28.931  1.00  0.00    -0.014 A 
BRANCH  11  12
ATOM     12  C   UNL A   1      39.794  29.194  29.277  1.00  0.00     0.031 A 
ATOM     13  C   UNL A   1      40.678  30.223  29.924  1.00  0.00     0.074 A 
ATOM     14  C   UNL A   1      40.276  27.969  28.988  1.00  0.00     0.049 A 
ATOM     15  N   UNL A   1      41.936  30.121  30.271  1.00  0.00    -0.248 NA
ATOM     16  C   UNL A   1      40.081  31.536  30.215  1.00  0.00     0.031 C 
ATOM     17  C   UNL A   1      39.513  26.894  28.344  1.00  0.00     0.029 A 
ATOM     18  N   UNL A   1      41.514  27.417  29.195  1.00  0.00    -0.354 N 
ATOM     19  C   UNL A   1      42.290  31.357  30.795  1.00  0.00     0.074 A 
ATOM     20  C   UNL A   1      41.116  32.201  30.714  1.00  0.00     0.031 C 
ATOM     21  C   UNL A   1      40.291  25.808  28.231  1.00  0.00     0.029 A 
ATOM     22  C   UNL A   1      41.620  26.125  28.739  1.00  0.00     0.049 A 
ATOM     23  H   UNL A   1      42.254  27.899  29.629  1.00  0.00     0.167 HD
ATOM     24  C   UNL A   1      43.486  31.749  31.297  1.00  0.00     0.031 A 
ATOM     25  C   UNL A   1      42.677  25.293  28.701  1.00  0.00     0.031 A 
ATOM     26  C   UNL A   1      44.644  30.899  31.386  1.00  0.00     0.049 A 
ATOM     27  C   UNL A   1      43.996  25.764  29.240  1.00  0.00     0.074 A 
ATOM     28  C   UNL A   1      45.879  31.184  31.945  1.00  0.00     0.029 A 
ATOM     29  N   UNL A   1      44.719  29.605  30.892  1.00  0.00    -0.354 N 
ATOM     30  N   UNL A   1      44.290  26.916  29.793  1.00  0.00    -0.248 NA
ATOM     31  C   UNL A   1      45.125  24.830  29.141  1.00  0.00     0.031 C 
ATOM     32  C   UNL A   1      46.716  30.082  31.740  1.00  0.00     0.029 A 
ATOM     33  C   UNL A   1      45.989  29.094  31.096  1.00  0.00     0.049 A 
ATOM     34  H   UNL A   1      43.979  29.122  30.459  1.00  0.00     0.167 HD
ATOM     35  C   UNL A   1      45.639  26.844  30.112  1.00  0.00     0.074 A 
ATOM     36  C   UNL A   1      46.097  25.529  29.713  1.00  0.00     0.031 C 
ATOM     37  C   UNL A   1      46.430  27.787  30.681  1.00  0.00     0.031 A 
BRANCH  24  38
ATOM     38  C   UNL A   1      43.623  33.172  31.770  1.00  0.00    -0.014 A 
ATOM     39  C   UNL A   1      43.984  34.203  30.886  1.00  0.00     0.010 A 
ATOM     40  C   UNL A   1      43.307  33.492  33.104  1.00  0.00     0.010 A 
ATOM     41  C   UNL A   1      44.047  35.526  31.333  1.00  0.00     0.020 A 
ATOM     42  C   UNL A   1      43.352  34.815  33.550  1.00  0.00     0.020 A 
ATOM     43  C   UNL A   1      43.733  35.825  32.663  1.00  0.00     0.054 A 
BRANCH  43  44
ATOM     44  S   UNL A   1      43.786  37.555  33.207  1.00  0.00     0.124 S 
ATOM     45  O   UNL A   1      45.061  37.607  33.918  1.00  0.00    -0.237 OA
ATOM     46  O   UNL A   1      43.740  38.291  31.946  1.00  0.00    -0.237 OA
ATOM     47  O   UNL A   1      42.598  37.691  34.048  1.00  0.00    -0.744 OA
ENDBRANCH  43  44
ENDBRANCH  24  38
BRANCH  25  48
ATOM     48  C   UNL A   1      42.530  23.946  28.091  1.00  0.00    -0.014 A 
ATOM     49  C   UNL A   1      42.334  22.810  28.894  1.00  0.00     0.010 A 
ATOM     50  C   UNL A   1      42.558  23.803  26.691  1.00  0.00     0.010 A 
ATOM     51  C   UNL A   1      42.180  21.551  28.306  1.00  0.00     0.020 A 
ATOM     52  C   UNL A   1      42.378  22.550  26.101  1.00  0.00     0.020 A 
ATOM     53  C   UNL A   1      42.203  21.429  26.913  1.00  0.00     0.054 A 
BRANCH  53  54
ATOM     54  S   UNL A   1      41.945  19.796  26.167  1.00  0.00     0.124 S 
ATOM     55  O   UNL A   1      42.858  19.836  25.030  1.00  0.00    -0.237 OA
ATOM     56  O   UNL A   1      42.319  18.888  27.248  1.00  0.00    -0.237 OA
ATOM     57  O   UNL A   1      40.522  19.798  25.832  1.00  0.00    -0.744 OA
ENDBRANCH  53  54
ENDBRANCH  25  48
BRANCH  37  58
ATOM     58  C   UNL A   1      47.872  27.428  30.906  1.00  0.00    -0.014 A 
ATOM     59  C   UNL A   1      48.285  26.845  32.116  1.00  0.00     0.010 A 
ATOM     60  C   UNL A   1      48.811  27.626  29.878  1.00  0.00     0.010 A 
ATOM     61  C   UNL A   1      49.621  26.479  32.302  1.00  0.00     0.020 A 
ATOM     62  C   UNL A   1      50.143  27.243  30.053  1.00  0.00     0.020 A 
ATOM     63  C   UNL A   1      50.541  26.681  31.268  1.00  0.00     0.054 A 
BRANCH  63  64
ATOM     64  S   UNL A   1      52.257  26.148  31.511  1.00  0.00     0.124 S 
ATOM     65  O   UNL A   1      52.818  26.310  30.173  1.00  0.00    -0.237 OA
ATOM     66  O   UNL A   1      52.749  27.086  32.517  1.00  0.00    -0.237 OA
ATOM     67  O   UNL A   1      52.127  24.766  31.969  1.00  0.00    -0.744 OA
ENDBRANCH  63  64
ENDBRANCH  37  58
ENDBRANCH  11  12
ENDBRANCH   4   6
ENDBRANCH   1   2
BRANCH   1  68
ATOM     68  C   UNL A   1      33.778  27.960  25.384  1.00  0.00     0.023 C 
BRANCH  68  69
ATOM     69  C   UNL A   1      33.249  29.136  24.564  1.00  0.00     0.023 C 
BRANCH  69  70
ATOM     70  C   UNL A   1      33.189  28.902  23.057  1.00  0.00     0.116 C 
BRANCH  70  71
ATOM     71  N   UNL A   1      31.881  29.206  22.498  1.00  0.00    -0.352 N 
ATOM     72  C   UNL A   1      30.789  28.385  22.383  1.00  0.00     0.251 C 
ATOM     73  H   UNL A   1      31.765  30.123  22.157  1.00  0.00     0.163 HD
ATOM     74  O   UNL A   1      29.788  28.740  21.768  1.00  0.00    -0.269 OA
BRANCH  72  75
ATOM     75  C   UNL A   1      30.842  27.038  22.978  1.00  0.00     0.042 A 
ATOM     76  C   UNL A   1      30.249  26.794  24.225  1.00  0.00     0.016 A 
ATOM     77  C   UNL A   1      31.522  26.040  22.269  1.00  0.00     0.042 A 
ATOM     78  C   UNL A   1      30.384  25.542  24.838  1.00  0.00     0.031 A 
ATOM     79  C   UNL A   1      31.637  24.808  22.911  1.00  0.00     0.066 A 
ATOM     80  C   UNL A   1      31.104  24.542  24.167  1.00  0.00     0.089 A 
ATOM     81  N   UNL A   1      32.239  23.636  22.544  1.00  0.00    -0.342 N 
ATOM     82  N   UNL A   1      31.392  23.259  24.557  1.00  0.00    -0.233 NA
ATOM     83  C   UNL A   1      32.076  22.728  23.564  1.00  0.00     0.110 A 
ATOM     84  H   UNL A   1      32.709  23.469  21.695  1.00  0.00     0.168 HD
BRANCH  83  85
ATOM     85  C   UNL A   1      32.583  21.321  23.494  1.00  0.00     0.055 C 
ATOM     86  C   UNL A   1      32.356  20.602  24.832  1.00  0.00     0.011 C 
ATOM     87  C   UNL A   1      31.961  20.544  22.324  1.00  0.00     0.011 C 
ATOM     88  C   UNL A   1      32.833  19.154  24.783  1.00  0.00     0.001 C 
ATOM     89  C   UNL A   1      32.438  19.094  22.293  1.00  0.00     0.001 C 
ATOM     90  C   UNL A   1      32.193  18.393  23.626  1.00  0.00     0.000 C 
ENDBRANCH  83  85
ENDBRANCH  72  75
ENDBRANCH  70  71
ENDBRANCH  69  70
ENDBRANCH  68  69
ENDBRANCH   1  68
TORSDOF 15
ENDMDL
MODEL 2
REMARK VINA RESULT:     -11.5      1.216      2.059
REMARK SMILES O=C(NCCCCNC(=O)c1ccc2nc(C3CCCCC3)[nH]c2c1)c1ccc(-c2c3nc(c(-c4ccc(S(=O)(=O)[O-])cc4)c4ccc([nH]4)c(-c4ccc(S(=O)(=O)[O-])cc4)c4nc(c(-c5ccc(S(=O)(=O)[O-])cc5)c5ccc2[nH]5)C=C4)C=C3)cc1
REMARK SMILES IDX 4 1 3 2 1 3 2 4 26 6 27 7 85 8 28 9 84 10 29 11 30 12 31 13
REMARK SMILES IDX 78 14 32 15 83 16 77 17 79 18 33 19 82 20 76 21 75 22 34 24
REMARK SMILES IDX 64 25 45 26 63 27 46 28 49 29 62 30 80 31 47 32 48 33 61 35
REMARK SMILES IDX 81 36 50 37 35 38 36 39 44 40 37 41 43 42 38 43 39 44 40 45
REMARK SMILES IDX 41 46 42 47 65 48 66 49 74 50 67 51 73 52 68 53 69 54 70 55
REMARK SMILES IDX 71 56 72 57 51 58 52 59 60 60 53 61 59 62 54 63 55 64 56 65
REMARK SMILES IDX 57 66 58 67 5 68 6 69 7 70 8 71 9 72 10 74 11 75 12 76 25 77
REMARK SMILES IDX 13 78 24 79 14 80 23 81 15 82 16 83 17 85 18 86 22 87 19 88
REMARK SMILES IDX 21 89 20 90
REMARK H PARENT 3 5 79 23 49 34 8 73 23 84
REMARK Flexibility Score: inf
ROOT
ATOM      1  C   UNL A   1      33.754  28.068  26.761  1.00  0.00     0.116 C 
ENDROOT
BRANCH   1   2
ATOM      2  N   UNL A   1      33.432  29.457  27.051  1.00  0.00    -0.352 N 
ATOM      3  O   UNL A   1      33.702  31.491  27.982  1.00  0.00    -0.269 OA
ATOM      4  C   UNL A   1      34.190  30.402  27.698  1.00  0.00     0.251 C 
ATOM      5  H   UNL A   1      32.549  29.762  26.740  1.00  0.00     0.163 HD
BRANCH   4   6
ATOM      6  C   UNL A   1      35.587  30.090  28.073  1.00  0.00     0.039 A 
ATOM      7  C   UNL A   1      36.620  30.211  27.140  1.00  0.00     0.014 A 
ATOM      8  C   UNL A   1      35.863  29.679  29.380  1.00  0.00     0.014 A 
ATOM      9  C   UNL A   1      37.908  29.809  27.480  1.00  0.00     0.010 A 
ATOM     10  C   UNL A   1      37.170  29.343  29.739  1.00  0.00     0.010 A 
ATOM     11  C   UNL A   1      38.200  29.387  28.786  1.00  0.00    -0.014 A 
BRANCH  11  12
ATOM     12  C   UNL A   1      39.602  29.086  29.163  1.00  0.00     0.031 A 
ATOM     13  C   UNL A   1      40.466  30.109  29.845  1.00  0.00     0.074 A 
ATOM     14  C   UNL A   1      40.094  27.866  28.870  1.00  0.00     0.049 A 
ATOM     15  N   UNL A   1      41.715  30.006  30.221  1.00  0.00    -0.248 NA
ATOM     16  C   UNL A   1      39.857  31.417  30.137  1.00  0.00     0.031 C 
ATOM     17  C   UNL A   1      39.351  26.797  28.194  1.00  0.00     0.029 A 
ATOM     18  N   UNL A   1      41.328  27.315  29.101  1.00  0.00    -0.354 N 
ATOM     19  C   UNL A   1      42.052  31.237  30.770  1.00  0.00     0.074 A 
ATOM     20  C   UNL A   1      40.878  32.078  30.671  1.00  0.00     0.031 C 
ATOM     21  C   UNL A   1      40.136  25.715  28.087  1.00  0.00     0.029 A 
ATOM     22  C   UNL A   1      41.451  26.029  28.631  1.00  0.00     0.049 A 
ATOM     23  H   UNL A   1      42.056  27.794  29.559  1.00  0.00     0.167 HD
ATOM     24  C   UNL A   1      43.234  31.626  31.306  1.00  0.00     0.031 A 
ATOM     25  C   UNL A   1      42.511  25.201  28.609  1.00  0.00     0.031 A 
ATOM     26  C   UNL A   1      44.392  30.778  31.413  1.00  0.00     0.049 A 
ATOM     27  C   UNL A   1      43.814  25.669  29.186  1.00  0.00     0.074 A 
ATOM     28  C   UNL A   1      45.612  31.060  32.006  1.00  0.00     0.029 A 
ATOM     29  N   UNL A   1      44.483  29.491  30.904  1.00  0.00    -0.354 N 
ATOM     30  N   UNL A   1      44.091  26.815  29.761  1.00  0.00    -0.248 NA
ATOM     31  C   UNL A   1      44.949  24.741  29.103  1.00  0.00     0.031 C 
ATOM     32  C   UNL A   1      46.458  29.964  31.808  1.00  0.00     0.029 A 
ATOM     33  C   UNL A   1      45.750  28.982  31.133  1.00  0.00     0.049 A 
ATOM     34  H   UNL A   1      43.756  29.012  30.447  1.00  0.00     0.167 HD
ATOM     35  C   UNL A   1      45.432  26.744  30.112  1.00  0.00     0.074 A 
ATOM     36  C   UNL A   1      45.904  25.435  29.708  1.00  0.00     0.031 C 
ATOM     37  C   UNL A   1      46.205  27.682  30.712  1.00  0.00     0.031 A 
BRANCH  24  38
ATOM     38  C   UNL A   1      43.354  33.043  31.801  1.00  0.00    -0.014 A 
ATOM     39  C   UNL A   1      43.070  33.377  33.136  1.00  0.00     0.010 A 
ATOM     40  C   UNL A   1      43.838  34.040  30.933  1.00  0.00     0.010 A 
ATOM     41  C   UNL A   1      43.245  34.688  33.589  1.00  0.00     0.020 A 
ATOM     42  C   UNL A   1      44.031  35.348  31.387  1.00  0.00     0.020 A 
ATOM     43  C   UNL A   1      43.722  35.667  32.711  1.00  0.00     0.054 A 
BRANCH  43  44
ATOM     44  S   UNL A   1      43.978  37.351  33.335  1.00  0.00     0.124 S 
ATOM     45  O   UNL A   1      42.812  37.532  34.197  1.00  0.00    -0.237 OA
ATOM     46  O   UNL A   1      45.259  37.247  34.028  1.00  0.00    -0.237 OA
ATOM     47  O   UNL A   1      43.992  38.172  32.126  1.00  0.00    -0.744 OA
ENDBRANCH  43  44
ENDBRANCH  24  38
BRANCH  25  48
ATOM     48  C   UNL A   1      42.384  23.862  27.977  1.00  0.00    -0.014 A 
ATOM     49  C   UNL A   1      42.661  23.682  26.612  1.00  0.00     0.010 A 
ATOM     50  C   UNL A   1      42.010  22.751  28.756  1.00  0.00     0.010 A 
ATOM     51  C   UNL A   1      42.555  22.414  26.033  1.00  0.00     0.020 A 
ATOM     52  C   UNL A   1      41.927  21.479  28.186  1.00  0.00     0.020 A 
ATOM     53  C   UNL A   1      42.188  21.320  26.825  1.00  0.00     0.054 A 
BRANCH  53  54
ATOM     54  S   UNL A   1      42.110  19.673  26.069  1.00  0.00     0.124 S 
ATOM     55  O   UNL A   1      43.036  19.810  24.950  1.00  0.00    -0.237 OA
ATOM     56  O   UNL A   1      42.553  18.801  27.154  1.00  0.00    -0.237 OA
ATOM     57  O   UNL A   1      40.701  19.534  25.706  1.00  0.00    -0.744 OA
ENDBRANCH  53  54
ENDBRANCH  25  48
BRANCH  37  58
ATOM     58  C   UNL A   1      47.642  27.324  30.968  1.00  0.00    -0.014 A 
ATOM     59  C   UNL A   1      48.630  27.591  30.005  1.00  0.00     0.010 A 
ATOM     60  C   UNL A   1      48.015  26.768  32.204  1.00  0.00     0.010 A 
ATOM     61  C   UNL A   1      49.969  27.291  30.267  1.00  0.00     0.020 A 
ATOM     62  C   UNL A   1      49.356  26.485  32.477  1.00  0.00     0.020 A 
ATOM     63  C   UNL A   1      50.323  26.739  31.502  1.00  0.00     0.054 A 
BRANCH  63  64
ATOM     64  S   UNL A   1      52.074  26.410  31.842  1.00  0.00     0.124 S 
ATOM     65  O   UNL A   1      52.735  27.134  30.760  1.00  0.00    -0.237 OA
ATOM     66  O   UNL A   1      52.256  26.972  33.178  1.00  0.00    -0.237 OA
ATOM     67  O   UNL A   1      52.171  24.953  31.768  1.00  0.00    -0.744 OA
ENDBRANCH  63  64
ENDBRANCH  37  58
ENDBRANCH  11  12
ENDBRANCH   4   6
ENDBRANCH   1   2
BRANCH   1  68
ATOM     68  C   UNL A   1      33.314  27.639  25.367  1.00  0.00     0.023 C 
BRANCH  68  69
ATOM     69  C   UNL A   1      31.807  27.481  25.178  1.00  0.00     0.023 C 
BRANCH  69  70
ATOM     70  C   UNL A   1      31.387  26.387  24.200  1.00  0.00     0.116 C 
BRANCH  70  71
ATOM     71  N   UNL A   1      32.066  26.495  22.918  1.00  0.00    -0.352 N 
ATOM     72  C   UNL A   1      32.989  25.644  22.365  1.00  0.00     0.251 C 
ATOM     73  H   UNL A   1      31.831  27.283  22.375  1.00  0.00     0.163 HD
ATOM     74  O   UNL A   1      33.578  25.931  21.329  1.00  0.00    -0.269 OA
BRANCH  72  75
ATOM     75  C   UNL A   1      33.302  24.382  23.060  1.00  0.00     0.042 A 
ATOM     76  C   UNL A   1      34.360  24.327  23.978  1.00  0.00     0.016 A 
ATOM     77  C   UNL A   1      32.528  23.258  22.747  1.00  0.00     0.042 A 
ATOM     78  C   UNL A   1      34.723  23.109  24.564  1.00  0.00     0.031 A 
ATOM     79  C   UNL A   1      32.920  22.064  23.349  1.00  0.00     0.066 A 
ATOM     80  C   UNL A   1      33.992  21.960  24.227  1.00  0.00     0.089 A 
ATOM     81  N   UNL A   1      32.429  20.789  23.263  1.00  0.00    -0.342 N 
ATOM     82  N   UNL A   1      34.159  20.663  24.642  1.00  0.00    -0.233 NA
ATOM     83  C   UNL A   1      33.206  19.972  24.050  1.00  0.00     0.110 A 
ATOM     84  H   UNL A   1      31.653  20.505  22.728  1.00  0.00     0.168 HD
BRANCH  83  85
ATOM     85  C   UNL A   1      32.939  18.509  24.222  1.00  0.00     0.055 C 
ATOM     86  C   UNL A   1      34.084  17.681  23.620  1.00  0.00     0.011 C 
ATOM     87  C   UNL A   1      32.687  18.139  25.691  1.00  0.00     0.011 C 
ATOM     88  C   UNL A   1      33.857  16.184  23.806  1.00  0.00     0.001 C 
ATOM     89  C   UNL A   1      32.473  16.637  25.866  1.00  0.00     0.001 C 
ATOM     90  C   UNL A   1      33.626  15.833  25.273  1.00  0.00     0.000 C 
ENDBRANCH  83  85
ENDBRANCH  72  75
ENDBRANCH  70  71
ENDBRANCH  69  70
ENDBRANCH  68  69
ENDBRANCH   1  68
TORSDOF 15
ENDMDL
MODEL 3
REMARK VINA RESULT:     -11.4      0.670      8.271
REMARK SMILES O=C(NCCCCNC(=O)c1ccc2nc(C3CCCCC3)[nH]c2c1)c1ccc(-c2c3nc(c(-c4ccc(S(=O)(=O)[O-])cc4)c4ccc([nH]4)c(-c4ccc(S(=O)(=O)[O-])cc4)c4nc(c(-c5ccc(S(=O)(=O)[O-])cc5)c5ccc2[nH]5)C=C4)C=C3)cc1
REMARK SMILES IDX 4 1 3 2 1 3 2 4 26 6 27 7 85 8 28 9 84 10 29 11 30 12 31 13
REMARK SMILES IDX 78 14 32 15 83 16 77 17 79 18 33 19 82 20 76 21 75 22 34 24
REMARK SMILES IDX 64 25 45 26 63 27 46 28 49 29 62 30 80 31 47 32 48 33 61 35
REMARK SMILES IDX 81 36 50 37 35 38 36 39 44 40 37 41 43 42 38 43 39 44 40 45
REMARK SMILES IDX 41 46 42 47 65 48 66 49 74 50 67 51 73 52 68 53 69 54 70 55
REMARK SMILES IDX 71 56 72 57 51 58 52 59 60 60 53 61 59 62 54 63 55 64 56 65
REMARK SMILES IDX 57 66 58 67 5 68 6 69 7 70 8 71 9 72 10 74 11 75 12 76 25 77
REMARK SMILES IDX 13 78 24 79 14 80 23 81 15 82 16 83 17 85 18 86 22 87 19 88
REMARK SMILES IDX 21 89 20 90
REMARK H PARENT 3 5 79 23 49 34 8 73 23 84
REMARK Flexibility Score: inf
ROOT
ATOM      1  C   UNL A   1      33.849  28.145  26.896  1.00  0.00     0.116 C 
ENDROOT
BRANCH   1   2
ATOM      2  N   UNL A   1      33.555  29.526  27.243  1.00  0.00    -0.352 N 
ATOM      3  O   UNL A   1      33.883  31.524  28.233  1.00  0.00    -0.269 OA
ATOM      4  C   UNL A   1      34.347  30.439  27.896  1.00  0.00     0.251 C 
ATOM      5  H   UNL A   1      32.666  29.852  26.972  1.00  0.00     0.163 HD
BRANCH   4   6
ATOM      6  C   UNL A   1      35.751  30.098  28.212  1.00  0.00     0.039 A 
ATOM      7  C   UNL A   1      36.758  30.260  27.256  1.00  0.00     0.014 A 
ATOM      8  C   UNL A   1      36.062  29.618  29.487  1.00  0.00     0.014 A 
ATOM      9  C   UNL A   1      38.051  29.831  27.536  1.00  0.00     0.010 A 
ATOM     10  C   UNL A   1      37.376  29.254  29.789  1.00  0.00     0.010 A 
ATOM     11  C   UNL A   1      38.377  29.340  28.809  1.00  0.00    -0.014 A 
BRANCH  11  12
ATOM     12  C   UNL A   1      39.787  29.009  29.128  1.00  0.00     0.031 A 
ATOM     13  C   UNL A   1      40.387  27.687  28.740  1.00  0.00     0.074 A 
ATOM     14  C   UNL A   1      40.525  29.923  29.789  1.00  0.00     0.049 A 
ATOM     15  N   UNL A   1      41.597  27.240  28.962  1.00  0.00    -0.248 NA
ATOM     16  C   UNL A   1      39.522  26.742  28.016  1.00  0.00     0.031 C 
ATOM     17  C   UNL A   1      40.042  31.236  30.231  1.00  0.00     0.029 A 
ATOM     18  N   UNL A   1      41.832  29.896  30.203  1.00  0.00    -0.354 N 
ATOM     19  C   UNL A   1      41.634  25.957  28.432  1.00  0.00     0.074 A 
ATOM     20  C   UNL A   1      40.321  25.690  27.883  1.00  0.00     0.031 C 
ATOM     21  C   UNL A   1      41.043  31.894  30.832  1.00  0.00     0.029 A 
ATOM     22  C   UNL A   1      42.219  31.033  30.870  1.00  0.00     0.049 A 
ATOM     23  H   UNL A   1      42.434  29.135  30.038  1.00  0.00     0.167 HD
ATOM     24  C   UNL A   1      42.670  25.084  28.408  1.00  0.00     0.031 A 
ATOM     25  C   UNL A   1      43.380  31.342  31.476  1.00  0.00     0.031 A 
ATOM     26  C   UNL A   1      43.976  25.363  28.946  1.00  0.00     0.049 A 
ATOM     27  C   UNL A   1      44.500  30.344  31.457  1.00  0.00     0.074 A 
ATOM     28  C   UNL A   1      45.110  24.569  28.904  1.00  0.00     0.029 A 
ATOM     29  N   UNL A   1      44.321  26.516  29.634  1.00  0.00    -0.354 N 
ATOM     30  N   UNL A   1      44.535  29.162  30.890  1.00  0.00    -0.248 NA
ATOM     31  C   UNL A   1      45.732  30.716  32.164  1.00  0.00     0.031 C 
ATOM     32  C   UNL A   1      46.125  25.219  29.615  1.00  0.00     0.029 A 
ATOM     33  C   UNL A   1      45.636  26.437  30.058  1.00  0.00     0.049 A 
ATOM     34  H   UNL A   1      43.719  27.277  29.799  1.00  0.00     0.167 HD
ATOM     35  C   UNL A   1      45.794  28.649  31.170  1.00  0.00     0.074 A 
ATOM     36  C   UNL A   1      46.499  29.658  31.934  1.00  0.00     0.031 C 
ATOM     37  C   UNL A   1      46.317  27.446  30.828  1.00  0.00     0.031 A 
BRANCH  24  38
ATOM     38  C   UNL A   1      42.436  23.725  27.804  1.00  0.00    -0.014 A 
ATOM     39  C   UNL A   1      42.680  23.480  26.442  1.00  0.00     0.010 A 
ATOM     40  C   UNL A   1      42.044  22.657  28.632  1.00  0.00     0.010 A 
ATOM     41  C   UNL A   1      42.513  22.196  25.914  1.00  0.00     0.020 A 
ATOM     42  C   UNL A   1      41.893  21.369  28.112  1.00  0.00     0.020 A 
ATOM     43  C   UNL A   1      42.118  21.148  26.752  1.00  0.00     0.054 A 
BRANCH  43  44
ATOM     44  S   UNL A   1      41.947  19.484  26.049  1.00  0.00     0.124 S 
ATOM     45  O   UNL A   1      40.506  19.402  25.820  1.00  0.00    -0.237 OA
ATOM     46  O   UNL A   1      42.770  19.557  24.845  1.00  0.00    -0.237 OA
ATOM     47  O   UNL A   1      42.462  18.608  27.100  1.00  0.00    -0.744 OA
ENDBRANCH  43  44
ENDBRANCH  24  38
BRANCH  25  48
ATOM     48  C   UNL A   1      43.515  32.640  32.187  1.00  0.00    -0.014 A 
ATOM     49  C   UNL A   1      43.918  33.797  31.500  1.00  0.00     0.010 A 
ATOM     50  C   UNL A   1      43.210  32.725  33.558  1.00  0.00     0.010 A 
ATOM     51  C   UNL A   1      44.024  35.016  32.177  1.00  0.00     0.020 A 
ATOM     52  C   UNL A   1      43.290  33.946  34.230  1.00  0.00     0.020 A 
ATOM     53  C   UNL A   1      43.709  35.082  33.538  1.00  0.00     0.054 A 
BRANCH  53  54
ATOM     54  S   UNL A   1      43.799  36.683  34.385  1.00  0.00     0.124 S 
ATOM     55  O   UNL A   1      42.391  37.049  34.491  1.00  0.00    -0.237 OA
ATOM     56  O   UNL A   1      44.461  36.343  35.642  1.00  0.00    -0.237 OA
ATOM     57  O   UNL A   1      44.595  37.504  33.475  1.00  0.00    -0.744 OA
ENDBRANCH  53  54
ENDBRANCH  25  48
BRANCH  37  58
ATOM     58  C   UNL A   1      47.722  27.157  31.278  1.00  0.00    -0.014 A 
ATOM     59  C   UNL A   1      47.963  26.491  32.492  1.00  0.00     0.010 A 
ATOM     60  C   UNL A   1      48.806  27.505  30.454  1.00  0.00     0.010 A 
ATOM     61  C   UNL A   1      49.270  26.192  32.884  1.00  0.00     0.020 A 
ATOM     62  C   UNL A   1      50.113  27.190  30.833  1.00  0.00     0.020 A 
ATOM     63  C   UNL A   1      50.338  26.544  32.051  1.00  0.00     0.054 A 
BRANCH  63  64
ATOM     64  S   UNL A   1      52.021  26.095  32.554  1.00  0.00     0.124 S 
ATOM     65  O   UNL A   1      51.928  26.147  34.009  1.00  0.00    -0.237 OA
ATOM     66  O   UNL A   1      52.185  24.761  31.981  1.00  0.00    -0.237 OA
ATOM     67  O   UNL A   1      52.851  27.133  31.944  1.00  0.00    -0.744 OA
ENDBRANCH  63  64
ENDBRANCH  37  58
ENDBRANCH  11  12
ENDBRANCH   4   6
ENDBRANCH   1   2
BRANCH   1  68
ATOM     68  C   UNL A   1      33.707  27.868  25.404  1.00  0.00     0.023 C 
BRANCH  68  69
ATOM     69  C   UNL A   1      33.349  29.080  24.547  1.00  0.00     0.023 C 
BRANCH  69  70
ATOM     70  C   UNL A   1      33.345  28.832  23.041  1.00  0.00     0.116 C 
BRANCH  70  71
ATOM     71  N   UNL A   1      32.086  29.206  22.417  1.00  0.00    -0.352 N 
ATOM     72  C   UNL A   1      30.899  28.520  22.406  1.00  0.00     0.251 C 
ATOM     73  H   UNL A   1      32.086  30.068  21.940  1.00  0.00     0.163 HD
ATOM     74  O   UNL A   1      29.952  28.898  21.725  1.00  0.00    -0.269 OA
BRANCH  72  75
ATOM     75  C   UNL A   1      30.784  27.282  23.199  1.00  0.00     0.042 A 
ATOM     76  C   UNL A   1      30.169  27.307  24.458  1.00  0.00     0.016 A 
ATOM     77  C   UNL A   1      31.329  26.111  22.659  1.00  0.00     0.042 A 
ATOM     78  C   UNL A   1      30.146  26.155  25.255  1.00  0.00     0.031 A 
ATOM     79  C   UNL A   1      31.288  24.986  23.480  1.00  0.00     0.066 A 
ATOM     80  C   UNL A   1      30.730  24.982  24.753  1.00  0.00     0.089 A 
ATOM     81  N   UNL A   1      31.735  23.705  23.304  1.00  0.00    -0.342 N 
ATOM     82  N   UNL A   1      30.854  23.747  25.337  1.00  0.00    -0.233 NA
ATOM     83  C   UNL A   1      31.462  22.990  24.446  1.00  0.00     0.110 A 
ATOM     84  H   UNL A   1      32.177  23.354  22.497  1.00  0.00     0.168 HD
BRANCH  83  85
ATOM     85  C   UNL A   1      31.786  21.536  24.597  1.00  0.00     0.055 C 
ATOM     86  C   UNL A   1      32.186  20.932  23.243  1.00  0.00     0.011 C 
ATOM     87  C   UNL A   1      32.865  21.294  25.664  1.00  0.00     0.011 C 
ATOM     88  C   UNL A   1      32.552  19.457  23.368  1.00  0.00     0.001 C 
ATOM     89  C   UNL A   1      33.230  19.816  25.771  1.00  0.00     0.001 C 
ATOM     90  C   UNL A   1      33.637  19.238  24.419  1.00  0.00     0.000 C 
ENDBRANCH  83  85
ENDBRANCH  72  75
ENDBRANCH  70  71
ENDBRANCH  69  70
ENDBRANCH  68  69
ENDBRANCH   1  68
TORSDOF 15
ENDMDL
