MODEL 1
REMARK VINA RESULT:      -9.4      0.000      0.000
REMARK SMILES C[C@@](O)(c1ccc(Cl)cc1Cl)[C@@H](F)C(=O)NCCCCNC(=O)c1ccc(-c2c3nc(c(-c4ccc(S(=O)(=O)[O-])cc4)c4ccc([nH]4)c(-c4ccc(S(=O)(=O)[O-])cc4)c4nc(c(-c5ccc(S(=O)(=O)[O-])cc5)c5ccc2[nH]5)C=C4)C=C3)cc1
REMARK SMILES IDX 19 1 18 2 17 3 16 4 14 5 15 6 12 8 13 9 2 10 1 11 3 12 4 14
REMARK SMILES IDX 5 15 10 16 6 17 9 18 11 19 7 20 8 21 20 22 21 23 22 24 23 26
REMARK SMILES IDX 24 27 25 28 83 29 26 30 82 31 27 32 28 33 29 34 76 35 30 36
REMARK SMILES IDX 81 37 75 38 77 39 31 40 80 41 74 42 73 43 32 45 62 46 43 47
REMARK SMILES IDX 61 48 44 49 47 50 60 51 78 52 45 53 46 54 59 56 79 57 48 58
REMARK SMILES IDX 33 59 34 60 42 61 35 62 41 63 36 64 37 65 38 66 39 67 40 68
REMARK SMILES IDX 63 69 64 70 72 71 65 72 71 73 66 74 67 75 68 76 69 77 70 78
REMARK SMILES IDX 49 79 50 80 58 81 51 82 57 83 52 84 53 85 54 86 55 87 56 88
REMARK H PARENT 16 7 3 13 21 25 77 44 47 55
REMARK Flexibility Score: inf
ROOT
ATOM      1  C   UNL A   1      41.630  21.893  27.904  1.00  0.00     0.023 C 
ENDROOT
BRANCH   1   2
ATOM      2  C   UNL A   1      42.743  22.651  28.617  1.00  0.00     0.023 C 
BRANCH   2   3
ATOM      3  C   UNL A   1      43.753  23.325  27.688  1.00  0.00     0.116 C 
BRANCH   3   4
ATOM      4  N   UNL A   1      44.730  22.373  27.192  1.00  0.00    -0.353 N 
ATOM      5  C   UNL A   1      45.460  22.383  26.039  1.00  0.00     0.257 C 
ATOM      6  O   UNL A   1      46.068  21.349  25.739  1.00  0.00    -0.272 OA
ATOM      7  H   UNL A   1      44.891  21.598  27.777  1.00  0.00     0.163 HD
BRANCH   5   8
ATOM      8  C   UNL A   1      45.484  23.580  25.089  1.00  0.00     0.291 C 
ATOM      9  F   UNL A   1      45.727  23.247  23.787  1.00  0.00    -0.233 F 
BRANCH   8  10
ATOM     10  C   UNL A   1      46.498  24.666  25.557  1.00  0.00     0.128 C 
ATOM     11  C   UNL A   1      47.582  24.898  24.490  1.00  0.00     0.051 C 
BRANCH  10  12
ATOM     12  O   UNL A   1      47.228  24.259  26.728  1.00  0.00    -0.382 OA
ATOM     13  H   UNL A   1      47.272  23.291  26.761  1.00  0.00     0.212 HD
ENDBRANCH  10  12
BRANCH  10  14
ATOM     14  C   UNL A   1      45.756  25.969  25.932  1.00  0.00     0.005 A 
ATOM     15  C   UNL A   1      44.424  26.187  25.506  1.00  0.00     0.010 A 
ATOM     16  C   UNL A   1      46.349  26.993  26.707  1.00  0.00     0.048 A 
ATOM     17  C   UNL A   1      43.734  27.365  25.805  1.00  0.00     0.021 A 
ATOM     18  C   UNL A   1      45.649  28.170  27.013  1.00  0.00     0.041 A 
ATOM     19  Cl  UNL A   1      47.958  26.902  27.340  1.00  0.00    -0.084 Cl
ATOM     20  C   UNL A   1      44.352  28.354  26.555  1.00  0.00     0.042 A 
ATOM     21  Cl  UNL A   1      43.510  29.810  26.914  1.00  0.00    -0.084 Cl
ENDBRANCH  10  14
ENDBRANCH   8  10
ENDBRANCH   5   8
ENDBRANCH   3   4
ENDBRANCH   2   3
ENDBRANCH   1   2
BRANCH   1  22
ATOM     22  C   UNL A   1      41.518  22.194  26.419  1.00  0.00     0.116 C 
BRANCH  22  23
ATOM     23  N   UNL A   1      40.157  22.063  25.914  1.00  0.00    -0.352 N 
ATOM     24  C   UNL A   1      39.096  22.920  26.081  1.00  0.00     0.251 C 
ATOM     25  H   UNL A   1      39.975  21.255  25.381  1.00  0.00     0.163 HD
ATOM     26  O   UNL A   1      37.971  22.599  25.711  1.00  0.00    -0.269 OA
BRANCH  24  27
ATOM     27  C   UNL A   1      39.333  24.216  26.743  1.00  0.00     0.039 A 
ATOM     28  C   UNL A   1      38.903  24.402  28.058  1.00  0.00     0.014 A 
ATOM     29  C   UNL A   1      40.051  25.214  26.078  1.00  0.00     0.014 A 
ATOM     30  C   UNL A   1      39.259  25.568  28.733  1.00  0.00     0.010 A 
ATOM     31  C   UNL A   1      40.484  26.328  26.782  1.00  0.00     0.010 A 
ATOM     32  C   UNL A   1      40.085  26.520  28.113  1.00  0.00    -0.014 A 
BRANCH  32  33
ATOM     33  C   UNL A   1      40.531  27.743  28.824  1.00  0.00     0.031 A 
ATOM     34  C   UNL A   1      41.896  27.776  29.456  1.00  0.00     0.074 A 
ATOM     35  C   UNL A   1      39.686  28.781  28.970  1.00  0.00     0.049 A 
ATOM     36  N   UNL A   1      42.438  28.703  30.200  1.00  0.00    -0.248 NA
ATOM     37  C   UNL A   1      42.748  26.589  29.259  1.00  0.00     0.031 C 
ATOM     38  C   UNL A   1      38.316  28.844  28.453  1.00  0.00     0.029 A 
ATOM     39  N   UNL A   1      39.853  29.984  29.609  1.00  0.00    -0.354 N 
ATOM     40  C   UNL A   1      43.677  28.200  30.582  1.00  0.00     0.074 A 
ATOM     41  C   UNL A   1      43.782  26.866  30.037  1.00  0.00     0.031 C 
ATOM     42  C   UNL A   1      37.779  30.034  28.769  1.00  0.00     0.029 A 
ATOM     43  C   UNL A   1      38.750  30.803  29.541  1.00  0.00     0.049 A 
ATOM     44  H   UNL A   1      40.684  30.237  30.071  1.00  0.00     0.167 HD
ATOM     45  C   UNL A   1      44.653  28.806  31.299  1.00  0.00     0.031 A 
ATOM     46  C   UNL A   1      38.546  32.035  30.045  1.00  0.00     0.031 A 
ATOM     47  C   UNL A   1      44.556  30.146  31.809  1.00  0.00     0.049 A 
ATOM     48  C   UNL A   1      39.656  32.704  30.807  1.00  0.00     0.074 A 
ATOM     49  C   UNL A   1      45.509  30.878  32.494  1.00  0.00     0.029 A 
ATOM     50  N   UNL A   1      43.439  30.958  31.680  1.00  0.00    -0.354 N 
ATOM     51  N   UNL A   1      40.846  32.236  31.106  1.00  0.00    -0.248 NA
ATOM     52  C   UNL A   1      39.405  34.070  31.285  1.00  0.00     0.031 C 
ATOM     53  C   UNL A   1      44.955  32.124  32.810  1.00  0.00     0.029 A 
ATOM     54  C   UNL A   1      43.675  32.182  32.281  1.00  0.00     0.049 A 
ATOM     55  H   UNL A   1      42.603  30.701  31.229  1.00  0.00     0.167 HD
ATOM     56  C   UNL A   1      41.492  33.260  31.789  1.00  0.00     0.074 A 
ATOM     57  C   UNL A   1      40.567  34.375  31.845  1.00  0.00     0.031 C 
ATOM     58  C   UNL A   1      42.739  33.276  32.322  1.00  0.00     0.031 A 
BRANCH  45  59
ATOM     59  C   UNL A   1      45.907  28.016  31.559  1.00  0.00    -0.014 A 
ATOM     60  C   UNL A   1      47.001  28.083  30.675  1.00  0.00     0.010 A 
ATOM     61  C   UNL A   1      45.999  27.200  32.700  1.00  0.00     0.010 A 
ATOM     62  C   UNL A   1      48.141  27.308  30.899  1.00  0.00     0.020 A 
ATOM     63  C   UNL A   1      47.149  26.444  32.944  1.00  0.00     0.020 A 
ATOM     64  C   UNL A   1      48.205  26.486  32.029  1.00  0.00     0.054 A 
BRANCH  64  65
ATOM     65  S   UNL A   1      49.697  25.493  32.299  1.00  0.00     0.124 S 
ATOM     66  O   UNL A   1      50.627  26.489  32.826  1.00  0.00    -0.237 OA
ATOM     67  O   UNL A   1      49.246  24.487  33.259  1.00  0.00    -0.237 OA
ATOM     68  O   UNL A   1      50.018  24.981  30.969  1.00  0.00    -0.744 OA
ENDBRANCH  64  65
ENDBRANCH  45  59
BRANCH  46  69
ATOM     69  C   UNL A   1      37.248  32.725  29.813  1.00  0.00    -0.014 A 
ATOM     70  C   UNL A   1      36.190  32.574  30.727  1.00  0.00     0.010 A 
ATOM     71  C   UNL A   1      37.072  33.559  28.694  1.00  0.00     0.010 A 
ATOM     72  C   UNL A   1      34.975  33.233  30.520  1.00  0.00     0.020 A 
ATOM     73  C   UNL A   1      35.865  34.238  28.495  1.00  0.00     0.020 A 
ATOM     74  C   UNL A   1      34.821  34.062  29.405  1.00  0.00     0.054 A 
BRANCH  74  75
ATOM     75  S   UNL A   1      33.257  34.957  29.190  1.00  0.00     0.124 S 
ATOM     76  O   UNL A   1      32.715  34.952  30.545  1.00  0.00    -0.237 OA
ATOM     77  O   UNL A   1      33.700  36.255  28.688  1.00  0.00    -0.237 OA
ATOM     78  O   UNL A   1      32.529  34.140  28.220  1.00  0.00    -0.744 OA
ENDBRANCH  74  75
ENDBRANCH  46  69
BRANCH  58  79
ATOM     79  C   UNL A   1      43.188  34.548  32.986  1.00  0.00    -0.014 A 
ATOM     80  C   UNL A   1      43.030  34.738  34.370  1.00  0.00     0.010 A 
ATOM     81  C   UNL A   1      43.831  35.538  32.223  1.00  0.00     0.010 A 
ATOM     82  C   UNL A   1      43.486  35.912  34.975  1.00  0.00     0.020 A 
ATOM     83  C   UNL A   1      44.310  36.702  32.828  1.00  0.00     0.020 A 
ATOM     84  C   UNL A   1      44.123  36.887  34.200  1.00  0.00     0.054 A 
BRANCH  84  85
ATOM     85  S   UNL A   1      44.752  38.380  35.016  1.00  0.00     0.124 S 
ATOM     86  O   UNL A   1      44.084  39.438  34.264  1.00  0.00    -0.237 OA
ATOM     87  O   UNL A   1      44.301  38.207  36.394  1.00  0.00    -0.237 OA
ATOM     88  O   UNL A   1      46.198  38.294  34.825  1.00  0.00    -0.744 OA
ENDBRANCH  84  85
ENDBRANCH  58  79
ENDBRANCH  32  33
ENDBRANCH  24  27
ENDBRANCH  22  23
ENDBRANCH   1  22
TORSDOF 17
ENDMDL
MODEL 2
REMARK VINA RESULT:      -9.2      4.610     11.066
REMARK SMILES C[C@@](O)(c1ccc(Cl)cc1Cl)[C@@H](F)C(=O)NCCCCNC(=O)c1ccc(-c2c3nc(c(-c4ccc(S(=O)(=O)[O-])cc4)c4ccc([nH]4)c(-c4ccc(S(=O)(=O)[O-])cc4)c4nc(c(-c5ccc(S(=O)(=O)[O-])cc5)c5ccc2[nH]5)C=C4)C=C3)cc1
REMARK SMILES IDX 19 1 18 2 17 3 16 4 14 5 15 6 12 8 13 9 2 10 1 11 3 12 4 14
REMARK SMILES IDX 5 15 10 16 6 17 9 18 11 19 7 20 8 21 20 22 21 23 22 24 23 26
REMARK SMILES IDX 24 27 25 28 83 29 26 30 82 31 27 32 28 33 29 34 76 35 30 36
REMARK SMILES IDX 81 37 75 38 77 39 31 40 80 41 74 42 73 43 32 45 62 46 43 47
REMARK SMILES IDX 61 48 44 49 47 50 60 51 78 52 45 53 46 54 59 56 79 57 48 58
REMARK SMILES IDX 33 59 34 60 42 61 35 62 41 63 36 64 37 65 38 66 39 67 40 68
REMARK SMILES IDX 63 69 64 70 72 71 65 72 71 73 66 74 67 75 68 76 69 77 70 78
REMARK SMILES IDX 49 79 50 80 58 81 51 82 57 83 52 84 53 85 54 86 55 87 56 88
REMARK H PARENT 16 7 3 13 21 25 77 44 47 55
REMARK Flexibility Score: inf
ROOT
ATOM      1  C   UNL A   1      32.477  28.243  26.187  1.00  0.00     0.023 C 
ENDROOT
BRANCH   1   2
ATOM      2  C   UNL A   1      31.583  27.074  26.586  1.00  0.00     0.023 C 
BRANCH   2   3
ATOM      3  C   UNL A   1      32.167  25.693  26.291  1.00  0.00     0.116 C 
BRANCH   3   4
ATOM      4  N   UNL A   1      31.349  24.640  26.868  1.00  0.00    -0.353 N 
ATOM      5  C   UNL A   1      31.571  23.296  26.939  1.00  0.00     0.257 C 
ATOM      6  O   UNL A   1      30.625  22.580  27.289  1.00  0.00    -0.272 OA
ATOM      7  H   UNL A   1      30.503  24.944  27.269  1.00  0.00     0.163 HD
BRANCH   5   8
ATOM      8  C   UNL A   1      32.897  22.655  26.534  1.00  0.00     0.291 C 
ATOM      9  F   UNL A   1      33.997  23.339  26.967  1.00  0.00    -0.233 F 
BRANCH   8  10
ATOM     10  C   UNL A   1      32.982  22.433  24.994  1.00  0.00     0.128 C 
ATOM     11  C   UNL A   1      34.009  23.387  24.360  1.00  0.00     0.051 C 
BRANCH  10  12
ATOM     12  O   UNL A   1      31.744  22.747  24.331  1.00  0.00    -0.382 OA
ATOM     13  H   UNL A   1      31.528  22.044  23.700  1.00  0.00     0.212 HD
ENDBRANCH  10  12
BRANCH  10  14
ATOM     14  C   UNL A   1      33.286  20.951  24.680  1.00  0.00     0.005 A 
ATOM     15  C   UNL A   1      32.297  20.120  24.100  1.00  0.00     0.010 A 
ATOM     16  C   UNL A   1      34.540  20.353  24.943  1.00  0.00     0.048 A 
ATOM     17  C   UNL A   1      32.530  18.769  23.828  1.00  0.00     0.021 A 
ATOM     18  C   UNL A   1      34.773  18.999  24.659  1.00  0.00     0.041 A 
ATOM     19  Cl  UNL A   1      35.882  21.209  25.625  1.00  0.00    -0.084 Cl
ATOM     20  C   UNL A   1      33.768  18.213  24.113  1.00  0.00     0.042 A 
ATOM     21  Cl  UNL A   1      34.055  16.549  23.791  1.00  0.00    -0.084 Cl
ENDBRANCH  10  14
ENDBRANCH   8  10
ENDBRANCH   5   8
ENDBRANCH   3   4
ENDBRANCH   2   3
ENDBRANCH   1   2
BRANCH   1  22
ATOM     22  C   UNL A   1      33.521  28.614  27.225  1.00  0.00     0.116 C 
BRANCH  22  23
ATOM     23  N   UNL A   1      33.461  30.018  27.615  1.00  0.00    -0.352 N 
ATOM     24  C   UNL A   1      34.431  30.781  28.219  1.00  0.00     0.251 C 
ATOM     25  H   UNL A   1      32.614  30.480  27.420  1.00  0.00     0.163 HD
ATOM     26  O   UNL A   1      34.178  31.914  28.614  1.00  0.00    -0.269 OA
BRANCH  24  27
ATOM     27  C   UNL A   1      35.772  30.197  28.410  1.00  0.00     0.039 A 
ATOM     28  C   UNL A   1      36.677  30.202  27.347  1.00  0.00     0.014 A 
ATOM     29  C   UNL A   1      36.148  29.716  29.667  1.00  0.00     0.014 A 
ATOM     30  C   UNL A   1      37.990  29.790  27.568  1.00  0.00     0.010 A 
ATOM     31  C   UNL A   1      37.476  29.398  29.907  1.00  0.00     0.010 A 
ATOM     32  C   UNL A   1      38.409  29.423  28.858  1.00  0.00    -0.014 A 
BRANCH  32  33
ATOM     33  C   UNL A   1      39.812  29.036  29.140  1.00  0.00     0.031 A 
ATOM     34  C   UNL A   1      40.752  30.046  29.742  1.00  0.00     0.074 A 
ATOM     35  C   UNL A   1      40.258  27.817  28.782  1.00  0.00     0.049 A 
ATOM     36  N   UNL A   1      42.033  29.943  29.976  1.00  0.00    -0.248 NA
ATOM     37  C   UNL A   1      40.182  31.360  30.087  1.00  0.00     0.031 C 
ATOM     38  C   UNL A   1      39.458  26.773  28.137  1.00  0.00     0.029 A 
ATOM     39  N   UNL A   1      41.503  27.252  28.901  1.00  0.00    -0.354 N 
ATOM     40  C   UNL A   1      42.426  31.183  30.466  1.00  0.00     0.074 A 
ATOM     41  C   UNL A   1      41.261  32.039  30.442  1.00  0.00     0.031 C 
ATOM     42  C   UNL A   1      40.222  25.686  27.945  1.00  0.00     0.029 A 
ATOM     43  C   UNL A   1      41.574  25.966  28.418  1.00  0.00     0.049 A 
ATOM     44  H   UNL A   1      42.272  27.723  29.296  1.00  0.00     0.167 HD
ATOM     45  C   UNL A   1      43.641  31.568  30.923  1.00  0.00     0.031 A 
ATOM     46  C   UNL A   1      42.614  25.112  28.363  1.00  0.00     0.031 A 
ATOM     47  C   UNL A   1      44.786  30.702  30.976  1.00  0.00     0.049 A 
ATOM     48  C   UNL A   1      43.945  25.547  28.909  1.00  0.00     0.074 A 
ATOM     49  C   UNL A   1      46.047  30.971  31.477  1.00  0.00     0.029 A 
ATOM     50  N   UNL A   1      44.805  29.393  30.518  1.00  0.00    -0.354 N 
ATOM     51  N   UNL A   1      44.282  26.705  29.427  1.00  0.00    -0.248 NA
ATOM     52  C   UNL A   1      45.030  24.558  28.880  1.00  0.00     0.031 C 
ATOM     53  C   UNL A   1      46.840  29.833  31.292  1.00  0.00     0.029 A 
ATOM     54  C   UNL A   1      46.058  28.842  30.717  1.00  0.00     0.049 A 
ATOM     55  H   UNL A   1      44.040  28.926  30.112  1.00  0.00     0.167 HD
ATOM     56  C   UNL A   1      45.614  26.575  29.805  1.00  0.00     0.074 A 
ATOM     57  C   UNL A   1      46.014  25.223  29.469  1.00  0.00     0.031 C 
ATOM     58  C   UNL A   1      46.432  27.494  30.376  1.00  0.00     0.031 A 
BRANCH  45  59
ATOM     59  C   UNL A   1      43.777  32.987  31.406  1.00  0.00    -0.014 A 
ATOM     60  C   UNL A   1      44.060  34.034  30.509  1.00  0.00     0.010 A 
ATOM     61  C   UNL A   1      43.616  33.281  32.772  1.00  0.00     0.010 A 
ATOM     62  C   UNL A   1      44.234  35.338  30.975  1.00  0.00     0.020 A 
ATOM     63  C   UNL A   1      43.760  34.591  33.239  1.00  0.00     0.020 A 
ATOM     64  C   UNL A   1      44.091  35.608  32.340  1.00  0.00     0.054 A 
BRANCH  64  65
ATOM     65  S   UNL A   1      44.317  37.311  32.919  1.00  0.00     0.124 S 
ATOM     66  O   UNL A   1      44.354  38.052  31.660  1.00  0.00    -0.237 OA
ATOM     67  O   UNL A   1      43.130  37.533  33.742  1.00  0.00    -0.237 OA
ATOM     68  O   UNL A   1      45.579  37.263  33.652  1.00  0.00    -0.744 OA
ENDBRANCH  64  65
ENDBRANCH  45  59
BRANCH  46  69
ATOM     69  C   UNL A   1      42.423  23.748  27.799  1.00  0.00    -0.014 A 
ATOM     70  C   UNL A   1      42.707  23.492  26.446  1.00  0.00     0.010 A 
ATOM     71  C   UNL A   1      41.982  22.691  28.617  1.00  0.00     0.010 A 
ATOM     72  C   UNL A   1      42.543  22.209  25.917  1.00  0.00     0.020 A 
ATOM     73  C   UNL A   1      41.839  21.401  28.097  1.00  0.00     0.020 A 
ATOM     74  C   UNL A   1      42.111  21.171  26.747  1.00  0.00     0.054 A 
BRANCH  74  75
ATOM     75  S   UNL A   1      41.965  19.500  26.054  1.00  0.00     0.124 S 
ATOM     76  O   UNL A   1      42.804  19.591  24.863  1.00  0.00    -0.237 OA
ATOM     77  O   UNL A   1      42.483  18.663  27.132  1.00  0.00    -0.237 OA
ATOM     78  O   UNL A   1      40.531  19.360  25.802  1.00  0.00    -0.744 OA
ENDBRANCH  74  75
ENDBRANCH  46  69
BRANCH  58  79
ATOM     79  C   UNL A   1      47.833  27.058  30.705  1.00  0.00    -0.014 A 
ATOM     80  C   UNL A   1      48.901  27.333  29.833  1.00  0.00     0.010 A 
ATOM     81  C   UNL A   1      48.090  26.420  31.931  1.00  0.00     0.010 A 
ATOM     82  C   UNL A   1      50.201  26.952  30.172  1.00  0.00     0.020 A 
ATOM     83  C   UNL A   1      49.392  26.059  32.284  1.00  0.00     0.020 A 
ATOM     84  C   UNL A   1      50.439  26.317  31.396  1.00  0.00     0.054 A 
BRANCH  84  85
ATOM     85  S   UNL A   1      52.142  25.877  31.837  1.00  0.00     0.124 S 
ATOM     86  O   UNL A   1      51.968  24.558  32.437  1.00  0.00    -0.237 OA
ATOM     87  O   UNL A   1      52.823  25.895  30.545  1.00  0.00    -0.237 OA
ATOM     88  O   UNL A   1      52.544  26.936  32.760  1.00  0.00    -0.744 OA
ENDBRANCH  84  85
ENDBRANCH  58  79
ENDBRANCH  32  33
ENDBRANCH  24  27
ENDBRANCH  22  23
ENDBRANCH   1  22
TORSDOF 17
ENDMDL
MODEL 3
REMARK VINA RESULT:      -8.9      3.740      6.388
REMARK SMILES C[C@@](O)(c1ccc(Cl)cc1Cl)[C@@H](F)C(=O)NCCCCNC(=O)c1ccc(-c2c3nc(c(-c4ccc(S(=O)(=O)[O-])cc4)c4ccc([nH]4)c(-c4ccc(S(=O)(=O)[O-])cc4)c4nc(c(-c5ccc(S(=O)(=O)[O-])cc5)c5ccc2[nH]5)C=C4)C=C3)cc1
REMARK SMILES IDX 19 1 18 2 17 3 16 4 14 5 15 6 12 8 13 9 2 10 1 11 3 12 4 14
REMARK SMILES IDX 5 15 10 16 6 17 9 18 11 19 7 20 8 21 20 22 21 23 22 24 23 26
REMARK SMILES IDX 24 27 25 28 83 29 26 30 82 31 27 32 28 33 29 34 76 35 30 36
REMARK SMILES IDX 81 37 75 38 77 39 31 40 80 41 74 42 73 43 32 45 62 46 43 47
REMARK SMILES IDX 61 48 44 49 47 50 60 51 78 52 45 53 46 54 59 56 79 57 48 58
REMARK SMILES IDX 33 59 34 60 42 61 35 62 41 63 36 64 37 65 38 66 39 67 40 68
REMARK SMILES IDX 63 69 64 70 72 71 65 72 71 73 66 74 67 75 68 76 69 77 70 78
REMARK SMILES IDX 49 79 50 80 58 81 51 82 57 83 52 84 53 85 54 86 55 87 56 88
REMARK H PARENT 16 7 3 13 21 25 77 44 47 55
REMARK Flexibility Score: inf
ROOT
ATOM      1  C   UNL A   1      35.441  22.849  25.525  1.00  0.00     0.023 C 
ENDROOT
BRANCH   1   2
ATOM      2  C   UNL A   1      34.845  22.344  24.216  1.00  0.00     0.023 C 
BRANCH   2   3
ATOM      3  C   UNL A   1      34.433  23.442  23.236  1.00  0.00     0.116 C 
BRANCH   3   4
ATOM      4  N   UNL A   1      33.007  23.396  22.964  1.00  0.00    -0.353 N 
ATOM      5  C   UNL A   1      31.954  23.808  23.726  1.00  0.00     0.257 C 
ATOM      6  O   UNL A   1      30.821  23.466  23.367  1.00  0.00    -0.272 OA
ATOM      7  H   UNL A   1      32.762  23.006  22.094  1.00  0.00     0.163 HD
BRANCH   5   8
ATOM      8  C   UNL A   1      32.132  24.595  25.024  1.00  0.00     0.291 C 
ATOM      9  F   UNL A   1      31.920  23.856  26.153  1.00  0.00    -0.233 F 
BRANCH   8  10
ATOM     10  C   UNL A   1      31.240  25.872  25.050  1.00  0.00     0.128 C 
ATOM     11  C   UNL A   1      29.903  25.590  25.757  1.00  0.00     0.051 C 
BRANCH  10  12
ATOM     12  O   UNL A   1      30.864  26.299  23.728  1.00  0.00    -0.382 OA
ATOM     13  H   UNL A   1      31.631  26.694  23.287  1.00  0.00     0.212 HD
ENDBRANCH  10  12
BRANCH  10  14
ATOM     14  C   UNL A   1      32.005  27.051  25.692  1.00  0.00     0.005 A 
ATOM     15  C   UNL A   1      31.537  27.647  26.889  1.00  0.00     0.010 A 
ATOM     16  C   UNL A   1      33.190  27.588  25.139  1.00  0.00     0.048 A 
ATOM     17  C   UNL A   1      32.190  28.732  27.481  1.00  0.00     0.021 A 
ATOM     18  C   UNL A   1      33.848  28.670  25.742  1.00  0.00     0.041 A 
ATOM     19  Cl  UNL A   1      33.932  26.981  23.697  1.00  0.00    -0.084 Cl
ATOM     20  C   UNL A   1      33.342  29.241  26.902  1.00  0.00     0.042 A 
ATOM     21  Cl  UNL A   1      34.141  30.583  27.621  1.00  0.00    -0.084 Cl
ENDBRANCH  10  14
ENDBRANCH   8  10
ENDBRANCH   5   8
ENDBRANCH   3   4
ENDBRANCH   2   3
ENDBRANCH   1   2
BRANCH   1  22
ATOM     22  C   UNL A   1      36.788  23.534  25.377  1.00  0.00     0.116 C 
BRANCH  22  23
ATOM     23  N   UNL A   1      37.912  22.628  25.579  1.00  0.00    -0.352 N 
ATOM     24  C   UNL A   1      39.130  22.891  26.158  1.00  0.00     0.251 C 
ATOM     25  H   UNL A   1      37.781  21.707  25.258  1.00  0.00     0.163 HD
ATOM     26  O   UNL A   1      40.028  22.057  26.127  1.00  0.00    -0.269 OA
BRANCH  24  27
ATOM     27  C   UNL A   1      39.342  24.206  26.790  1.00  0.00     0.039 A 
ATOM     28  C   UNL A   1      38.918  24.410  28.104  1.00  0.00     0.014 A 
ATOM     29  C   UNL A   1      40.031  25.206  26.098  1.00  0.00     0.014 A 
ATOM     30  C   UNL A   1      39.252  25.599  28.751  1.00  0.00     0.010 A 
ATOM     31  C   UNL A   1      40.443  26.344  26.774  1.00  0.00     0.010 A 
ATOM     32  C   UNL A   1      40.050  26.557  28.104  1.00  0.00    -0.014 A 
BRANCH  32  33
ATOM     33  C   UNL A   1      40.473  27.804  28.784  1.00  0.00     0.031 A 
ATOM     34  C   UNL A   1      41.835  27.876  29.421  1.00  0.00     0.074 A 
ATOM     35  C   UNL A   1      39.610  28.832  28.902  1.00  0.00     0.049 A 
ATOM     36  N   UNL A   1      42.359  28.831  30.142  1.00  0.00    -0.248 NA
ATOM     37  C   UNL A   1      42.707  26.699  29.257  1.00  0.00     0.031 C 
ATOM     38  C   UNL A   1      38.241  28.858  28.378  1.00  0.00     0.029 A 
ATOM     39  N   UNL A   1      39.754  30.053  29.509  1.00  0.00    -0.354 N 
ATOM     40  C   UNL A   1      43.605  28.360  30.541  1.00  0.00     0.074 A 
ATOM     41  C   UNL A   1      43.733  27.014  30.031  1.00  0.00     0.031 C 
ATOM     42  C   UNL A   1      37.684  30.046  28.662  1.00  0.00     0.029 A 
ATOM     43  C   UNL A   1      38.638  30.851  29.416  1.00  0.00     0.049 A 
ATOM     44  H   UNL A   1      40.579  30.332  29.968  1.00  0.00     0.167 HD
ATOM     45  C   UNL A   1      44.567  29.000  31.246  1.00  0.00     0.031 A 
ATOM     46  C   UNL A   1      38.412  32.093  29.888  1.00  0.00     0.031 A 
ATOM     47  C   UNL A   1      44.446  30.351  31.721  1.00  0.00     0.049 A 
ATOM     48  C   UNL A   1      39.507  32.799  30.636  1.00  0.00     0.074 A 
ATOM     49  C   UNL A   1      45.383  31.116  32.390  1.00  0.00     0.029 A 
ATOM     50  N   UNL A   1      43.316  31.140  31.568  1.00  0.00    -0.354 N 
ATOM     51  N   UNL A   1      40.704  32.359  30.951  1.00  0.00    -0.248 NA
ATOM     52  C   UNL A   1      39.231  34.172  31.078  1.00  0.00     0.031 C 
ATOM     53  C   UNL A   1      44.808  32.360  32.672  1.00  0.00     0.029 A 
ATOM     54  C   UNL A   1      43.529  32.383  32.137  1.00  0.00     0.049 A 
ATOM     55  H   UNL A   1      42.486  30.858  31.120  1.00  0.00     0.167 HD
ATOM     56  C   UNL A   1      41.330  33.411  31.610  1.00  0.00     0.074 A 
ATOM     57  C   UNL A   1      40.386  34.511  31.635  1.00  0.00     0.031 C 
ATOM     58  C   UNL A   1      42.574  33.462  32.147  1.00  0.00     0.031 A 
BRANCH  45  59
ATOM     59  C   UNL A   1      45.833  28.239  31.530  1.00  0.00    -0.014 A 
ATOM     60  C   UNL A   1      45.964  27.460  32.695  1.00  0.00     0.010 A 
ATOM     61  C   UNL A   1      46.906  28.296  30.622  1.00  0.00     0.010 A 
ATOM     62  C   UNL A   1      47.162  26.798  32.974  1.00  0.00     0.020 A 
ATOM     63  C   UNL A   1      48.096  27.612  30.882  1.00  0.00     0.020 A 
ATOM     64  C   UNL A   1      48.225  26.885  32.069  1.00  0.00     0.054 A 
BRANCH  64  65
ATOM     65  S   UNL A   1      49.767  26.012  32.452  1.00  0.00     0.124 S 
ATOM     66  O   UNL A   1      50.093  25.403  31.164  1.00  0.00    -0.237 OA
ATOM     67  O   UNL A   1      50.654  27.094  32.874  1.00  0.00    -0.237 OA
ATOM     68  O   UNL A   1      49.384  25.077  33.506  1.00  0.00    -0.744 OA
ENDBRANCH  64  65
ENDBRANCH  45  59
BRANCH  46  69
ATOM     69  C   UNL A   1      37.103  32.754  29.635  1.00  0.00    -0.014 A 
ATOM     70  C   UNL A   1      36.077  32.691  30.593  1.00  0.00     0.010 A 
ATOM     71  C   UNL A   1      36.885  33.475  28.446  1.00  0.00     0.010 A 
ATOM     72  C   UNL A   1      34.852  33.324  30.364  1.00  0.00     0.020 A 
ATOM     73  C   UNL A   1      35.670  34.129  28.223  1.00  0.00     0.020 A 
ATOM     74  C   UNL A   1      34.657  34.041  29.180  1.00  0.00     0.054 A 
BRANCH  74  75
ATOM     75  S   UNL A   1      33.082  34.908  28.932  1.00  0.00     0.124 S 
ATOM     76  O   UNL A   1      32.393  34.024  27.996  1.00  0.00    -0.237 OA
ATOM     77  O   UNL A   1      32.529  34.956  30.282  1.00  0.00    -0.237 OA
ATOM     78  O   UNL A   1      33.489  36.202  28.388  1.00  0.00    -0.744 OA
ENDBRANCH  74  75
ENDBRANCH  46  69
BRANCH  58  79
ATOM     79  C   UNL A   1      42.999  34.758  32.780  1.00  0.00    -0.014 A 
ATOM     80  C   UNL A   1      42.725  35.029  34.132  1.00  0.00     0.010 A 
ATOM     81  C   UNL A   1      43.736  35.688  32.026  1.00  0.00     0.010 A 
ATOM     82  C   UNL A   1      43.160  36.223  34.712  1.00  0.00     0.020 A 
ATOM     83  C   UNL A   1      44.193  36.872  32.608  1.00  0.00     0.020 A 
ATOM     84  C   UNL A   1      43.890  37.138  33.947  1.00  0.00     0.054 A 
BRANCH  84  85
ATOM     85  S   UNL A   1      44.487  38.658  34.734  1.00  0.00     0.124 S 
ATOM     86  O   UNL A   1      44.369  38.331  36.151  1.00  0.00    -0.237 OA
ATOM     87  O   UNL A   1      45.852  38.769  34.226  1.00  0.00    -0.237 OA
ATOM     88  O   UNL A   1      43.564  39.683  34.250  1.00  0.00    -0.744 OA
ENDBRANCH  84  85
ENDBRANCH  58  79
ENDBRANCH  32  33
ENDBRANCH  24  27
ENDBRANCH  22  23
ENDBRANCH   1  22
TORSDOF 17
ENDMDL
