MODEL 1
REMARK VINA RESULT:     -11.6      0.000      0.000
REMARK SMILES CS(=O)(=O)c1ccc(C(=O)N2C[C@@H](C(=O)NCCCCNC(=O)c3ccc(-c4c5nc(c(-c6ccc(S(=O)(=O)[O-])cc6)c6ccc([nH]6)c(-c6ccc(S(=O)(=O)[O-])cc6)c6nc(c(-c7ccc(S(=O)(=O)[O-])cc7)c7ccc4[nH]7)C=C6)C=C5)cc3)[C@H](c3ccncc3)C2)cc1
REMARK SMILES IDX 18 1 17 2 16 3 14 4 15 5 13 7 11 8 12 9 91 10 84 11 9 12
REMARK SMILES IDX 10 13 8 14 5 15 6 16 93 17 7 18 92 19 2 20 1 21 3 22 4 23
REMARK SMILES IDX 85 24 86 25 90 26 87 27 89 28 88 29 19 30 20 31 21 32 22 33
REMARK SMILES IDX 23 35 24 36 25 37 83 38 26 39 82 40 27 41 28 42 29 43 76 44
REMARK SMILES IDX 30 45 81 46 75 47 77 48 31 49 80 50 74 51 73 52 32 54 62 55
REMARK SMILES IDX 43 56 61 57 44 58 47 59 60 60 78 61 45 62 46 63 59 65 79 66
REMARK SMILES IDX 48 67 33 68 34 69 42 70 35 71 41 72 36 73 37 74 38 75 39 76
REMARK SMILES IDX 40 77 63 78 64 79 72 80 65 81 71 82 66 83 67 84 68 85 69 86
REMARK SMILES IDX 70 87 49 88 50 89 58 90 51 91 57 92 52 93 53 94 54 95 55 96
REMARK SMILES IDX 56 97
REMARK H PARENT 16 6 21 34 77 53 47 64
REMARK Flexibility Score: inf
ROOT
ATOM      1  C   UNL A   1      34.446  30.694  27.676  1.00  0.00     0.023 C 
ENDROOT
BRANCH   1   2
ATOM      2  C   UNL A   1      34.303  29.321  27.015  1.00  0.00     0.116 C 
BRANCH   2   3
ATOM      3  N   UNL A   1      33.103  28.658  27.481  1.00  0.00    -0.356 N 
ATOM      4  C   UNL A   1      32.020  28.135  26.857  1.00  0.00     0.225 C 
ATOM      5  O   UNL A   1      31.043  27.971  27.594  1.00  0.00    -0.275 OA
ATOM      6  H   UNL A   1      33.065  28.570  28.461  1.00  0.00     0.163 HD
BRANCH   4   7
ATOM      7  C   UNL A   1      31.987  27.630  25.415  1.00  0.00     0.107 C 
ATOM      8  N   UNL A   1      33.145  26.936  23.514  1.00  0.00    -0.337 N 
ATOM      9  C   UNL A   1      33.124  26.748  24.943  1.00  0.00     0.134 C 
ATOM     10  C   UNL A   1      32.941  28.345  23.250  1.00  0.00     0.129 C 
ATOM     11  C   UNL A   1      31.943  28.796  24.353  1.00  0.00     0.053 C 
BRANCH   8  12
ATOM     12  C   UNL A   1      33.435  26.016  22.529  1.00  0.00     0.253 C 
ATOM     13  O   UNL A   1      33.764  26.341  21.390  1.00  0.00    -0.269 OA
BRANCH  12  14
ATOM     14  C   UNL A   1      33.258  24.564  22.818  1.00  0.00     0.040 A 
ATOM     15  C   UNL A   1      32.890  21.914  23.624  1.00  0.00     0.067 A 
ATOM     16  C   UNL A   1      31.779  22.694  23.287  1.00  0.00     0.021 A 
ATOM     17  C   UNL A   1      34.182  22.435  23.541  1.00  0.00     0.021 A 
ATOM     18  C   UNL A   1      31.966  24.025  22.893  1.00  0.00     0.015 A 
ATOM     19  C   UNL A   1      34.360  23.767  23.162  1.00  0.00     0.015 A 
BRANCH  15  20
ATOM     20  S   UNL A   1      32.651  20.246  24.195  1.00  0.00     0.175 S 
ATOM     21  C   UNL A   1      34.271  19.759  24.733  1.00  0.00     0.163 C 
ATOM     22  O   UNL A   1      32.310  19.430  23.044  1.00  0.00    -0.224 OA
ATOM     23  O   UNL A   1      31.783  20.308  25.352  1.00  0.00    -0.224 OA
ENDBRANCH  15  20
ENDBRANCH  12  14
ENDBRANCH   8  12
BRANCH  11  24
ATOM     24  C   UNL A   1      30.526  29.120  23.873  1.00  0.00    -0.039 A 
ATOM     25  C   UNL A   1      29.676  28.076  23.479  1.00  0.00     0.024 A 
ATOM     26  C   UNL A   1      29.987  30.412  23.829  1.00  0.00     0.024 A 
ATOM     27  C   UNL A   1      28.382  28.351  23.060  1.00  0.00     0.111 A 
ATOM     28  C   UNL A   1      28.667  30.588  23.424  1.00  0.00     0.111 A 
ATOM     29  N   UNL A   1      27.854  29.589  23.029  1.00  0.00    -0.265 NA
ENDBRANCH  11  24
ENDBRANCH   4   7
ENDBRANCH   2   3
ENDBRANCH   1   2
BRANCH   1  30
ATOM     30  C   UNL A   1      33.182  31.558  27.605  1.00  0.00     0.023 C 
BRANCH  30  31
ATOM     31  C   UNL A   1      33.397  32.970  27.068  1.00  0.00     0.116 C 
BRANCH  31  32
ATOM     32  N   UNL A   1      32.814  34.001  27.913  1.00  0.00    -0.352 N 
ATOM     33  C   UNL A   1      33.258  34.431  29.142  1.00  0.00     0.251 C 
ATOM     34  H   UNL A   1      32.007  34.444  27.564  1.00  0.00     0.163 HD
ATOM     35  O   UNL A   1      32.607  35.240  29.793  1.00  0.00    -0.269 OA
BRANCH  33  36
ATOM     36  C   UNL A   1      34.510  33.862  29.676  1.00  0.00     0.039 A 
ATOM     37  C   UNL A   1      35.730  34.343  29.199  1.00  0.00     0.014 A 
ATOM     38  C   UNL A   1      34.466  32.911  30.699  1.00  0.00     0.014 A 
ATOM     39  C   UNL A   1      36.916  33.917  29.798  1.00  0.00     0.010 A 
ATOM     40  C   UNL A   1      35.643  32.537  31.335  1.00  0.00     0.010 A 
ATOM     41  C   UNL A   1      36.879  33.039  30.893  1.00  0.00    -0.014 A 
BRANCH  41  42
ATOM     42  C   UNL A   1      38.114  32.613  31.595  1.00  0.00     0.031 A 
ATOM     43  C   UNL A   1      38.945  31.499  31.023  1.00  0.00     0.074 A 
ATOM     44  C   UNL A   1      38.434  33.159  32.786  1.00  0.00     0.049 A 
ATOM     45  N   UNL A   1      39.972  30.883  31.546  1.00  0.00    -0.248 NA
ATOM     46  C   UNL A   1      38.544  30.989  29.700  1.00  0.00     0.031 C 
ATOM     47  C   UNL A   1      37.689  34.223  33.461  1.00  0.00     0.029 A 
ATOM     48  N   UNL A   1      39.463  32.875  33.648  1.00  0.00    -0.354 N 
ATOM     49  C   UNL A   1      40.322  29.894  30.634  1.00  0.00     0.074 A 
ATOM     50  C   UNL A   1      39.371  29.966  29.545  1.00  0.00     0.031 C 
ATOM     51  C   UNL A   1      38.294  34.514  34.624  1.00  0.00     0.029 A 
ATOM     52  C   UNL A   1      39.442  33.630  34.798  1.00  0.00     0.049 A 
ATOM     53  H   UNL A   1      40.150  32.197  33.462  1.00  0.00     0.167 HD
ATOM     54  C   UNL A   1      41.349  29.014  30.691  1.00  0.00     0.031 A 
ATOM     55  C   UNL A   1      40.250  33.602  35.876  1.00  0.00     0.031 A 
ATOM     56  C   UNL A   1      42.304  28.962  31.763  1.00  0.00     0.049 A 
ATOM     57  C   UNL A   1      41.393  32.625  35.911  1.00  0.00     0.074 A 
ATOM     58  C   UNL A   1      43.411  28.142  31.891  1.00  0.00     0.029 A 
ATOM     59  N   UNL A   1      42.271  29.772  32.888  1.00  0.00    -0.354 N 
ATOM     60  N   UNL A   1      41.733  31.725  35.019  1.00  0.00    -0.248 NA
ATOM     61  C   UNL A   1      42.268  32.668  37.091  1.00  0.00     0.031 C 
ATOM     62  C   UNL A   1      44.029  28.432  33.112  1.00  0.00     0.029 A 
ATOM     63  C   UNL A   1      43.334  29.466  33.721  1.00  0.00     0.049 A 
ATOM     64  H   UNL A   1      41.593  30.462  33.070  1.00  0.00     0.167 HD
ATOM     65  C   UNL A   1      42.880  31.116  35.516  1.00  0.00     0.074 A 
ATOM     66  C   UNL A   1      43.179  31.754  36.782  1.00  0.00     0.031 C 
ATOM     67  C   UNL A   1      43.622  30.122  34.971  1.00  0.00     0.031 A 
BRANCH  54  68
ATOM     68  C   UNL A   1      41.482  28.033  29.557  1.00  0.00    -0.014 A 
ATOM     69  C   UNL A   1      40.625  26.923  29.454  1.00  0.00     0.010 A 
ATOM     70  C   UNL A   1      42.465  28.234  28.570  1.00  0.00     0.010 A 
ATOM     71  C   UNL A   1      40.780  26.004  28.413  1.00  0.00     0.020 A 
ATOM     72  C   UNL A   1      42.605  27.333  27.512  1.00  0.00     0.020 A 
ATOM     73  C   UNL A   1      41.774  26.212  27.452  1.00  0.00     0.054 A 
BRANCH  73  74
ATOM     74  S   UNL A   1      41.947  25.010  26.105  1.00  0.00     0.124 S 
ATOM     75  O   UNL A   1      41.791  25.857  24.925  1.00  0.00    -0.237 OA
ATOM     76  O   UNL A   1      43.289  24.476  26.320  1.00  0.00    -0.237 OA
ATOM     77  O   UNL A   1      40.858  24.065  26.342  1.00  0.00    -0.744 OA
ENDBRANCH  73  74
ENDBRANCH  54  68
BRANCH  55  78
ATOM     78  C   UNL A   1      40.016  34.544  37.003  1.00  0.00    -0.014 A 
ATOM     79  C   UNL A   1      40.646  35.802  37.019  1.00  0.00     0.010 A 
ATOM     80  C   UNL A   1      39.154  34.198  38.059  1.00  0.00     0.010 A 
ATOM     81  C   UNL A   1      40.432  36.688  38.080  1.00  0.00     0.020 A 
ATOM     82  C   UNL A   1      38.918  35.092  39.109  1.00  0.00     0.020 A 
ATOM     83  C   UNL A   1      39.569  36.328  39.117  1.00  0.00     0.054 A 
BRANCH  83  84
ATOM     84  S   UNL A   1      39.264  37.514  40.456  1.00  0.00     0.124 S 
ATOM     85  O   UNL A   1      38.168  38.309  39.912  1.00  0.00    -0.237 OA
ATOM     86  O   UNL A   1      38.921  36.644  41.577  1.00  0.00    -0.237 OA
ATOM     87  O   UNL A   1      40.541  38.212  40.589  1.00  0.00    -0.744 OA
ENDBRANCH  83  84
ENDBRANCH  55  78
BRANCH  67  88
ATOM     88  C   UNL A   1      44.860  29.693  35.709  1.00  0.00    -0.014 A 
ATOM     89  C   UNL A   1      46.089  30.350  35.518  1.00  0.00     0.010 A 
ATOM     90  C   UNL A   1      44.771  28.665  36.665  1.00  0.00     0.010 A 
ATOM     91  C   UNL A   1      47.211  29.969  36.257  1.00  0.00     0.020 A 
ATOM     92  C   UNL A   1      45.886  28.298  37.422  1.00  0.00     0.020 A 
ATOM     93  C   UNL A   1      47.103  28.947  37.206  1.00  0.00     0.054 A 
BRANCH  93  94
ATOM     94  S   UNL A   1      48.558  28.513  38.197  1.00  0.00     0.124 S 
ATOM     95  O   UNL A   1      47.953  28.113  39.464  1.00  0.00    -0.237 OA
ATOM     96  O   UNL A   1      49.164  27.434  37.421  1.00  0.00    -0.237 OA
ATOM     97  O   UNL A   1      49.331  29.752  38.238  1.00  0.00    -0.744 OA
ENDBRANCH  93  94
ENDBRANCH  67  88
ENDBRANCH  41  42
ENDBRANCH  33  36
ENDBRANCH  31  32
ENDBRANCH  30  31
ENDBRANCH   1  30
TORSDOF 18
ENDMDL
MODEL 2
REMARK VINA RESULT:     -11.6      5.762      8.091
REMARK SMILES CS(=O)(=O)c1ccc(C(=O)N2C[C@@H](C(=O)NCCCCNC(=O)c3ccc(-c4c5nc(c(-c6ccc(S(=O)(=O)[O-])cc6)c6ccc([nH]6)c(-c6ccc(S(=O)(=O)[O-])cc6)c6nc(c(-c7ccc(S(=O)(=O)[O-])cc7)c7ccc4[nH]7)C=C6)C=C5)cc3)[C@H](c3ccncc3)C2)cc1
REMARK SMILES IDX 18 1 17 2 16 3 14 4 15 5 13 7 11 8 12 9 91 10 84 11 9 12
REMARK SMILES IDX 10 13 8 14 5 15 6 16 93 17 7 18 92 19 2 20 1 21 3 22 4 23
REMARK SMILES IDX 85 24 86 25 90 26 87 27 89 28 88 29 19 30 20 31 21 32 22 33
REMARK SMILES IDX 23 35 24 36 25 37 83 38 26 39 82 40 27 41 28 42 29 43 76 44
REMARK SMILES IDX 30 45 81 46 75 47 77 48 31 49 80 50 74 51 73 52 32 54 62 55
REMARK SMILES IDX 43 56 61 57 44 58 47 59 60 60 78 61 45 62 46 63 59 65 79 66
REMARK SMILES IDX 48 67 33 68 34 69 42 70 35 71 41 72 36 73 37 74 38 75 39 76
REMARK SMILES IDX 40 77 63 78 64 79 72 80 65 81 71 82 66 83 67 84 68 85 69 86
REMARK SMILES IDX 70 87 49 88 50 89 58 90 51 91 57 92 52 93 53 94 54 95 55 96
REMARK SMILES IDX 56 97
REMARK H PARENT 16 6 21 34 77 53 47 64
REMARK Flexibility Score: inf
ROOT
ATOM      1  C   UNL A   1      34.881  30.446  27.371  1.00  0.00     0.023 C 
ENDROOT
BRANCH   1   2
ATOM      2  C   UNL A   1      33.431  30.530  26.888  1.00  0.00     0.116 C 
BRANCH   2   3
ATOM      3  N   UNL A   1      32.641  29.465  27.472  1.00  0.00    -0.356 N 
ATOM      4  C   UNL A   1      31.814  28.524  26.958  1.00  0.00     0.225 C 
ATOM      5  O   UNL A   1      31.050  28.017  27.786  1.00  0.00    -0.275 OA
ATOM      6  H   UNL A   1      32.723  29.415  28.452  1.00  0.00     0.163 HD
BRANCH   4   7
ATOM      7  C   UNL A   1      31.868  27.981  25.530  1.00  0.00     0.107 C 
ATOM      8  N   UNL A   1      33.140  27.313  23.694  1.00  0.00    -0.337 N 
ATOM      9  C   UNL A   1      33.076  27.161  25.126  1.00  0.00     0.134 C 
ATOM     10  C   UNL A   1      32.858  28.699  23.383  1.00  0.00     0.129 C 
ATOM     11  C   UNL A   1      31.792  29.113  24.436  1.00  0.00     0.053 C 
BRANCH   8  12
ATOM     12  C   UNL A   1      33.524  26.388  22.746  1.00  0.00     0.253 C 
ATOM     13  O   UNL A   1      33.944  26.708  21.636  1.00  0.00    -0.269 OA
BRANCH  12  14
ATOM     14  C   UNL A   1      33.343  24.937  23.035  1.00  0.00     0.040 A 
ATOM     15  C   UNL A   1      32.997  22.284  23.842  1.00  0.00     0.067 A 
ATOM     16  C   UNL A   1      31.876  23.095  23.636  1.00  0.00     0.021 A 
ATOM     17  C   UNL A   1      34.286  22.776  23.628  1.00  0.00     0.021 A 
ATOM     18  C   UNL A   1      32.053  24.427  23.241  1.00  0.00     0.015 A 
ATOM     19  C   UNL A   1      34.455  24.108  23.249  1.00  0.00     0.015 A 
BRANCH  15  20
ATOM     20  S   UNL A   1      32.778  20.613  24.415  1.00  0.00     0.175 S 
ATOM     21  C   UNL A   1      32.314  19.732  22.945  1.00  0.00     0.163 C 
ATOM     22  O   UNL A   1      31.637  20.600  25.311  1.00  0.00    -0.224 OA
ATOM     23  O   UNL A   1      34.076  20.134  24.846  1.00  0.00    -0.224 OA
ENDBRANCH  15  20
ENDBRANCH  12  14
ENDBRANCH   8  12
BRANCH  11  24
ATOM     24  C   UNL A   1      30.377  29.335  23.895  1.00  0.00    -0.039 A 
ATOM     25  C   UNL A   1      29.629  28.234  23.453  1.00  0.00     0.024 A 
ATOM     26  C   UNL A   1      29.742  30.582  23.838  1.00  0.00     0.024 A 
ATOM     27  C   UNL A   1      28.337  28.414  22.978  1.00  0.00     0.111 A 
ATOM     28  C   UNL A   1      28.432  30.661  23.376  1.00  0.00     0.111 A 
ATOM     29  N   UNL A   1      27.717  29.609  22.935  1.00  0.00    -0.265 NA
ENDBRANCH  11  24
ENDBRANCH   4   7
ENDBRANCH   2   3
ENDBRANCH   1   2
BRANCH   1  30
ATOM     30  C   UNL A   1      35.512  31.804  27.699  1.00  0.00     0.023 C 
BRANCH  30  31
ATOM     31  C   UNL A   1      36.582  31.771  28.785  1.00  0.00     0.116 C 
BRANCH  31  32
ATOM     32  N   UNL A   1      36.169  31.047  29.978  1.00  0.00    -0.352 N 
ATOM     33  C   UNL A   1      36.799  29.979  30.573  1.00  0.00     0.251 C 
ATOM     34  H   UNL A   1      35.342  31.359  30.411  1.00  0.00     0.163 HD
ATOM     35  O   UNL A   1      36.282  29.397  31.520  1.00  0.00    -0.269 OA
BRANCH  33  36
ATOM     36  C   UNL A   1      38.086  29.521  30.016  1.00  0.00     0.039 A 
ATOM     37  C   UNL A   1      38.229  29.427  28.630  1.00  0.00     0.014 A 
ATOM     38  C   UNL A   1      39.163  29.262  30.866  1.00  0.00     0.014 A 
ATOM     39  C   UNL A   1      39.482  29.135  28.089  1.00  0.00     0.010 A 
ATOM     40  C   UNL A   1      40.422  29.034  30.323  1.00  0.00     0.010 A 
ATOM     41  C   UNL A   1      40.594  28.972  28.930  1.00  0.00    -0.014 A 
BRANCH  41  42
ATOM     42  C   UNL A   1      41.952  28.722  28.389  1.00  0.00     0.031 A 
ATOM     43  C   UNL A   1      42.330  27.337  27.945  1.00  0.00     0.074 A 
ATOM     44  C   UNL A   1      42.868  29.712  28.387  1.00  0.00     0.049 A 
ATOM     45  N   UNL A   1      43.497  26.878  27.579  1.00  0.00    -0.248 NA
ATOM     46  C   UNL A   1      41.257  26.328  27.944  1.00  0.00     0.031 C 
ATOM     47  C   UNL A   1      42.633  31.089  28.824  1.00  0.00     0.029 A 
ATOM     48  N   UNL A   1      44.190  29.702  28.020  1.00  0.00    -0.354 N 
ATOM     49  C   UNL A   1      43.308  25.523  27.334  1.00  0.00     0.074 A 
ATOM     50  C   UNL A   1      41.924  25.227  27.634  1.00  0.00     0.031 C 
ATOM     51  C   UNL A   1      43.767  31.795  28.685  1.00  0.00     0.029 A 
ATOM     52  C   UNL A   1      44.819  30.913  28.190  1.00  0.00     0.049 A 
ATOM     53  H   UNL A   1      44.645  28.904  27.667  1.00  0.00     0.167 HD
ATOM     54  C   UNL A   1      44.203  24.609  26.889  1.00  0.00     0.031 A 
ATOM     55  C   UNL A   1      46.103  31.268  27.984  1.00  0.00     0.031 A 
ATOM     56  C   UNL A   1      45.570  24.913  26.570  1.00  0.00     0.049 A 
ATOM     57  C   UNL A   1      47.075  30.239  27.475  1.00  0.00     0.074 A 
ATOM     58  C   UNL A   1      46.544  24.071  26.065  1.00  0.00     0.029 A 
ATOM     59  N   UNL A   1      46.157  26.161  26.719  1.00  0.00    -0.354 N 
ATOM     60  N   UNL A   1      46.868  28.971  27.211  1.00  0.00    -0.248 NA
ATOM     61  C   UNL A   1      48.451  30.691  27.227  1.00  0.00     0.031 C 
ATOM     62  C   UNL A   1      47.730  24.802  25.939  1.00  0.00     0.029 A 
ATOM     63  C   UNL A   1      47.482  26.111  26.322  1.00  0.00     0.049 A 
ATOM     64  H   UNL A   1      45.700  26.965  27.057  1.00  0.00     0.167 HD
ATOM     65  C   UNL A   1      48.079  28.482  26.734  1.00  0.00     0.074 A 
ATOM     66  C   UNL A   1      49.011  29.591  26.741  1.00  0.00     0.031 C 
ATOM     67  C   UNL A   1      48.390  27.229  26.322  1.00  0.00     0.031 A 
BRANCH  54  68
ATOM     68  C   UNL A   1      43.722  23.192  26.728  1.00  0.00    -0.014 A 
ATOM     69  C   UNL A   1      43.900  22.499  25.517  1.00  0.00     0.010 A 
ATOM     70  C   UNL A   1      43.101  22.537  27.808  1.00  0.00     0.010 A 
ATOM     71  C   UNL A   1      43.421  21.195  25.372  1.00  0.00     0.020 A 
ATOM     72  C   UNL A   1      42.647  21.222  27.676  1.00  0.00     0.020 A 
ATOM     73  C   UNL A   1      42.792  20.567  26.451  1.00  0.00     0.054 A 
BRANCH  73  74
ATOM     74  S   UNL A   1      42.189  18.870  26.240  1.00  0.00     0.124 S 
ATOM     75  O   UNL A   1      43.118  18.344  25.243  1.00  0.00    -0.237 OA
ATOM     76  O   UNL A   1      42.326  18.310  27.581  1.00  0.00    -0.237 OA
ATOM     77  O   UNL A   1      40.814  19.045  25.778  1.00  0.00    -0.744 OA
ENDBRANCH  73  74
ENDBRANCH  54  68
BRANCH  55  78
ATOM     78  C   UNL A   1      46.536  32.667  28.241  1.00  0.00    -0.014 A 
ATOM     79  C   UNL A   1      46.441  33.637  27.226  1.00  0.00     0.010 A 
ATOM     80  C   UNL A   1      47.033  33.044  29.502  1.00  0.00     0.010 A 
ATOM     81  C   UNL A   1      46.852  34.952  27.463  1.00  0.00     0.020 A 
ATOM     82  C   UNL A   1      47.422  34.364  29.750  1.00  0.00     0.020 A 
ATOM     83  C   UNL A   1      47.339  35.308  28.723  1.00  0.00     0.054 A 
BRANCH  83  84
ATOM     84  S   UNL A   1      47.816  37.032  29.024  1.00  0.00     0.124 S 
ATOM     85  O   UNL A   1      46.753  37.764  28.344  1.00  0.00    -0.237 OA
ATOM     86  O   UNL A   1      47.809  37.113  30.483  1.00  0.00    -0.237 OA
ATOM     87  O   UNL A   1      49.139  37.131  28.411  1.00  0.00    -0.744 OA
ENDBRANCH  83  84
ENDBRANCH  55  78
BRANCH  67  88
ATOM     88  C   UNL A   1      49.778  26.994  25.795  1.00  0.00    -0.014 A 
ATOM     89  C   UNL A   1      50.087  27.191  24.438  1.00  0.00     0.010 A 
ATOM     90  C   UNL A   1      50.805  26.645  26.691  1.00  0.00     0.010 A 
ATOM     91  C   UNL A   1      51.396  27.022  23.983  1.00  0.00     0.020 A 
ATOM     92  C   UNL A   1      52.120  26.498  26.243  1.00  0.00     0.020 A 
ATOM     93  C   UNL A   1      52.406  26.678  24.888  1.00  0.00     0.054 A 
BRANCH  93  94
ATOM     94  S   UNL A   1      54.109  26.524  24.286  1.00  0.00     0.124 S 
ATOM     95  O   UNL A   1      54.524  25.253  24.872  1.00  0.00    -0.237 OA
ATOM     96  O   UNL A   1      53.937  26.521  22.835  1.00  0.00    -0.237 OA
ATOM     97  O   UNL A   1      54.775  27.707  24.825  1.00  0.00    -0.744 OA
ENDBRANCH  93  94
ENDBRANCH  67  88
ENDBRANCH  41  42
ENDBRANCH  33  36
ENDBRANCH  31  32
ENDBRANCH  30  31
ENDBRANCH   1  30
TORSDOF 18
ENDMDL
MODEL 3
REMARK VINA RESULT:     -11.5      0.837      7.911
REMARK SMILES CS(=O)(=O)c1ccc(C(=O)N2C[C@@H](C(=O)NCCCCNC(=O)c3ccc(-c4c5nc(c(-c6ccc(S(=O)(=O)[O-])cc6)c6ccc([nH]6)c(-c6ccc(S(=O)(=O)[O-])cc6)c6nc(c(-c7ccc(S(=O)(=O)[O-])cc7)c7ccc4[nH]7)C=C6)C=C5)cc3)[C@H](c3ccncc3)C2)cc1
REMARK SMILES IDX 18 1 17 2 16 3 14 4 15 5 13 7 11 8 12 9 91 10 84 11 9 12
REMARK SMILES IDX 10 13 8 14 5 15 6 16 93 17 7 18 92 19 2 20 1 21 3 22 4 23
REMARK SMILES IDX 85 24 86 25 90 26 87 27 89 28 88 29 19 30 20 31 21 32 22 33
REMARK SMILES IDX 23 35 24 36 25 37 83 38 26 39 82 40 27 41 28 42 29 43 76 44
REMARK SMILES IDX 30 45 81 46 75 47 77 48 31 49 80 50 74 51 73 52 32 54 62 55
REMARK SMILES IDX 43 56 61 57 44 58 47 59 60 60 78 61 45 62 46 63 59 65 79 66
REMARK SMILES IDX 48 67 33 68 34 69 42 70 35 71 41 72 36 73 37 74 38 75 39 76
REMARK SMILES IDX 40 77 63 78 64 79 72 80 65 81 71 82 66 83 67 84 68 85 69 86
REMARK SMILES IDX 70 87 49 88 50 89 58 90 51 91 57 92 52 93 53 94 54 95 55 96
REMARK SMILES IDX 56 97
REMARK H PARENT 16 6 21 34 77 53 47 64
REMARK Flexibility Score: inf
ROOT
ATOM      1  C   UNL A   1      34.027  31.198  27.948  1.00  0.00     0.023 C 
ENDROOT
BRANCH   1   2
ATOM      2  C   UNL A   1      33.936  29.954  27.060  1.00  0.00     0.116 C 
BRANCH   2   3
ATOM      3  N   UNL A   1      32.923  29.049  27.563  1.00  0.00    -0.356 N 
ATOM      4  C   UNL A   1      31.960  28.301  26.972  1.00  0.00     0.225 C 
ATOM      5  O   UNL A   1      31.065  27.932  27.740  1.00  0.00    -0.275 OA
ATOM      6  H   UNL A   1      32.936  28.958  28.543  1.00  0.00     0.163 HD
BRANCH   4   7
ATOM      7  C   UNL A   1      31.990  27.796  25.530  1.00  0.00     0.107 C 
ATOM      8  N   UNL A   1      33.232  27.151  23.665  1.00  0.00    -0.337 N 
ATOM      9  C   UNL A   1      33.176  26.961  25.093  1.00  0.00     0.134 C 
ATOM     10  C   UNL A   1      32.978  28.551  23.394  1.00  0.00     0.129 C 
ATOM     11  C   UNL A   1      31.930  28.960  24.467  1.00  0.00     0.053 C 
BRANCH   8  12
ATOM     12  C   UNL A   1      33.587  26.244  22.689  1.00  0.00     0.253 C 
ATOM     13  O   UNL A   1      33.998  26.584  21.582  1.00  0.00    -0.269 OA
BRANCH  12  14
ATOM     14  C   UNL A   1      33.386  24.789  22.945  1.00  0.00     0.040 A 
ATOM     15  C   UNL A   1      32.914  22.132  23.671  1.00  0.00     0.067 A 
ATOM     16  C   UNL A   1      31.885  22.884  23.095  1.00  0.00     0.021 A 
ATOM     17  C   UNL A   1      34.181  22.684  23.866  1.00  0.00     0.021 A 
ATOM     18  C   UNL A   1      32.121  24.218  22.741  1.00  0.00     0.015 A 
ATOM     19  C   UNL A   1      34.406  24.019  23.525  1.00  0.00     0.015 A 
BRANCH  15  20
ATOM     20  S   UNL A   1      32.596  20.460  24.189  1.00  0.00     0.175 S 
ATOM     21  C   UNL A   1      34.204  19.853  24.630  1.00  0.00     0.163 C 
ATOM     22  O   UNL A   1      32.152  19.714  23.026  1.00  0.00    -0.224 OA
ATOM     23  O   UNL A   1      31.787  20.528  25.388  1.00  0.00    -0.224 OA
ENDBRANCH  15  20
ENDBRANCH  12  14
ENDBRANCH   8  12
BRANCH  11  24
ATOM     24  C   UNL A   1      30.516  29.227  23.944  1.00  0.00    -0.039 A 
ATOM     25  C   UNL A   1      29.746  28.157  23.465  1.00  0.00     0.024 A 
ATOM     26  C   UNL A   1      29.903  30.486  23.941  1.00  0.00     0.024 A 
ATOM     27  C   UNL A   1      28.455  28.378  23.006  1.00  0.00     0.111 A 
ATOM     28  C   UNL A   1      28.592  30.606  23.491  1.00  0.00     0.111 A 
ATOM     29  N   UNL A   1      27.855  29.584  23.013  1.00  0.00    -0.265 NA
ENDBRANCH  11  24
ENDBRANCH   4   7
ENDBRANCH   2   3
ENDBRANCH   1   2
BRANCH   1  30
ATOM     30  C   UNL A   1      33.030  32.303  27.582  1.00  0.00     0.023 C 
BRANCH  30  31
ATOM     31  C   UNL A   1      33.612  33.713  27.556  1.00  0.00     0.116 C 
BRANCH  31  32
ATOM     32  N   UNL A   1      33.053  34.585  28.578  1.00  0.00    -0.352 N 
ATOM     33  C   UNL A   1      33.438  34.692  29.894  1.00  0.00     0.251 C 
ATOM     34  H   UNL A   1      32.311  35.167  28.295  1.00  0.00     0.163 HD
ATOM     35  O   UNL A   1      32.808  35.397  30.674  1.00  0.00    -0.269 OA
BRANCH  33  36
ATOM     36  C   UNL A   1      34.598  33.905  30.354  1.00  0.00     0.039 A 
ATOM     37  C   UNL A   1      35.884  34.346  30.037  1.00  0.00     0.014 A 
ATOM     38  C   UNL A   1      34.405  32.779  31.158  1.00  0.00     0.014 A 
ATOM     39  C   UNL A   1      36.987  33.691  30.587  1.00  0.00     0.010 A 
ATOM     40  C   UNL A   1      35.502  32.169  31.754  1.00  0.00     0.010 A 
ATOM     41  C   UNL A   1      36.802  32.621  31.477  1.00  0.00    -0.014 A 
BRANCH  41  42
ATOM     42  C   UNL A   1      37.948  31.941  32.129  1.00  0.00     0.031 A 
ATOM     43  C   UNL A   1      38.381  32.372  33.502  1.00  0.00     0.074 A 
ATOM     44  C   UNL A   1      38.653  31.012  31.453  1.00  0.00     0.049 A 
ATOM     45  N   UNL A   1      39.435  32.011  34.186  1.00  0.00    -0.248 NA
ATOM     46  C   UNL A   1      37.531  33.364  34.182  1.00  0.00     0.031 C 
ATOM     47  C   UNL A   1      38.353  30.534  30.102  1.00  0.00     0.029 A 
ATOM     48  N   UNL A   1      39.782  30.317  31.808  1.00  0.00    -0.354 N 
ATOM     49  C   UNL A   1      39.393  32.753  35.361  1.00  0.00     0.074 A 
ATOM     50  C   UNL A   1      38.232  33.614  35.277  1.00  0.00     0.031 C 
ATOM     51  C   UNL A   1      39.265  29.612  29.748  1.00  0.00     0.029 A 
ATOM     52  C   UNL A   1      40.237  29.465  30.828  1.00  0.00     0.049 A 
ATOM     53  H   UNL A   1      40.224  30.417  32.681  1.00  0.00     0.167 HD
ATOM     54  C   UNL A   1      40.237  32.714  36.419  1.00  0.00     0.031 A 
ATOM     55  C   UNL A   1      41.322  28.667  30.797  1.00  0.00     0.031 A 
ATOM     56  C   UNL A   1      41.375  31.840  36.507  1.00  0.00     0.049 A 
ATOM     57  C   UNL A   1      42.237  28.629  31.991  1.00  0.00     0.074 A 
ATOM     58  C   UNL A   1      42.263  31.687  37.556  1.00  0.00     0.029 A 
ATOM     59  N   UNL A   1      41.776  30.965  35.509  1.00  0.00    -0.354 N 
ATOM     60  N   UNL A   1      42.158  29.309  33.110  1.00  0.00    -0.248 NA
ATOM     61  C   UNL A   1      43.381  27.709  31.921  1.00  0.00     0.031 C 
ATOM     62  C   UNL A   1      43.223  30.742  37.179  1.00  0.00     0.029 A 
ATOM     63  C   UNL A   1      42.905  30.273  35.914  1.00  0.00     0.049 A 
ATOM     64  H   UNL A   1      41.327  30.852  34.640  1.00  0.00     0.167 HD
ATOM     65  C   UNL A   1      43.223  28.874  33.891  1.00  0.00     0.074 A 
ATOM     66  C   UNL A   1      43.927  27.870  33.119  1.00  0.00     0.031 C 
ATOM     67  C   UNL A   1      43.583  29.267  35.137  1.00  0.00     0.031 A 
BRANCH  54  68
ATOM     68  C   UNL A   1      39.956  33.651  37.562  1.00  0.00    -0.014 A 
ATOM     69  C   UNL A   1      40.600  34.898  37.653  1.00  0.00     0.010 A 
ATOM     70  C   UNL A   1      39.021  33.288  38.549  1.00  0.00     0.010 A 
ATOM     71  C   UNL A   1      40.352  35.744  38.736  1.00  0.00     0.020 A 
ATOM     72  C   UNL A   1      38.748  34.145  39.619  1.00  0.00     0.020 A 
ATOM     73  C   UNL A   1      39.432  35.359  39.717  1.00  0.00     0.054 A 
BRANCH  73  74
ATOM     74  S   UNL A   1      39.120  36.481  41.107  1.00  0.00     0.124 S 
ATOM     75  O   UNL A   1      38.522  37.632  40.435  1.00  0.00    -0.237 OA
ATOM     76  O   UNL A   1      38.213  35.706  41.949  1.00  0.00    -0.237 OA
ATOM     77  O   UNL A   1      40.448  36.710  41.672  1.00  0.00    -0.744 OA
ENDBRANCH  73  74
ENDBRANCH  54  68
BRANCH  55  78
ATOM     78  C   UNL A   1      41.590  27.824  29.602  1.00  0.00    -0.014 A 
ATOM     79  C   UNL A   1      42.448  28.284  28.587  1.00  0.00     0.010 A 
ATOM     80  C   UNL A   1      41.001  26.553  29.475  1.00  0.00     0.010 A 
ATOM     81  C   UNL A   1      42.699  27.496  27.459  1.00  0.00     0.020 A 
ATOM     82  C   UNL A   1      41.269  25.751  28.361  1.00  0.00     0.020 A 
ATOM     83  C   UNL A   1      42.108  26.235  27.354  1.00  0.00     0.054 A 
BRANCH  83  84
ATOM     84  S   UNL A   1      42.489  25.207  25.908  1.00  0.00     0.124 S 
ATOM     85  O   UNL A   1      41.636  24.044  26.130  1.00  0.00    -0.237 OA
ATOM     86  O   UNL A   1      42.106  26.072  24.795  1.00  0.00    -0.237 OA
ATOM     87  O   UNL A   1      43.926  24.965  26.031  1.00  0.00    -0.744 OA
ENDBRANCH  83  84
ENDBRANCH  55  78
BRANCH  67  88
ATOM     88  C   UNL A   1      44.759  28.578  35.772  1.00  0.00    -0.014 A 
ATOM     89  C   UNL A   1      46.059  29.102  35.660  1.00  0.00     0.010 A 
ATOM     90  C   UNL A   1      44.545  27.430  36.556  1.00  0.00     0.010 A 
ATOM     91  C   UNL A   1      47.127  28.475  36.306  1.00  0.00     0.020 A 
ATOM     92  C   UNL A   1      45.607  26.815  37.222  1.00  0.00     0.020 A 
ATOM     93  C   UNL A   1      46.894  27.336  37.084  1.00  0.00     0.054 A 
BRANCH  93  94
ATOM     94  S   UNL A   1      48.287  26.575  37.963  1.00  0.00     0.124 S 
ATOM     95  O   UNL A   1      49.104  26.076  36.862  1.00  0.00    -0.237 OA
ATOM     96  O   UNL A   1      48.851  27.700  38.706  1.00  0.00    -0.237 OA
ATOM     97  O   UNL A   1      47.655  25.548  38.788  1.00  0.00    -0.744 OA
ENDBRANCH  93  94
ENDBRANCH  67  88
ENDBRANCH  41  42
ENDBRANCH  33  36
ENDBRANCH  31  32
ENDBRANCH  30  31
ENDBRANCH   1  30
TORSDOF 18
ENDMDL
