MODEL 1
REMARK VINA RESULT:     -12.9      0.000      0.000
REMARK SMILES Cc1ccc(S(=O)(=O)n2cc(C(=O)C(=O)N[C@H](Cc3c[nH]c4ccccc34)C(=O)NCC(=O)NCCCCNC(=O)c3ccc(-c4c5nc(c(-c6ccc(S(=O)(=O)[O-])cc6)c6ccc([nH]6)c(-c6ccc(S(=O)(=O)[O-])cc6)c6nc(c(-c7ccc(S(=O)(=O)[O-])cc7)c7ccc4[nH]7)C=C6)C=C5)cc3)c3ccccc32)cc1
REMARK SMILES IDX 32 1 33 2 34 3 31 5 30 6 28 7 29 8 17 10 16 11 14 12 15 13
REMARK SMILES IDX 12 15 13 16 11 17 9 18 10 19 107 20 102 21 106 22 103 23
REMARK SMILES IDX 105 24 104 25 6 26 7 27 8 28 5 29 1 30 2 31 3 32 109 33 4 34
REMARK SMILES IDX 108 35 18 36 19 37 20 38 27 39 21 40 22 41 26 42 23 44 25 45
REMARK SMILES IDX 24 46 35 47 36 48 37 49 38 50 39 51 40 52 41 54 42 55 43 56
REMARK SMILES IDX 101 57 44 58 100 59 45 60 46 61 47 62 94 63 48 64 99 65
REMARK SMILES IDX 93 66 95 67 49 68 98 69 92 70 91 71 50 73 80 74 61 75 79 76
REMARK SMILES IDX 62 77 65 78 78 79 96 80 63 81 64 82 77 84 97 85 66 86 51 87
REMARK SMILES IDX 52 88 60 89 53 90 59 91 54 92 55 93 56 94 57 95 58 96 81 97
REMARK SMILES IDX 82 98 90 99 83 100 89 101 84 102 85 103 86 104 87 105 88 106
REMARK SMILES IDX 67 107 68 108 76 109 69 110 75 111 70 112 71 113 72 114
REMARK SMILES IDX 73 115 74 116
REMARK H PARENT 34 4 30 9 16 14 21 43 39 53 95 72 65 83
REMARK Flexibility Score: inf
ROOT
ATOM      1  C   UNL A   1      34.601  22.423  26.754  1.00  0.00     0.239 C 
ATOM      2  O   UNL A   1      34.423  22.733  27.938  1.00  0.00    -0.273 OA
ATOM      3  N   UNL A   1      35.471  21.405  26.500  1.00  0.00    -0.355 N 
ATOM      4  H   UNL A   1      36.004  21.115  27.275  1.00  0.00     0.163 HD
ENDROOT
BRANCH   1   5
ATOM      5  C   UNL A   1      33.753  23.093  25.662  1.00  0.00     0.216 C 
BRANCH   5   6
ATOM      6  N   UNL A   1      34.320  23.131  24.336  1.00  0.00    -0.345 N 
ATOM      7  C   UNL A   1      33.831  22.925  23.097  1.00  0.00     0.243 C 
ATOM      8  O   UNL A   1      34.587  23.333  22.203  1.00  0.00    -0.273 OA
ATOM      9  H   UNL A   1      35.278  23.360  24.337  1.00  0.00     0.164 HD
BRANCH   7  10
ATOM     10  C   UNL A   1      32.485  22.236  22.702  1.00  0.00     0.176 C 
BRANCH  10  11
ATOM     11  N   UNL A   1      31.175  22.890  23.047  1.00  0.00    -0.337 N 
ATOM     12  C   UNL A   1      30.706  24.199  23.071  1.00  0.00     0.293 C 
ATOM     13  O   UNL A   1      29.578  24.425  23.499  1.00  0.00    -0.265 OA
ATOM     14  H   UNL A   1      30.489  22.239  23.322  1.00  0.00     0.164 HD
BRANCH  12  15
ATOM     15  C   UNL A   1      31.563  25.342  22.526  1.00  0.00     0.252 C 
ATOM     16  O   UNL A   1      31.940  25.182  21.364  1.00  0.00    -0.283 OA
BRANCH  15  17
ATOM     17  C   UNL A   1      31.956  26.569  23.238  1.00  0.00     0.054 A 
ATOM     18  N   UNL A   1      32.876  28.283  24.384  1.00  0.00    -0.240 N 
ATOM     19  C   UNL A   1      33.142  27.016  23.822  1.00  0.00     0.117 A 
ATOM     20  C   UNL A   1      31.749  28.772  23.730  1.00  0.00     0.065 A 
ATOM     21  C   UNL A   1      31.013  27.621  23.478  1.00  0.00     0.012 A 
ATOM     22  C   UNL A   1      31.188  30.051  23.628  1.00  0.00     0.028 A 
ATOM     23  C   UNL A   1      29.613  27.717  23.444  1.00  0.00     0.011 A 
ATOM     24  C   UNL A   1      29.793  30.118  23.506  1.00  0.00     0.002 A 
ATOM     25  C   UNL A   1      29.009  28.966  23.501  1.00  0.00     0.001 A 
BRANCH  18  26
ATOM     26  S   UNL A   1      32.798  28.435  26.168  1.00  0.00     0.268 S 
ATOM     27  O   UNL A   1      33.473  27.252  26.674  1.00  0.00    -0.201 OA
ATOM     28  O   UNL A   1      31.402  28.691  26.477  1.00  0.00    -0.201 OA
BRANCH  26  29
ATOM     29  C   UNL A   1      33.699  29.841  26.773  1.00  0.00     0.088 A 
ATOM     30  C   UNL A   1      35.272  33.083  29.151  1.00  0.00     0.044 C 
ATOM     31  C   UNL A   1      34.752  31.953  28.309  1.00  0.00    -0.051 A 
ATOM     32  C   UNL A   1      33.486  32.068  27.734  1.00  0.00     0.005 A 
ATOM     33  C   UNL A   1      35.501  30.786  28.076  1.00  0.00     0.005 A 
ATOM     34  C   UNL A   1      32.964  31.023  26.974  1.00  0.00     0.022 A 
ATOM     35  C   UNL A   1      34.976  29.722  27.320  1.00  0.00     0.022 A 
ENDBRANCH  26  29
ENDBRANCH  18  26
ENDBRANCH  15  17
ENDBRANCH  12  15
ENDBRANCH  10  11
BRANCH  10  36
ATOM     36  C   UNL A   1      32.443  20.679  22.605  1.00  0.00     0.072 C 
BRANCH  36  37
ATOM     37  C   UNL A   1      32.631  19.811  23.828  1.00  0.00    -0.020 A 
ATOM     38  C   UNL A   1      32.227  20.163  25.111  1.00  0.00     0.087 A 
ATOM     39  C   UNL A   1      33.099  18.452  23.925  1.00  0.00     0.003 A 
ATOM     40  N   UNL A   1      32.423  19.097  25.951  1.00  0.00    -0.361 N 
ATOM     41  C   UNL A   1      33.046  18.080  25.268  1.00  0.00     0.046 A 
ATOM     42  C   UNL A   1      33.562  17.483  23.007  1.00  0.00     0.010 A 
ATOM     43  H   UNL A   1      32.159  19.066  26.900  1.00  0.00     0.166 HD
ATOM     44  C   UNL A   1      33.504  16.849  25.752  1.00  0.00     0.026 A 
ATOM     45  C   UNL A   1      34.024  16.242  23.469  1.00  0.00     0.001 A 
ATOM     46  C   UNL A   1      34.014  15.938  24.828  1.00  0.00     0.002 A 
ENDBRANCH  36  37
ENDBRANCH  10  36
ENDBRANCH   7  10
ENDBRANCH   5   6
ENDBRANCH   1   5
BRANCH   3  47
ATOM     47  C   UNL A   1      35.741  20.675  25.269  1.00  0.00     0.116 C 
BRANCH  47  48
ATOM     48  C   UNL A   1      37.129  20.974  24.695  1.00  0.00     0.023 C 
BRANCH  48  49
ATOM     49  C   UNL A   1      38.297  20.567  25.599  1.00  0.00     0.023 C 
BRANCH  49  50
ATOM     50  C   UNL A   1      39.135  21.722  26.128  1.00  0.00     0.116 C 
BRANCH  50  51
ATOM     51  N   UNL A   1      39.010  22.980  25.409  1.00  0.00    -0.352 N 
ATOM     52  C   UNL A   1      38.357  24.026  26.075  1.00  0.00     0.251 C 
ATOM     53  H   UNL A   1      39.368  23.092  24.499  1.00  0.00     0.163 HD
ATOM     54  O   UNL A   1      37.173  24.104  26.264  1.00  0.00    -0.269 OA
BRANCH  52  55
ATOM     55  C   UNL A   1      39.319  24.815  26.884  1.00  0.00     0.039 A 
ATOM     56  C   UNL A   1      39.265  24.912  28.273  1.00  0.00     0.014 A 
ATOM     57  C   UNL A   1      40.127  25.662  26.126  1.00  0.00     0.014 A 
ATOM     58  C   UNL A   1      39.954  25.956  28.902  1.00  0.00     0.010 A 
ATOM     59  C   UNL A   1      40.714  26.741  26.733  1.00  0.00     0.010 A 
ATOM     60  C   UNL A   1      40.621  26.900  28.121  1.00  0.00    -0.014 A 
BRANCH  60  61
ATOM     61  C   UNL A   1      41.238  28.135  28.586  1.00  0.00     0.031 A 
ATOM     62  C   UNL A   1      40.382  29.303  28.903  1.00  0.00     0.074 A 
ATOM     63  C   UNL A   1      42.501  28.069  29.057  1.00  0.00     0.049 A 
ATOM     64  N   UNL A   1      40.816  30.459  29.277  1.00  0.00    -0.248 NA
ATOM     65  C   UNL A   1      38.925  29.256  28.789  1.00  0.00     0.031 C 
ATOM     66  C   UNL A   1      43.123  28.921  30.065  1.00  0.00     0.029 A 
ATOM     67  N   UNL A   1      43.552  27.315  28.568  1.00  0.00    -0.354 N 
ATOM     68  C   UNL A   1      39.740  31.162  29.774  1.00  0.00     0.074 A 
ATOM     69  C   UNL A   1      38.580  30.419  29.345  1.00  0.00     0.031 C 
ATOM     70  C   UNL A   1      44.459  28.809  29.967  1.00  0.00     0.029 A 
ATOM     71  C   UNL A   1      44.737  28.030  28.771  1.00  0.00     0.049 A 
ATOM     72  H   UNL A   1      43.479  26.427  28.149  1.00  0.00     0.167 HD
ATOM     73  C   UNL A   1      39.964  32.204  30.626  1.00  0.00     0.031 A 
ATOM     74  C   UNL A   1      45.443  28.509  27.697  1.00  0.00     0.031 A 
ATOM     75  C   UNL A   1      41.389  32.535  30.692  1.00  0.00     0.049 A 
ATOM     76  C   UNL A   1      45.482  30.025  27.619  1.00  0.00     0.074 A 
ATOM     77  C   UNL A   1      42.380  32.308  31.635  1.00  0.00     0.029 A 
ATOM     78  N   UNL A   1      42.039  32.939  29.530  1.00  0.00    -0.354 N 
ATOM     79  N   UNL A   1      44.701  30.818  28.302  1.00  0.00    -0.248 NA
ATOM     80  C   UNL A   1      46.400  30.770  26.759  1.00  0.00     0.031 C 
ATOM     81  C   UNL A   1      43.638  32.469  30.991  1.00  0.00     0.029 A 
ATOM     82  C   UNL A   1      43.409  32.831  29.675  1.00  0.00     0.049 A 
ATOM     83  H   UNL A   1      41.585  33.258  28.717  1.00  0.00     0.167 HD
ATOM     84  C   UNL A   1      44.974  32.125  27.997  1.00  0.00     0.074 A 
ATOM     85  C   UNL A   1      46.061  32.043  27.036  1.00  0.00     0.031 C 
ATOM     86  C   UNL A   1      44.284  33.163  28.556  1.00  0.00     0.031 A 
BRANCH  73  87
ATOM     87  C   UNL A   1      38.933  32.743  31.604  1.00  0.00    -0.014 A 
ATOM     88  C   UNL A   1      38.640  32.015  32.778  1.00  0.00     0.010 A 
ATOM     89  C   UNL A   1      38.160  33.901  31.399  1.00  0.00     0.010 A 
ATOM     90  C   UNL A   1      37.589  32.374  33.641  1.00  0.00     0.020 A 
ATOM     91  C   UNL A   1      37.096  34.265  32.240  1.00  0.00     0.020 A 
ATOM     92  C   UNL A   1      36.806  33.489  33.353  1.00  0.00     0.054 A 
BRANCH  92  93
ATOM     93  S   UNL A   1      35.414  33.907  34.432  1.00  0.00     0.124 S 
ATOM     94  O   UNL A   1      34.338  33.078  33.893  1.00  0.00    -0.237 OA
ATOM     95  O   UNL A   1      35.910  33.521  35.749  1.00  0.00    -0.237 OA
ATOM     96  O   UNL A   1      35.241  35.346  34.234  1.00  0.00    -0.744 OA
ENDBRANCH  92  93
ENDBRANCH  73  87
BRANCH  74  97
ATOM     97  C   UNL A   1      45.417  27.572  26.529  1.00  0.00    -0.014 A 
ATOM     98  C   UNL A   1      46.368  26.525  26.539  1.00  0.00     0.010 A 
ATOM     99  C   UNL A   1      44.241  27.413  25.774  1.00  0.00     0.010 A 
ATOM    100  C   UNL A   1      46.047  25.272  26.012  1.00  0.00     0.020 A 
ATOM    101  C   UNL A   1      43.929  26.160  25.223  1.00  0.00     0.020 A 
ATOM    102  C   UNL A   1      44.792  25.080  25.434  1.00  0.00     0.054 A 
BRANCH 102 103
ATOM    103  S   UNL A   1      44.212  23.369  25.219  1.00  0.00     0.124 S 
ATOM    104  O   UNL A   1      44.686  23.031  23.882  1.00  0.00    -0.237 OA
ATOM    105  O   UNL A   1      44.896  22.681  26.321  1.00  0.00    -0.237 OA
ATOM    106  O   UNL A   1      42.764  23.474  25.365  1.00  0.00    -0.744 OA
ENDBRANCH 102 103
ENDBRANCH  74  97
BRANCH  86 107
ATOM    107  C   UNL A   1      44.391  34.617  28.155  1.00  0.00    -0.014 A 
ATOM    108  C   UNL A   1      43.401  35.317  27.450  1.00  0.00     0.010 A 
ATOM    109  C   UNL A   1      45.493  35.370  28.632  1.00  0.00     0.010 A 
ATOM    110  C   UNL A   1      43.531  36.688  27.183  1.00  0.00     0.020 A 
ATOM    111  C   UNL A   1      45.611  36.744  28.410  1.00  0.00     0.020 A 
ATOM    112  C   UNL A   1      44.637  37.392  27.663  1.00  0.00     0.054 A 
BRANCH 112 113
ATOM    113  S   UNL A   1      44.765  39.176  27.376  1.00  0.00     0.124 S 
ATOM    114  O   UNL A   1      44.026  39.333  26.126  1.00  0.00    -0.237 OA
ATOM    115  O   UNL A   1      44.123  39.747  28.558  1.00  0.00    -0.237 OA
ATOM    116  O   UNL A   1      46.206  39.403  27.288  1.00  0.00    -0.744 OA
ENDBRANCH 112 113
ENDBRANCH  86 107
ENDBRANCH  60  61
ENDBRANCH  52  55
ENDBRANCH  50  51
ENDBRANCH  49  50
ENDBRANCH  48  49
ENDBRANCH  47  48
ENDBRANCH   3  47
TORSDOF 23
ENDMDL
MODEL 2
REMARK VINA RESULT:     -12.6      3.529     10.092
REMARK SMILES Cc1ccc(S(=O)(=O)n2cc(C(=O)C(=O)N[C@H](Cc3c[nH]c4ccccc34)C(=O)NCC(=O)NCCCCNC(=O)c3ccc(-c4c5nc(c(-c6ccc(S(=O)(=O)[O-])cc6)c6ccc([nH]6)c(-c6ccc(S(=O)(=O)[O-])cc6)c6nc(c(-c7ccc(S(=O)(=O)[O-])cc7)c7ccc4[nH]7)C=C6)C=C5)cc3)c3ccccc32)cc1
REMARK SMILES IDX 32 1 33 2 34 3 31 5 30 6 28 7 29 8 17 10 16 11 14 12 15 13
REMARK SMILES IDX 12 15 13 16 11 17 9 18 10 19 107 20 102 21 106 22 103 23
REMARK SMILES IDX 105 24 104 25 6 26 7 27 8 28 5 29 1 30 2 31 3 32 109 33 4 34
REMARK SMILES IDX 108 35 18 36 19 37 20 38 27 39 21 40 22 41 26 42 23 44 25 45
REMARK SMILES IDX 24 46 35 47 36 48 37 49 38 50 39 51 40 52 41 54 42 55 43 56
REMARK SMILES IDX 101 57 44 58 100 59 45 60 46 61 47 62 94 63 48 64 99 65
REMARK SMILES IDX 93 66 95 67 49 68 98 69 92 70 91 71 50 73 80 74 61 75 79 76
REMARK SMILES IDX 62 77 65 78 78 79 96 80 63 81 64 82 77 84 97 85 66 86 51 87
REMARK SMILES IDX 52 88 60 89 53 90 59 91 54 92 55 93 56 94 57 95 58 96 81 97
REMARK SMILES IDX 82 98 90 99 83 100 89 101 84 102 85 103 86 104 87 105 88 106
REMARK SMILES IDX 67 107 68 108 76 109 69 110 75 111 70 112 71 113 72 114
REMARK SMILES IDX 73 115 74 116
REMARK H PARENT 34 4 30 9 16 14 21 43 39 53 95 72 65 83
REMARK Flexibility Score: inf
ROOT
ATOM      1  C   UNL A   1      33.422  25.709  23.231  1.00  0.00     0.239 C 
ATOM      2  O   UNL A   1      34.045  25.004  22.430  1.00  0.00    -0.273 OA
ATOM      3  N   UNL A   1      32.223  26.211  22.819  1.00  0.00    -0.355 N 
ATOM      4  H   UNL A   1      32.039  26.100  21.858  1.00  0.00     0.163 HD
ENDROOT
BRANCH   1   5
ATOM      5  C   UNL A   1      33.949  25.871  24.665  1.00  0.00     0.216 C 
BRANCH   5   6
ATOM      6  N   UNL A   1      33.330  25.050  25.678  1.00  0.00    -0.345 N 
ATOM      7  C   UNL A   1      33.626  23.858  26.232  1.00  0.00     0.243 C 
ATOM      8  O   UNL A   1      32.988  23.636  27.272  1.00  0.00    -0.273 OA
ATOM      9  H   UNL A   1      32.509  25.452  26.046  1.00  0.00     0.164 HD
BRANCH   7  10
ATOM     10  C   UNL A   1      34.625  22.778  25.705  1.00  0.00     0.176 C 
BRANCH  10  11
ATOM     11  N   UNL A   1      35.408  23.030  24.446  1.00  0.00    -0.337 N 
ATOM     12  C   UNL A   1      36.716  22.791  24.036  1.00  0.00     0.293 C 
ATOM     13  O   UNL A   1      37.089  23.208  22.944  1.00  0.00    -0.265 OA
ATOM     14  H   UNL A   1      34.869  23.467  23.747  1.00  0.00     0.164 HD
BRANCH  12  15
ATOM     15  C   UNL A   1      37.668  21.977  24.913  1.00  0.00     0.252 C 
ATOM     16  O   UNL A   1      37.614  20.761  24.725  1.00  0.00    -0.283 OA
BRANCH  15  17
ATOM     17  C   UNL A   1      38.609  22.499  25.918  1.00  0.00     0.054 A 
ATOM     18  N   UNL A   1      39.831  23.587  27.474  1.00  0.00    -0.240 N 
ATOM     19  C   UNL A   1      38.625  23.625  26.742  1.00  0.00     0.117 A 
ATOM     20  C   UNL A   1      40.259  22.263  27.454  1.00  0.00     0.065 A 
ATOM     21  C   UNL A   1      39.837  21.819  26.208  1.00  0.00     0.012 A 
ATOM     22  C   UNL A   1      41.191  21.553  28.222  1.00  0.00     0.028 A 
ATOM     23  C   UNL A   1      40.592  20.828  25.560  1.00  0.00     0.011 A 
ATOM     24  C   UNL A   1      41.870  20.509  27.577  1.00  0.00     0.002 A 
ATOM     25  C   UNL A   1      41.634  20.208  26.238  1.00  0.00     0.001 A 
BRANCH  18  26
ATOM     26  S   UNL A   1      41.119  24.767  27.073  1.00  0.00     0.268 S 
ATOM     27  O   UNL A   1      41.499  25.354  28.346  1.00  0.00    -0.201 OA
ATOM     28  O   UNL A   1      40.577  25.588  26.003  1.00  0.00    -0.201 OA
BRANCH  26  29
ATOM     29  C   UNL A   1      42.571  23.992  26.408  1.00  0.00     0.088 A 
ATOM     30  C   UNL A   1      45.699  21.221  25.321  1.00  0.00     0.044 C 
ATOM     31  C   UNL A   1      44.616  22.201  25.673  1.00  0.00    -0.051 A 
ATOM     32  C   UNL A   1      44.574  22.724  26.966  1.00  0.00     0.005 A 
ATOM     33  C   UNL A   1      43.647  22.613  24.741  1.00  0.00     0.005 A 
ATOM     34  C   UNL A   1      43.562  23.610  27.330  1.00  0.00     0.022 A 
ATOM     35  C   UNL A   1      42.615  23.498  25.105  1.00  0.00     0.022 A 
ENDBRANCH  26  29
ENDBRANCH  18  26
ENDBRANCH  15  17
ENDBRANCH  12  15
ENDBRANCH  10  11
BRANCH  10  36
ATOM     36  C   UNL A   1      34.335  21.276  26.016  1.00  0.00     0.072 C 
BRANCH  36  37
ATOM     37  C   UNL A   1      33.585  20.403  25.037  1.00  0.00    -0.020 A 
ATOM     38  C   UNL A   1      32.459  20.804  24.328  1.00  0.00     0.087 A 
ATOM     39  C   UNL A   1      33.921  19.096  24.530  1.00  0.00     0.003 A 
ATOM     40  N   UNL A   1      32.118  19.821  23.434  1.00  0.00    -0.361 N 
ATOM     41  C   UNL A   1      32.937  18.732  23.611  1.00  0.00     0.046 A 
ATOM     42  C   UNL A   1      34.970  18.176  24.748  1.00  0.00     0.010 A 
ATOM     43  H   UNL A   1      31.396  19.886  22.767  1.00  0.00     0.166 HD
ATOM     44  C   UNL A   1      32.891  17.486  22.976  1.00  0.00     0.026 A 
ATOM     45  C   UNL A   1      34.946  16.922  24.119  1.00  0.00     0.001 A 
ATOM     46  C   UNL A   1      33.907  16.575  23.260  1.00  0.00     0.002 A 
ENDBRANCH  36  37
ENDBRANCH  10  36
ENDBRANCH   7  10
ENDBRANCH   5   6
ENDBRANCH   1   5
BRANCH   3  47
ATOM     47  C   UNL A   1      31.171  26.886  23.567  1.00  0.00     0.116 C 
BRANCH  47  48
ATOM     48  C   UNL A   1      30.633  28.125  22.845  1.00  0.00     0.023 C 
BRANCH  48  49
ATOM     49  C   UNL A   1      30.841  29.445  23.595  1.00  0.00     0.023 C 
BRANCH  49  50
ATOM     50  C   UNL A   1      31.925  29.415  24.661  1.00  0.00     0.116 C 
BRANCH  50  51
ATOM     51  N   UNL A   1      31.858  30.462  25.667  1.00  0.00    -0.352 N 
ATOM     52  C   UNL A   1      32.318  30.136  26.951  1.00  0.00     0.251 C 
ATOM     53  H   UNL A   1      31.507  31.358  25.457  1.00  0.00     0.163 HD
ATOM     54  O   UNL A   1      31.744  29.441  27.744  1.00  0.00    -0.269 OA
BRANCH  52  55
ATOM     55  C   UNL A   1      33.775  30.396  27.067  1.00  0.00     0.039 A 
ATOM     56  C   UNL A   1      34.757  29.503  26.643  1.00  0.00     0.014 A 
ATOM     57  C   UNL A   1      34.086  31.493  27.870  1.00  0.00     0.014 A 
ATOM     58  C   UNL A   1      36.061  29.654  27.130  1.00  0.00     0.010 A 
ATOM     59  C   UNL A   1      35.336  31.577  28.425  1.00  0.00     0.010 A 
ATOM     60  C   UNL A   1      36.326  30.653  28.067  1.00  0.00    -0.014 A 
BRANCH  60  61
ATOM     61  C   UNL A   1      37.566  30.847  28.805  1.00  0.00     0.031 A 
ATOM     62  C   UNL A   1      38.602  29.786  28.783  1.00  0.00     0.074 A 
ATOM     63  C   UNL A   1      37.889  32.104  29.175  1.00  0.00     0.049 A 
ATOM     64  N   UNL A   1      39.716  29.825  29.433  1.00  0.00    -0.248 NA
ATOM     65  C   UNL A   1      38.434  28.549  28.022  1.00  0.00     0.031 C 
ATOM     66  C   UNL A   1      39.222  32.664  29.366  1.00  0.00     0.029 A 
ATOM     67  N   UNL A   1      37.045  33.096  29.641  1.00  0.00    -0.354 N 
ATOM     68  C   UNL A   1      40.527  28.836  28.919  1.00  0.00     0.074 A 
ATOM     69  C   UNL A   1      39.649  28.006  28.131  1.00  0.00     0.031 C 
ATOM     70  C   UNL A   1      39.124  33.783  30.104  1.00  0.00     0.029 A 
ATOM     71  C   UNL A   1      37.749  33.871  30.569  1.00  0.00     0.049 A 
ATOM     72  H   UNL A   1      36.109  33.232  29.368  1.00  0.00     0.167 HD
ATOM     73  C   UNL A   1      41.877  28.929  29.093  1.00  0.00     0.031 A 
ATOM     74  C   UNL A   1      37.390  33.856  31.891  1.00  0.00     0.031 A 
ATOM     75  C   UNL A   1      42.217  30.007  30.024  1.00  0.00     0.049 A 
ATOM     76  C   UNL A   1      38.441  33.249  32.804  1.00  0.00     0.074 A 
ATOM     77  C   UNL A   1      42.734  31.282  29.861  1.00  0.00     0.029 A 
ATOM     78  N   UNL A   1      41.741  29.942  31.330  1.00  0.00    -0.354 N 
ATOM     79  N   UNL A   1      39.456  32.541  32.388  1.00  0.00    -0.248 NA
ATOM     80  C   UNL A   1      38.429  33.384  34.259  1.00  0.00     0.031 C 
ATOM     81  C   UNL A   1      42.458  32.019  31.047  1.00  0.00     0.029 A 
ATOM     82  C   UNL A   1      41.812  31.181  31.938  1.00  0.00     0.049 A 
ATOM     83  H   UNL A   1      41.399  29.125  31.760  1.00  0.00     0.167 HD
ATOM     84  C   UNL A   1      40.209  32.126  33.454  1.00  0.00     0.074 A 
ATOM     85  C   UNL A   1      39.533  32.696  34.606  1.00  0.00     0.031 C 
ATOM     86  C   UNL A   1      41.321  31.348  33.301  1.00  0.00     0.031 A 
BRANCH  73  87
ATOM     87  C   UNL A   1      42.900  28.228  28.214  1.00  0.00    -0.014 A 
ATOM     88  C   UNL A   1      44.003  27.579  28.811  1.00  0.00     0.010 A 
ATOM     89  C   UNL A   1      42.888  28.234  26.807  1.00  0.00     0.010 A 
ATOM     90  C   UNL A   1      45.063  27.050  28.053  1.00  0.00     0.020 A 
ATOM     91  C   UNL A   1      43.945  27.726  26.034  1.00  0.00     0.020 A 
ATOM     92  C   UNL A   1      45.037  27.148  26.664  1.00  0.00     0.054 A 
BRANCH  92  93
ATOM     93  S   UNL A   1      46.436  26.524  25.698  1.00  0.00     0.124 S 
ATOM     94  O   UNL A   1      47.379  26.116  26.737  1.00  0.00    -0.237 OA
ATOM     95  O   UNL A   1      45.830  25.438  24.933  1.00  0.00    -0.237 OA
ATOM     96  O   UNL A   1      46.855  27.679  24.905  1.00  0.00    -0.744 OA
ENDBRANCH  92  93
ENDBRANCH  73  87
BRANCH  74  97
ATOM     97  C   UNL A   1      35.907  33.765  32.083  1.00  0.00    -0.014 A 
ATOM     98  C   UNL A   1      35.404  34.201  33.330  1.00  0.00     0.010 A 
ATOM     99  C   UNL A   1      35.047  33.763  30.969  1.00  0.00     0.010 A 
ATOM    100  C   UNL A   1      34.163  34.838  33.411  1.00  0.00     0.020 A 
ATOM    101  C   UNL A   1      33.790  34.381  31.055  1.00  0.00     0.020 A 
ATOM    102  C   UNL A   1      33.405  34.997  32.251  1.00  0.00     0.054 A 
BRANCH 102 103
ATOM    103  S   UNL A   1      32.073  36.235  32.273  1.00  0.00     0.124 S 
ATOM    104  O   UNL A   1      32.545  37.203  33.256  1.00  0.00    -0.237 OA
ATOM    105  O   UNL A   1      32.075  36.702  30.881  1.00  0.00    -0.237 OA
ATOM    106  O   UNL A   1      30.894  35.468  32.661  1.00  0.00    -0.744 OA
ENDBRANCH 102 103
ENDBRANCH  74  97
BRANCH  86 107
ATOM    107  C   UNL A   1      42.109  30.699  34.416  1.00  0.00    -0.014 A 
ATOM    108  C   UNL A   1      41.614  29.680  35.245  1.00  0.00     0.010 A 
ATOM    109  C   UNL A   1      43.480  31.032  34.558  1.00  0.00     0.010 A 
ATOM    110  C   UNL A   1      42.430  29.066  36.208  1.00  0.00     0.020 A 
ATOM    111  C   UNL A   1      44.312  30.395  35.482  1.00  0.00     0.020 A 
ATOM    112  C   UNL A   1      43.772  29.429  36.321  1.00  0.00     0.054 A 
BRANCH 112 113
ATOM    113  S   UNL A   1      44.838  28.583  37.517  1.00  0.00     0.124 S 
ATOM    114  O   UNL A   1      46.071  28.416  36.753  1.00  0.00    -0.237 OA
ATOM    115  O   UNL A   1      44.912  29.534  38.623  1.00  0.00    -0.237 OA
ATOM    116  O   UNL A   1      44.109  27.352  37.810  1.00  0.00    -0.744 OA
ENDBRANCH 112 113
ENDBRANCH  86 107
ENDBRANCH  60  61
ENDBRANCH  52  55
ENDBRANCH  50  51
ENDBRANCH  49  50
ENDBRANCH  48  49
ENDBRANCH  47  48
ENDBRANCH   3  47
TORSDOF 23
ENDMDL
MODEL 3
REMARK VINA RESULT:     -11.3      3.485      9.993
REMARK SMILES Cc1ccc(S(=O)(=O)n2cc(C(=O)C(=O)N[C@H](Cc3c[nH]c4ccccc34)C(=O)NCC(=O)NCCCCNC(=O)c3ccc(-c4c5nc(c(-c6ccc(S(=O)(=O)[O-])cc6)c6ccc([nH]6)c(-c6ccc(S(=O)(=O)[O-])cc6)c6nc(c(-c7ccc(S(=O)(=O)[O-])cc7)c7ccc4[nH]7)C=C6)C=C5)cc3)c3ccccc32)cc1
REMARK SMILES IDX 32 1 33 2 34 3 31 5 30 6 28 7 29 8 17 10 16 11 14 12 15 13
REMARK SMILES IDX 12 15 13 16 11 17 9 18 10 19 107 20 102 21 106 22 103 23
REMARK SMILES IDX 105 24 104 25 6 26 7 27 8 28 5 29 1 30 2 31 3 32 109 33 4 34
REMARK SMILES IDX 108 35 18 36 19 37 20 38 27 39 21 40 22 41 26 42 23 44 25 45
REMARK SMILES IDX 24 46 35 47 36 48 37 49 38 50 39 51 40 52 41 54 42 55 43 56
REMARK SMILES IDX 101 57 44 58 100 59 45 60 46 61 47 62 94 63 48 64 99 65
REMARK SMILES IDX 93 66 95 67 49 68 98 69 92 70 91 71 50 73 80 74 61 75 79 76
REMARK SMILES IDX 62 77 65 78 78 79 96 80 63 81 64 82 77 84 97 85 66 86 51 87
REMARK SMILES IDX 52 88 60 89 53 90 59 91 54 92 55 93 56 94 57 95 58 96 81 97
REMARK SMILES IDX 82 98 90 99 83 100 89 101 84 102 85 103 86 104 87 105 88 106
REMARK SMILES IDX 67 107 68 108 76 109 69 110 75 111 70 112 71 113 72 114
REMARK SMILES IDX 73 115 74 116
REMARK H PARENT 34 4 30 9 16 14 21 43 39 53 95 72 65 83
REMARK Flexibility Score: inf
ROOT
ATOM      1  C   UNL A   1      32.095  25.478  23.068  1.00  0.00     0.239 C 
ATOM      2  O   UNL A   1      31.755  24.437  22.494  1.00  0.00    -0.273 OA
ATOM      3  N   UNL A   1      31.424  26.619  22.741  1.00  0.00    -0.355 N 
ATOM      4  H   UNL A   1      30.837  26.540  21.955  1.00  0.00     0.163 HD
ENDROOT
BRANCH   1   5
ATOM      5  C   UNL A   1      33.139  25.414  24.194  1.00  0.00     0.216 C 
BRANCH   5   6
ATOM      6  N   UNL A   1      32.751  24.718  25.396  1.00  0.00    -0.345 N 
ATOM      7  C   UNL A   1      33.289  23.714  26.117  1.00  0.00     0.243 C 
ATOM      8  O   UNL A   1      32.781  23.600  27.243  1.00  0.00    -0.273 OA
ATOM      9  H   UNL A   1      31.904  25.051  25.774  1.00  0.00     0.164 HD
BRANCH   7  10
ATOM     10  C   UNL A   1      34.414  22.720  25.684  1.00  0.00     0.176 C 
BRANCH  10  11
ATOM     11  N   UNL A   1      35.292  23.045  24.506  1.00  0.00    -0.337 N 
ATOM     12  C   UNL A   1      36.649  22.922  24.226  1.00  0.00     0.293 C 
ATOM     13  O   UNL A   1      37.089  23.375  23.174  1.00  0.00    -0.265 OA
ATOM     14  H   UNL A   1      34.788  23.438  23.757  1.00  0.00     0.164 HD
BRANCH  12  15
ATOM     15  C   UNL A   1      37.578  22.189  25.194  1.00  0.00     0.252 C 
ATOM     16  O   UNL A   1      37.400  20.971  25.242  1.00  0.00    -0.283 OA
BRANCH  15  17
ATOM     17  C   UNL A   1      38.628  22.786  26.035  1.00  0.00     0.054 A 
ATOM     18  N   UNL A   1      40.042  24.008  27.303  1.00  0.00    -0.240 N 
ATOM     19  C   UNL A   1      38.794  24.031  26.646  1.00  0.00     0.117 A 
ATOM     20  C   UNL A   1      40.360  22.666  27.493  1.00  0.00     0.065 A 
ATOM     21  C   UNL A   1      39.815  22.057  26.370  1.00  0.00     0.012 A 
ATOM     22  C   UNL A   1      41.285  22.015  28.319  1.00  0.00     0.028 A 
ATOM     23  C   UNL A   1      40.440  20.905  25.866  1.00  0.00     0.011 A 
ATOM     24  C   UNL A   1      41.830  20.819  27.831  1.00  0.00     0.002 A 
ATOM     25  C   UNL A   1      41.474  20.317  26.581  1.00  0.00     0.001 A 
BRANCH  18  26
ATOM     26  S   UNL A   1      41.388  24.979  26.627  1.00  0.00     0.268 S 
ATOM     27  O   UNL A   1      41.807  25.847  27.715  1.00  0.00    -0.201 OA
ATOM     28  O   UNL A   1      40.884  25.531  25.381  1.00  0.00    -0.201 OA
BRANCH  26  29
ATOM     29  C   UNL A   1      42.794  23.986  26.189  1.00  0.00     0.088 A 
ATOM     30  C   UNL A   1      46.441  22.440  24.473  1.00  0.00     0.044 C 
ATOM     31  C   UNL A   1      45.178  22.962  25.096  1.00  0.00    -0.051 A 
ATOM     32  C   UNL A   1      44.008  22.977  24.335  1.00  0.00     0.005 A 
ATOM     33  C   UNL A   1      45.134  23.429  26.421  1.00  0.00     0.005 A 
ATOM     34  C   UNL A   1      42.828  23.485  24.876  1.00  0.00     0.022 A 
ATOM     35  C   UNL A   1      43.949  23.954  26.970  1.00  0.00     0.022 A 
ENDBRANCH  26  29
ENDBRANCH  18  26
ENDBRANCH  15  17
ENDBRANCH  12  15
ENDBRANCH  10  11
BRANCH  10  36
ATOM     36  C   UNL A   1      34.214  21.197  25.961  1.00  0.00     0.072 C 
BRANCH  36  37
ATOM     37  C   UNL A   1      33.518  20.303  24.962  1.00  0.00    -0.020 A 
ATOM     38  C   UNL A   1      32.426  20.686  24.191  1.00  0.00     0.087 A 
ATOM     39  C   UNL A   1      33.885  18.990  24.494  1.00  0.00     0.003 A 
ATOM     40  N   UNL A   1      32.134  19.686  23.299  1.00  0.00    -0.361 N 
ATOM     41  C   UNL A   1      32.948  18.604  23.535  1.00  0.00     0.046 A 
ATOM     42  C   UNL A   1      34.926  18.079  24.780  1.00  0.00     0.010 A 
ATOM     43  H   UNL A   1      31.445  19.736  22.596  1.00  0.00     0.166 HD
ATOM     44  C   UNL A   1      32.939  17.347  22.920  1.00  0.00     0.026 A 
ATOM     45  C   UNL A   1      34.939  16.814  24.172  1.00  0.00     0.001 A 
ATOM     46  C   UNL A   1      33.945  16.447  23.270  1.00  0.00     0.002 A 
ENDBRANCH  36  37
ENDBRANCH  10  36
ENDBRANCH   7  10
ENDBRANCH   5   6
ENDBRANCH   1   5
BRANCH   3  47
ATOM     47  C   UNL A   1      31.435  27.936  23.363  1.00  0.00     0.116 C 
BRANCH  47  48
ATOM     48  C   UNL A   1      32.543  28.840  22.817  1.00  0.00     0.023 C 
BRANCH  48  49
ATOM     49  C   UNL A   1      33.815  28.883  23.671  1.00  0.00     0.023 C 
BRANCH  49  50
ATOM     50  C   UNL A   1      33.580  28.922  25.173  1.00  0.00     0.116 C 
BRANCH  50  51
ATOM     51  N   UNL A   1      33.541  30.244  25.778  1.00  0.00    -0.352 N 
ATOM     52  C   UNL A   1      33.742  30.311  27.164  1.00  0.00     0.251 C 
ATOM     53  H   UNL A   1      33.383  31.053  25.240  1.00  0.00     0.163 HD
ATOM     54  O   UNL A   1      32.945  29.987  28.002  1.00  0.00    -0.269 OA
BRANCH  52  55
ATOM     55  C   UNL A   1      35.187  30.429  27.480  1.00  0.00     0.039 A 
ATOM     56  C   UNL A   1      35.994  29.348  27.828  1.00  0.00     0.014 A 
ATOM     57  C   UNL A   1      35.618  31.744  27.652  1.00  0.00     0.014 A 
ATOM     58  C   UNL A   1      37.215  29.597  28.467  1.00  0.00     0.010 A 
ATOM     59  C   UNL A   1      36.762  31.981  28.368  1.00  0.00     0.010 A 
ATOM     60  C   UNL A   1      37.559  30.910  28.789  1.00  0.00    -0.014 A 
BRANCH  60  61
ATOM     61  C   UNL A   1      38.692  31.338  29.598  1.00  0.00     0.031 A 
ATOM     62  C   UNL A   1      39.852  30.431  29.769  1.00  0.00     0.074 A 
ATOM     63  C   UNL A   1      38.817  32.657  29.857  1.00  0.00     0.049 A 
ATOM     64  N   UNL A   1      40.887  30.682  30.496  1.00  0.00    -0.248 NA
ATOM     65  C   UNL A   1      39.914  29.117  29.132  1.00  0.00     0.031 C 
ATOM     66  C   UNL A   1      40.045  33.409  30.092  1.00  0.00     0.029 A 
ATOM     67  N   UNL A   1      37.814  33.564  30.148  1.00  0.00    -0.354 N 
ATOM     68  C   UNL A   1      41.861  29.768  30.156  1.00  0.00     0.074 A 
ATOM     69  C   UNL A   1      41.172  28.756  29.393  1.00  0.00     0.031 C 
ATOM     70  C   UNL A   1      39.738  34.568  30.698  1.00  0.00     0.029 A 
ATOM     71  C   UNL A   1      38.326  34.512  31.041  1.00  0.00     0.049 A 
ATOM     72  H   UNL A   1      36.897  33.546  29.790  1.00  0.00     0.167 HD
ATOM     73  C   UNL A   1      43.167  30.060  30.424  1.00  0.00     0.031 A 
ATOM     74  C   UNL A   1      37.851  34.573  32.326  1.00  0.00     0.031 A 
ATOM     75  C   UNL A   1      43.280  31.257  31.260  1.00  0.00     0.049 A 
ATOM     76  C   UNL A   1      38.883  34.203  33.377  1.00  0.00     0.074 A 
ATOM     77  C   UNL A   1      43.644  32.569  31.004  1.00  0.00     0.029 A 
ATOM     78  N   UNL A   1      42.698  31.251  32.524  1.00  0.00    -0.354 N 
ATOM     79  N   UNL A   1      40.014  33.603  33.119  1.00  0.00    -0.248 NA
ATOM     80  C   UNL A   1      38.720  34.472  34.804  1.00  0.00     0.031 C 
ATOM     81  C   UNL A   1      43.169  33.370  32.080  1.00  0.00     0.029 A 
ATOM     82  C   UNL A   1      42.555  32.539  33.002  1.00  0.00     0.049 A 
ATOM     83  H   UNL A   1      42.425  30.439  33.010  1.00  0.00     0.167 HD
ATOM     84  C   UNL A   1      40.713  33.397  34.279  1.00  0.00     0.074 A 
ATOM     85  C   UNL A   1      39.867  33.975  35.308  1.00  0.00     0.031 C 
ATOM     86  C   UNL A   1      41.924  32.766  34.297  1.00  0.00     0.031 A 
BRANCH  73  87
ATOM     87  C   UNL A   1      44.347  29.424  29.707  1.00  0.00    -0.014 A 
ATOM     88  C   UNL A   1      44.548  29.681  28.334  1.00  0.00     0.010 A 
ATOM     89  C   UNL A   1      45.243  28.508  30.290  1.00  0.00     0.010 A 
ATOM     90  C   UNL A   1      45.521  29.004  27.577  1.00  0.00     0.020 A 
ATOM     91  C   UNL A   1      46.209  27.810  29.548  1.00  0.00     0.020 A 
ATOM     92  C   UNL A   1      46.333  28.052  28.188  1.00  0.00     0.054 A 
BRANCH  92  93
ATOM     93  S   UNL A   1      47.540  27.137  27.195  1.00  0.00     0.124 S 
ATOM     94  O   UNL A   1      47.418  25.780  27.725  1.00  0.00    -0.237 OA
ATOM     95  O   UNL A   1      47.042  27.331  25.837  1.00  0.00    -0.237 OA
ATOM     96  O   UNL A   1      48.809  27.801  27.490  1.00  0.00    -0.744 OA
ENDBRANCH  92  93
ENDBRANCH  73  87
BRANCH  74  97
ATOM     97  C   UNL A   1      36.381  34.300  32.409  1.00  0.00    -0.014 A 
ATOM     98  C   UNL A   1      35.716  34.772  33.564  1.00  0.00     0.010 A 
ATOM     99  C   UNL A   1      35.633  34.085  31.237  1.00  0.00     0.010 A 
ATOM    100  C   UNL A   1      34.402  35.240  33.484  1.00  0.00     0.020 A 
ATOM    101  C   UNL A   1      34.304  34.532  31.163  1.00  0.00     0.020 A 
ATOM    102  C   UNL A   1      33.739  35.193  32.258  1.00  0.00     0.054 A 
BRANCH 102 103
ATOM    103  S   UNL A   1      32.263  36.237  32.054  1.00  0.00     0.124 S 
ATOM    104  O   UNL A   1      31.190  35.385  32.553  1.00  0.00    -0.237 OA
ATOM    105  O   UNL A   1      32.594  37.391  32.900  1.00  0.00    -0.237 OA
ATOM    106  O   UNL A   1      32.231  36.515  30.622  1.00  0.00    -0.744 OA
ENDBRANCH 102 103
ENDBRANCH  74  97
BRANCH  86 107
ATOM    107  C   UNL A   1      42.682  32.337  35.533  1.00  0.00    -0.014 A 
ATOM    108  C   UNL A   1      44.074  32.429  35.677  1.00  0.00     0.010 A 
ATOM    109  C   UNL A   1      41.943  31.945  36.676  1.00  0.00     0.010 A 
ATOM    110  C   UNL A   1      44.704  32.089  36.885  1.00  0.00     0.020 A 
ATOM    111  C   UNL A   1      42.555  31.648  37.897  1.00  0.00     0.020 A 
ATOM    112  C   UNL A   1      43.940  31.699  37.986  1.00  0.00     0.054 A 
BRANCH 112 113
ATOM    113  S   UNL A   1      44.751  31.330  39.562  1.00  0.00     0.124 S 
ATOM    114  O   UNL A   1      45.498  32.561  39.810  1.00  0.00    -0.237 OA
ATOM    115  O   UNL A   1      43.627  31.089  40.463  1.00  0.00    -0.237 OA
ATOM    116  O   UNL A   1      45.562  30.153  39.260  1.00  0.00    -0.744 OA
ENDBRANCH 112 113
ENDBRANCH  86 107
ENDBRANCH  60  61
ENDBRANCH  52  55
ENDBRANCH  50  51
ENDBRANCH  49  50
ENDBRANCH  48  49
ENDBRANCH  47  48
ENDBRANCH   3  47
TORSDOF 23
ENDMDL
