MODEL 1
REMARK VINA RESULT:     -11.0      0.000      0.000
REMARK SMILES O=C(NCCCCNC(=O)[C@@H]1CN(c2nc(-c3ccccc3)no2)CC[NH2+]1)c1ccc(-c2c3nc(c(-c4ccc(S(=O)(=O)[O-])cc4)c4ccc([nH]4)c(-c4ccc(S(=O)(=O)[O-])cc4)c4nc(c(-c5ccc(S(=O)(=O)[O-])cc5)c5ccc2[nH]5)C=C4)C=C3)cc1
REMARK SMILES IDX 5 1 4 2 3 3 1 4 2 5 28 7 29 8 87 9 30 10 86 11 31 12 32 13
REMARK SMILES IDX 33 14 80 15 34 16 85 17 79 18 81 19 35 20 84 21 78 22 77 23
REMARK SMILES IDX 36 25 66 26 47 27 65 28 48 29 51 30 64 31 82 32 49 33 50 34
REMARK SMILES IDX 63 36 83 37 52 38 37 39 38 40 46 41 39 42 45 43 40 44 41 45
REMARK SMILES IDX 42 46 43 47 44 48 67 49 68 50 76 51 69 52 75 53 70 54 71 55
REMARK SMILES IDX 72 56 73 57 74 58 53 59 54 60 62 61 55 62 61 63 56 64 57 65
REMARK SMILES IDX 58 66 59 67 60 68 6 69 7 70 8 71 9 72 10 74 11 75 12 76
REMARK SMILES IDX 27 77 13 78 26 79 25 82 14 83 15 84 24 85 16 86 23 87 17 88
REMARK SMILES IDX 18 89 22 90 19 91 21 92 20 93
REMARK H PARENT 3 6 81 24 51 35 8 73 27 80 27 81
REMARK Flexibility Score: inf
ROOT
ATOM      1  C   UNL A   1      40.526  22.340  26.356  1.00  0.00     0.023 C 
ENDROOT
BRANCH   1   2
ATOM      2  C   UNL A   1      41.670  23.269  26.753  1.00  0.00     0.116 C 
BRANCH   2   3
ATOM      3  N   UNL A   1      42.087  24.153  25.675  1.00  0.00    -0.352 N 
ATOM      4  O   UNL A   1      42.477  26.120  24.644  1.00  0.00    -0.269 OA
ATOM      5  C   UNL A   1      42.229  25.519  25.687  1.00  0.00     0.251 C 
ATOM      6  H   UNL A   1      42.297  23.711  24.821  1.00  0.00     0.163 HD
BRANCH   5   7
ATOM      7  C   UNL A   1      42.049  26.267  26.951  1.00  0.00     0.039 A 
ATOM      8  C   UNL A   1      41.162  25.812  27.930  1.00  0.00     0.014 A 
ATOM      9  C   UNL A   1      42.771  27.447  27.150  1.00  0.00     0.014 A 
ATOM     10  C   UNL A   1      40.897  26.604  29.043  1.00  0.00     0.010 A 
ATOM     11  C   UNL A   1      42.555  28.207  28.303  1.00  0.00     0.010 A 
ATOM     12  C   UNL A   1      41.589  27.811  29.241  1.00  0.00    -0.014 A 
BRANCH  12  13
ATOM     13  C   UNL A   1      41.306  28.626  30.449  1.00  0.00     0.031 A 
ATOM     14  C   UNL A   1      42.191  28.548  31.664  1.00  0.00     0.074 A 
ATOM     15  C   UNL A   1      40.255  29.469  30.436  1.00  0.00     0.049 A 
ATOM     16  N   UNL A   1      42.113  29.225  32.782  1.00  0.00    -0.248 NA
ATOM     17  C   UNL A   1      43.302  27.584  31.621  1.00  0.00     0.031 C 
ATOM     18  C   UNL A   1      39.322  29.633  29.318  1.00  0.00     0.029 A 
ATOM     19  N   UNL A   1      39.809  30.361  31.376  1.00  0.00    -0.354 N 
ATOM     20  C   UNL A   1      43.146  28.754  33.585  1.00  0.00     0.074 A 
ATOM     21  C   UNL A   1      43.824  27.720  32.832  1.00  0.00     0.031 C 
ATOM     22  C   UNL A   1      38.448  30.606  29.615  1.00  0.00     0.029 A 
ATOM     23  C   UNL A   1      38.724  31.097  30.962  1.00  0.00     0.049 A 
ATOM     24  H   UNL A   1      40.225  30.465  32.262  1.00  0.00     0.167 HD
ATOM     25  C   UNL A   1      43.498  29.147  34.834  1.00  0.00     0.031 A 
ATOM     26  C   UNL A   1      38.025  32.059  31.592  1.00  0.00     0.031 A 
ATOM     27  C   UNL A   1      42.824  30.179  35.579  1.00  0.00     0.049 A 
ATOM     28  C   UNL A   1      38.426  32.470  32.977  1.00  0.00     0.074 A 
ATOM     29  C   UNL A   1      43.127  30.671  36.838  1.00  0.00     0.029 A 
ATOM     30  N   UNL A   1      41.708  30.873  35.139  1.00  0.00    -0.354 N 
ATOM     31  N   UNL A   1      39.423  32.031  33.708  1.00  0.00    -0.248 NA
ATOM     32  C   UNL A   1      37.609  33.505  33.622  1.00  0.00     0.031 C 
ATOM     33  C   UNL A   1      42.169  31.633  37.175  1.00  0.00     0.029 A 
ATOM     34  C   UNL A   1      41.296  31.774  36.108  1.00  0.00     0.049 A 
ATOM     35  H   UNL A   1      41.271  30.745  34.266  1.00  0.00     0.167 HD
ATOM     36  C   UNL A   1      39.365  32.751  34.895  1.00  0.00     0.074 A 
ATOM     37  C   UNL A   1      38.242  33.660  34.778  1.00  0.00     0.031 C 
ATOM     38  C   UNL A   1      40.171  32.666  35.982  1.00  0.00     0.031 A 
BRANCH  25  39
ATOM     39  C   UNL A   1      44.650  28.427  35.485  1.00  0.00    -0.014 A 
ATOM     40  C   UNL A   1      45.973  28.883  35.343  1.00  0.00     0.010 A 
ATOM     41  C   UNL A   1      44.402  27.281  36.263  1.00  0.00     0.010 A 
ATOM     42  C   UNL A   1      47.032  28.175  35.920  1.00  0.00     0.020 A 
ATOM     43  C   UNL A   1      45.455  26.584  36.861  1.00  0.00     0.020 A 
ATOM     44  C   UNL A   1      46.766  27.022  36.666  1.00  0.00     0.054 A 
BRANCH  44  45
ATOM     45  S   UNL A   1      48.156  26.110  37.393  1.00  0.00     0.124 S 
ATOM     46  O   UNL A   1      48.477  25.159  36.331  1.00  0.00    -0.237 OA
ATOM     47  O   UNL A   1      49.150  27.157  37.617  1.00  0.00    -0.237 OA
ATOM     48  O   UNL A   1      47.589  25.525  38.605  1.00  0.00    -0.744 OA
ENDBRANCH  44  45
ENDBRANCH  25  39
BRANCH  26  49
ATOM     49  C   UNL A   1      36.884  32.705  30.893  1.00  0.00    -0.014 A 
ATOM     50  C   UNL A   1      35.562  32.384  31.246  1.00  0.00     0.010 A 
ATOM     51  C   UNL A   1      37.115  33.692  29.916  1.00  0.00     0.010 A 
ATOM     52  C   UNL A   1      34.489  33.041  30.637  1.00  0.00     0.020 A 
ATOM     53  C   UNL A   1      36.046  34.368  29.323  1.00  0.00     0.020 A 
ATOM     54  C   UNL A   1      34.739  34.034  29.685  1.00  0.00     0.054 A 
BRANCH  54  55
ATOM     55  S   UNL A   1      33.336  34.939  28.974  1.00  0.00     0.124 S 
ATOM     56  O   UNL A   1      33.992  36.104  28.389  1.00  0.00    -0.237 OA
ATOM     57  O   UNL A   1      32.787  33.977  28.022  1.00  0.00    -0.237 OA
ATOM     58  O   UNL A   1      32.486  35.212  30.131  1.00  0.00    -0.744 OA
ENDBRANCH  54  55
ENDBRANCH  26  49
BRANCH  38  59
ATOM     59  C   UNL A   1      39.880  33.602  37.123  1.00  0.00    -0.014 A 
ATOM     60  C   UNL A   1      40.473  34.875  37.188  1.00  0.00     0.010 A 
ATOM     61  C   UNL A   1      38.974  33.212  38.125  1.00  0.00     0.010 A 
ATOM     62  C   UNL A   1      40.191  35.730  38.257  1.00  0.00     0.020 A 
ATOM     63  C   UNL A   1      38.672  34.073  39.183  1.00  0.00     0.020 A 
ATOM     64  C   UNL A   1      39.295  35.321  39.251  1.00  0.00     0.054 A 
BRANCH  64  65
ATOM     65  S   UNL A   1      38.916  36.459  40.613  1.00  0.00     0.124 S 
ATOM     66  O   UNL A   1      40.205  36.554  41.294  1.00  0.00    -0.237 OA
ATOM     67  O   UNL A   1      38.484  37.667  39.914  1.00  0.00    -0.237 OA
ATOM     68  O   UNL A   1      37.866  35.767  41.356  1.00  0.00    -0.744 OA
ENDBRANCH  64  65
ENDBRANCH  38  59
ENDBRANCH  12  13
ENDBRANCH   5   7
ENDBRANCH   2   3
ENDBRANCH   1   2
BRANCH   1  69
ATOM     69  C   UNL A   1      40.346  21.102  27.239  1.00  0.00     0.023 C 
BRANCH  69  70
ATOM     70  C   UNL A   1      41.644  20.379  27.596  1.00  0.00     0.116 C 
BRANCH  70  71
ATOM     71  N   UNL A   1      41.711  19.072  26.975  1.00  0.00    -0.351 N 
ATOM     72  C   UNL A   1      42.728  18.534  26.235  1.00  0.00     0.280 C 
ATOM     73  H   UNL A   1      40.923  18.495  27.102  1.00  0.00     0.163 HD
ATOM     74  O   UNL A   1      42.584  17.396  25.784  1.00  0.00    -0.268 OA
BRANCH  72  75
ATOM     75  C   UNL A   1      44.036  19.328  26.060  1.00  0.00     0.292 C 
ATOM     76  C   UNL A   1      43.856  20.363  24.921  1.00  0.00     0.197 C 
ATOM     77  N   UNL A   1      45.132  18.339  25.787  1.00  0.00    -0.333 N 
ATOM     78  N   UNL A   1      45.138  20.984  24.571  1.00  0.00    -0.312 N 
ATOM     79  C   UNL A   1      46.378  19.056  25.458  1.00  0.00     0.283 C 
ATOM     80  H   UNL A   1      44.865  17.746  25.001  1.00  0.00     0.347 HD
ATOM     81  H   UNL A   1      45.283  17.762  26.614  1.00  0.00     0.347 HD
ATOM     82  C   UNL A   1      46.230  20.056  24.287  1.00  0.00     0.183 C 
BRANCH  78  83
ATOM     83  C   UNL A   1      45.399  22.262  24.914  1.00  0.00     0.324 A 
ATOM     84  N   UNL A   1      45.122  22.910  26.021  1.00  0.00    -0.171 NA
ATOM     85  O   UNL A   1      46.058  23.041  24.000  1.00  0.00    -0.315 OA
ATOM     86  C   UNL A   1      45.686  24.144  25.794  1.00  0.00     0.204 A 
ATOM     87  N   UNL A   1      46.245  24.289  24.584  1.00  0.00    -0.055 NA
BRANCH  86  88
ATOM     88  C   UNL A   1      45.781  25.168  26.813  1.00  0.00     0.023 A 
ATOM     89  C   UNL A   1      46.389  26.398  26.542  1.00  0.00     0.012 A 
ATOM     90  C   UNL A   1      45.306  24.896  28.103  1.00  0.00     0.012 A 
ATOM     91  C   UNL A   1      46.532  27.342  27.563  1.00  0.00     0.001 A 
ATOM     92  C   UNL A   1      45.450  25.842  29.119  1.00  0.00     0.001 A 
ATOM     93  C   UNL A   1      46.066  27.062  28.848  1.00  0.00     0.000 A 
ENDBRANCH  86  88
ENDBRANCH  78  83
ENDBRANCH  72  75
ENDBRANCH  70  71
ENDBRANCH  69  70
ENDBRANCH   1  69
TORSDOF 16
ENDMDL
MODEL 2
REMARK VINA RESULT:     -10.9      5.285      7.610
REMARK SMILES O=C(NCCCCNC(=O)[C@@H]1CN(c2nc(-c3ccccc3)no2)CC[NH2+]1)c1ccc(-c2c3nc(c(-c4ccc(S(=O)(=O)[O-])cc4)c4ccc([nH]4)c(-c4ccc(S(=O)(=O)[O-])cc4)c4nc(c(-c5ccc(S(=O)(=O)[O-])cc5)c5ccc2[nH]5)C=C4)C=C3)cc1
REMARK SMILES IDX 5 1 4 2 3 3 1 4 2 5 28 7 29 8 87 9 30 10 86 11 31 12 32 13
REMARK SMILES IDX 33 14 80 15 34 16 85 17 79 18 81 19 35 20 84 21 78 22 77 23
REMARK SMILES IDX 36 25 66 26 47 27 65 28 48 29 51 30 64 31 82 32 49 33 50 34
REMARK SMILES IDX 63 36 83 37 52 38 37 39 38 40 46 41 39 42 45 43 40 44 41 45
REMARK SMILES IDX 42 46 43 47 44 48 67 49 68 50 76 51 69 52 75 53 70 54 71 55
REMARK SMILES IDX 72 56 73 57 74 58 53 59 54 60 62 61 55 62 61 63 56 64 57 65
REMARK SMILES IDX 58 66 59 67 60 68 6 69 7 70 8 71 9 72 10 74 11 75 12 76
REMARK SMILES IDX 27 77 13 78 26 79 25 82 14 83 15 84 24 85 16 86 23 87 17 88
REMARK SMILES IDX 18 89 22 90 19 91 21 92 20 93
REMARK H PARENT 3 6 81 24 51 35 8 73 27 80 27 81
REMARK Flexibility Score: inf
ROOT
ATOM      1  C   UNL A   1      35.642  23.644  26.040  1.00  0.00     0.023 C 
ENDROOT
BRANCH   1   2
ATOM      2  C   UNL A   1      36.871  23.756  25.143  1.00  0.00     0.116 C 
BRANCH   2   3
ATOM      3  N   UNL A   1      37.887  22.757  25.439  1.00  0.00    -0.352 N 
ATOM      4  O   UNL A   1      39.865  21.974  26.186  1.00  0.00    -0.269 OA
ATOM      5  C   UNL A   1      39.063  22.903  26.134  1.00  0.00     0.251 C 
ATOM      6  H   UNL A   1      37.706  21.853  25.094  1.00  0.00     0.163 HD
BRANCH   5   7
ATOM      7  C   UNL A   1      39.375  24.192  26.790  1.00  0.00     0.039 A 
ATOM      8  C   UNL A   1      40.094  25.182  26.115  1.00  0.00     0.014 A 
ATOM      9  C   UNL A   1      38.949  24.405  28.104  1.00  0.00     0.014 A 
ATOM     10  C   UNL A   1      40.504  26.324  26.798  1.00  0.00     0.010 A 
ATOM     11  C   UNL A   1      39.302  25.584  28.766  1.00  0.00     0.010 A 
ATOM     12  C   UNL A   1      40.113  26.536  28.131  1.00  0.00    -0.014 A 
BRANCH  12  13
ATOM     13  C   UNL A   1      40.543  27.775  28.829  1.00  0.00     0.031 A 
ATOM     14  C   UNL A   1      41.948  27.928  29.344  1.00  0.00     0.074 A 
ATOM     15  C   UNL A   1      39.660  28.783  28.969  1.00  0.00     0.049 A 
ATOM     16  N   UNL A   1      42.499  28.961  29.932  1.00  0.00    -0.248 NA
ATOM     17  C   UNL A   1      42.849  26.777  29.184  1.00  0.00     0.031 C 
ATOM     18  C   UNL A   1      38.268  28.753  28.513  1.00  0.00     0.029 A 
ATOM     19  N   UNL A   1      39.806  30.033  29.511  1.00  0.00    -0.354 N 
ATOM     20  C   UNL A   1      43.801  28.577  30.235  1.00  0.00     0.074 A 
ATOM     21  C   UNL A   1      43.951  27.210  29.782  1.00  0.00     0.031 C 
ATOM     22  C   UNL A   1      37.705  29.949  28.745  1.00  0.00     0.029 A 
ATOM     23  C   UNL A   1      38.676  30.809  29.413  1.00  0.00     0.049 A 
ATOM     24  H   UNL A   1      40.641  30.347  29.930  1.00  0.00     0.167 HD
ATOM     25  C   UNL A   1      44.782  29.296  30.833  1.00  0.00     0.031 A 
ATOM     26  C   UNL A   1      38.442  32.072  29.814  1.00  0.00     0.031 A 
ATOM     27  C   UNL A   1      44.632  30.657  31.280  1.00  0.00     0.049 A 
ATOM     28  C   UNL A   1      39.538  32.845  30.485  1.00  0.00     0.074 A 
ATOM     29  C   UNL A   1      45.577  31.481  31.867  1.00  0.00     0.029 A 
ATOM     30  N   UNL A   1      43.460  31.394  31.195  1.00  0.00    -0.354 N 
ATOM     31  N   UNL A   1      40.770  32.472  30.736  1.00  0.00    -0.248 NA
ATOM     32  C   UNL A   1      39.213  34.208  30.923  1.00  0.00     0.031 C 
ATOM     33  C   UNL A   1      44.965  32.701  32.175  1.00  0.00     0.029 A 
ATOM     34  C   UNL A   1      43.651  32.654  31.738  1.00  0.00     0.049 A 
ATOM     35  H   UNL A   1      42.616  31.069  30.807  1.00  0.00     0.167 HD
ATOM     36  C   UNL A   1      41.375  33.563  31.348  1.00  0.00     0.074 A 
ATOM     37  C   UNL A   1      40.377  34.611  31.417  1.00  0.00     0.031 C 
ATOM     38  C   UNL A   1      42.645  33.684  31.809  1.00  0.00     0.031 A 
BRANCH  25  39
ATOM     39  C   UNL A   1      46.098  28.604  31.071  1.00  0.00    -0.014 A 
ATOM     40  C   UNL A   1      47.132  28.652  30.119  1.00  0.00     0.010 A 
ATOM     41  C   UNL A   1      46.308  27.904  32.274  1.00  0.00     0.010 A 
ATOM     42  C   UNL A   1      48.331  27.966  30.341  1.00  0.00     0.020 A 
ATOM     43  C   UNL A   1      47.513  27.237  32.510  1.00  0.00     0.020 A 
ATOM     44  C   UNL A   1      48.509  27.253  31.531  1.00  0.00     0.054 A 
BRANCH  44  45
ATOM     45  S   UNL A   1      50.066  26.358  31.791  1.00  0.00     0.124 S 
ATOM     46  O   UNL A   1      51.041  27.285  31.223  1.00  0.00    -0.237 OA
ATOM     47  O   UNL A   1      50.115  26.207  33.243  1.00  0.00    -0.237 OA
ATOM     48  O   UNL A   1      49.879  25.115  31.045  1.00  0.00    -0.744 OA
ENDBRANCH  44  45
ENDBRANCH  25  39
BRANCH  26  49
ATOM     49  C   UNL A   1      37.107  32.678  29.567  1.00  0.00    -0.014 A 
ATOM     50  C   UNL A   1      36.154  32.740  30.598  1.00  0.00     0.010 A 
ATOM     51  C   UNL A   1      36.808  33.253  28.319  1.00  0.00     0.010 A 
ATOM     52  C   UNL A   1      34.925  33.370  30.387  1.00  0.00     0.020 A 
ATOM     53  C   UNL A   1      35.590  33.906  28.111  1.00  0.00     0.020 A 
ATOM     54  C   UNL A   1      34.654  33.955  29.147  1.00  0.00     0.054 A 
BRANCH  54  55
ATOM     55  S   UNL A   1      33.090  34.849  28.922  1.00  0.00     0.124 S 
ATOM     56  O   UNL A   1      33.552  36.164  28.489  1.00  0.00    -0.237 OA
ATOM     57  O   UNL A   1      32.412  34.050  27.905  1.00  0.00    -0.237 OA
ATOM     58  O   UNL A   1      32.479  34.803  30.248  1.00  0.00    -0.744 OA
ENDBRANCH  54  55
ENDBRANCH  26  49
BRANCH  38  59
ATOM     59  C   UNL A   1      43.031  35.009  32.407  1.00  0.00    -0.014 A 
ATOM     60  C   UNL A   1      43.622  36.015  31.623  1.00  0.00     0.010 A 
ATOM     61  C   UNL A   1      42.767  35.260  33.765  1.00  0.00     0.010 A 
ATOM     62  C   UNL A   1      43.975  37.239  32.198  1.00  0.00     0.020 A 
ATOM     63  C   UNL A   1      43.098  36.491  34.337  1.00  0.00     0.020 A 
ATOM     64  C   UNL A   1      43.714  37.468  33.553  1.00  0.00     0.054 A 
BRANCH  64  65
ATOM     65  S   UNL A   1      44.150  39.076  34.272  1.00  0.00     0.124 S 
ATOM     66  O   UNL A   1      45.441  39.347  33.646  1.00  0.00    -0.237 OA
ATOM     67  O   UNL A   1      43.049  39.932  33.839  1.00  0.00    -0.237 OA
ATOM     68  O   UNL A   1      44.196  38.809  35.708  1.00  0.00    -0.744 OA
ENDBRANCH  64  65
ENDBRANCH  38  59
ENDBRANCH  12  13
ENDBRANCH   5   7
ENDBRANCH   2   3
ENDBRANCH   1   2
BRANCH   1  69
ATOM     69  C   UNL A   1      35.401  22.262  26.657  1.00  0.00     0.023 C 
BRANCH  69  70
ATOM     70  C   UNL A   1      34.052  22.104  27.356  1.00  0.00     0.116 C 
BRANCH  70  71
ATOM     71  N   UNL A   1      33.221  21.121  26.689  1.00  0.00    -0.351 N 
ATOM     72  C   UNL A   1      32.497  21.263  25.538  1.00  0.00     0.280 C 
ATOM     73  H   UNL A   1      33.171  20.238  27.121  1.00  0.00     0.163 HD
ATOM     74  O   UNL A   1      31.843  20.299  25.137  1.00  0.00    -0.268 OA
BRANCH  72  75
ATOM     75  C   UNL A   1      32.587  22.581  24.746  1.00  0.00     0.292 C 
ATOM     76  C   UNL A   1      31.270  23.376  24.928  1.00  0.00     0.197 C 
ATOM     77  N   UNL A   1      32.866  22.229  23.313  1.00  0.00    -0.333 N 
ATOM     78  N   UNL A   1      31.222  24.526  24.018  1.00  0.00    -0.312 N 
ATOM     79  C   UNL A   1      32.809  23.447  22.482  1.00  0.00     0.283 C 
ATOM     80  H   UNL A   1      32.168  21.562  22.985  1.00  0.00     0.347 HD
ATOM     81  H   UNL A   1      33.796  21.815  23.241  1.00  0.00     0.347 HD
ATOM     82  C   UNL A   1      31.479  24.226  22.612  1.00  0.00     0.183 C 
BRANCH  78  83
ATOM     83  C   UNL A   1      31.374  25.781  24.488  1.00  0.00     0.324 A 
ATOM     84  N   UNL A   1      32.245  26.261  25.344  1.00  0.00    -0.171 NA
ATOM     85  O   UNL A   1      30.510  26.739  24.025  1.00  0.00    -0.315 OA
ATOM     86  C   UNL A   1      31.931  27.600  25.372  1.00  0.00     0.204 A 
ATOM     87  N   UNL A   1      30.879  27.943  24.614  1.00  0.00    -0.055 NA
BRANCH  86  88
ATOM     88  C   UNL A   1      32.736  28.585  26.063  1.00  0.00     0.023 A 
ATOM     89  C   UNL A   1      34.083  28.340  26.348  1.00  0.00     0.012 A 
ATOM     90  C   UNL A   1      32.137  29.774  26.500  1.00  0.00     0.012 A 
ATOM     91  C   UNL A   1      34.820  29.276  27.079  1.00  0.00     0.001 A 
ATOM     92  C   UNL A   1      32.876  30.707  27.229  1.00  0.00     0.001 A 
ATOM     93  C   UNL A   1      34.216  30.454  27.521  1.00  0.00     0.000 A 
ENDBRANCH  86  88
ENDBRANCH  78  83
ENDBRANCH  72  75
ENDBRANCH  70  71
ENDBRANCH  69  70
ENDBRANCH   1  69
TORSDOF 16
ENDMDL
MODEL 3
REMARK VINA RESULT:     -10.8      5.702     11.611
REMARK SMILES O=C(NCCCCNC(=O)[C@@H]1CN(c2nc(-c3ccccc3)no2)CC[NH2+]1)c1ccc(-c2c3nc(c(-c4ccc(S(=O)(=O)[O-])cc4)c4ccc([nH]4)c(-c4ccc(S(=O)(=O)[O-])cc4)c4nc(c(-c5ccc(S(=O)(=O)[O-])cc5)c5ccc2[nH]5)C=C4)C=C3)cc1
REMARK SMILES IDX 5 1 4 2 3 3 1 4 2 5 28 7 29 8 87 9 30 10 86 11 31 12 32 13
REMARK SMILES IDX 33 14 80 15 34 16 85 17 79 18 81 19 35 20 84 21 78 22 77 23
REMARK SMILES IDX 36 25 66 26 47 27 65 28 48 29 51 30 64 31 82 32 49 33 50 34
REMARK SMILES IDX 63 36 83 37 52 38 37 39 38 40 46 41 39 42 45 43 40 44 41 45
REMARK SMILES IDX 42 46 43 47 44 48 67 49 68 50 76 51 69 52 75 53 70 54 71 55
REMARK SMILES IDX 72 56 73 57 74 58 53 59 54 60 62 61 55 62 61 63 56 64 57 65
REMARK SMILES IDX 58 66 59 67 60 68 6 69 7 70 8 71 9 72 10 74 11 75 12 76
REMARK SMILES IDX 27 77 13 78 26 79 25 82 14 83 15 84 24 85 16 86 23 87 17 88
REMARK SMILES IDX 18 89 22 90 19 91 21 92 20 93
REMARK H PARENT 3 6 81 24 51 35 8 73 27 80 27 81
REMARK Flexibility Score: inf
ROOT
ATOM      1  C   UNL A   1      33.477  27.579  26.192  1.00  0.00     0.023 C 
ENDROOT
BRANCH   1   2
ATOM      2  C   UNL A   1      33.314  28.199  27.577  1.00  0.00     0.116 C 
BRANCH   2   3
ATOM      3  N   UNL A   1      33.257  29.653  27.548  1.00  0.00    -0.352 N 
ATOM      4  O   UNL A   1      33.990  31.760  27.869  1.00  0.00    -0.269 OA
ATOM      5  C   UNL A   1      34.250  30.561  27.826  1.00  0.00     0.251 C 
ATOM      6  H   UNL A   1      32.387  30.038  27.294  1.00  0.00     0.163 HD
BRANCH   5   7
ATOM      7  C   UNL A   1      35.623  30.086  28.108  1.00  0.00     0.039 A 
ATOM      8  C   UNL A   1      35.972  29.623  29.379  1.00  0.00     0.014 A 
ATOM      9  C   UNL A   1      36.574  30.117  27.085  1.00  0.00     0.014 A 
ATOM     10  C   UNL A   1      37.301  29.322  29.662  1.00  0.00     0.010 A 
ATOM     11  C   UNL A   1      37.895  29.747  27.354  1.00  0.00     0.010 A 
ATOM     12  C   UNL A   1      38.277  29.382  28.653  1.00  0.00    -0.014 A 
BRANCH  12  13
ATOM     13  C   UNL A   1      39.684  29.031  28.976  1.00  0.00     0.031 A 
ATOM     14  C   UNL A   1      40.571  29.989  29.724  1.00  0.00     0.074 A 
ATOM     15  C   UNL A   1      40.153  27.821  28.615  1.00  0.00     0.049 A 
ATOM     16  N   UNL A   1      41.805  29.821  30.127  1.00  0.00    -0.248 NA
ATOM     17  C   UNL A   1      40.003  31.304  30.060  1.00  0.00     0.031 C 
ATOM     18  C   UNL A   1      39.390  26.806  27.884  1.00  0.00     0.029 A 
ATOM     19  N   UNL A   1      41.370  27.230  28.833  1.00  0.00    -0.354 N 
ATOM     20  C   UNL A   1      42.172  31.014  30.740  1.00  0.00     0.074 A 
ATOM     21  C   UNL A   1      41.034  31.904  30.639  1.00  0.00     0.031 C 
ATOM     22  C   UNL A   1      40.137  25.699  27.762  1.00  0.00     0.029 A 
ATOM     23  C   UNL A   1      41.447  25.943  28.357  1.00  0.00     0.049 A 
ATOM     24  H   UNL A   1      42.117  27.683  29.287  1.00  0.00     0.167 HD
ATOM     25  C   UNL A   1      43.346  31.339  31.334  1.00  0.00     0.031 A 
ATOM     26  C   UNL A   1      42.457  25.054  28.392  1.00  0.00     0.031 A 
ATOM     27  C   UNL A   1      44.476  30.451  31.437  1.00  0.00     0.049 A 
ATOM     28  C   UNL A   1      43.752  25.439  29.044  1.00  0.00     0.074 A 
ATOM     29  C   UNL A   1      45.697  30.677  32.049  1.00  0.00     0.029 A 
ATOM     30  N   UNL A   1      44.526  29.169  30.909  1.00  0.00    -0.354 N 
ATOM     31  N   UNL A   1      44.068  26.563  29.642  1.00  0.00    -0.248 NA
ATOM     32  C   UNL A   1      44.824  24.437  29.027  1.00  0.00     0.031 C 
ATOM     33  C   UNL A   1      46.500  29.547  31.855  1.00  0.00     0.029 A 
ATOM     34  C   UNL A   1      45.763  28.600  31.163  1.00  0.00     0.049 A 
ATOM     35  H   UNL A   1      43.790  28.729  30.425  1.00  0.00     0.167 HD
ATOM     36  C   UNL A   1      45.372  26.397  30.090  1.00  0.00     0.074 A 
ATOM     37  C   UNL A   1      45.780  25.061  29.704  1.00  0.00     0.031 C 
ATOM     38  C   UNL A   1      46.159  27.272  30.763  1.00  0.00     0.031 A 
BRANCH  25  39
ATOM     39  C   UNL A   1      43.477  32.733  31.889  1.00  0.00    -0.014 A 
ATOM     40  C   UNL A   1      43.178  33.017  33.233  1.00  0.00     0.010 A 
ATOM     41  C   UNL A   1      43.919  33.775  31.052  1.00  0.00     0.010 A 
ATOM     42  C   UNL A   1      43.265  34.327  33.717  1.00  0.00     0.020 A 
ATOM     43  C   UNL A   1      44.030  35.081  31.537  1.00  0.00     0.020 A 
ATOM     44  C   UNL A   1      43.679  35.353  32.861  1.00  0.00     0.054 A 
BRANCH  44  45
ATOM     45  S   UNL A   1      43.770  37.046  33.505  1.00  0.00     0.124 S 
ATOM     46  O   UNL A   1      43.746  37.835  32.275  1.00  0.00    -0.237 OA
ATOM     47  O   UNL A   1      42.572  37.143  34.335  1.00  0.00    -0.237 OA
ATOM     48  O   UNL A   1      45.035  37.071  34.237  1.00  0.00    -0.744 OA
ENDBRANCH  44  45
ENDBRANCH  25  39
BRANCH  26  49
ATOM     49  C   UNL A   1      42.260  23.705  27.800  1.00  0.00    -0.014 A 
ATOM     50  C   UNL A   1      42.653  23.448  26.476  1.00  0.00     0.010 A 
ATOM     51  C   UNL A   1      41.738  22.656  28.579  1.00  0.00     0.010 A 
ATOM     52  C   UNL A   1      42.532  22.162  25.940  1.00  0.00     0.020 A 
ATOM     53  C   UNL A   1      41.638  21.365  28.055  1.00  0.00     0.020 A 
ATOM     54  C   UNL A   1      42.031  21.128  26.737  1.00  0.00     0.054 A 
BRANCH  54  55
ATOM     55  S   UNL A   1      41.968  19.448  26.053  1.00  0.00     0.124 S 
ATOM     56  O   UNL A   1      42.531  18.656  27.142  1.00  0.00    -0.237 OA
ATOM     57  O   UNL A   1      40.541  19.260  25.806  1.00  0.00    -0.237 OA
ATOM     58  O   UNL A   1      42.793  19.539  24.851  1.00  0.00    -0.744 OA
ENDBRANCH  54  55
ENDBRANCH  26  49
BRANCH  38  59
ATOM     59  C   UNL A   1      47.535  26.800  31.145  1.00  0.00    -0.014 A 
ATOM     60  C   UNL A   1      48.628  26.969  30.278  1.00  0.00     0.010 A 
ATOM     61  C   UNL A   1      47.740  26.211  32.406  1.00  0.00     0.010 A 
ATOM     62  C   UNL A   1      49.899  26.522  30.651  1.00  0.00     0.020 A 
ATOM     63  C   UNL A   1      49.013  25.784  32.791  1.00  0.00     0.020 A 
ATOM     64  C   UNL A   1      50.082  25.928  31.905  1.00  0.00     0.054 A 
BRANCH  64  65
ATOM     65  S   UNL A   1      51.746  25.385  32.384  1.00  0.00     0.124 S 
ATOM     66  O   UNL A   1      51.949  26.103  33.639  1.00  0.00    -0.237 OA
ATOM     67  O   UNL A   1      51.590  23.937  32.505  1.00  0.00    -0.237 OA
ATOM     68  O   UNL A   1      52.584  25.823  31.271  1.00  0.00    -0.744 OA
ENDBRANCH  64  65
ENDBRANCH  38  59
ENDBRANCH  12  13
ENDBRANCH   5   7
ENDBRANCH   2   3
ENDBRANCH   1   2
BRANCH   1  69
ATOM     69  C   UNL A   1      32.728  28.289  25.060  1.00  0.00     0.023 C 
BRANCH  69  70
ATOM     70  C   UNL A   1      32.314  27.382  23.902  1.00  0.00     0.116 C 
BRANCH  70  71
ATOM     71  N   UNL A   1      30.873  27.313  23.771  1.00  0.00    -0.351 N 
ATOM     72  C   UNL A   1      30.020  26.364  24.264  1.00  0.00     0.280 C 
ATOM     73  H   UNL A   1      30.453  28.043  23.262  1.00  0.00     0.163 HD
ATOM     74  O   UNL A   1      28.816  26.484  24.034  1.00  0.00    -0.268 OA
BRANCH  72  75
ATOM     75  C   UNL A   1      30.578  25.234  25.150  1.00  0.00     0.292 C 
ATOM     76  C   UNL A   1      30.907  24.007  24.263  1.00  0.00     0.197 C 
ATOM     77  N   UNL A   1      29.552  24.937  26.204  1.00  0.00    -0.333 N 
ATOM     78  N   UNL A   1      31.230  22.836  25.087  1.00  0.00    -0.312 N 
ATOM     79  C   UNL A   1      29.969  23.757  26.986  1.00  0.00     0.283 C 
ATOM     80  H   UNL A   1      28.653  24.749  25.760  1.00  0.00     0.347 HD
ATOM     81  H   UNL A   1      29.464  25.740  26.827  1.00  0.00     0.347 HD
ATOM     82  C   UNL A   1      30.250  22.507  26.120  1.00  0.00     0.183 C 
BRANCH  78  83
ATOM     83  C   UNL A   1      32.498  22.389  25.180  1.00  0.00     0.324 A 
ATOM     84  N   UNL A   1      33.631  23.047  25.107  1.00  0.00    -0.171 NA
ATOM     85  O   UNL A   1      32.683  21.047  25.388  1.00  0.00    -0.315 OA
ATOM     86  C   UNL A   1      34.565  22.062  25.331  1.00  0.00     0.204 A 
ATOM     87  N   UNL A   1      34.053  20.832  25.485  1.00  0.00    -0.055 NA
BRANCH  86  88
ATOM     88  C   UNL A   1      35.975  22.337  25.510  1.00  0.00     0.023 A 
ATOM     89  C   UNL A   1      36.936  21.353  25.260  1.00  0.00     0.012 A 
ATOM     90  C   UNL A   1      36.372  23.590  25.995  1.00  0.00     0.012 A 
ATOM     91  C   UNL A   1      38.286  21.620  25.507  1.00  0.00     0.001 A 
ATOM     92  C   UNL A   1      37.720  23.854  26.241  1.00  0.00     0.001 A 
ATOM     93  C   UNL A   1      38.675  22.867  26.000  1.00  0.00     0.000 A 
ENDBRANCH  86  88
ENDBRANCH  78  83
ENDBRANCH  72  75
ENDBRANCH  70  71
ENDBRANCH  69  70
ENDBRANCH   1  69
TORSDOF 16
ENDMDL
