MODEL 1
REMARK VINA RESULT:     -11.7      0.000      0.000
REMARK SMILES O=C(NCCCCNC(=O)c1cccc(N[C@H]2CCCC[C@@H]2O)c1)c1ccc(-c2c3nc(c(-c4ccc(S(=O)(=O)[O-])cc4)c4ccc([nH]4)c(-c4ccc(S(=O)(=O)[O-])cc4)c4nc(c(-c5ccc(S(=O)(=O)[O-])cc5)c5ccc2[nH]5)C=C4)C=C3)cc1
REMARK SMILES IDX 5 1 4 2 3 3 1 4 2 5 25 7 26 8 84 9 27 10 83 11 28 12 29 13
REMARK SMILES IDX 30 14 77 15 31 16 82 17 76 18 78 19 32 20 81 21 75 22 74 23
REMARK SMILES IDX 33 25 63 26 44 27 62 28 45 29 48 30 61 31 79 32 46 33 47 34
REMARK SMILES IDX 60 36 80 37 49 38 34 39 35 40 43 41 36 42 42 43 37 44 38 45
REMARK SMILES IDX 39 46 40 47 41 48 64 49 65 50 73 51 66 52 72 53 67 54 68 55
REMARK SMILES IDX 69 56 70 57 71 58 50 59 51 60 59 61 52 62 58 63 53 64 54 65
REMARK SMILES IDX 55 66 56 67 57 68 6 69 7 70 8 71 9 72 10 74 11 75 12 76
REMARK SMILES IDX 24 77 13 78 15 79 14 80 16 81 17 83 18 84 22 85 19 86 21 87
REMARK SMILES IDX 20 88 23 89
REMARK H PARENT 3 6 78 24 48 35 8 73 16 82 23 90
REMARK Flexibility Score: inf
ROOT
ATOM      1  C   UNL A   1      32.787  27.535  25.788  1.00  0.00     0.023 C 
ENDROOT
BRANCH   1   2
ATOM      2  C   UNL A   1      33.401  28.084  27.069  1.00  0.00     0.116 C 
BRANCH   2   3
ATOM      3  N   UNL A   1      33.232  29.522  27.209  1.00  0.00    -0.352 N 
ATOM      4  O   UNL A   1      33.756  31.616  27.866  1.00  0.00    -0.269 OA
ATOM      5  C   UNL A   1      34.117  30.454  27.696  1.00  0.00     0.251 C 
ATOM      6  H   UNL A   1      32.363  29.877  26.914  1.00  0.00     0.163 HD
BRANCH   5   7
ATOM      7  C   UNL A   1      35.496  30.045  28.043  1.00  0.00     0.039 A 
ATOM      8  C   UNL A   1      35.808  29.621  29.336  1.00  0.00     0.014 A 
ATOM      9  C   UNL A   1      36.491  30.103  27.063  1.00  0.00     0.014 A 
ATOM     10  C   UNL A   1      37.135  29.395  29.687  1.00  0.00     0.010 A 
ATOM     11  C   UNL A   1      37.813  29.792  27.397  1.00  0.00     0.010 A 
ATOM     12  C   UNL A   1      38.151  29.466  28.719  1.00  0.00    -0.014 A 
BRANCH  12  13
ATOM     13  C   UNL A   1      39.546  29.135  29.104  1.00  0.00     0.031 A 
ATOM     14  C   UNL A   1      40.388  30.098  29.896  1.00  0.00     0.074 A 
ATOM     15  C   UNL A   1      40.040  27.929  28.759  1.00  0.00     0.049 A 
ATOM     16  N   UNL A   1      41.614  29.948  30.333  1.00  0.00    -0.248 NA
ATOM     17  C   UNL A   1      39.785  31.394  30.240  1.00  0.00     0.031 C 
ATOM     18  C   UNL A   1      39.315  26.911  27.992  1.00  0.00     0.029 A 
ATOM     19  N   UNL A   1      41.251  27.344  29.025  1.00  0.00    -0.354 N 
ATOM     20  C   UNL A   1      41.936  31.131  30.986  1.00  0.00     0.074 A 
ATOM     21  C   UNL A   1      40.784  32.000  30.871  1.00  0.00     0.031 C 
ATOM     22  C   UNL A   1      40.074  25.810  27.897  1.00  0.00     0.029 A 
ATOM     23  C   UNL A   1      41.359  26.064  28.538  1.00  0.00     0.049 A 
ATOM     24  H   UNL A   1      41.972  27.798  29.517  1.00  0.00     0.167 HD
ATOM     25  C   UNL A   1      43.084  31.461  31.627  1.00  0.00     0.031 A 
ATOM     26  C   UNL A   1      42.382  25.191  28.586  1.00  0.00     0.031 A 
ATOM     27  C   UNL A   1      44.228  30.592  31.737  1.00  0.00     0.049 A 
ATOM     28  C   UNL A   1      43.652  25.594  29.274  1.00  0.00     0.074 A 
ATOM     29  C   UNL A   1      45.431  30.831  32.382  1.00  0.00     0.029 A 
ATOM     30  N   UNL A   1      44.314  29.321  31.191  1.00  0.00    -0.354 N 
ATOM     31  N   UNL A   1      43.930  26.713  29.896  1.00  0.00    -0.248 NA
ATOM     32  C   UNL A   1      44.749  24.616  29.262  1.00  0.00     0.031 C 
ATOM     33  C   UNL A   1      46.261  29.720  32.186  1.00  0.00     0.029 A 
ATOM     34  C   UNL A   1      45.556  28.770  31.464  1.00  0.00     0.049 A 
ATOM     35  H   UNL A   1      43.599  28.874  30.683  1.00  0.00     0.167 HD
ATOM     36  C   UNL A   1      45.231  26.572  30.362  1.00  0.00     0.074 A 
ATOM     37  C   UNL A   1      45.676  25.251  29.967  1.00  0.00     0.031 C 
ATOM     38  C   UNL A   1      45.988  27.458  31.055  1.00  0.00     0.031 A 
BRANCH  25  39
ATOM     39  C   UNL A   1      43.174  32.834  32.241  1.00  0.00    -0.014 A 
ATOM     40  C   UNL A   1      43.603  33.942  31.486  1.00  0.00     0.010 A 
ATOM     41  C   UNL A   1      42.773  33.030  33.575  1.00  0.00     0.010 A 
ATOM     42  C   UNL A   1      43.662  35.212  32.067  1.00  0.00     0.020 A 
ATOM     43  C   UNL A   1      42.809  34.303  34.153  1.00  0.00     0.020 A 
ATOM     44  C   UNL A   1      43.270  35.384  33.398  1.00  0.00     0.054 A 
BRANCH  44  45
ATOM     45  S   UNL A   1      43.337  37.048  34.121  1.00  0.00     0.124 S 
ATOM     46  O   UNL A   1      42.075  37.106  34.855  1.00  0.00    -0.237 OA
ATOM     47  O   UNL A   1      44.540  36.993  34.946  1.00  0.00    -0.237 OA
ATOM     48  O   UNL A   1      43.422  37.929  32.959  1.00  0.00    -0.744 OA
ENDBRANCH  44  45
ENDBRANCH  25  39
BRANCH  26  49
ATOM     49  C   UNL A   1      42.235  23.853  27.954  1.00  0.00    -0.014 A 
ATOM     50  C   UNL A   1      42.639  23.642  26.625  1.00  0.00     0.010 A 
ATOM     51  C   UNL A   1      41.725  22.772  28.696  1.00  0.00     0.010 A 
ATOM     52  C   UNL A   1      42.530  22.375  26.047  1.00  0.00     0.020 A 
ATOM     53  C   UNL A   1      41.640  21.498  28.131  1.00  0.00     0.020 A 
ATOM     54  C   UNL A   1      42.034  21.310  26.805  1.00  0.00     0.054 A 
BRANCH  54  55
ATOM     55  S   UNL A   1      41.963  19.658  26.058  1.00  0.00     0.124 S 
ATOM     56  O   UNL A   1      40.555  19.550  25.695  1.00  0.00    -0.237 OA
ATOM     57  O   UNL A   1      42.900  19.773  24.943  1.00  0.00    -0.237 OA
ATOM     58  O   UNL A   1      42.402  18.777  27.140  1.00  0.00    -0.744 OA
ENDBRANCH  54  55
ENDBRANCH  26  49
BRANCH  38  59
ATOM     59  C   UNL A   1      47.372  27.017  31.444  1.00  0.00    -0.014 A 
ATOM     60  C   UNL A   1      48.475  27.272  30.611  1.00  0.00     0.010 A 
ATOM     61  C   UNL A   1      47.574  26.369  32.676  1.00  0.00     0.010 A 
ATOM     62  C   UNL A   1      49.755  26.859  30.990  1.00  0.00     0.020 A 
ATOM     63  C   UNL A   1      48.855  25.975  33.069  1.00  0.00     0.020 A 
ATOM     64  C   UNL A   1      49.936  26.209  32.215  1.00  0.00     0.054 A 
BRANCH  64  65
ATOM     65  S   UNL A   1      51.611  25.713  32.703  1.00  0.00     0.124 S 
ATOM     66  O   UNL A   1      52.427  26.758  32.091  1.00  0.00    -0.237 OA
ATOM     67  O   UNL A   1      51.544  25.742  34.162  1.00  0.00    -0.237 OA
ATOM     68  O   UNL A   1      51.761  24.382  32.119  1.00  0.00    -0.744 OA
ENDBRANCH  64  65
ENDBRANCH  38  59
ENDBRANCH  12  13
ENDBRANCH   5   7
ENDBRANCH   2   3
ENDBRANCH   1   2
BRANCH   1  69
ATOM     69  C   UNL A   1      33.660  26.548  25.017  1.00  0.00     0.023 C 
BRANCH  69  70
ATOM     70  C   UNL A   1      34.065  25.296  25.789  1.00  0.00     0.116 C 
BRANCH  70  71
ATOM     71  N   UNL A   1      35.312  24.717  25.315  1.00  0.00    -0.352 N 
ATOM     72  C   UNL A   1      35.509  23.639  24.490  1.00  0.00     0.251 C 
ATOM     73  H   UNL A   1      36.131  25.162  25.631  1.00  0.00     0.163 HD
ATOM     74  O   UNL A   1      36.637  23.199  24.294  1.00  0.00    -0.269 OA
BRANCH  72  75
ATOM     75  C   UNL A   1      34.350  22.986  23.854  1.00  0.00     0.041 A 
ATOM     76  C   UNL A   1      33.930  23.441  22.608  1.00  0.00     0.014 A 
ATOM     77  C   UNL A   1      33.689  21.925  24.489  1.00  0.00     0.039 A 
ATOM     78  C   UNL A   1      32.878  22.789  21.977  1.00  0.00     0.003 A 
ATOM     79  C   UNL A   1      32.659  21.224  23.852  1.00  0.00     0.035 A 
ATOM     80  C   UNL A   1      32.264  21.689  22.592  1.00  0.00     0.026 A 
BRANCH  79  81
ATOM     81  N   UNL A   1      32.116  20.133  24.502  1.00  0.00    -0.380 N 
ATOM     82  H   UNL A   1      31.435  20.338  25.182  1.00  0.00     0.160 HD
BRANCH  81  83
ATOM     83  C   UNL A   1      32.417  18.712  24.318  1.00  0.00     0.107 C 
ATOM     84  C   UNL A   1      32.968  18.448  22.910  1.00  0.00     0.027 C 
ATOM     85  C   UNL A   1      33.258  18.121  25.483  1.00  0.00     0.136 C 
ATOM     86  C   UNL A   1      33.434  17.010  22.723  1.00  0.00     0.002 C 
ATOM     87  C   UNL A   1      33.727  16.697  25.190  1.00  0.00     0.034 C 
ATOM     88  C   UNL A   1      34.395  16.590  23.826  1.00  0.00     0.003 C 
BRANCH  85  89
ATOM     89  O   UNL A   1      32.526  18.086  26.717  1.00  0.00    -0.391 OA
ATOM     90  H   UNL A   1      32.393  17.163  26.987  1.00  0.00     0.211 HD
ENDBRANCH  85  89
ENDBRANCH  81  83
ENDBRANCH  79  81
ENDBRANCH  72  75
ENDBRANCH  70  71
ENDBRANCH  69  70
ENDBRANCH   1  69
TORSDOF 17
ENDMDL
MODEL 2
REMARK VINA RESULT:     -11.7      4.206     10.132
REMARK SMILES O=C(NCCCCNC(=O)c1cccc(N[C@H]2CCCC[C@@H]2O)c1)c1ccc(-c2c3nc(c(-c4ccc(S(=O)(=O)[O-])cc4)c4ccc([nH]4)c(-c4ccc(S(=O)(=O)[O-])cc4)c4nc(c(-c5ccc(S(=O)(=O)[O-])cc5)c5ccc2[nH]5)C=C4)C=C3)cc1
REMARK SMILES IDX 5 1 4 2 3 3 1 4 2 5 25 7 26 8 84 9 27 10 83 11 28 12 29 13
REMARK SMILES IDX 30 14 77 15 31 16 82 17 76 18 78 19 32 20 81 21 75 22 74 23
REMARK SMILES IDX 33 25 63 26 44 27 62 28 45 29 48 30 61 31 79 32 46 33 47 34
REMARK SMILES IDX 60 36 80 37 49 38 34 39 35 40 43 41 36 42 42 43 37 44 38 45
REMARK SMILES IDX 39 46 40 47 41 48 64 49 65 50 73 51 66 52 72 53 67 54 68 55
REMARK SMILES IDX 69 56 70 57 71 58 50 59 51 60 59 61 52 62 58 63 53 64 54 65
REMARK SMILES IDX 55 66 56 67 57 68 6 69 7 70 8 71 9 72 10 74 11 75 12 76
REMARK SMILES IDX 24 77 13 78 15 79 14 80 16 81 17 83 18 84 22 85 19 86 21 87
REMARK SMILES IDX 20 88 23 89
REMARK H PARENT 3 6 78 24 48 35 8 73 16 82 23 90
REMARK Flexibility Score: inf
ROOT
ATOM      1  C   UNL A   1      37.353  23.621  25.715  1.00  0.00     0.023 C 
ENDROOT
BRANCH   1   2
ATOM      2  C   UNL A   1      38.382  24.370  26.552  1.00  0.00     0.116 C 
BRANCH   2   3
ATOM      3  N   UNL A   1      39.722  24.316  25.988  1.00  0.00    -0.352 N 
ATOM      4  O   UNL A   1      41.858  24.959  25.656  1.00  0.00    -0.269 OA
ATOM      5  C   UNL A   1      40.836  25.044  26.332  1.00  0.00     0.251 C 
ATOM      6  H   UNL A   1      39.848  23.666  25.259  1.00  0.00     0.163 HD
BRANCH   5   7
ATOM      7  C   UNL A   1      40.788  25.950  27.500  1.00  0.00     0.039 A 
ATOM      8  C   UNL A   1      39.867  25.737  28.528  1.00  0.00     0.014 A 
ATOM      9  C   UNL A   1      41.667  27.034  27.559  1.00  0.00     0.014 A 
ATOM     10  C   UNL A   1      39.726  26.684  29.536  1.00  0.00     0.010 A 
ATOM     11  C   UNL A   1      41.581  27.941  28.619  1.00  0.00     0.010 A 
ATOM     12  C   UNL A   1      40.589  27.791  29.600  1.00  0.00    -0.014 A 
BRANCH  12  13
ATOM     13  C   UNL A   1      40.471  28.740  30.736  1.00  0.00     0.031 A 
ATOM     14  C   UNL A   1      41.408  28.676  31.911  1.00  0.00     0.074 A 
ATOM     15  C   UNL A   1      39.520  29.694  30.680  1.00  0.00     0.049 A 
ATOM     16  N   UNL A   1      41.453  29.448  32.968  1.00  0.00    -0.248 NA
ATOM     17  C   UNL A   1      42.423  27.611  31.904  1.00  0.00     0.031 C 
ATOM     18  C   UNL A   1      38.553  29.856  29.590  1.00  0.00     0.029 A 
ATOM     19  N   UNL A   1      39.223  30.719  31.541  1.00  0.00    -0.354 N 
ATOM     20  C   UNL A   1      42.483  28.956  33.759  1.00  0.00     0.074 A 
ATOM     21  C   UNL A   1      43.027  27.803  33.071  1.00  0.00     0.031 C 
ATOM     22  C   UNL A   1      37.809  30.947  29.822  1.00  0.00     0.029 A 
ATOM     23  C   UNL A   1      38.200  31.524  31.103  1.00  0.00     0.049 A 
ATOM     24  H   UNL A   1      39.698  30.864  32.391  1.00  0.00     0.167 HD
ATOM     25  C   UNL A   1      42.938  29.424  34.947  1.00  0.00     0.031 A 
ATOM     26  C   UNL A   1      37.625  32.600  31.670  1.00  0.00     0.031 A 
ATOM     27  C   UNL A   1      42.393  30.571  35.628  1.00  0.00     0.049 A 
ATOM     28  C   UNL A   1      38.127  33.077  33.001  1.00  0.00     0.074 A 
ATOM     29  C   UNL A   1      42.798  31.132  36.828  1.00  0.00     0.029 A 
ATOM     30  N   UNL A   1      41.327  31.331  35.172  1.00  0.00    -0.354 N 
ATOM     31  N   UNL A   1      39.111  32.604  33.725  1.00  0.00    -0.248 NA
ATOM     32  C   UNL A   1      37.437  34.232  33.592  1.00  0.00     0.031 C 
ATOM     33  C   UNL A   1      41.947  32.205  37.119  1.00  0.00     0.029 A 
ATOM     34  C   UNL A   1      41.045  32.343  36.076  1.00  0.00     0.049 A 
ATOM     35  H   UNL A   1      40.841  31.175  34.331  1.00  0.00     0.167 HD
ATOM     36  C   UNL A   1      39.169  33.411  34.855  1.00  0.00     0.074 A 
ATOM     37  C   UNL A   1      38.133  34.413  34.706  1.00  0.00     0.031 C 
ATOM     38  C   UNL A   1      40.004  33.327  35.919  1.00  0.00     0.031 A 
BRANCH  25  39
ATOM     39  C   UNL A   1      44.071  28.679  35.606  1.00  0.00    -0.014 A 
ATOM     40  C   UNL A   1      43.823  27.617  36.495  1.00  0.00     0.010 A 
ATOM     41  C   UNL A   1      45.401  29.012  35.291  1.00  0.00     0.010 A 
ATOM     42  C   UNL A   1      44.886  26.925  37.083  1.00  0.00     0.020 A 
ATOM     43  C   UNL A   1      46.467  28.307  35.860  1.00  0.00     0.020 A 
ATOM     44  C   UNL A   1      46.201  27.278  36.765  1.00  0.00     0.054 A 
BRANCH  44  45
ATOM     45  S   UNL A   1      47.563  26.350  37.527  1.00  0.00     0.124 S 
ATOM     46  O   UNL A   1      48.731  26.974  36.911  1.00  0.00    -0.237 OA
ATOM     47  O   UNL A   1      47.383  26.622  38.950  1.00  0.00    -0.237 OA
ATOM     48  O   UNL A   1      47.311  24.969  37.124  1.00  0.00    -0.744 OA
ENDBRANCH  44  45
ENDBRANCH  25  39
BRANCH  26  49
ATOM     49  C   UNL A   1      36.505  33.287  30.974  1.00  0.00    -0.014 A 
ATOM     50  C   UNL A   1      35.262  33.450  31.608  1.00  0.00     0.010 A 
ATOM     51  C   UNL A   1      36.693  33.817  29.684  1.00  0.00     0.010 A 
ATOM     52  C   UNL A   1      34.224  34.126  30.962  1.00  0.00     0.020 A 
ATOM     53  C   UNL A   1      35.667  34.516  29.047  1.00  0.00     0.020 A 
ATOM     54  C   UNL A   1      34.434  34.658  29.686  1.00  0.00     0.054 A 
BRANCH  54  55
ATOM     55  S   UNL A   1      33.096  35.590  28.892  1.00  0.00     0.124 S 
ATOM     56  O   UNL A   1      32.296  36.007  30.038  1.00  0.00    -0.237 OA
ATOM     57  O   UNL A   1      33.818  36.656  28.201  1.00  0.00    -0.237 OA
ATOM     58  O   UNL A   1      32.469  34.604  28.013  1.00  0.00    -0.744 OA
ENDBRANCH  54  55
ENDBRANCH  26  49
BRANCH  38  59
ATOM     59  C   UNL A   1      39.842  34.361  36.998  1.00  0.00    -0.014 A 
ATOM     60  C   UNL A   1      40.417  35.637  36.872  1.00  0.00     0.010 A 
ATOM     61  C   UNL A   1      39.074  34.061  38.137  1.00  0.00     0.010 A 
ATOM     62  C   UNL A   1      40.253  36.588  37.883  1.00  0.00     0.020 A 
ATOM     63  C   UNL A   1      38.888  35.017  39.140  1.00  0.00     0.020 A 
ATOM     64  C   UNL A   1      39.492  36.270  39.012  1.00  0.00     0.054 A 
BRANCH  64  65
ATOM     65  S   UNL A   1      39.262  37.531  40.295  1.00  0.00     0.124 S 
ATOM     66  O   UNL A   1      40.613  38.071  40.435  1.00  0.00    -0.237 OA
ATOM     67  O   UNL A   1      38.285  38.432  39.690  1.00  0.00    -0.237 OA
ATOM     68  O   UNL A   1      38.773  36.771  41.443  1.00  0.00    -0.744 OA
ENDBRANCH  64  65
ENDBRANCH  38  59
ENDBRANCH  12  13
ENDBRANCH   5   7
ENDBRANCH   2   3
ENDBRANCH   1   2
BRANCH   1  69
ATOM     69  C   UNL A   1      37.677  22.155  25.442  1.00  0.00     0.023 C 
BRANCH  69  70
ATOM     70  C   UNL A   1      36.468  21.229  25.344  1.00  0.00     0.116 C 
BRANCH  70  71
ATOM     71  N   UNL A   1      35.476  21.481  26.377  1.00  0.00    -0.352 N 
ATOM     72  C   UNL A   1      34.131  21.722  26.249  1.00  0.00     0.251 C 
ATOM     73  H   UNL A   1      35.818  21.479  27.301  1.00  0.00     0.163 HD
ATOM     74  O   UNL A   1      33.459  22.048  27.221  1.00  0.00    -0.269 OA
BRANCH  72  75
ATOM     75  C   UNL A   1      33.495  21.615  24.924  1.00  0.00     0.041 A 
ATOM     76  C   UNL A   1      32.955  20.391  24.541  1.00  0.00     0.014 A 
ATOM     77  C   UNL A   1      33.431  22.723  24.068  1.00  0.00     0.039 A 
ATOM     78  C   UNL A   1      32.299  20.300  23.320  1.00  0.00     0.003 A 
ATOM     79  C   UNL A   1      32.735  22.668  22.856  1.00  0.00     0.035 A 
ATOM     80  C   UNL A   1      32.186  21.430  22.499  1.00  0.00     0.026 A 
BRANCH  79  81
ATOM     81  N   UNL A   1      32.637  23.825  22.108  1.00  0.00    -0.380 N 
ATOM     82  H   UNL A   1      33.198  23.859  21.300  1.00  0.00     0.160 HD
BRANCH  81  83
ATOM     83  C   UNL A   1      31.813  25.010  22.356  1.00  0.00     0.107 C 
ATOM     84  C   UNL A   1      30.745  24.721  23.420  1.00  0.00     0.027 C 
ATOM     85  C   UNL A   1      32.661  26.290  22.595  1.00  0.00     0.136 C 
ATOM     86  C   UNL A   1      29.961  25.965  23.817  1.00  0.00     0.002 C 
ATOM     87  C   UNL A   1      31.803  27.473  23.040  1.00  0.00     0.034 C 
ATOM     88  C   UNL A   1      30.892  27.107  24.203  1.00  0.00     0.003 C 
BRANCH  85  89
ATOM     89  O   UNL A   1      33.373  26.697  21.417  1.00  0.00    -0.391 OA
ATOM     90  H   UNL A   1      32.939  27.473  21.029  1.00  0.00     0.211 HD
ENDBRANCH  85  89
ENDBRANCH  81  83
ENDBRANCH  79  81
ENDBRANCH  72  75
ENDBRANCH  70  71
ENDBRANCH  69  70
ENDBRANCH   1  69
TORSDOF 17
ENDMDL
MODEL 3
REMARK VINA RESULT:     -11.7      3.863      9.251
REMARK SMILES O=C(NCCCCNC(=O)c1cccc(N[C@H]2CCCC[C@@H]2O)c1)c1ccc(-c2c3nc(c(-c4ccc(S(=O)(=O)[O-])cc4)c4ccc([nH]4)c(-c4ccc(S(=O)(=O)[O-])cc4)c4nc(c(-c5ccc(S(=O)(=O)[O-])cc5)c5ccc2[nH]5)C=C4)C=C3)cc1
REMARK SMILES IDX 5 1 4 2 3 3 1 4 2 5 25 7 26 8 84 9 27 10 83 11 28 12 29 13
REMARK SMILES IDX 30 14 77 15 31 16 82 17 76 18 78 19 32 20 81 21 75 22 74 23
REMARK SMILES IDX 33 25 63 26 44 27 62 28 45 29 48 30 61 31 79 32 46 33 47 34
REMARK SMILES IDX 60 36 80 37 49 38 34 39 35 40 43 41 36 42 42 43 37 44 38 45
REMARK SMILES IDX 39 46 40 47 41 48 64 49 65 50 73 51 66 52 72 53 67 54 68 55
REMARK SMILES IDX 69 56 70 57 71 58 50 59 51 60 59 61 52 62 58 63 53 64 54 65
REMARK SMILES IDX 55 66 56 67 57 68 6 69 7 70 8 71 9 72 10 74 11 75 12 76
REMARK SMILES IDX 24 77 13 78 15 79 14 80 16 81 17 83 18 84 22 85 19 86 21 87
REMARK SMILES IDX 20 88 23 89
REMARK H PARENT 3 6 78 24 48 35 8 73 16 82 23 90
REMARK Flexibility Score: inf
ROOT
ATOM      1  C   UNL A   1      39.362  20.987  25.838  1.00  0.00     0.023 C 
ENDROOT
BRANCH   1   2
ATOM      2  C   UNL A   1      40.039  19.961  26.737  1.00  0.00     0.116 C 
BRANCH   2   3
ATOM      3  N   UNL A   1      41.125  19.254  26.076  1.00  0.00    -0.352 N 
ATOM      4  O   UNL A   1      43.102  19.020  25.014  1.00  0.00    -0.269 OA
ATOM      5  C   UNL A   1      42.353  19.729  25.682  1.00  0.00     0.251 C 
ATOM      6  H   UNL A   1      40.957  18.303  25.884  1.00  0.00     0.163 HD
BRANCH   5   7
ATOM      7  C   UNL A   1      42.757  21.106  26.041  1.00  0.00     0.039 A 
ATOM      8  C   UNL A   1      42.873  22.092  25.059  1.00  0.00     0.014 A 
ATOM      9  C   UNL A   1      43.037  21.408  27.377  1.00  0.00     0.014 A 
ATOM     10  C   UNL A   1      43.406  23.334  25.388  1.00  0.00     0.010 A 
ATOM     11  C   UNL A   1      43.493  22.685  27.719  1.00  0.00     0.010 A 
ATOM     12  C   UNL A   1      43.711  23.649  26.723  1.00  0.00    -0.014 A 
BRANCH  12  13
ATOM     13  C   UNL A   1      44.198  25.012  27.055  1.00  0.00     0.031 A 
ATOM     14  C   UNL A   1      45.622  25.419  26.795  1.00  0.00     0.074 A 
ATOM     15  C   UNL A   1      43.323  25.900  27.568  1.00  0.00     0.049 A 
ATOM     16  N   UNL A   1      46.195  26.578  27.004  1.00  0.00    -0.248 NA
ATOM     17  C   UNL A   1      46.521  24.400  26.232  1.00  0.00     0.031 C 
ATOM     18  C   UNL A   1      41.914  25.620  27.863  1.00  0.00     0.029 A 
ATOM     19  N   UNL A   1      43.477  27.219  27.909  1.00  0.00    -0.354 N 
ATOM     20  C   UNL A   1      47.521  26.426  26.617  1.00  0.00     0.074 A 
ATOM     21  C   UNL A   1      47.676  25.055  26.179  1.00  0.00     0.031 C 
ATOM     22  C   UNL A   1      41.323  26.745  28.288  1.00  0.00     0.029 A 
ATOM     23  C   UNL A   1      42.319  27.807  28.357  1.00  0.00     0.049 A 
ATOM     24  H   UNL A   1      44.334  27.698  27.840  1.00  0.00     0.167 HD
ATOM     25  C   UNL A   1      48.517  27.346  26.622  1.00  0.00     0.031 A 
ATOM     26  C   UNL A   1      42.082  29.059  28.791  1.00  0.00     0.031 A 
ATOM     27  C   UNL A   1      48.359  28.709  27.060  1.00  0.00     0.049 A 
ATOM     28  C   UNL A   1      43.209  30.048  28.816  1.00  0.00     0.074 A 
ATOM     29  C   UNL A   1      49.304  29.721  27.085  1.00  0.00     0.029 A 
ATOM     30  N   UNL A   1      47.180  29.253  27.549  1.00  0.00    -0.354 N 
ATOM     31  N   UNL A   1      44.453  29.885  28.433  1.00  0.00    -0.248 NA
ATOM     32  C   UNL A   1      42.903  31.387  29.335  1.00  0.00     0.031 C 
ATOM     33  C   UNL A   1      48.709  30.864  27.633  1.00  0.00     0.029 A 
ATOM     34  C   UNL A   1      47.380  30.579  27.899  1.00  0.00     0.049 A 
ATOM     35  H   UNL A   1      46.328  28.769  27.635  1.00  0.00     0.167 HD
ATOM     36  C   UNL A   1      45.076  31.107  28.653  1.00  0.00     0.074 A 
ATOM     37  C   UNL A   1      44.068  32.002  29.183  1.00  0.00     0.031 C 
ATOM     38  C   UNL A   1      46.369  31.454  28.436  1.00  0.00     0.031 A 
BRANCH  25  39
ATOM     39  C   UNL A   1      49.882  26.902  26.161  1.00  0.00    -0.014 A 
ATOM     40  C   UNL A   1      50.289  27.072  24.825  1.00  0.00     0.010 A 
ATOM     41  C   UNL A   1      50.789  26.357  27.088  1.00  0.00     0.010 A 
ATOM     42  C   UNL A   1      51.565  26.672  24.418  1.00  0.00     0.020 A 
ATOM     43  C   UNL A   1      52.074  25.977  26.691  1.00  0.00     0.020 A 
ATOM     44  C   UNL A   1      52.448  26.122  25.353  1.00  0.00     0.054 A 
BRANCH  44  45
ATOM     45  S   UNL A   1      54.107  25.630  24.803  1.00  0.00     0.124 S 
ATOM     46  O   UNL A   1      53.992  24.173  24.775  1.00  0.00    -0.237 OA
ATOM     47  O   UNL A   1      54.219  26.275  23.499  1.00  0.00    -0.237 OA
ATOM     48  O   UNL A   1      54.989  26.164  25.838  1.00  0.00    -0.744 OA
ENDBRANCH  44  45
ENDBRANCH  25  39
BRANCH  26  49
ATOM     49  C   UNL A   1      40.715  29.433  29.241  1.00  0.00    -0.014 A 
ATOM     50  C   UNL A   1      40.397  29.470  30.609  1.00  0.00     0.010 A 
ATOM     51  C   UNL A   1      39.735  29.795  28.298  1.00  0.00     0.010 A 
ATOM     52  C   UNL A   1      39.121  29.855  31.027  1.00  0.00     0.020 A 
ATOM     53  C   UNL A   1      38.466  30.206  28.714  1.00  0.00     0.020 A 
ATOM     54  C   UNL A   1      38.164  30.224  30.076  1.00  0.00     0.054 A 
BRANCH  54  55
ATOM     55  S   UNL A   1      36.535  30.785  30.642  1.00  0.00     0.124 S 
ATOM     56  O   UNL A   1      36.807  32.167  31.023  1.00  0.00    -0.237 OA
ATOM     57  O   UNL A   1      35.706  30.606  29.453  1.00  0.00    -0.237 OA
ATOM     58  O   UNL A   1      36.228  29.878  31.746  1.00  0.00    -0.744 OA
ENDBRANCH  54  55
ENDBRANCH  26  49
BRANCH  38  59
ATOM     59  C   UNL A   1      46.759  32.870  28.757  1.00  0.00    -0.014 A 
ATOM     60  C   UNL A   1      46.639  33.890  27.797  1.00  0.00     0.010 A 
ATOM     61  C   UNL A   1      47.219  33.189  30.047  1.00  0.00     0.010 A 
ATOM     62  C   UNL A   1      47.003  35.202  28.112  1.00  0.00     0.020 A 
ATOM     63  C   UNL A   1      47.561  34.504  30.374  1.00  0.00     0.020 A 
ATOM     64  C   UNL A   1      47.465  35.499  29.398  1.00  0.00     0.054 A 
BRANCH  64  65
ATOM     65  S   UNL A   1      47.897  37.215  29.797  1.00  0.00     0.124 S 
ATOM     66  O   UNL A   1      46.686  37.686  30.464  1.00  0.00    -0.237 OA
ATOM     67  O   UNL A   1      49.068  37.061  30.657  1.00  0.00    -0.237 OA
ATOM     68  O   UNL A   1      48.165  37.816  28.492  1.00  0.00    -0.744 OA
ENDBRANCH  64  65
ENDBRANCH  38  59
ENDBRANCH  12  13
ENDBRANCH   5   7
ENDBRANCH   2   3
ENDBRANCH   1   2
BRANCH   1  69
ATOM     69  C   UNL A   1      39.282  22.401  26.406  1.00  0.00     0.023 C 
BRANCH  69  70
ATOM     70  C   UNL A   1      37.982  23.146  26.117  1.00  0.00     0.116 C 
BRANCH  70  71
ATOM     71  N   UNL A   1      37.682  23.230  24.696  1.00  0.00    -0.352 N 
ATOM     72  C   UNL A   1      36.497  23.001  24.044  1.00  0.00     0.251 C 
ATOM     73  H   UNL A   1      38.437  23.489  24.119  1.00  0.00     0.163 HD
ATOM     74  O   UNL A   1      36.449  22.988  22.819  1.00  0.00    -0.269 OA
BRANCH  72  75
ATOM     75  C   UNL A   1      35.274  22.740  24.825  1.00  0.00     0.041 A 
ATOM     76  C   UNL A   1      34.480  23.819  25.200  1.00  0.00     0.014 A 
ATOM     77  C   UNL A   1      34.916  21.432  25.179  1.00  0.00     0.039 A 
ATOM     78  C   UNL A   1      33.295  23.575  25.882  1.00  0.00     0.003 A 
ATOM     79  C   UNL A   1      33.704  21.157  25.824  1.00  0.00     0.035 A 
ATOM     80  C   UNL A   1      32.914  22.258  26.177  1.00  0.00     0.026 A 
BRANCH  79  81
ATOM     81  N   UNL A   1      33.378  19.837  26.059  1.00  0.00    -0.380 N 
ATOM     82  H   UNL A   1      33.479  19.532  26.989  1.00  0.00     0.160 HD
BRANCH  81  83
ATOM     83  C   UNL A   1      32.901  18.827  25.111  1.00  0.00     0.107 C 
ATOM     84  C   UNL A   1      32.600  19.459  23.745  1.00  0.00     0.027 C 
ATOM     85  C   UNL A   1      33.806  17.564  25.075  1.00  0.00     0.136 C 
ATOM     86  C   UNL A   1      32.243  18.423  22.687  1.00  0.00     0.002 C 
ATOM     87  C   UNL A   1      33.412  16.606  23.953  1.00  0.00     0.034 C 
ATOM     88  C   UNL A   1      33.291  17.321  22.614  1.00  0.00     0.003 C 
BRANCH  85  89
ATOM     89  O   UNL A   1      33.756  16.827  26.306  1.00  0.00    -0.391 OA
ATOM     90  H   UNL A   1      32.902  16.980  26.740  1.00  0.00     0.211 HD
ENDBRANCH  85  89
ENDBRANCH  81  83
ENDBRANCH  79  81
ENDBRANCH  72  75
ENDBRANCH  70  71
ENDBRANCH  69  70
ENDBRANCH   1  69
TORSDOF 17
ENDMDL
