MODEL 1
REMARK VINA RESULT:      -8.7      0.000      0.000
REMARK SMILES O=C(/C=C/c1ccc(I)cc1)NCCCCNC(=O)c1ccc(-c2c3nc(c(-c4ccc(S(=O)(=O)[O-])cc4)c4ccc([nH]4)c(-c4ccc(S(=O)(=O)[O-])cc4)c4nc(c(-c5ccc(S(=O)(=O)[O-])cc5)c5ccc2[nH]5)C=C4)C=C3)cc1
REMARK SMILES IDX 15 1 14 2 13 3 12 4 1 5 2 6 3 8 4 9 5 10 6 11 11 12 7 13
REMARK SMILES IDX 10 14 8 15 9 16 16 17 17 18 18 19 19 21 20 22 21 23 79 24
REMARK SMILES IDX 22 25 78 26 23 27 24 28 25 29 72 30 26 31 77 32 71 33 73 34
REMARK SMILES IDX 27 35 76 36 70 37 69 38 28 40 58 41 39 42 57 43 40 44 43 45
REMARK SMILES IDX 56 46 74 47 41 48 42 49 55 51 75 52 44 53 29 54 30 55 38 56
REMARK SMILES IDX 31 57 37 58 32 59 33 60 34 61 35 62 36 63 59 64 60 65 68 66
REMARK SMILES IDX 61 67 67 68 62 69 63 70 64 71 65 72 66 73 45 74 46 75 54 76
REMARK SMILES IDX 47 77 53 78 48 79 49 80 50 81 51 82 52 83
REMARK H PARENT 12 7 17 20 73 39 43 50
REMARK Flexibility Score: inf
ROOT
ATOM      1  C   UNL A   1      42.100  22.176  27.044  1.00  0.00     0.023 C 
ENDROOT
BRANCH   1   2
ATOM      2  C   UNL A   1      42.900  21.351  26.031  1.00  0.00     0.023 C 
BRANCH   2   3
ATOM      3  C   UNL A   1      43.777  22.163  25.079  1.00  0.00     0.116 C 
BRANCH   3   4
ATOM      4  N   UNL A   1      43.924  23.542  25.503  1.00  0.00    -0.353 N 
ATOM      5  O   UNL A   1      45.795  23.987  24.250  1.00  0.00    -0.270 OA
ATOM      6  C   UNL A   1      44.944  24.341  25.061  1.00  0.00     0.243 C 
ATOM      7  H   UNL A   1      43.266  23.917  26.132  1.00  0.00     0.163 HD
BRANCH   6   8
ATOM      8  C   UNL A   1      44.980  25.735  25.582  1.00  0.00     0.072 C 
ATOM      9  C   UNL A   1      43.939  26.573  25.710  1.00  0.00     0.014 C 
BRANCH   9  10
ATOM     10  C   UNL A   1      44.052  27.924  26.283  1.00  0.00    -0.025 A 
ATOM     11  C   UNL A   1      42.980  28.828  26.302  1.00  0.00     0.009 A 
ATOM     12  C   UNL A   1      45.262  28.301  26.882  1.00  0.00     0.009 A 
ATOM     13  C   UNL A   1      43.124  30.092  26.885  1.00  0.00     0.015 A 
ATOM     14  C   UNL A   1      45.408  29.564  27.465  1.00  0.00     0.015 A 
ATOM     15  C   UNL A   1      44.339  30.455  27.462  1.00  0.00     0.013 A 
ATOM     16  I   UNL A   1      44.551  32.332  28.330  1.00  0.00    -0.044 I 
ENDBRANCH   9  10
ENDBRANCH   6   8
ENDBRANCH   3   4
ENDBRANCH   2   3
ENDBRANCH   1   2
BRANCH   1  17
ATOM     17  C   UNL A   1      40.763  21.578  27.473  1.00  0.00     0.116 C 
BRANCH  17  18
ATOM     18  N   UNL A   1      39.716  21.754  26.481  1.00  0.00    -0.352 N 
ATOM     19  C   UNL A   1      38.977  22.875  26.179  1.00  0.00     0.251 C 
ATOM     20  H   UNL A   1      39.504  20.955  25.946  1.00  0.00     0.163 HD
ATOM     21  O   UNL A   1      38.034  22.787  25.396  1.00  0.00    -0.269 OA
BRANCH  19  22
ATOM     22  C   UNL A   1      39.290  24.177  26.814  1.00  0.00     0.039 A 
ATOM     23  C   UNL A   1      38.854  24.411  28.121  1.00  0.00     0.014 A 
ATOM     24  C   UNL A   1      40.007  25.164  26.132  1.00  0.00     0.014 A 
ATOM     25  C   UNL A   1      39.198  25.602  28.767  1.00  0.00     0.010 A 
ATOM     26  C   UNL A   1      40.414  26.318  26.804  1.00  0.00     0.010 A 
ATOM     27  C   UNL A   1      40.017  26.549  28.130  1.00  0.00    -0.014 A 
BRANCH  27  28
ATOM     28  C   UNL A   1      40.479  27.774  28.839  1.00  0.00     0.031 A 
ATOM     29  C   UNL A   1      41.841  27.818  29.480  1.00  0.00     0.074 A 
ATOM     30  C   UNL A   1      39.648  28.829  28.960  1.00  0.00     0.049 A 
ATOM     31  N   UNL A   1      42.389  28.773  30.187  1.00  0.00    -0.248 NA
ATOM     32  C   UNL A   1      42.688  26.624  29.326  1.00  0.00     0.031 C 
ATOM     33  C   UNL A   1      38.289  28.904  28.418  1.00  0.00     0.029 A 
ATOM     34  N   UNL A   1      39.820  30.040  29.585  1.00  0.00    -0.354 N 
ATOM     35  C   UNL A   1      43.637  28.294  30.571  1.00  0.00     0.074 A 
ATOM     36  C   UNL A   1      43.741  26.942  30.065  1.00  0.00     0.031 C 
ATOM     37  C   UNL A   1      37.762  30.103  28.712  1.00  0.00     0.029 A 
ATOM     38  C   UNL A   1      38.725  30.867  29.502  1.00  0.00     0.049 A 
ATOM     39  H   UNL A   1      40.652  30.293  30.048  1.00  0.00     0.167 HD
ATOM     40  C   UNL A   1      44.615  28.926  31.264  1.00  0.00     0.031 A 
ATOM     41  C   UNL A   1      38.507  32.096  30.011  1.00  0.00     0.031 A 
ATOM     42  C   UNL A   1      44.509  30.270  31.768  1.00  0.00     0.049 A 
ATOM     43  C   UNL A   1      39.598  32.769  30.799  1.00  0.00     0.074 A 
ATOM     44  C   UNL A   1      45.464  31.014  32.441  1.00  0.00     0.029 A 
ATOM     45  N   UNL A   1      43.383  31.073  31.659  1.00  0.00    -0.354 N 
ATOM     46  N   UNL A   1      40.794  32.321  31.098  1.00  0.00    -0.248 NA
ATOM     47  C   UNL A   1      39.314  34.117  31.309  1.00  0.00     0.031 C 
ATOM     48  C   UNL A   1      44.894  32.241  32.794  1.00  0.00     0.029 A 
ATOM     49  C   UNL A   1      43.609  32.293  32.278  1.00  0.00     0.049 A 
ATOM     50  H   UNL A   1      42.547  30.814  31.209  1.00  0.00     0.167 HD
ATOM     51  C   UNL A   1      41.416  33.344  31.806  1.00  0.00     0.074 A 
ATOM     52  C   UNL A   1      40.469  34.439  31.876  1.00  0.00     0.031 C 
ATOM     53  C   UNL A   1      42.659  33.375  32.346  1.00  0.00     0.031 A 
BRANCH  40  54
ATOM     54  C   UNL A   1      45.888  28.161  31.527  1.00  0.00    -0.014 A 
ATOM     55  C   UNL A   1      46.004  27.298  32.632  1.00  0.00     0.010 A 
ATOM     56  C   UNL A   1      46.971  28.276  30.636  1.00  0.00     0.010 A 
ATOM     57  C   UNL A   1      47.194  26.604  32.868  1.00  0.00     0.020 A 
ATOM     58  C   UNL A   1      48.151  27.558  30.850  1.00  0.00     0.020 A 
ATOM     59  C   UNL A   1      48.261  26.740  31.976  1.00  0.00     0.054 A 
BRANCH  59  60
ATOM     60  S   UNL A   1      49.788  25.816  32.301  1.00  0.00     0.124 S 
ATOM     61  O   UNL A   1      49.896  24.984  31.105  1.00  0.00    -0.237 OA
ATOM     62  O   UNL A   1      50.784  26.877  32.420  1.00  0.00    -0.237 OA
ATOM     63  O   UNL A   1      49.499  25.094  33.538  1.00  0.00    -0.744 OA
ENDBRANCH  59  60
ENDBRANCH  40  54
BRANCH  41  64
ATOM     64  C   UNL A   1      37.200  32.772  29.784  1.00  0.00    -0.014 A 
ATOM     65  C   UNL A   1      36.146  32.629  30.704  1.00  0.00     0.010 A 
ATOM     66  C   UNL A   1      37.007  33.582  28.648  1.00  0.00     0.010 A 
ATOM     67  C   UNL A   1      34.921  33.268  30.486  1.00  0.00     0.020 A 
ATOM     68  C   UNL A   1      35.796  34.247  28.443  1.00  0.00     0.020 A 
ATOM     69  C   UNL A   1      34.756  34.077  29.358  1.00  0.00     0.054 A 
BRANCH  69  70
ATOM     70  S   UNL A   1      33.178  34.941  29.126  1.00  0.00     0.124 S 
ATOM     71  O   UNL A   1      33.615  36.251  28.654  1.00  0.00    -0.237 OA
ATOM     72  O   UNL A   1      32.504  34.103  28.136  1.00  0.00    -0.237 OA
ATOM     73  O   UNL A   1      32.578  34.922  30.458  1.00  0.00    -0.744 OA
ENDBRANCH  69  70
ENDBRANCH  41  64
BRANCH  53  74
ATOM     74  C   UNL A   1      43.089  34.645  33.033  1.00  0.00    -0.014 A 
ATOM     75  C   UNL A   1      42.919  34.823  34.418  1.00  0.00     0.010 A 
ATOM     76  C   UNL A   1      43.725  35.655  32.288  1.00  0.00     0.010 A 
ATOM     77  C   UNL A   1      43.348  36.001  35.037  1.00  0.00     0.020 A 
ATOM     78  C   UNL A   1      44.185  36.819  32.908  1.00  0.00     0.020 A 
ATOM     79  C   UNL A   1      43.980  36.991  34.277  1.00  0.00     0.054 A 
BRANCH  79  80
ATOM     80  S   UNL A   1      44.567  38.489  35.113  1.00  0.00     0.124 S 
ATOM     81  O   UNL A   1      44.038  38.312  36.462  1.00  0.00    -0.237 OA
ATOM     82  O   UNL A   1      46.018  38.378  34.987  1.00  0.00    -0.237 OA
ATOM     83  O   UNL A   1      43.962  39.576  34.345  1.00  0.00    -0.744 OA
ENDBRANCH  79  80
ENDBRANCH  53  74
ENDBRANCH  27  28
ENDBRANCH  19  22
ENDBRANCH  17  18
ENDBRANCH   1  17
TORSDOF 15
ENDMDL
MODEL 2
REMARK VINA RESULT:      -8.7      2.994     10.555
REMARK SMILES O=C(/C=C/c1ccc(I)cc1)NCCCCNC(=O)c1ccc(-c2c3nc(c(-c4ccc(S(=O)(=O)[O-])cc4)c4ccc([nH]4)c(-c4ccc(S(=O)(=O)[O-])cc4)c4nc(c(-c5ccc(S(=O)(=O)[O-])cc5)c5ccc2[nH]5)C=C4)C=C3)cc1
REMARK SMILES IDX 15 1 14 2 13 3 12 4 1 5 2 6 3 8 4 9 5 10 6 11 11 12 7 13
REMARK SMILES IDX 10 14 8 15 9 16 16 17 17 18 18 19 19 21 20 22 21 23 79 24
REMARK SMILES IDX 22 25 78 26 23 27 24 28 25 29 72 30 26 31 77 32 71 33 73 34
REMARK SMILES IDX 27 35 76 36 70 37 69 38 28 40 58 41 39 42 57 43 40 44 43 45
REMARK SMILES IDX 56 46 74 47 41 48 42 49 55 51 75 52 44 53 29 54 30 55 38 56
REMARK SMILES IDX 31 57 37 58 32 59 33 60 34 61 35 62 36 63 59 64 60 65 68 66
REMARK SMILES IDX 61 67 67 68 62 69 63 70 64 71 65 72 66 73 45 74 46 75 54 76
REMARK SMILES IDX 47 77 53 78 48 79 49 80 50 81 51 82 52 83
REMARK H PARENT 12 7 17 20 73 39 43 50
REMARK Flexibility Score: inf
ROOT
ATOM      1  C   UNL A   1      34.693  32.924  30.732  1.00  0.00     0.023 C 
ENDROOT
BRANCH   1   2
ATOM      2  C   UNL A   1      34.486  34.336  31.288  1.00  0.00     0.023 C 
BRANCH   2   3
ATOM      3  C   UNL A   1      35.536  34.797  32.300  1.00  0.00     0.116 C 
BRANCH   3   4
ATOM      4  N   UNL A   1      36.684  33.912  32.346  1.00  0.00    -0.353 N 
ATOM      5  O   UNL A   1      36.056  32.794  34.250  1.00  0.00    -0.270 OA
ATOM      6  C   UNL A   1      36.857  32.987  33.340  1.00  0.00     0.243 C 
ATOM      7  H   UNL A   1      37.364  33.979  31.637  1.00  0.00     0.163 HD
BRANCH   6   8
ATOM      8  C   UNL A   1      38.085  32.148  33.270  1.00  0.00     0.072 C 
ATOM      9  C   UNL A   1      38.250  30.920  33.786  1.00  0.00     0.014 C 
BRANCH   9  10
ATOM     10  C   UNL A   1      39.485  30.134  33.630  1.00  0.00    -0.025 A 
ATOM     11  C   UNL A   1      40.729  30.584  34.096  1.00  0.00     0.009 A 
ATOM     12  C   UNL A   1      39.404  28.865  33.043  1.00  0.00     0.009 A 
ATOM     13  C   UNL A   1      41.873  29.791  33.953  1.00  0.00     0.015 A 
ATOM     14  C   UNL A   1      40.546  28.070  32.898  1.00  0.00     0.015 A 
ATOM     15  C   UNL A   1      41.776  28.537  33.352  1.00  0.00     0.013 A 
ATOM     16  I   UNL A   1      43.475  27.357  33.142  1.00  0.00    -0.044 I 
ENDBRANCH   9  10
ENDBRANCH   6   8
ENDBRANCH   3   4
ENDBRANCH   2   3
ENDBRANCH   1   2
BRANCH   1  17
ATOM     17  C   UNL A   1      34.874  32.830  29.220  1.00  0.00     0.116 C 
BRANCH  17  18
ATOM     18  N   UNL A   1      34.065  31.786  28.613  1.00  0.00    -0.352 N 
ATOM     19  C   UNL A   1      34.434  30.534  28.180  1.00  0.00     0.251 C 
ATOM     20  H   UNL A   1      33.113  32.007  28.495  1.00  0.00     0.163 HD
ATOM     21  O   UNL A   1      33.627  29.842  27.563  1.00  0.00    -0.269 OA
BRANCH  19  22
ATOM     22  C   UNL A   1      35.806  30.027  28.424  1.00  0.00     0.039 A 
ATOM     23  C   UNL A   1      36.738  30.077  27.383  1.00  0.00     0.014 A 
ATOM     24  C   UNL A   1      36.178  29.504  29.666  1.00  0.00     0.014 A 
ATOM     25  C   UNL A   1      38.056  29.672  27.609  1.00  0.00     0.010 A 
ATOM     26  C   UNL A   1      37.510  29.173  29.910  1.00  0.00     0.010 A 
ATOM     27  C   UNL A   1      38.466  29.255  28.886  1.00  0.00    -0.014 A 
BRANCH  27  28
ATOM     28  C   UNL A   1      39.888  28.920  29.171  1.00  0.00     0.031 A 
ATOM     29  C   UNL A   1      40.810  29.947  29.774  1.00  0.00     0.074 A 
ATOM     30  C   UNL A   1      40.370  27.707  28.830  1.00  0.00     0.049 A 
ATOM     31  N   UNL A   1      42.088  29.855  30.037  1.00  0.00    -0.248 NA
ATOM     32  C   UNL A   1      40.224  31.256  30.103  1.00  0.00     0.031 C 
ATOM     33  C   UNL A   1      39.594  26.633  28.205  1.00  0.00     0.029 A 
ATOM     34  N   UNL A   1      41.630  27.175  28.953  1.00  0.00    -0.354 N 
ATOM     35  C   UNL A   1      42.462  31.092  30.550  1.00  0.00     0.074 A 
ATOM     36  C   UNL A   1      41.286  31.935  30.509  1.00  0.00     0.031 C 
ATOM     37  C   UNL A   1      40.387  25.565  28.023  1.00  0.00     0.029 A 
ATOM     38  C   UNL A   1      41.737  25.890  28.474  1.00  0.00     0.049 A 
ATOM     39  H   UNL A   1      42.386  27.667  29.348  1.00  0.00     0.167 HD
ATOM     40  C   UNL A   1      43.667  31.486  31.030  1.00  0.00     0.031 A 
ATOM     41  C   UNL A   1      42.801  25.066  28.392  1.00  0.00     0.031 A 
ATOM     42  C   UNL A   1      44.835  30.647  31.068  1.00  0.00     0.049 A 
ATOM     43  C   UNL A   1      44.135  25.534  28.907  1.00  0.00     0.074 A 
ATOM     44  C   UNL A   1      46.089  30.941  31.578  1.00  0.00     0.029 A 
ATOM     45  N   UNL A   1      44.900  29.351  30.576  1.00  0.00    -0.354 N 
ATOM     46  N   UNL A   1      44.451  26.688  29.446  1.00  0.00    -0.248 NA
ATOM     47  C   UNL A   1      45.252  24.585  28.815  1.00  0.00     0.031 C 
ATOM     48  C   UNL A   1      46.926  29.847  31.338  1.00  0.00     0.029 A 
ATOM     49  C   UNL A   1      46.178  28.844  30.744  1.00  0.00     0.049 A 
ATOM     50  H   UNL A   1      44.148  28.865  30.167  1.00  0.00     0.167 HD
ATOM     51  C   UNL A   1      45.797  26.592  29.783  1.00  0.00     0.074 A 
ATOM     52  C   UNL A   1      46.230  25.262  29.402  1.00  0.00     0.031 C 
ATOM     53  C   UNL A   1      46.601  27.520  30.358  1.00  0.00     0.031 A 
BRANCH  40  54
ATOM     54  C   UNL A   1      43.782  32.899  31.546  1.00  0.00    -0.014 A 
ATOM     55  C   UNL A   1      44.132  33.960  30.690  1.00  0.00     0.010 A 
ATOM     56  C   UNL A   1      43.501  33.177  32.896  1.00  0.00     0.010 A 
ATOM     57  C   UNL A   1      44.246  35.262  31.185  1.00  0.00     0.020 A 
ATOM     58  C   UNL A   1      43.580  34.483  33.388  1.00  0.00     0.020 A 
ATOM     59  C   UNL A   1      43.971  35.515  32.532  1.00  0.00     0.054 A 
BRANCH  59  60
ATOM     60  S   UNL A   1      44.113  37.217  33.142  1.00  0.00     0.124 S 
ATOM     61  O   UNL A   1      44.202  37.976  31.897  1.00  0.00    -0.237 OA
ATOM     62  O   UNL A   1      42.874  37.391  33.896  1.00  0.00    -0.237 OA
ATOM     63  O   UNL A   1      45.332  37.197  33.947  1.00  0.00    -0.744 OA
ENDBRANCH  59  60
ENDBRANCH  40  54
BRANCH  41  64
ATOM     64  C   UNL A   1      42.643  23.708  27.801  1.00  0.00    -0.014 A 
ATOM     65  C   UNL A   1      42.896  23.483  26.437  1.00  0.00     0.010 A 
ATOM     66  C   UNL A   1      42.254  22.623  28.610  1.00  0.00     0.010 A 
ATOM     67  C   UNL A   1      42.748  22.205  25.888  1.00  0.00     0.020 A 
ATOM     68  C   UNL A   1      42.135  21.339  28.073  1.00  0.00     0.020 A 
ATOM     69  C   UNL A   1      42.372  21.140  26.712  1.00  0.00     0.054 A 
BRANCH  69  70
ATOM     70  S   UNL A   1      42.242  19.481  25.991  1.00  0.00     0.124 S 
ATOM     71  O   UNL A   1      43.136  19.577  24.841  1.00  0.00    -0.237 OA
ATOM     72  O   UNL A   1      42.702  18.626  27.083  1.00  0.00    -0.237 OA
ATOM     73  O   UNL A   1      40.821  19.358  25.671  1.00  0.00    -0.744 OA
ENDBRANCH  69  70
ENDBRANCH  41  64
BRANCH  53  74
ATOM     74  C   UNL A   1      48.026  27.126  30.647  1.00  0.00    -0.014 A 
ATOM     75  C   UNL A   1      49.071  27.453  29.765  1.00  0.00     0.010 A 
ATOM     76  C   UNL A   1      48.330  26.463  31.851  1.00  0.00     0.010 A 
ATOM     77  C   UNL A   1      50.389  27.097  30.067  1.00  0.00     0.020 A 
ATOM     78  C   UNL A   1      49.650  26.134  32.172  1.00  0.00     0.020 A 
ATOM     79  C   UNL A   1      50.669  26.441  31.270  1.00  0.00     0.054 A 
BRANCH  79  80
ATOM     80  S   UNL A   1      52.393  26.031  31.658  1.00  0.00     0.124 S 
ATOM     81  O   UNL A   1      53.025  26.099  30.343  1.00  0.00    -0.237 OA
ATOM     82  O   UNL A   1      52.771  27.088  32.592  1.00  0.00    -0.237 OA
ATOM     83  O   UNL A   1      52.309  24.692  32.239  1.00  0.00    -0.744 OA
ENDBRANCH  79  80
ENDBRANCH  53  74
ENDBRANCH  27  28
ENDBRANCH  19  22
ENDBRANCH  17  18
ENDBRANCH   1  17
TORSDOF 15
ENDMDL
MODEL 3
REMARK VINA RESULT:      -8.4      3.053      9.405
REMARK SMILES O=C(/C=C/c1ccc(I)cc1)NCCCCNC(=O)c1ccc(-c2c3nc(c(-c4ccc(S(=O)(=O)[O-])cc4)c4ccc([nH]4)c(-c4ccc(S(=O)(=O)[O-])cc4)c4nc(c(-c5ccc(S(=O)(=O)[O-])cc5)c5ccc2[nH]5)C=C4)C=C3)cc1
REMARK SMILES IDX 15 1 14 2 13 3 12 4 1 5 2 6 3 8 4 9 5 10 6 11 11 12 7 13
REMARK SMILES IDX 10 14 8 15 9 16 16 17 17 18 18 19 19 21 20 22 21 23 79 24
REMARK SMILES IDX 22 25 78 26 23 27 24 28 25 29 72 30 26 31 77 32 71 33 73 34
REMARK SMILES IDX 27 35 76 36 70 37 69 38 28 40 58 41 39 42 57 43 40 44 43 45
REMARK SMILES IDX 56 46 74 47 41 48 42 49 55 51 75 52 44 53 29 54 30 55 38 56
REMARK SMILES IDX 31 57 37 58 32 59 33 60 34 61 35 62 36 63 59 64 60 65 68 66
REMARK SMILES IDX 61 67 67 68 62 69 63 70 64 71 65 72 66 73 45 74 46 75 54 76
REMARK SMILES IDX 47 77 53 78 48 79 49 80 50 81 51 82 52 83
REMARK H PARENT 12 7 17 20 73 39 43 50
REMARK Flexibility Score: inf
ROOT
ATOM      1  C   UNL A   1      35.620  33.120  29.667  1.00  0.00     0.023 C 
ENDROOT
BRANCH   1   2
ATOM      2  C   UNL A   1      34.528  33.443  30.691  1.00  0.00     0.023 C 
BRANCH   2   3
ATOM      3  C   UNL A   1      34.584  32.627  31.982  1.00  0.00     0.116 C 
BRANCH   3   4
ATOM      4  N   UNL A   1      35.778  31.809  32.066  1.00  0.00    -0.353 N 
ATOM      5  O   UNL A   1      36.391  32.485  34.173  1.00  0.00    -0.270 OA
ATOM      6  C   UNL A   1      36.600  31.822  33.162  1.00  0.00     0.243 C 
ATOM      7  H   UNL A   1      36.007  31.223  31.309  1.00  0.00     0.163 HD
BRANCH   6   8
ATOM      8  C   UNL A   1      37.798  30.939  33.114  1.00  0.00     0.072 C 
ATOM      9  C   UNL A   1      39.003  31.188  33.650  1.00  0.00     0.014 C 
BRANCH   9  10
ATOM     10  C   UNL A   1      40.124  30.236  33.600  1.00  0.00    -0.025 A 
ATOM     11  C   UNL A   1      41.358  30.490  34.217  1.00  0.00     0.009 A 
ATOM     12  C   UNL A   1      39.933  29.005  32.959  1.00  0.00     0.009 A 
ATOM     13  C   UNL A   1      42.387  29.544  34.170  1.00  0.00     0.015 A 
ATOM     14  C   UNL A   1      40.960  28.057  32.910  1.00  0.00     0.015 A 
ATOM     15  C   UNL A   1      42.184  28.331  33.514  1.00  0.00     0.013 A 
ATOM     16  I   UNL A   1      43.712  26.923  33.447  1.00  0.00    -0.044 I 
ENDBRANCH   9  10
ENDBRANCH   6   8
ENDBRANCH   3   4
ENDBRANCH   2   3
ENDBRANCH   1   2
BRANCH   1  17
ATOM     17  C   UNL A   1      35.143  32.931  28.230  1.00  0.00     0.116 C 
BRANCH  17  18
ATOM     18  N   UNL A   1      34.277  31.775  28.065  1.00  0.00    -0.352 N 
ATOM     19  C   UNL A   1      34.602  30.439  28.014  1.00  0.00     0.251 C 
ATOM     20  H   UNL A   1      33.318  31.977  27.978  1.00  0.00     0.163 HD
ATOM     21  O   UNL A   1      33.736  29.615  27.728  1.00  0.00    -0.269 OA
BRANCH  19  22
ATOM     22  C   UNL A   1      35.992  29.992  28.269  1.00  0.00     0.039 A 
ATOM     23  C   UNL A   1      36.921  30.051  27.226  1.00  0.00     0.014 A 
ATOM     24  C   UNL A   1      36.384  29.515  29.524  1.00  0.00     0.014 A 
ATOM     25  C   UNL A   1      38.254  29.702  27.461  1.00  0.00     0.010 A 
ATOM     26  C   UNL A   1      37.728  29.241  29.775  1.00  0.00     0.010 A 
ATOM     27  C   UNL A   1      38.680  29.334  28.748  1.00  0.00    -0.014 A 
BRANCH  27  28
ATOM     28  C   UNL A   1      40.114  29.061  29.039  1.00  0.00     0.031 A 
ATOM     29  C   UNL A   1      40.718  27.720  28.713  1.00  0.00     0.074 A 
ATOM     30  C   UNL A   1      40.861  30.000  29.655  1.00  0.00     0.049 A 
ATOM     31  N   UNL A   1      41.929  27.283  28.947  1.00  0.00    -0.248 NA
ATOM     32  C   UNL A   1      39.841  26.736  28.060  1.00  0.00     0.031 C 
ATOM     33  C   UNL A   1      40.389  31.326  30.060  1.00  0.00     0.029 A 
ATOM     34  N   UNL A   1      42.174  29.980  30.057  1.00  0.00    -0.354 N 
ATOM     35  C   UNL A   1      41.957  25.973  28.482  1.00  0.00     0.074 A 
ATOM     36  C   UNL A   1      40.625  25.670  28.003  1.00  0.00     0.031 C 
ATOM     37  C   UNL A   1      41.402  32.000  30.628  1.00  0.00     0.029 A 
ATOM     38  C   UNL A   1      42.582  31.141  30.672  1.00  0.00     0.049 A 
ATOM     39  H   UNL A   1      42.768  29.207  29.918  1.00  0.00     0.167 HD
ATOM     40  C   UNL A   1      42.999  25.107  28.438  1.00  0.00     0.031 A 
ATOM     41  C   UNL A   1      43.766  31.478  31.221  1.00  0.00     0.031 A 
ATOM     42  C   UNL A   1      44.322  25.410  28.916  1.00  0.00     0.049 A 
ATOM     43  C   UNL A   1      44.901  30.491  31.185  1.00  0.00     0.074 A 
ATOM     44  C   UNL A   1      45.455  24.615  28.873  1.00  0.00     0.029 A 
ATOM     45  N   UNL A   1      44.693  26.598  29.528  1.00  0.00    -0.354 N 
ATOM     46  N   UNL A   1      44.923  29.279  30.683  1.00  0.00    -0.248 NA
ATOM     47  C   UNL A   1      46.175  30.922  31.776  1.00  0.00     0.031 C 
ATOM     48  C   UNL A   1      46.494  25.297  29.513  1.00  0.00     0.029 A 
ATOM     49  C   UNL A   1      46.030  26.546  29.892  1.00  0.00     0.049 A 
ATOM     50  H   UNL A   1      44.095  27.365  29.681  1.00  0.00     0.167 HD
ATOM     51  C   UNL A   1      46.220  28.814  30.874  1.00  0.00     0.074 A 
ATOM     52  C   UNL A   1      46.956  29.881  31.521  1.00  0.00     0.031 C 
ATOM     53  C   UNL A   1      46.753  27.613  30.540  1.00  0.00     0.031 A 
BRANCH  40  54
ATOM     54  C   UNL A   1      42.743  23.739  27.858  1.00  0.00    -0.014 A 
ATOM     55  C   UNL A   1      42.906  23.489  26.482  1.00  0.00     0.010 A 
ATOM     56  C   UNL A   1      42.371  22.677  28.703  1.00  0.00     0.010 A 
ATOM     57  C   UNL A   1      42.655  22.219  25.957  1.00  0.00     0.020 A 
ATOM     58  C   UNL A   1      42.151  21.396  28.186  1.00  0.00     0.020 A 
ATOM     59  C   UNL A   1      42.277  21.180  26.813  1.00  0.00     0.054 A 
BRANCH  59  60
ATOM     60  S   UNL A   1      41.971  19.539  26.104  1.00  0.00     0.124 S 
ATOM     61  O   UNL A   1      42.772  19.585  24.883  1.00  0.00    -0.237 OA
ATOM     62  O   UNL A   1      42.467  18.644  27.147  1.00  0.00    -0.237 OA
ATOM     63  O   UNL A   1      40.525  19.513  25.900  1.00  0.00    -0.744 OA
ENDBRANCH  59  60
ENDBRANCH  40  54
BRANCH  41  64
ATOM     64  C   UNL A   1      43.938  32.817  31.850  1.00  0.00    -0.014 A 
ATOM     65  C   UNL A   1      44.365  33.919  31.089  1.00  0.00     0.010 A 
ATOM     66  C   UNL A   1      43.656  33.001  33.217  1.00  0.00     0.010 A 
ATOM     67  C   UNL A   1      44.523  35.175  31.684  1.00  0.00     0.020 A 
ATOM     68  C   UNL A   1      43.783  34.260  33.809  1.00  0.00     0.020 A 
ATOM     69  C   UNL A   1      44.227  35.338  33.040  1.00  0.00     0.054 A 
BRANCH  69  70
ATOM     70  S   UNL A   1      44.385  36.988  33.778  1.00  0.00     0.124 S 
ATOM     71  O   UNL A   1      45.125  36.704  35.003  1.00  0.00    -0.237 OA
ATOM     72  O   UNL A   1      45.117  37.723  32.750  1.00  0.00    -0.237 OA
ATOM     73  O   UNL A   1      42.999  37.412  33.967  1.00  0.00    -0.744 OA
ENDBRANCH  69  70
ENDBRANCH  41  64
BRANCH  53  74
ATOM     74  C   UNL A   1      48.214  27.392  30.835  1.00  0.00    -0.014 A 
ATOM     75  C   UNL A   1      49.212  27.765  29.917  1.00  0.00     0.010 A 
ATOM     76  C   UNL A   1      48.596  26.852  32.077  1.00  0.00     0.010 A 
ATOM     77  C   UNL A   1      50.562  27.572  30.222  1.00  0.00     0.020 A 
ATOM     78  C   UNL A   1      49.945  26.688  32.400  1.00  0.00     0.020 A 
ATOM     79  C   UNL A   1      50.920  27.036  31.464  1.00  0.00     0.054 A 
BRANCH  79  80
ATOM     80  S   UNL A   1      52.680  26.838  31.853  1.00  0.00     0.124 S 
ATOM     81  O   UNL A   1      53.204  26.271  30.614  1.00  0.00    -0.237 OA
ATOM     82  O   UNL A   1      53.099  28.207  32.144  1.00  0.00    -0.237 OA
ATOM     83  O   UNL A   1      52.682  25.934  33.002  1.00  0.00    -0.744 OA
ENDBRANCH  79  80
ENDBRANCH  53  74
ENDBRANCH  27  28
ENDBRANCH  19  22
ENDBRANCH  17  18
ENDBRANCH   1  17
TORSDOF 15
ENDMDL
