MODEL 1
REMARK VINA RESULT:     -11.7      0.000      0.000
REMARK SMILES C[C@@H](C(=O)NCCCCNC(=O)c1ccc(-c2c3nc(c(-c4ccc(S(=O)(=O)[O-])cc4)c4ccc([nH]4)c(-c4ccc(S(=O)(=O)[O-])cc4)c4nc(c(-c5ccc(S(=O)(=O)[O-])cc5)c5ccc2[nH]5)C=C4)C=C3)cc1)c1ccc2c(c1)[nH]c1ccc(Cl)cc12
REMARK SMILES IDX 8 1 7 2 6 3 5 4 3 5 4 6 2 8 1 9 73 10 74 11 78 12 75 13
REMARK SMILES IDX 77 14 76 15 79 16 86 17 80 18 85 20 81 21 83 22 82 23 84 24
REMARK SMILES IDX 9 25 10 26 11 27 12 29 13 30 14 31 72 32 15 33 71 34 16 35
REMARK SMILES IDX 17 36 18 37 65 38 19 39 70 40 64 41 66 42 20 43 69 44 63 45
REMARK SMILES IDX 62 46 21 48 51 49 32 50 50 51 33 52 36 53 49 54 67 55 34 56
REMARK SMILES IDX 35 57 48 59 68 60 37 61 22 62 23 63 31 64 24 65 30 66 25 67
REMARK SMILES IDX 26 68 27 69 28 70 29 71 52 72 53 73 61 74 54 75 60 76 55 77
REMARK SMILES IDX 56 78 57 79 58 80 59 81 38 82 39 83 47 84 40 85 46 86 41 87
REMARK SMILES IDX 42 88 43 89 44 90 45 91
REMARK H PARENT 5 7 79 19 10 28 66 47 36 58
REMARK Flexibility Score: inf
ROOT
ATOM      1  C   UNL A   1      33.598  28.239  25.762  1.00  0.00     0.023 C 
ENDROOT
BRANCH   1   2
ATOM      2  C   UNL A   1      32.950  29.355  24.945  1.00  0.00     0.023 C 
BRANCH   2   3
ATOM      3  C   UNL A   1      31.432  29.249  24.794  1.00  0.00     0.116 C 
BRANCH   3   4
ATOM      4  N   UNL A   1      30.970  29.747  23.510  1.00  0.00    -0.356 N 
ATOM      5  C   UNL A   1      30.376  29.086  22.465  1.00  0.00     0.227 C 
ATOM      6  O   UNL A   1      30.086  29.760  21.477  1.00  0.00    -0.274 OA
ATOM      7  H   UNL A   1      31.105  30.712  23.368  1.00  0.00     0.163 HD
BRANCH   5   8
ATOM      8  C   UNL A   1      30.115  27.580  22.592  1.00  0.00     0.105 C 
ATOM      9  C   UNL A   1      28.968  27.298  23.566  1.00  0.00     0.023 C 
BRANCH   8  10
ATOM     10  C   UNL A   1      31.285  26.670  22.967  1.00  0.00    -0.034 A 
ATOM     11  C   UNL A   1      32.537  26.694  22.339  1.00  0.00     0.005 A 
ATOM     12  C   UNL A   1      31.106  25.848  24.096  1.00  0.00     0.031 A 
ATOM     13  C   UNL A   1      33.609  25.915  22.812  1.00  0.00     0.011 A 
ATOM     14  C   UNL A   1      32.179  25.078  24.550  1.00  0.00     0.047 A 
ATOM     15  C   UNL A   1      33.432  25.097  23.947  1.00  0.00     0.007 A 
ATOM     16  N   UNL A   1      32.244  24.207  25.606  1.00  0.00    -0.355 N 
ATOM     17  C   UNL A   1      34.274  24.206  24.693  1.00  0.00     0.009 A 
ATOM     18  C   UNL A   1      33.485  23.625  25.687  1.00  0.00     0.047 A 
ATOM     19  H   UNL A   1      31.499  24.023  26.224  1.00  0.00     0.167 HD
ATOM     20  C   UNL A   1      35.628  23.824  24.606  1.00  0.00     0.031 A 
ATOM     21  C   UNL A   1      33.954  22.640  26.561  1.00  0.00     0.028 A 
ATOM     22  C   UNL A   1      36.116  22.852  25.487  1.00  0.00     0.041 A 
ATOM     23  C   UNL A   1      35.289  22.255  26.437  1.00  0.00     0.022 A 
ATOM     24  Cl  UNL A   1      37.770  22.379  25.396  1.00  0.00    -0.084 Cl
ENDBRANCH   8  10
ENDBRANCH   5   8
ENDBRANCH   3   4
ENDBRANCH   2   3
ENDBRANCH   1   2
BRANCH   1  25
ATOM     25  C   UNL A   1      33.605  28.459  27.268  1.00  0.00     0.116 C 
BRANCH  25  26
ATOM     26  N   UNL A   1      33.525  29.863  27.636  1.00  0.00    -0.352 N 
ATOM     27  C   UNL A   1      34.476  30.662  28.231  1.00  0.00     0.251 C 
ATOM     28  H   UNL A   1      32.670  30.307  27.430  1.00  0.00     0.163 HD
ATOM     29  O   UNL A   1      34.182  31.792  28.595  1.00  0.00    -0.269 OA
BRANCH  27  30
ATOM     30  C   UNL A   1      35.840  30.132  28.459  1.00  0.00     0.039 A 
ATOM     31  C   UNL A   1      36.754  30.149  27.402  1.00  0.00     0.014 A 
ATOM     32  C   UNL A   1      36.221  29.636  29.708  1.00  0.00     0.014 A 
ATOM     33  C   UNL A   1      38.071  29.737  27.621  1.00  0.00     0.010 A 
ATOM     34  C   UNL A   1      37.552  29.301  29.944  1.00  0.00     0.010 A 
ATOM     35  C   UNL A   1      38.491  29.348  28.903  1.00  0.00    -0.014 A 
BRANCH  35  36
ATOM     36  C   UNL A   1      39.910  28.997  29.177  1.00  0.00     0.031 A 
ATOM     37  C   UNL A   1      40.844  30.018  29.769  1.00  0.00     0.074 A 
ATOM     38  C   UNL A   1      40.374  27.779  28.833  1.00  0.00     0.049 A 
ATOM     39  N   UNL A   1      42.122  29.914  30.030  1.00  0.00    -0.248 NA
ATOM     40  C   UNL A   1      40.273  31.338  30.088  1.00  0.00     0.031 C 
ATOM     41  C   UNL A   1      39.582  26.714  28.215  1.00  0.00     0.029 A 
ATOM     42  N   UNL A   1      41.627  27.232  28.951  1.00  0.00    -0.354 N 
ATOM     43  C   UNL A   1      42.510  31.151  30.528  1.00  0.00     0.074 A 
ATOM     44  C   UNL A   1      41.346  32.008  30.483  1.00  0.00     0.031 C 
ATOM     45  C   UNL A   1      40.359  25.634  28.033  1.00  0.00     0.029 A 
ATOM     46  C   UNL A   1      41.715  25.943  28.480  1.00  0.00     0.049 A 
ATOM     47  H   UNL A   1      42.393  27.717  29.335  1.00  0.00     0.167 HD
ATOM     48  C   UNL A   1      43.721  31.537  30.997  1.00  0.00     0.031 A 
ATOM     49  C   UNL A   1      42.765  25.102  28.408  1.00  0.00     0.031 A 
ATOM     50  C   UNL A   1      44.878  30.680  31.044  1.00  0.00     0.049 A 
ATOM     51  C   UNL A   1      44.106  25.559  28.919  1.00  0.00     0.074 A 
ATOM     52  C   UNL A   1      46.133  30.960  31.554  1.00  0.00     0.029 A 
ATOM     53  N   UNL A   1      44.922  29.382  30.561  1.00  0.00    -0.354 N 
ATOM     54  N   UNL A   1      44.436  26.712  29.452  1.00  0.00    -0.248 NA
ATOM     55  C   UNL A   1      45.213  24.598  28.827  1.00  0.00     0.031 C 
ATOM     56  C   UNL A   1      46.955  29.852  31.325  1.00  0.00     0.029 A 
ATOM     57  C   UNL A   1      46.193  28.857  30.732  1.00  0.00     0.049 A 
ATOM     58  H   UNL A   1      44.164  28.903  30.154  1.00  0.00     0.167 HD
ATOM     59  C   UNL A   1      45.781  26.604  29.783  1.00  0.00     0.074 A 
ATOM     60  C   UNL A   1      46.200  25.268  29.406  1.00  0.00     0.031 C 
ATOM     61  C   UNL A   1      46.597  27.527  30.349  1.00  0.00     0.031 A 
BRANCH  48  62
ATOM     62  C   UNL A   1      43.859  32.954  31.490  1.00  0.00    -0.014 A 
ATOM     63  C   UNL A   1      44.258  33.989  30.625  1.00  0.00     0.010 A 
ATOM     64  C   UNL A   1      43.547  33.264  32.826  1.00  0.00     0.010 A 
ATOM     65  C   UNL A   1      44.388  35.298  31.098  1.00  0.00     0.020 A 
ATOM     66  C   UNL A   1      43.646  34.578  33.296  1.00  0.00     0.020 A 
ATOM     67  C   UNL A   1      44.085  35.583  32.432  1.00  0.00     0.054 A 
BRANCH  67  68
ATOM     68  S   UNL A   1      44.246  37.294  33.013  1.00  0.00     0.124 S 
ATOM     69  O   UNL A   1      43.161  37.384  33.986  1.00  0.00    -0.237 OA
ATOM     70  O   UNL A   1      45.595  37.314  33.573  1.00  0.00    -0.237 OA
ATOM     71  O   UNL A   1      44.065  38.091  31.802  1.00  0.00    -0.744 OA
ENDBRANCH  67  68
ENDBRANCH  48  62
BRANCH  49  72
ATOM     72  C   UNL A   1      42.589  23.737  27.840  1.00  0.00    -0.014 A 
ATOM     73  C   UNL A   1      42.048  22.703  28.624  1.00  0.00     0.010 A 
ATOM     74  C   UNL A   1      42.950  23.468  26.508  1.00  0.00     0.010 A 
ATOM     75  C   UNL A   1      41.886  21.421  28.090  1.00  0.00     0.020 A 
ATOM     76  C   UNL A   1      42.762  22.195  25.961  1.00  0.00     0.020 A 
ATOM     77  C   UNL A   1      42.241  21.175  26.760  1.00  0.00     0.054 A 
BRANCH  77  78
ATOM     78  S   UNL A   1      41.971  19.518  26.074  1.00  0.00     0.124 S 
ATOM     79  O   UNL A   1      42.808  19.544  24.879  1.00  0.00    -0.237 OA
ATOM     80  O   UNL A   1      42.437  18.651  27.154  1.00  0.00    -0.237 OA
ATOM     81  O   UNL A   1      40.531  19.478  25.831  1.00  0.00    -0.744 OA
ENDBRANCH  77  78
ENDBRANCH  49  72
BRANCH  61  82
ATOM     82  C   UNL A   1      48.021  27.120  30.626  1.00  0.00    -0.014 A 
ATOM     83  C   UNL A   1      49.050  27.385  29.704  1.00  0.00     0.010 A 
ATOM     84  C   UNL A   1      48.342  26.510  31.854  1.00  0.00     0.010 A 
ATOM     85  C   UNL A   1      50.367  27.020  29.992  1.00  0.00     0.020 A 
ATOM     86  C   UNL A   1      49.662  26.171  32.157  1.00  0.00     0.020 A 
ATOM     87  C   UNL A   1      50.666  26.415  31.219  1.00  0.00     0.054 A 
BRANCH  87  88
ATOM     88  S   UNL A   1      52.390  25.992  31.586  1.00  0.00     0.124 S 
ATOM     89  O   UNL A   1      52.269  24.625  32.084  1.00  0.00    -0.237 OA
ATOM     90  O   UNL A   1      53.039  26.132  30.285  1.00  0.00    -0.237 OA
ATOM     91  O   UNL A   1      52.786  26.985  32.582  1.00  0.00    -0.744 OA
ENDBRANCH  87  88
ENDBRANCH  61  82
ENDBRANCH  35  36
ENDBRANCH  27  30
ENDBRANCH  25  26
ENDBRANCH   1  25
TORSDOF 15
ENDMDL
MODEL 2
REMARK VINA RESULT:     -11.4      2.917      9.312
REMARK SMILES C[C@@H](C(=O)NCCCCNC(=O)c1ccc(-c2c3nc(c(-c4ccc(S(=O)(=O)[O-])cc4)c4ccc([nH]4)c(-c4ccc(S(=O)(=O)[O-])cc4)c4nc(c(-c5ccc(S(=O)(=O)[O-])cc5)c5ccc2[nH]5)C=C4)C=C3)cc1)c1ccc2c(c1)[nH]c1ccc(Cl)cc12
REMARK SMILES IDX 8 1 7 2 6 3 5 4 3 5 4 6 2 8 1 9 73 10 74 11 78 12 75 13
REMARK SMILES IDX 77 14 76 15 79 16 86 17 80 18 85 20 81 21 83 22 82 23 84 24
REMARK SMILES IDX 9 25 10 26 11 27 12 29 13 30 14 31 72 32 15 33 71 34 16 35
REMARK SMILES IDX 17 36 18 37 65 38 19 39 70 40 64 41 66 42 20 43 69 44 63 45
REMARK SMILES IDX 62 46 21 48 51 49 32 50 50 51 33 52 36 53 49 54 67 55 34 56
REMARK SMILES IDX 35 57 48 59 68 60 37 61 22 62 23 63 31 64 24 65 30 66 25 67
REMARK SMILES IDX 26 68 27 69 28 70 29 71 52 72 53 73 61 74 54 75 60 76 55 77
REMARK SMILES IDX 56 78 57 79 58 80 59 81 38 82 39 83 47 84 40 85 46 86 41 87
REMARK SMILES IDX 42 88 43 89 44 90 45 91
REMARK H PARENT 5 7 79 19 10 28 66 47 36 58
REMARK Flexibility Score: inf
ROOT
ATOM      1  C   UNL A   1      35.738  23.312  25.959  1.00  0.00     0.023 C 
ENDROOT
BRANCH   1   2
ATOM      2  C   UNL A   1      35.530  21.826  26.246  1.00  0.00     0.023 C 
BRANCH   2   3
ATOM      3  C   UNL A   1      35.018  21.005  25.062  1.00  0.00     0.116 C 
BRANCH   3   4
ATOM      4  N   UNL A   1      34.157  19.912  25.481  1.00  0.00    -0.356 N 
ATOM      5  C   UNL A   1      32.815  19.712  25.273  1.00  0.00     0.227 C 
ATOM      6  O   UNL A   1      32.329  18.688  25.751  1.00  0.00    -0.274 OA
ATOM      7  H   UNL A   1      34.608  19.205  25.996  1.00  0.00     0.163 HD
BRANCH   5   8
ATOM      8  C   UNL A   1      32.024  20.755  24.475  1.00  0.00     0.105 C 
ATOM      9  C   UNL A   1      32.349  20.670  22.981  1.00  0.00     0.023 C 
BRANCH   8  10
ATOM     10  C   UNL A   1      32.126  22.221  24.896  1.00  0.00    -0.034 A 
ATOM     11  C   UNL A   1      31.904  22.686  26.199  1.00  0.00     0.005 A 
ATOM     12  C   UNL A   1      32.589  23.126  23.921  1.00  0.00     0.031 A 
ATOM     13  C   UNL A   1      32.132  24.030  26.546  1.00  0.00     0.011 A 
ATOM     14  C   UNL A   1      32.806  24.457  24.281  1.00  0.00     0.047 A 
ATOM     15  C   UNL A   1      32.603  24.935  25.572  1.00  0.00     0.007 A 
ATOM     16  N   UNL A   1      33.240  25.509  23.517  1.00  0.00    -0.355 N 
ATOM     17  C   UNL A   1      32.946  26.328  25.565  1.00  0.00     0.009 A 
ATOM     18  C   UNL A   1      33.284  26.666  24.255  1.00  0.00     0.047 A 
ATOM     19  H   UNL A   1      33.485  25.443  22.565  1.00  0.00     0.167 HD
ATOM     20  C   UNL A   1      32.982  27.339  26.548  1.00  0.00     0.031 A 
ATOM     21  C   UNL A   1      33.600  27.968  23.855  1.00  0.00     0.028 A 
ATOM     22  C   UNL A   1      33.314  28.644  26.165  1.00  0.00     0.041 A 
ATOM     23  C   UNL A   1      33.600  28.959  24.838  1.00  0.00     0.022 A 
ATOM     24  Cl  UNL A   1      33.368  29.888  27.355  1.00  0.00    -0.084 Cl
ENDBRANCH   8  10
ENDBRANCH   5   8
ENDBRANCH   3   4
ENDBRANCH   2   3
ENDBRANCH   1   2
BRANCH   1  25
ATOM     25  C   UNL A   1      37.046  23.661  25.260  1.00  0.00     0.116 C 
BRANCH  25  26
ATOM     26  N   UNL A   1      38.112  22.716  25.551  1.00  0.00    -0.352 N 
ATOM     27  C   UNL A   1      39.314  22.931  26.189  1.00  0.00     0.251 C 
ATOM     28  H   UNL A   1      37.953  21.792  25.251  1.00  0.00     0.163 HD
ATOM     29  O   UNL A   1      40.154  22.043  26.222  1.00  0.00    -0.269 OA
BRANCH  27  30
ATOM     30  C   UNL A   1      39.594  24.251  26.799  1.00  0.00     0.039 A 
ATOM     31  C   UNL A   1      39.148  24.500  28.100  1.00  0.00     0.014 A 
ATOM     32  C   UNL A   1      40.306  25.231  26.103  1.00  0.00     0.014 A 
ATOM     33  C   UNL A   1      39.479  25.704  28.726  1.00  0.00     0.010 A 
ATOM     34  C   UNL A   1      40.701  26.395  26.755  1.00  0.00     0.010 A 
ATOM     35  C   UNL A   1      40.292  26.645  28.073  1.00  0.00    -0.014 A 
BRANCH  35  36
ATOM     36  C   UNL A   1      40.734  27.889  28.757  1.00  0.00     0.031 A 
ATOM     37  C   UNL A   1      42.113  27.978  29.355  1.00  0.00     0.074 A 
ATOM     38  C   UNL A   1      39.872  28.915  28.896  1.00  0.00     0.049 A 
ATOM     39  N   UNL A   1      42.656  28.958  30.031  1.00  0.00    -0.248 NA
ATOM     40  C   UNL A   1      42.987  26.805  29.191  1.00  0.00     0.031 C 
ATOM     41  C   UNL A   1      38.494  28.939  28.399  1.00  0.00     0.029 A 
ATOM     42  N   UNL A   1      40.024  30.138  29.503  1.00  0.00    -0.354 N 
ATOM     43  C   UNL A   1      43.925  28.516  30.386  1.00  0.00     0.074 A 
ATOM     44  C   UNL A   1      44.051  27.161  29.896  1.00  0.00     0.031 C 
ATOM     45  C   UNL A   1      37.938  30.125  28.695  1.00  0.00     0.029 A 
ATOM     46  C   UNL A   1      38.901  30.930  29.441  1.00  0.00     0.049 A 
ATOM     47  H   UNL A   1      40.858  30.421  29.941  1.00  0.00     0.167 HD
ATOM     48  C   UNL A   1      44.904  29.182  31.043  1.00  0.00     0.031 A 
ATOM     49  C   UNL A   1      38.666  32.161  29.934  1.00  0.00     0.031 A 
ATOM     50  C   UNL A   1      44.776  30.532  31.526  1.00  0.00     0.049 A 
ATOM     51  C   UNL A   1      39.763  32.876  30.677  1.00  0.00     0.074 A 
ATOM     52  C   UNL A   1      45.731  31.314  32.153  1.00  0.00     0.029 A 
ATOM     53  N   UNL A   1      43.625  31.299  31.440  1.00  0.00    -0.354 N 
ATOM     54  N   UNL A   1      40.982  32.466  30.940  1.00  0.00    -0.248 NA
ATOM     55  C   UNL A   1      39.456  34.221  31.182  1.00  0.00     0.031 C 
ATOM     56  C   UNL A   1      45.138  32.532  32.501  1.00  0.00     0.029 A 
ATOM     57  C   UNL A   1      43.834  32.535  32.030  1.00  0.00     0.049 A 
ATOM     58  H   UNL A   1      42.782  31.009  31.023  1.00  0.00     0.167 HD
ATOM     59  C   UNL A   1      41.595  33.514  31.618  1.00  0.00     0.074 A 
ATOM     60  C   UNL A   1      40.618  34.582  31.708  1.00  0.00     0.031 C 
ATOM     61  C   UNL A   1      42.853  33.587  32.118  1.00  0.00     0.031 A 
BRANCH  48  62
ATOM     62  C   UNL A   1      46.200  28.453  31.287  1.00  0.00    -0.014 A 
ATOM     63  C   UNL A   1      47.262  28.530  30.367  1.00  0.00     0.010 A 
ATOM     64  C   UNL A   1      46.375  27.713  32.470  1.00  0.00     0.010 A 
ATOM     65  C   UNL A   1      48.456  27.843  30.603  1.00  0.00     0.020 A 
ATOM     66  C   UNL A   1      47.580  27.049  32.725  1.00  0.00     0.020 A 
ATOM     67  C   UNL A   1      48.605  27.104  31.780  1.00  0.00     0.054 A 
BRANCH  67  68
ATOM     68  S   UNL A   1      50.173  26.236  32.067  1.00  0.00     0.124 S 
ATOM     69  O   UNL A   1      50.218  26.175  33.525  1.00  0.00    -0.237 OA
ATOM     70  O   UNL A   1      49.958  24.959  31.391  1.00  0.00    -0.237 OA
ATOM     71  O   UNL A   1      51.170  27.106  31.449  1.00  0.00    -0.744 OA
ENDBRANCH  67  68
ENDBRANCH  48  62
BRANCH  49  72
ATOM     72  C   UNL A   1      37.339  32.804  29.729  1.00  0.00    -0.014 A 
ATOM     73  C   UNL A   1      36.336  32.699  30.709  1.00  0.00     0.010 A 
ATOM     74  C   UNL A   1      37.076  33.537  28.557  1.00  0.00     0.010 A 
ATOM     75  C   UNL A   1      35.089  33.301  30.513  1.00  0.00     0.020 A 
ATOM     76  C   UNL A   1      35.841  34.166  28.371  1.00  0.00     0.020 A 
ATOM     77  C   UNL A   1      34.850  34.033  29.347  1.00  0.00     0.054 A 
BRANCH  77  78
ATOM     78  S   UNL A   1      33.244  34.850  29.140  1.00  0.00     0.124 S 
ATOM     79  O   UNL A   1      33.633  36.167  28.649  1.00  0.00    -0.237 OA
ATOM     80  O   UNL A   1      32.575  33.985  28.171  1.00  0.00    -0.237 OA
ATOM     81  O   UNL A   1      32.671  34.825  30.484  1.00  0.00    -0.744 OA
ENDBRANCH  77  78
ENDBRANCH  49  72
BRANCH  61  82
ATOM     82  C   UNL A   1      43.262  34.875  32.785  1.00  0.00    -0.014 A 
ATOM     83  C   UNL A   1      43.896  35.902  32.063  1.00  0.00     0.010 A 
ATOM     84  C   UNL A   1      42.957  35.080  34.144  1.00  0.00     0.010 A 
ATOM     85  C   UNL A   1      44.245  37.098  32.697  1.00  0.00     0.020 A 
ATOM     86  C   UNL A   1      43.277  36.285  34.772  1.00  0.00     0.020 A 
ATOM     87  C   UNL A   1      43.932  37.282  34.048  1.00  0.00     0.054 A 
BRANCH  87  88
ATOM     88  S   UNL A   1      44.356  38.860  34.833  1.00  0.00     0.124 S 
ATOM     89  O   UNL A   1      45.736  39.057  34.397  1.00  0.00    -0.237 OA
ATOM     90  O   UNL A   1      43.377  39.779  34.258  1.00  0.00    -0.237 OA
ATOM     91  O   UNL A   1      44.187  38.594  36.260  1.00  0.00    -0.744 OA
ENDBRANCH  87  88
ENDBRANCH  61  82
ENDBRANCH  35  36
ENDBRANCH  27  30
ENDBRANCH  25  26
ENDBRANCH   1  25
TORSDOF 15
ENDMDL
MODEL 3
REMARK VINA RESULT:     -11.4      3.490      6.802
REMARK SMILES C[C@@H](C(=O)NCCCCNC(=O)c1ccc(-c2c3nc(c(-c4ccc(S(=O)(=O)[O-])cc4)c4ccc([nH]4)c(-c4ccc(S(=O)(=O)[O-])cc4)c4nc(c(-c5ccc(S(=O)(=O)[O-])cc5)c5ccc2[nH]5)C=C4)C=C3)cc1)c1ccc2c(c1)[nH]c1ccc(Cl)cc12
REMARK SMILES IDX 8 1 7 2 6 3 5 4 3 5 4 6 2 8 1 9 73 10 74 11 78 12 75 13
REMARK SMILES IDX 77 14 76 15 79 16 86 17 80 18 85 20 81 21 83 22 82 23 84 24
REMARK SMILES IDX 9 25 10 26 11 27 12 29 13 30 14 31 72 32 15 33 71 34 16 35
REMARK SMILES IDX 17 36 18 37 65 38 19 39 70 40 64 41 66 42 20 43 69 44 63 45
REMARK SMILES IDX 62 46 21 48 51 49 32 50 50 51 33 52 36 53 49 54 67 55 34 56
REMARK SMILES IDX 35 57 48 59 68 60 37 61 22 62 23 63 31 64 24 65 30 66 25 67
REMARK SMILES IDX 26 68 27 69 28 70 29 71 52 72 53 73 61 74 54 75 60 76 55 77
REMARK SMILES IDX 56 78 57 79 58 80 59 81 38 82 39 83 47 84 40 85 46 86 41 87
REMARK SMILES IDX 42 88 43 89 44 90 45 91
REMARK H PARENT 5 7 79 19 10 28 66 47 36 58
REMARK Flexibility Score: inf
ROOT
ATOM      1  C   UNL A   1      35.354  33.200  29.805  1.00  0.00     0.023 C 
ENDROOT
BRANCH   1   2
ATOM      2  C   UNL A   1      36.812  32.964  30.198  1.00  0.00     0.023 C 
BRANCH   2   3
ATOM      3  C   UNL A   1      37.061  32.827  31.701  1.00  0.00     0.116 C 
BRANCH   3   4
ATOM      4  N   UNL A   1      38.117  33.708  32.167  1.00  0.00    -0.356 N 
ATOM      5  C   UNL A   1      38.883  33.648  33.304  1.00  0.00     0.227 C 
ATOM      6  O   UNL A   1      39.715  34.542  33.458  1.00  0.00    -0.274 OA
ATOM      7  H   UNL A   1      38.314  34.468  31.574  1.00  0.00     0.163 HD
BRANCH   5   8
ATOM      8  C   UNL A   1      38.658  32.496  34.291  1.00  0.00     0.105 C 
ATOM      9  C   UNL A   1      38.758  32.981  35.739  1.00  0.00     0.023 C 
BRANCH   8  10
ATOM     10  C   UNL A   1      39.523  31.243  34.153  1.00  0.00    -0.034 A 
ATOM     11  C   UNL A   1      39.136  30.088  33.462  1.00  0.00     0.005 A 
ATOM     12  C   UNL A   1      40.834  31.325  34.661  1.00  0.00     0.031 A 
ATOM     13  C   UNL A   1      40.027  29.016  33.269  1.00  0.00     0.011 A 
ATOM     14  C   UNL A   1      41.704  30.250  34.464  1.00  0.00     0.047 A 
ATOM     15  C   UNL A   1      41.342  29.100  33.771  1.00  0.00     0.007 A 
ATOM     16  N   UNL A   1      43.006  30.096  34.868  1.00  0.00    -0.355 N 
ATOM     17  C   UNL A   1      42.489  28.238  33.756  1.00  0.00     0.009 A 
ATOM     18  C   UNL A   1      43.490  28.866  34.498  1.00  0.00     0.047 A 
ATOM     19  H   UNL A   1      43.522  30.776  35.358  1.00  0.00     0.167 HD
ATOM     20  C   UNL A   1      42.764  26.973  33.197  1.00  0.00     0.031 A 
ATOM     21  C   UNL A   1      44.731  28.278  34.764  1.00  0.00     0.028 A 
ATOM     22  C   UNL A   1      44.008  26.381  33.441  1.00  0.00     0.041 A 
ATOM     23  C   UNL A   1      44.969  27.012  34.227  1.00  0.00     0.022 A 
ATOM     24  Cl  UNL A   1      44.361  24.838  32.760  1.00  0.00    -0.084 Cl
ENDBRANCH   8  10
ENDBRANCH   5   8
ENDBRANCH   3   4
ENDBRANCH   2   3
ENDBRANCH   1   2
BRANCH   1  25
ATOM     25  C   UNL A   1      35.055  33.065  28.318  1.00  0.00     0.116 C 
BRANCH  25  26
ATOM     26  N   UNL A   1      34.138  31.976  28.022  1.00  0.00    -0.352 N 
ATOM     27  C   UNL A   1      34.398  30.629  27.899  1.00  0.00     0.251 C 
ATOM     28  H   UNL A   1      33.198  32.238  27.891  1.00  0.00     0.163 HD
ATOM     29  O   UNL A   1      33.522  29.872  27.507  1.00  0.00    -0.269 OA
BRANCH  27  30
ATOM     30  C   UNL A   1      35.751  30.113  28.210  1.00  0.00     0.039 A 
ATOM     31  C   UNL A   1      36.741  30.182  27.226  1.00  0.00     0.014 A 
ATOM     32  C   UNL A   1      36.049  29.581  29.467  1.00  0.00     0.014 A 
ATOM     33  C   UNL A   1      38.046  29.785  27.528  1.00  0.00     0.010 A 
ATOM     34  C   UNL A   1      37.364  29.259  29.790  1.00  0.00     0.010 A 
ATOM     35  C   UNL A   1      38.377  29.358  28.824  1.00  0.00    -0.014 A 
BRANCH  35  36
ATOM     36  C   UNL A   1      39.778  29.021  29.192  1.00  0.00     0.031 A 
ATOM     37  C   UNL A   1      40.646  30.037  29.885  1.00  0.00     0.074 A 
ATOM     38  C   UNL A   1      40.289  27.824  28.844  1.00  0.00     0.049 A 
ATOM     39  N   UNL A   1      41.903  29.944  30.237  1.00  0.00    -0.248 NA
ATOM     40  C   UNL A   1      40.028  31.335  30.204  1.00  0.00     0.031 C 
ATOM     41  C   UNL A   1      39.565  26.767  28.133  1.00  0.00     0.029 A 
ATOM     42  N   UNL A   1      41.540  27.293  29.036  1.00  0.00    -0.354 N 
ATOM     43  C   UNL A   1      42.230  31.170  30.803  1.00  0.00     0.074 A 
ATOM     44  C   UNL A   1      41.056  32.009  30.700  1.00  0.00     0.031 C 
ATOM     45  C   UNL A   1      40.374  25.707  27.974  1.00  0.00     0.029 A 
ATOM     46  C   UNL A   1      41.687  26.023  28.531  1.00  0.00     0.049 A 
ATOM     47  H   UNL A   1      42.266  27.778  29.493  1.00  0.00     0.167 HD
ATOM     48  C   UNL A   1      43.395  31.559  31.374  1.00  0.00     0.031 A 
ATOM     49  C   UNL A   1      42.756  25.203  28.510  1.00  0.00     0.031 A 
ATOM     50  C   UNL A   1      44.561  30.721  31.479  1.00  0.00     0.049 A 
ATOM     51  C   UNL A   1      44.046  25.663  29.134  1.00  0.00     0.074 A 
ATOM     52  C   UNL A   1      45.770  31.004  32.090  1.00  0.00     0.029 A 
ATOM     53  N   UNL A   1      44.666  29.440  30.958  1.00  0.00    -0.354 N 
ATOM     54  N   UNL A   1      44.313  26.802  29.728  1.00  0.00    -0.248 NA
ATOM     55  C   UNL A   1      45.175  24.724  29.093  1.00  0.00     0.031 C 
ATOM     56  C   UNL A   1      46.627  29.917  31.887  1.00  0.00     0.029 A 
ATOM     57  C   UNL A   1      45.929  28.931  31.206  1.00  0.00     0.049 A 
ATOM     58  H   UNL A   1      43.949  28.964  30.480  1.00  0.00     0.167 HD
ATOM     59  C   UNL A   1      45.633  26.706  30.155  1.00  0.00     0.074 A 
ATOM     60  C   UNL A   1      46.103  25.391  29.766  1.00  0.00     0.031 C 
ATOM     61  C   UNL A   1      46.387  27.622  30.810  1.00  0.00     0.031 A 
BRANCH  48  62
ATOM     62  C   UNL A   1      43.469  32.961  31.923  1.00  0.00    -0.014 A 
ATOM     63  C   UNL A   1      43.691  34.062  31.076  1.00  0.00     0.010 A 
ATOM     64  C   UNL A   1      43.274  33.186  33.297  1.00  0.00     0.010 A 
ATOM     65  C   UNL A   1      43.765  35.356  31.599  1.00  0.00     0.020 A 
ATOM     66  C   UNL A   1      43.316  34.482  33.821  1.00  0.00     0.020 A 
ATOM     67  C   UNL A   1      43.580  35.557  32.970  1.00  0.00     0.054 A 
BRANCH  67  68
ATOM     68  S   UNL A   1      43.663  37.249  33.618  1.00  0.00     0.124 S 
ATOM     69  O   UNL A   1      43.977  38.016  32.416  1.00  0.00    -0.237 OA
ATOM     70  O   UNL A   1      42.321  37.450  34.158  1.00  0.00    -0.237 OA
ATOM     71  O   UNL A   1      44.730  37.188  34.614  1.00  0.00    -0.744 OA
ENDBRANCH  67  68
ENDBRANCH  48  62
BRANCH  49  72
ATOM     72  C   UNL A   1      42.648  23.855  27.886  1.00  0.00    -0.014 A 
ATOM     73  C   UNL A   1      43.034  23.655  26.549  1.00  0.00     0.010 A 
ATOM     74  C   UNL A   1      42.170  22.762  28.630  1.00  0.00     0.010 A 
ATOM     75  C   UNL A   1      42.929  22.390  25.963  1.00  0.00     0.020 A 
ATOM     76  C   UNL A   1      42.092  21.489  28.057  1.00  0.00     0.020 A 
ATOM     77  C   UNL A   1      42.462  21.313  26.722  1.00  0.00     0.054 A 
BRANCH  77  78
ATOM     78  S   UNL A   1      42.386  19.670  25.957  1.00  0.00     0.124 S 
ATOM     79  O   UNL A   1      43.391  19.777  24.906  1.00  0.00    -0.237 OA
ATOM     80  O   UNL A   1      42.726  18.789  27.072  1.00  0.00    -0.237 OA
ATOM     81  O   UNL A   1      41.003  19.572  25.496  1.00  0.00    -0.744 OA
ENDBRANCH  77  78
ENDBRANCH  49  72
BRANCH  61  82
ATOM     82  C   UNL A   1      47.794  27.229  31.179  1.00  0.00    -0.014 A 
ATOM     83  C   UNL A   1      48.889  27.589  30.373  1.00  0.00     0.010 A 
ATOM     84  C   UNL A   1      48.027  26.534  32.381  1.00  0.00     0.010 A 
ATOM     85  C   UNL A   1      50.187  27.235  30.747  1.00  0.00     0.020 A 
ATOM     86  C   UNL A   1      49.326  26.204  32.773  1.00  0.00     0.020 A 
ATOM     87  C   UNL A   1      50.398  26.545  31.946  1.00  0.00     0.054 A 
BRANCH  87  88
ATOM     88  S   UNL A   1      52.097  26.136  32.429  1.00  0.00     0.124 S 
ATOM     89  O   UNL A   1      52.658  25.634  31.178  1.00  0.00    -0.237 OA
ATOM     90  O   UNL A   1      52.621  27.423  32.881  1.00  0.00    -0.237 OA
ATOM     91  O   UNL A   1      51.928  25.135  33.481  1.00  0.00    -0.744 OA
ENDBRANCH  87  88
ENDBRANCH  61  82
ENDBRANCH  35  36
ENDBRANCH  27  30
ENDBRANCH  25  26
ENDBRANCH   1  25
TORSDOF 15
ENDMDL
