MODEL 1
REMARK VINA RESULT:      -9.9      0.000      0.000
REMARK SMILES CC(C)Cc1ccc([C@H](C)C(=O)NCCCCNC(=O)c2ccc(-c3c4nc(c(-c5ccc(S(=O)(=O)[O-])cc5)c5ccc([nH]5)c(-c5ccc(S(=O)(=O)[O-])cc5)c5nc(c(-c6ccc(S(=O)(=O)[O-])cc6)c6ccc3[nH]6)C=C5)C=C4)cc2)cc1
REMARK SMILES IDX 15 1 14 2 13 3 11 4 12 5 9 7 10 8 8 9 5 10 6 11 82 12 7 13
REMARK SMILES IDX 81 14 4 15 2 16 1 17 3 18 16 19 17 20 18 21 19 22 20 24
REMARK SMILES IDX 21 25 22 26 80 27 23 28 79 29 24 30 25 31 26 32 73 33 27 34
REMARK SMILES IDX 78 35 72 36 74 37 28 38 77 39 71 40 70 41 29 43 59 44 40 45
REMARK SMILES IDX 58 46 41 47 44 48 57 49 75 50 42 51 43 52 56 54 76 55 45 56
REMARK SMILES IDX 30 57 31 58 39 59 32 60 38 61 33 62 34 63 35 64 36 65 37 66
REMARK SMILES IDX 60 67 61 68 69 69 62 70 68 71 63 72 64 73 65 74 66 75 67 76
REMARK SMILES IDX 46 77 47 78 55 79 48 80 54 81 49 82 50 83 51 84 52 85 53 86
REMARK H PARENT 13 6 18 23 74 42 44 53
REMARK Flexibility Score: inf
ROOT
ATOM      1  C   UNL A   1      35.576  22.262  23.999  1.00  0.00     0.023 C 
ENDROOT
BRANCH   1   2
ATOM      2  C   UNL A   1      34.179  22.376  23.400  1.00  0.00     0.116 C 
BRANCH   2   3
ATOM      3  N   UNL A   1      33.143  22.151  24.391  1.00  0.00    -0.356 N 
ATOM      4  C   UNL A   1      32.052  22.909  24.697  1.00  0.00     0.227 C 
ATOM      5  O   UNL A   1      31.269  22.474  25.547  1.00  0.00    -0.274 OA
ATOM      6  H   UNL A   1      33.243  21.328  24.921  1.00  0.00     0.163 HD
BRANCH   4   7
ATOM      7  C   UNL A   1      31.811  24.272  24.043  1.00  0.00     0.105 C 
ATOM      8  C   UNL A   1      30.442  24.256  23.351  1.00  0.00     0.023 C 
BRANCH   7   9
ATOM      9  C   UNL A   1      32.109  25.453  24.961  1.00  0.00    -0.036 A 
ATOM     10  C   UNL A   1      32.734  27.644  26.651  1.00  0.00    -0.048 A 
ATOM     11  C   UNL A   1      31.417  27.196  26.514  1.00  0.00     0.004 A 
ATOM     12  C   UNL A   1      33.742  26.980  25.946  1.00  0.00     0.004 A 
ATOM     13  C   UNL A   1      31.104  26.132  25.663  1.00  0.00     0.005 A 
ATOM     14  C   UNL A   1      33.433  25.901  25.112  1.00  0.00     0.005 A 
BRANCH  10  15
ATOM     15  C   UNL A   1      33.058  28.820  27.541  1.00  0.00     0.038 C 
BRANCH  15  16
ATOM     16  C   UNL A   1      33.228  30.160  26.791  1.00  0.00    -0.013 C 
ATOM     17  C   UNL A   1      31.911  30.923  26.622  1.00  0.00     0.008 C 
ATOM     18  C   UNL A   1      34.225  31.046  27.544  1.00  0.00     0.008 C 
ENDBRANCH  15  16
ENDBRANCH  10  15
ENDBRANCH   7   9
ENDBRANCH   4   7
ENDBRANCH   2   3
ENDBRANCH   1   2
BRANCH   1  19
ATOM     19  C   UNL A   1      36.201  23.592  24.420  1.00  0.00     0.023 C 
BRANCH  19  20
ATOM     20  C   UNL A   1      36.823  23.604  25.812  1.00  0.00     0.116 C 
BRANCH  20  21
ATOM     21  N   UNL A   1      37.986  22.735  25.922  1.00  0.00    -0.352 N 
ATOM     22  C   UNL A   1      39.242  23.034  26.400  1.00  0.00     0.251 C 
ATOM     23  H   UNL A   1      37.857  21.810  25.613  1.00  0.00     0.163 HD
ATOM     24  O   UNL A   1      40.151  22.225  26.301  1.00  0.00    -0.269 OA
BRANCH  22  25
ATOM     25  C   UNL A   1      39.481  24.363  27.007  1.00  0.00     0.039 A 
ATOM     26  C   UNL A   1      39.083  24.587  28.326  1.00  0.00     0.014 A 
ATOM     27  C   UNL A   1      40.138  25.363  26.285  1.00  0.00     0.014 A 
ATOM     28  C   UNL A   1      39.409  25.794  28.949  1.00  0.00     0.010 A 
ATOM     29  C   UNL A   1      40.524  26.534  26.929  1.00  0.00     0.010 A 
ATOM     30  C   UNL A   1      40.166  26.762  28.266  1.00  0.00    -0.014 A 
BRANCH  30  31
ATOM     31  C   UNL A   1      40.597  28.018  28.929  1.00  0.00     0.031 A 
ATOM     32  C   UNL A   1      41.970  28.114  29.536  1.00  0.00     0.074 A 
ATOM     33  C   UNL A   1      39.731  29.044  29.051  1.00  0.00     0.049 A 
ATOM     34  N   UNL A   1      42.501  29.090  30.227  1.00  0.00    -0.248 NA
ATOM     35  C   UNL A   1      42.852  26.948  29.366  1.00  0.00     0.031 C 
ATOM     36  C   UNL A   1      38.360  29.064  28.536  1.00  0.00     0.029 A 
ATOM     37  N   UNL A   1      39.874  30.268  29.655  1.00  0.00    -0.354 N 
ATOM     38  C   UNL A   1      43.767  28.649  30.593  1.00  0.00     0.074 A 
ATOM     39  C   UNL A   1      43.906  27.299  30.089  1.00  0.00     0.031 C 
ATOM     40  C   UNL A   1      37.799  30.250  28.822  1.00  0.00     0.029 A 
ATOM     41  C   UNL A   1      38.752  31.058  29.576  1.00  0.00     0.049 A 
ATOM     42  H   UNL A   1      40.702  30.553  30.104  1.00  0.00     0.167 HD
ATOM     43  C   UNL A   1      44.735  29.311  31.270  1.00  0.00     0.031 A 
ATOM     44  C   UNL A   1      38.513  32.293  30.061  1.00  0.00     0.031 A 
ATOM     45  C   UNL A   1      44.599  30.657  31.758  1.00  0.00     0.049 A 
ATOM     46  C   UNL A   1      39.598  33.005  30.823  1.00  0.00     0.074 A 
ATOM     47  C   UNL A   1      45.540  31.435  32.409  1.00  0.00     0.029 A 
ATOM     48  N   UNL A   1      43.449  31.424  31.650  1.00  0.00    -0.354 N 
ATOM     49  N   UNL A   1      40.810  32.592  31.108  1.00  0.00    -0.248 NA
ATOM     50  C   UNL A   1      39.285  34.351  31.319  1.00  0.00     0.031 C 
ATOM     51  C   UNL A   1      44.943  32.658  32.735  1.00  0.00     0.029 A 
ATOM     52  C   UNL A   1      43.649  32.661  32.239  1.00  0.00     0.049 A 
ATOM     53  H   UNL A   1      42.614  31.133  31.218  1.00  0.00     0.167 HD
ATOM     54  C   UNL A   1      41.415  33.641  31.791  1.00  0.00     0.074 A 
ATOM     55  C   UNL A   1      40.438  34.709  31.868  1.00  0.00     0.031 C 
ATOM     56  C   UNL A   1      42.668  33.715  32.304  1.00  0.00     0.031 A 
BRANCH  43  57
ATOM     57  C   UNL A   1      46.025  28.577  31.525  1.00  0.00    -0.014 A 
ATOM     58  C   UNL A   1      46.198  27.792  32.679  1.00  0.00     0.010 A 
ATOM     59  C   UNL A   1      47.075  28.661  30.592  1.00  0.00     0.010 A 
ATOM     60  C   UNL A   1      47.414  27.150  32.924  1.00  0.00     0.020 A 
ATOM     61  C   UNL A   1      48.283  27.996  30.818  1.00  0.00     0.020 A 
ATOM     62  C   UNL A   1      48.452  27.262  31.995  1.00  0.00     0.054 A 
BRANCH  62  63
ATOM     63  S   UNL A   1      50.021  26.419  32.338  1.00  0.00     0.124 S 
ATOM     64  O   UNL A   1      50.696  26.506  31.044  1.00  0.00    -0.237 OA
ATOM     65  O   UNL A   1      50.599  27.236  33.402  1.00  0.00    -0.237 OA
ATOM     66  O   UNL A   1      49.613  25.076  32.738  1.00  0.00    -0.744 OA
ENDBRANCH  62  63
ENDBRANCH  43  57
BRANCH  44  67
ATOM     67  C   UNL A   1      37.198  32.946  29.819  1.00  0.00    -0.014 A 
ATOM     68  C   UNL A   1      36.194  32.902  30.802  1.00  0.00     0.010 A 
ATOM     69  C   UNL A   1      36.945  33.628  28.614  1.00  0.00     0.010 A 
ATOM     70  C   UNL A   1      34.956  33.512  30.580  1.00  0.00     0.020 A 
ATOM     71  C   UNL A   1      35.718  34.262  28.399  1.00  0.00     0.020 A 
ATOM     72  C   UNL A   1      34.727  34.190  29.379  1.00  0.00     0.054 A 
BRANCH  72  73
ATOM     73  S   UNL A   1      33.131  35.019  29.135  1.00  0.00     0.124 S 
ATOM     74  O   UNL A   1      33.543  36.353  28.713  1.00  0.00    -0.237 OA
ATOM     75  O   UNL A   1      32.500  34.195  28.107  1.00  0.00    -0.237 OA
ATOM     76  O   UNL A   1      32.503  34.944  30.453  1.00  0.00    -0.744 OA
ENDBRANCH  72  73
ENDBRANCH  44  67
BRANCH  56  77
ATOM     77  C   UNL A   1      43.074  35.007  32.960  1.00  0.00    -0.014 A 
ATOM     78  C   UNL A   1      42.869  35.224  34.333  1.00  0.00     0.010 A 
ATOM     79  C   UNL A   1      43.730  35.991  32.198  1.00  0.00     0.010 A 
ATOM     80  C   UNL A   1      43.293  36.414  34.929  1.00  0.00     0.020 A 
ATOM     81  C   UNL A   1      44.178  37.171  32.796  1.00  0.00     0.020 A 
ATOM     82  C   UNL A   1      43.947  37.380  34.157  1.00  0.00     0.054 A 
BRANCH  82  83
ATOM     83  S   UNL A   1      44.537  38.893  34.965  1.00  0.00     0.124 S 
ATOM     84  O   UNL A   1      44.355  38.575  36.378  1.00  0.00    -0.237 OA
ATOM     85  O   UNL A   1      45.924  38.979  34.514  1.00  0.00    -0.237 OA
ATOM     86  O   UNL A   1      43.654  39.933  34.441  1.00  0.00    -0.744 OA
ENDBRANCH  82  83
ENDBRANCH  56  77
ENDBRANCH  30  31
ENDBRANCH  22  25
ENDBRANCH  20  21
ENDBRANCH  19  20
ENDBRANCH   1  19
TORSDOF 17
ENDMDL
MODEL 2
REMARK VINA RESULT:      -9.9      1.540      3.725
REMARK SMILES CC(C)Cc1ccc([C@H](C)C(=O)NCCCCNC(=O)c2ccc(-c3c4nc(c(-c5ccc(S(=O)(=O)[O-])cc5)c5ccc([nH]5)c(-c5ccc(S(=O)(=O)[O-])cc5)c5nc(c(-c6ccc(S(=O)(=O)[O-])cc6)c6ccc3[nH]6)C=C5)C=C4)cc2)cc1
REMARK SMILES IDX 15 1 14 2 13 3 11 4 12 5 9 7 10 8 8 9 5 10 6 11 82 12 7 13
REMARK SMILES IDX 81 14 4 15 2 16 1 17 3 18 16 19 17 20 18 21 19 22 20 24
REMARK SMILES IDX 21 25 22 26 80 27 23 28 79 29 24 30 25 31 26 32 73 33 27 34
REMARK SMILES IDX 78 35 72 36 74 37 28 38 77 39 71 40 70 41 29 43 59 44 40 45
REMARK SMILES IDX 58 46 41 47 44 48 57 49 75 50 42 51 43 52 56 54 76 55 45 56
REMARK SMILES IDX 30 57 31 58 39 59 32 60 38 61 33 62 34 63 35 64 36 65 37 66
REMARK SMILES IDX 60 67 61 68 69 69 62 70 68 71 63 72 64 73 65 74 66 75 67 76
REMARK SMILES IDX 46 77 47 78 55 79 48 80 54 81 49 82 50 83 51 84 52 85 53 86
REMARK H PARENT 13 6 18 23 74 42 44 53
REMARK Flexibility Score: inf
ROOT
ATOM      1  C   UNL A   1      34.888  25.000  25.660  1.00  0.00     0.023 C 
ENDROOT
BRANCH   1   2
ATOM      2  C   UNL A   1      33.489  24.907  25.060  1.00  0.00     0.116 C 
BRANCH   2   3
ATOM      3  N   UNL A   1      32.464  24.822  26.083  1.00  0.00    -0.356 N 
ATOM      4  C   UNL A   1      31.395  23.981  26.177  1.00  0.00     0.227 C 
ATOM      5  O   UNL A   1      30.688  24.058  27.185  1.00  0.00    -0.274 OA
ATOM      6  H   UNL A   1      32.552  25.469  26.818  1.00  0.00     0.163 HD
BRANCH   4   7
ATOM      7  C   UNL A   1      31.052  22.991  25.060  1.00  0.00     0.105 C 
ATOM      8  C   UNL A   1      30.775  23.774  23.770  1.00  0.00     0.023 C 
BRANCH   7   9
ATOM      9  C   UNL A   1      32.022  21.817  24.963  1.00  0.00    -0.036 A 
ATOM     10  C   UNL A   1      33.808  19.629  24.710  1.00  0.00    -0.048 A 
ATOM     11  C   UNL A   1      33.649  20.288  25.932  1.00  0.00     0.004 A 
ATOM     12  C   UNL A   1      33.057  20.062  23.614  1.00  0.00     0.004 A 
ATOM     13  C   UNL A   1      32.787  21.382  26.053  1.00  0.00     0.005 A 
ATOM     14  C   UNL A   1      32.177  21.143  23.739  1.00  0.00     0.005 A 
BRANCH  10  15
ATOM     15  C   UNL A   1      34.772  18.473  24.578  1.00  0.00     0.038 C 
BRANCH  15  16
ATOM     16  C   UNL A   1      34.095  17.098  24.378  1.00  0.00    -0.013 C 
ATOM     17  C   UNL A   1      34.080  16.646  22.914  1.00  0.00     0.008 C 
ATOM     18  C   UNL A   1      34.821  16.043  25.218  1.00  0.00     0.008 C 
ENDBRANCH  15  16
ENDBRANCH  10  15
ENDBRANCH   7   9
ENDBRANCH   4   7
ENDBRANCH   2   3
ENDBRANCH   1   2
BRANCH   1  19
ATOM     19  C   UNL A   1      35.674  23.689  25.652  1.00  0.00     0.023 C 
BRANCH  19  20
ATOM     20  C   UNL A   1      37.020  23.746  24.939  1.00  0.00     0.116 C 
BRANCH  20  21
ATOM     21  N   UNL A   1      37.950  22.724  25.398  1.00  0.00    -0.352 N 
ATOM     22  C   UNL A   1      39.062  22.869  26.198  1.00  0.00     0.251 C 
ATOM     23  H   UNL A   1      37.759  21.808  25.096  1.00  0.00     0.163 HD
ATOM     24  O   UNL A   1      39.818  21.928  26.383  1.00  0.00    -0.269 OA
BRANCH  22  25
ATOM     25  C   UNL A   1      39.343  24.189  26.804  1.00  0.00     0.039 A 
ATOM     26  C   UNL A   1      38.912  24.442  28.107  1.00  0.00     0.014 A 
ATOM     27  C   UNL A   1      40.070  25.152  26.098  1.00  0.00     0.014 A 
ATOM     28  C   UNL A   1      39.273  25.638  28.733  1.00  0.00     0.010 A 
ATOM     29  C   UNL A   1      40.489  26.308  26.747  1.00  0.00     0.010 A 
ATOM     30  C   UNL A   1      40.098  26.563  28.070  1.00  0.00    -0.014 A 
BRANCH  30  31
ATOM     31  C   UNL A   1      40.566  27.804  28.739  1.00  0.00     0.031 A 
ATOM     32  C   UNL A   1      41.950  27.865  29.323  1.00  0.00     0.074 A 
ATOM     33  C   UNL A   1      39.722  28.845  28.887  1.00  0.00     0.049 A 
ATOM     34  N   UNL A   1      42.512  28.822  30.016  1.00  0.00    -0.248 NA
ATOM     35  C   UNL A   1      42.806  26.683  29.126  1.00  0.00     0.031 C 
ATOM     36  C   UNL A   1      38.343  28.898  28.396  1.00  0.00     0.029 A 
ATOM     37  N   UNL A   1      39.900  30.059  29.502  1.00  0.00    -0.354 N 
ATOM     38  C   UNL A   1      43.775  28.351  30.355  1.00  0.00     0.074 A 
ATOM     39  C   UNL A   1      43.878  27.005  29.834  1.00  0.00     0.031 C 
ATOM     40  C   UNL A   1      37.811  30.091  28.705  1.00  0.00     0.029 A 
ATOM     41  C   UNL A   1      38.793  30.872  29.451  1.00  0.00     0.049 A 
ATOM     42  H   UNL A   1      40.742  30.322  29.939  1.00  0.00     0.167 HD
ATOM     43  C   UNL A   1      44.767  28.987  31.022  1.00  0.00     0.031 A 
ATOM     44  C   UNL A   1      38.588  32.106  29.953  1.00  0.00     0.031 A 
ATOM     45  C   UNL A   1      44.667  30.329  31.528  1.00  0.00     0.049 A 
ATOM     46  C   UNL A   1      39.700  32.787  30.704  1.00  0.00     0.074 A 
ATOM     47  C   UNL A   1      45.635  31.081  32.171  1.00  0.00     0.029 A 
ATOM     48  N   UNL A   1      43.532  31.120  31.448  1.00  0.00    -0.354 N 
ATOM     49  N   UNL A   1      40.907  32.348  30.964  1.00  0.00    -0.248 NA
ATOM     50  C   UNL A   1      39.422  34.134  31.221  1.00  0.00     0.031 C 
ATOM     51  C   UNL A   1      45.069  32.312  32.520  1.00  0.00     0.029 A 
ATOM     52  C   UNL A   1      43.766  32.347  32.046  1.00  0.00     0.049 A 
ATOM     53  H   UNL A   1      42.684  30.851  31.027  1.00  0.00     0.167 HD
ATOM     54  C   UNL A   1      41.546  33.376  31.647  1.00  0.00     0.074 A 
ATOM     55  C   UNL A   1      40.592  34.463  31.754  1.00  0.00     0.031 C 
ATOM     56  C   UNL A   1      42.808  33.419  32.140  1.00  0.00     0.031 A 
BRANCH  43  57
ATOM     57  C   UNL A   1      46.046  28.224  31.247  1.00  0.00    -0.014 A 
ATOM     58  C   UNL A   1      47.163  28.418  30.413  1.00  0.00     0.010 A 
ATOM     59  C   UNL A   1      46.141  27.312  32.313  1.00  0.00     0.010 A 
ATOM     60  C   UNL A   1      48.330  27.674  30.606  1.00  0.00     0.020 A 
ATOM     61  C   UNL A   1      47.316  26.586  32.529  1.00  0.00     0.020 A 
ATOM     62  C   UNL A   1      48.396  26.757  31.659  1.00  0.00     0.054 A 
BRANCH  62  63
ATOM     63  S   UNL A   1      49.922  25.803  31.888  1.00  0.00     0.124 S 
ATOM     64  O   UNL A   1      49.963  25.007  30.663  1.00  0.00    -0.237 OA
ATOM     65  O   UNL A   1      50.939  26.845  31.994  1.00  0.00    -0.237 OA
ATOM     66  O   UNL A   1      49.677  25.047  33.114  1.00  0.00    -0.744 OA
ENDBRANCH  62  63
ENDBRANCH  43  57
BRANCH  44  67
ATOM     67  C   UNL A   1      37.282  32.788  29.741  1.00  0.00    -0.014 A 
ATOM     68  C   UNL A   1      37.015  33.443  28.526  1.00  0.00     0.010 A 
ATOM     69  C   UNL A   1      36.294  32.777  30.743  1.00  0.00     0.010 A 
ATOM     70  C   UNL A   1      35.791  34.087  28.321  1.00  0.00     0.020 A 
ATOM     71  C   UNL A   1      35.060  33.398  30.532  1.00  0.00     0.020 A 
ATOM     72  C   UNL A   1      34.820  34.059  29.327  1.00  0.00     0.054 A 
BRANCH  72  73
ATOM     73  S   UNL A   1      33.220  34.857  29.018  1.00  0.00     0.124 S 
ATOM     74  O   UNL A   1      32.594  34.801  30.335  1.00  0.00    -0.237 OA
ATOM     75  O   UNL A   1      33.613  36.187  28.559  1.00  0.00    -0.237 OA
ATOM     76  O   UNL A   1      32.609  34.010  27.996  1.00  0.00    -0.744 OA
ENDBRANCH  72  73
ENDBRANCH  44  67
BRANCH  56  77
ATOM     77  C   UNL A   1      43.252  34.695  32.803  1.00  0.00    -0.014 A 
ATOM     78  C   UNL A   1      43.882  35.716  32.072  1.00  0.00     0.010 A 
ATOM     79  C   UNL A   1      42.973  34.897  34.167  1.00  0.00     0.010 A 
ATOM     80  C   UNL A   1      44.248  36.910  32.700  1.00  0.00     0.020 A 
ATOM     81  C   UNL A   1      43.313  36.099  34.792  1.00  0.00     0.020 A 
ATOM     82  C   UNL A   1      43.959  37.095  34.056  1.00  0.00     0.054 A 
BRANCH  82  83
ATOM     83  S   UNL A   1      44.393  38.675  34.835  1.00  0.00     0.124 S 
ATOM     84  O   UNL A   1      44.211  38.375  36.252  1.00  0.00    -0.237 OA
ATOM     85  O   UNL A   1      45.775  38.875  34.407  1.00  0.00    -0.237 OA
ATOM     86  O   UNL A   1      43.430  39.616  34.268  1.00  0.00    -0.744 OA
ENDBRANCH  82  83
ENDBRANCH  56  77
ENDBRANCH  30  31
ENDBRANCH  22  25
ENDBRANCH  20  21
ENDBRANCH  19  20
ENDBRANCH   1  19
TORSDOF 17
ENDMDL
MODEL 3
REMARK VINA RESULT:      -9.8      4.535     10.321
REMARK SMILES CC(C)Cc1ccc([C@H](C)C(=O)NCCCCNC(=O)c2ccc(-c3c4nc(c(-c5ccc(S(=O)(=O)[O-])cc5)c5ccc([nH]5)c(-c5ccc(S(=O)(=O)[O-])cc5)c5nc(c(-c6ccc(S(=O)(=O)[O-])cc6)c6ccc3[nH]6)C=C5)C=C4)cc2)cc1
REMARK SMILES IDX 15 1 14 2 13 3 11 4 12 5 9 7 10 8 8 9 5 10 6 11 82 12 7 13
REMARK SMILES IDX 81 14 4 15 2 16 1 17 3 18 16 19 17 20 18 21 19 22 20 24
REMARK SMILES IDX 21 25 22 26 80 27 23 28 79 29 24 30 25 31 26 32 73 33 27 34
REMARK SMILES IDX 78 35 72 36 74 37 28 38 77 39 71 40 70 41 29 43 59 44 40 45
REMARK SMILES IDX 58 46 41 47 44 48 57 49 75 50 42 51 43 52 56 54 76 55 45 56
REMARK SMILES IDX 30 57 31 58 39 59 32 60 38 61 33 62 34 63 35 64 36 65 37 66
REMARK SMILES IDX 60 67 61 68 69 69 62 70 68 71 63 72 64 73 65 74 66 75 67 76
REMARK SMILES IDX 46 77 47 78 55 79 48 80 54 81 49 82 50 83 51 84 52 85 53 86
REMARK H PARENT 13 6 18 23 74 42 44 53
REMARK Flexibility Score: inf
ROOT
ATOM      1  C   UNL A   1      34.192  31.237  27.657  1.00  0.00     0.023 C 
ENDROOT
BRANCH   1   2
ATOM      2  C   UNL A   1      34.259  29.732  27.421  1.00  0.00     0.116 C 
BRANCH   2   3
ATOM      3  N   UNL A   1      33.081  29.051  27.925  1.00  0.00    -0.356 N 
ATOM      4  C   UNL A   1      32.308  28.095  27.334  1.00  0.00     0.227 C 
ATOM      5  O   UNL A   1      31.382  27.614  27.995  1.00  0.00    -0.274 OA
ATOM      6  H   UNL A   1      32.797  29.319  28.828  1.00  0.00     0.163 HD
BRANCH   4   7
ATOM      7  C   UNL A   1      32.548  27.648  25.890  1.00  0.00     0.105 C 
ATOM      8  C   UNL A   1      32.686  26.120  25.859  1.00  0.00     0.023 C 
BRANCH   7   9
ATOM      9  C   UNL A   1      31.584  28.276  24.887  1.00  0.00    -0.036 A 
ATOM     10  C   UNL A   1      29.785  29.378  22.991  1.00  0.00    -0.048 A 
ATOM     11  C   UNL A   1      30.370  30.179  23.976  1.00  0.00     0.004 A 
ATOM     12  C   UNL A   1      30.116  28.020  22.951  1.00  0.00     0.004 A 
ATOM     13  C   UNL A   1      31.238  29.633  24.925  1.00  0.00     0.005 A 
ATOM     14  C   UNL A   1      31.002  27.477  23.887  1.00  0.00     0.005 A 
BRANCH  10  15
ATOM     15  C   UNL A   1      28.816  29.967  21.993  1.00  0.00     0.038 C 
BRANCH  15  16
ATOM     16  C   UNL A   1      28.512  31.466  22.209  1.00  0.00    -0.013 C 
ATOM     17  C   UNL A   1      27.919  32.142  20.968  1.00  0.00     0.008 C 
ATOM     18  C   UNL A   1      27.536  31.628  23.378  1.00  0.00     0.008 C 
ENDBRANCH  15  16
ENDBRANCH  10  15
ENDBRANCH   7   9
ENDBRANCH   4   7
ENDBRANCH   2   3
ENDBRANCH   1   2
BRANCH   1  19
ATOM     19  C   UNL A   1      35.546  31.946  27.647  1.00  0.00     0.023 C 
BRANCH  19  20
ATOM     20  C   UNL A   1      36.063  32.373  29.016  1.00  0.00     0.116 C 
BRANCH  20  21
ATOM     21  N   UNL A   1      35.692  31.449  30.078  1.00  0.00    -0.352 N 
ATOM     22  C   UNL A   1      36.410  30.391  30.590  1.00  0.00     0.251 C 
ATOM     23  H   UNL A   1      34.809  31.600  30.485  1.00  0.00     0.163 HD
ATOM     24  O   UNL A   1      35.899  29.627  31.394  1.00  0.00    -0.269 OA
BRANCH  22  25
ATOM     25  C   UNL A   1      37.799  30.177  30.128  1.00  0.00     0.039 A 
ATOM     26  C   UNL A   1      38.835  30.198  31.064  1.00  0.00     0.014 A 
ATOM     27  C   UNL A   1      38.066  29.912  28.782  1.00  0.00     0.014 A 
ATOM     28  C   UNL A   1      40.135  29.880  30.661  1.00  0.00     0.010 A 
ATOM     29  C   UNL A   1      39.345  29.525  28.398  1.00  0.00     0.010 A 
ATOM     30  C   UNL A   1      40.392  29.503  29.332  1.00  0.00    -0.014 A 
BRANCH  30  31
ATOM     31  C   UNL A   1      41.746  29.081  28.894  1.00  0.00     0.031 A 
ATOM     32  C   UNL A   1      42.862  30.087  28.828  1.00  0.00     0.074 A 
ATOM     33  C   UNL A   1      41.953  27.813  28.483  1.00  0.00     0.049 A 
ATOM     34  N   UNL A   1      44.087  29.935  28.394  1.00  0.00    -0.248 NA
ATOM     35  C   UNL A   1      42.552  31.451  29.287  1.00  0.00     0.031 C 
ATOM     36  C   UNL A   1      40.945  26.750  28.465  1.00  0.00     0.029 A 
ATOM     37  N   UNL A   1      43.082  27.205  27.993  1.00  0.00    -0.354 N 
ATOM     38  C   UNL A   1      44.686  31.184  28.506  1.00  0.00     0.074 A 
ATOM     39  C   UNL A   1      43.676  32.093  29.002  1.00  0.00     0.031 C 
ATOM     40  C   UNL A   1      41.508  25.617  28.015  1.00  0.00     0.029 A 
ATOM     41  C   UNL A   1      42.902  25.881  27.673  1.00  0.00     0.049 A 
ATOM     42  H   UNL A   1      43.941  27.675  27.881  1.00  0.00     0.167 HD
ATOM     43  C   UNL A   1      45.964  31.540  28.238  1.00  0.00     0.031 A 
ATOM     44  C   UNL A   1      43.761  24.980  27.156  1.00  0.00     0.031 A 
ATOM     45  C   UNL A   1      46.970  30.631  27.757  1.00  0.00     0.049 A 
ATOM     46  C   UNL A   1      45.173  25.401  26.853  1.00  0.00     0.074 A 
ATOM     47  C   UNL A   1      48.307  30.882  27.506  1.00  0.00     0.029 A 
ATOM     48  N   UNL A   1      46.748  29.296  27.454  1.00  0.00    -0.354 N 
ATOM     49  N   UNL A   1      45.736  26.573  27.020  1.00  0.00    -0.248 NA
ATOM     50  C   UNL A   1      46.067  24.375  26.300  1.00  0.00     0.031 C 
ATOM     51  C   UNL A   1      48.884  29.708  27.008  1.00  0.00     0.029 A 
ATOM     52  C   UNL A   1      47.919  28.714  27.000  1.00  0.00     0.049 A 
ATOM     53  H   UNL A   1      45.886  28.831  27.548  1.00  0.00     0.167 HD
ATOM     54  C   UNL A   1      47.059  26.418  26.623  1.00  0.00     0.074 A 
ATOM     55  C   UNL A   1      47.214  25.036  26.214  1.00  0.00     0.031 C 
ATOM     56  C   UNL A   1      48.057  27.335  26.601  1.00  0.00     0.031 A 
BRANCH  43  57
ATOM     57  C   UNL A   1      46.339  32.982  28.457  1.00  0.00    -0.014 A 
ATOM     58  C   UNL A   1      46.826  33.425  29.701  1.00  0.00     0.010 A 
ATOM     59  C   UNL A   1      46.219  33.905  27.403  1.00  0.00     0.010 A 
ATOM     60  C   UNL A   1      47.131  34.773  29.903  1.00  0.00     0.020 A 
ATOM     61  C   UNL A   1      46.550  35.249  27.591  1.00  0.00     0.020 A 
ATOM     62  C   UNL A   1      46.984  35.679  28.848  1.00  0.00     0.054 A 
BRANCH  62  63
ATOM     63  S   UNL A   1      47.386  37.424  29.137  1.00  0.00     0.124 S 
ATOM     64  O   UNL A   1      47.404  37.489  30.597  1.00  0.00    -0.237 OA
ATOM     65  O   UNL A   1      48.686  37.566  28.487  1.00  0.00    -0.237 OA
ATOM     66  O   UNL A   1      46.289  38.143  28.495  1.00  0.00    -0.744 OA
ENDBRANCH  62  63
ENDBRANCH  43  57
BRANCH  44  67
ATOM     67  C   UNL A   1      43.315  23.580  26.915  1.00  0.00    -0.014 A 
ATOM     68  C   UNL A   1      43.049  23.138  25.608  1.00  0.00     0.010 A 
ATOM     69  C   UNL A   1      43.169  22.678  27.985  1.00  0.00     0.010 A 
ATOM     70  C   UNL A   1      42.628  21.825  25.375  1.00  0.00     0.020 A 
ATOM     71  C   UNL A   1      42.773  21.358  27.754  1.00  0.00     0.020 A 
ATOM     72  C   UNL A   1      42.494  20.942  26.450  1.00  0.00     0.054 A 
BRANCH  72  73
ATOM     73  S   UNL A   1      41.998  19.229  26.118  1.00  0.00     0.124 S 
ATOM     74  O   UNL A   1      40.568  19.370  25.867  1.00  0.00    -0.237 OA
ATOM     75  O   UNL A   1      42.814  18.883  24.957  1.00  0.00    -0.237 OA
ATOM     76  O   UNL A   1      42.353  18.527  27.349  1.00  0.00    -0.744 OA
ENDBRANCH  72  73
ENDBRANCH  44  67
BRANCH  56  77
ATOM     77  C   UNL A   1      49.419  26.870  26.160  1.00  0.00    -0.014 A 
ATOM     78  C   UNL A   1      49.895  27.132  24.864  1.00  0.00     0.010 A 
ATOM     79  C   UNL A   1      50.257  26.217  27.082  1.00  0.00     0.010 A 
ATOM     80  C   UNL A   1      51.179  26.727  24.490  1.00  0.00     0.020 A 
ATOM     81  C   UNL A   1      51.550  25.834  26.719  1.00  0.00     0.020 A 
ATOM     82  C   UNL A   1      52.000  26.082  25.421  1.00  0.00     0.054 A 
BRANCH  82  83
ATOM     83  S   UNL A   1      53.682  25.616  24.929  1.00  0.00     0.124 S 
ATOM     84  O   UNL A   1      53.747  24.221  25.349  1.00  0.00    -0.237 OA
ATOM     85  O   UNL A   1      53.668  25.838  23.485  1.00  0.00    -0.237 OA
ATOM     86  O   UNL A   1      54.531  26.535  25.684  1.00  0.00    -0.744 OA
ENDBRANCH  82  83
ENDBRANCH  56  77
ENDBRANCH  30  31
ENDBRANCH  22  25
ENDBRANCH  20  21
ENDBRANCH  19  20
ENDBRANCH   1  19
TORSDOF 17
ENDMDL
