MODEL 1
REMARK VINA RESULT:     -10.0      0.000      0.000
REMARK SMILES CN(C)c1ccc(C(=O)NCCCC(=O)NCCCCNC(=O)c2ccc(-c3c4nc(c(-c5ccc(S(=O)(=O)[O-])cc5)c5ccc([nH]5)c(-c5ccc(S(=O)(=O)[O-])cc5)c5nc(c(-c6ccc(S(=O)(=O)[O-])cc6)c6ccc3[nH]6)C=C5)C=C4)cc2)cn1
REMARK SMILES IDX 17 1 16 2 14 3 15 4 13 6 12 7 11 8 10 9 8 10 9 11 7 13 4 14
REMARK SMILES IDX 5 15 85 16 6 17 84 18 2 19 1 20 3 21 18 22 19 23 20 24 21 25
REMARK SMILES IDX 22 26 23 28 24 29 25 30 83 31 26 32 82 33 27 34 28 35 29 36
REMARK SMILES IDX 76 37 30 38 81 39 75 40 77 41 31 42 80 43 74 44 73 45 32 47
REMARK SMILES IDX 62 48 43 49 61 50 44 51 47 52 60 53 78 54 45 55 46 56 59 58
REMARK SMILES IDX 79 59 48 60 33 61 34 62 42 63 35 64 41 65 36 66 37 67 38 68
REMARK SMILES IDX 39 69 40 70 63 71 64 72 72 73 65 74 71 75 66 76 67 77 68 78
REMARK SMILES IDX 69 79 70 80 49 81 50 82 58 83 51 84 57 85 52 86 53 87 54 88
REMARK SMILES IDX 55 89 56 90
REMARK H PARENT 16 5 10 12 21 27 77 46 47 57
REMARK Flexibility Score: inf
ROOT
ATOM      1  C   UNL A   1      34.269  21.471  27.170  1.00  0.00     0.116 C 
ENDROOT
BRANCH   1   2
ATOM      2  N   UNL A   1      33.522  20.601  26.280  1.00  0.00    -0.356 N 
ATOM      3  C   UNL A   1      32.418  20.859  25.530  1.00  0.00     0.220 C 
ATOM      4  O   UNL A   1      31.858  19.922  24.960  1.00  0.00    -0.275 OA
ATOM      5  H   UNL A   1      33.868  19.682  26.209  1.00  0.00     0.163 HD
BRANCH   3   6
ATOM      6  C   UNL A   1      31.895  22.274  25.385  1.00  0.00     0.102 C 
BRANCH   6   7
ATOM      7  C   UNL A   1      32.527  23.052  24.228  1.00  0.00     0.031 C 
BRANCH   7   8
ATOM      8  C   UNL A   1      31.609  23.347  23.042  1.00  0.00     0.116 C 
BRANCH   8   9
ATOM      9  N   UNL A   1      32.277  24.053  21.963  1.00  0.00    -0.352 N 
ATOM     10  C   UNL A   1      32.700  25.354  21.866  1.00  0.00     0.252 C 
ATOM     11  O   UNL A   1      33.225  25.720  20.818  1.00  0.00    -0.269 OA
ATOM     12  H   UNL A   1      32.457  23.505  21.165  1.00  0.00     0.163 HD
BRANCH  10  13
ATOM     13  C   UNL A   1      32.483  26.334  22.945  1.00  0.00     0.058 A 
ATOM     14  C   UNL A   1      32.364  28.180  25.032  1.00  0.00     0.127 A 
ATOM     15  C   UNL A   1      31.269  27.998  24.186  1.00  0.00     0.048 A 
ATOM     16  N   UNL A   1      33.474  27.426  24.866  1.00  0.00    -0.239 NA
ATOM     17  C   UNL A   1      31.326  27.074  23.136  1.00  0.00     0.019 A 
ATOM     18  C   UNL A   1      33.503  26.512  23.863  1.00  0.00     0.127 A 
BRANCH  14  19
ATOM     19  N   UNL A   1      32.366  29.139  26.029  1.00  0.00    -0.363 N 
ATOM     20  C   UNL A   1      31.751  30.437  25.837  1.00  0.00     0.144 C 
ATOM     21  C   UNL A   1      32.697  28.698  27.372  1.00  0.00     0.144 C 
ENDBRANCH  14  19
ENDBRANCH  10  13
ENDBRANCH   8   9
ENDBRANCH   7   8
ENDBRANCH   6   7
ENDBRANCH   3   6
ENDBRANCH   1   2
BRANCH   1  22
ATOM     22  C   UNL A   1      35.580  21.907  26.516  1.00  0.00     0.023 C 
BRANCH  22  23
ATOM     23  C   UNL A   1      35.645  23.384  26.143  1.00  0.00     0.023 C 
BRANCH  23  24
ATOM     24  C   UNL A   1      36.904  23.787  25.391  1.00  0.00     0.116 C 
BRANCH  24  25
ATOM     25  N   UNL A   1      38.005  22.851  25.557  1.00  0.00    -0.352 N 
ATOM     26  C   UNL A   1      39.215  23.065  26.178  1.00  0.00     0.251 C 
ATOM     27  H   UNL A   1      37.868  21.953  25.179  1.00  0.00     0.163 HD
ATOM     28  O   UNL A   1      40.089  22.210  26.147  1.00  0.00    -0.269 OA
BRANCH  26  29
ATOM     29  C   UNL A   1      39.456  24.364  26.842  1.00  0.00     0.039 A 
ATOM     30  C   UNL A   1      39.017  24.543  28.155  1.00  0.00     0.014 A 
ATOM     31  C   UNL A   1      40.164  25.376  26.188  1.00  0.00     0.014 A 
ATOM     32  C   UNL A   1      39.348  25.716  28.835  1.00  0.00     0.010 A 
ATOM     33  C   UNL A   1      40.572  26.500  26.896  1.00  0.00     0.010 A 
ATOM     34  C   UNL A   1      40.159  26.687  28.224  1.00  0.00    -0.014 A 
BRANCH  34  35
ATOM     35  C   UNL A   1      40.565  27.917  28.948  1.00  0.00     0.031 A 
ATOM     36  C   UNL A   1      41.928  27.998  29.582  1.00  0.00     0.074 A 
ATOM     37  C   UNL A   1      39.690  28.933  29.085  1.00  0.00     0.049 A 
ATOM     38  N   UNL A   1      42.453  28.967  30.286  1.00  0.00    -0.248 NA
ATOM     39  C   UNL A   1      42.803  26.823  29.433  1.00  0.00     0.031 C 
ATOM     40  C   UNL A   1      38.319  28.950  28.567  1.00  0.00     0.029 A 
ATOM     41  N   UNL A   1      39.825  30.151  29.701  1.00  0.00    -0.354 N 
ATOM     42  C   UNL A   1      43.705  28.511  30.679  1.00  0.00     0.074 A 
ATOM     43  C   UNL A   1      43.838  27.158  30.187  1.00  0.00     0.031 C 
ATOM     44  C   UNL A   1      37.754  30.135  28.855  1.00  0.00     0.029 A 
ATOM     45  C   UNL A   1      38.708  30.947  29.603  1.00  0.00     0.049 A 
ATOM     46  H   UNL A   1      40.646  30.429  30.170  1.00  0.00     0.167 HD
ATOM     47  C   UNL A   1      44.673  29.167  31.363  1.00  0.00     0.031 A 
ATOM     48  C   UNL A   1      38.482  32.194  30.059  1.00  0.00     0.031 A 
ATOM     49  C   UNL A   1      44.548  30.522  31.827  1.00  0.00     0.049 A 
ATOM     50  C   UNL A   1      39.582  32.916  30.788  1.00  0.00     0.074 A 
ATOM     51  C   UNL A   1      45.488  31.300  32.479  1.00  0.00     0.029 A 
ATOM     52  N   UNL A   1      43.413  31.305  31.680  1.00  0.00    -0.354 N 
ATOM     53  N   UNL A   1      40.784  32.490  31.095  1.00  0.00    -0.248 NA
ATOM     54  C   UNL A   1      39.300  34.293  31.213  1.00  0.00     0.031 C 
ATOM     55  C   UNL A   1      44.908  32.542  32.759  1.00  0.00     0.029 A 
ATOM     56  C   UNL A   1      43.624  32.554  32.236  1.00  0.00     0.049 A 
ATOM     57  H   UNL A   1      42.579  31.015  31.243  1.00  0.00     0.167 HD
ATOM     58  C   UNL A   1      41.413  33.559  31.724  1.00  0.00     0.074 A 
ATOM     59  C   UNL A   1      40.463  34.653  31.741  1.00  0.00     0.031 C 
ATOM     60  C   UNL A   1      42.666  33.629  32.241  1.00  0.00     0.031 A 
BRANCH  47  61
ATOM     61  C   UNL A   1      45.951  28.421  31.639  1.00  0.00    -0.014 A 
ATOM     62  C   UNL A   1      47.022  28.456  30.726  1.00  0.00     0.010 A 
ATOM     63  C   UNL A   1      46.092  27.691  32.832  1.00  0.00     0.010 A 
ATOM     64  C   UNL A   1      48.190  27.733  30.978  1.00  0.00     0.020 A 
ATOM     65  C   UNL A   1      47.273  26.990  33.101  1.00  0.00     0.020 A 
ATOM     66  C   UNL A   1      48.306  27.000  32.162  1.00  0.00     0.054 A 
BRANCH  66  67
ATOM     67  S   UNL A   1      49.839  26.080  32.469  1.00  0.00     0.124 S 
ATOM     68  O   UNL A   1      49.337  24.732  32.715  1.00  0.00    -0.237 OA
ATOM     69  O   UNL A   1      50.577  26.258  31.221  1.00  0.00    -0.237 OA
ATOM     70  O   UNL A   1      50.418  26.752  33.631  1.00  0.00    -0.744 OA
ENDBRANCH  66  67
ENDBRANCH  47  61
BRANCH  48  71
ATOM     71  C   UNL A   1      37.174  32.856  29.801  1.00  0.00    -0.014 A 
ATOM     72  C   UNL A   1      36.235  33.008  30.837  1.00  0.00     0.010 A 
ATOM     73  C   UNL A   1      36.863  33.347  28.520  1.00  0.00     0.010 A 
ATOM     74  C   UNL A   1      35.002  33.618  30.594  1.00  0.00     0.020 A 
ATOM     75  C   UNL A   1      35.640  33.982  28.278  1.00  0.00     0.020 A 
ATOM     76  C   UNL A   1      34.712  34.102  29.316  1.00  0.00     0.054 A 
BRANCH  76  77
ATOM     77  S   UNL A   1      33.125  34.936  29.033  1.00  0.00     0.124 S 
ATOM     78  O   UNL A   1      32.509  34.080  28.024  1.00  0.00    -0.237 OA
ATOM     79  O   UNL A   1      32.509  34.902  30.356  1.00  0.00    -0.237 OA
ATOM     80  O   UNL A   1      33.517  36.266  28.572  1.00  0.00    -0.744 OA
ENDBRANCH  76  77
ENDBRANCH  48  71
BRANCH  60  81
ATOM     81  C   UNL A   1      43.092  34.947  32.830  1.00  0.00    -0.014 A 
ATOM     82  C   UNL A   1      42.968  35.205  34.207  1.00  0.00     0.010 A 
ATOM     83  C   UNL A   1      43.660  35.926  31.995  1.00  0.00     0.010 A 
ATOM     84  C   UNL A   1      43.365  36.438  34.731  1.00  0.00     0.020 A 
ATOM     85  C   UNL A   1      44.082  37.149  32.519  1.00  0.00     0.020 A 
ATOM     86  C   UNL A   1      43.915  37.405  33.881  1.00  0.00     0.054 A 
BRANCH  86  87
ATOM     87  S   UNL A   1      44.445  38.988  34.587  1.00  0.00     0.124 S 
ATOM     88  O   UNL A   1      43.586  39.936  33.884  1.00  0.00    -0.237 OA
ATOM     89  O   UNL A   1      44.162  38.819  36.011  1.00  0.00    -0.237 OA
ATOM     90  O   UNL A   1      45.864  39.060  34.246  1.00  0.00    -0.744 OA
ENDBRANCH  86  87
ENDBRANCH  60  81
ENDBRANCH  34  35
ENDBRANCH  26  29
ENDBRANCH  24  25
ENDBRANCH  23  24
ENDBRANCH  22  23
ENDBRANCH   1  22
TORSDOF 19
ENDMDL
MODEL 2
REMARK VINA RESULT:      -9.6      2.392      4.267
REMARK SMILES CN(C)c1ccc(C(=O)NCCCC(=O)NCCCCNC(=O)c2ccc(-c3c4nc(c(-c5ccc(S(=O)(=O)[O-])cc5)c5ccc([nH]5)c(-c5ccc(S(=O)(=O)[O-])cc5)c5nc(c(-c6ccc(S(=O)(=O)[O-])cc6)c6ccc3[nH]6)C=C5)C=C4)cc2)cn1
REMARK SMILES IDX 17 1 16 2 14 3 15 4 13 6 12 7 11 8 10 9 8 10 9 11 7 13 4 14
REMARK SMILES IDX 5 15 85 16 6 17 84 18 2 19 1 20 3 21 18 22 19 23 20 24 21 25
REMARK SMILES IDX 22 26 23 28 24 29 25 30 83 31 26 32 82 33 27 34 28 35 29 36
REMARK SMILES IDX 76 37 30 38 81 39 75 40 77 41 31 42 80 43 74 44 73 45 32 47
REMARK SMILES IDX 62 48 43 49 61 50 44 51 47 52 60 53 78 54 45 55 46 56 59 58
REMARK SMILES IDX 79 59 48 60 33 61 34 62 42 63 35 64 41 65 36 66 37 67 38 68
REMARK SMILES IDX 39 69 40 70 63 71 64 72 72 73 65 74 71 75 66 76 67 77 68 78
REMARK SMILES IDX 69 79 70 80 49 81 50 82 58 83 51 84 57 85 52 86 53 87 54 88
REMARK SMILES IDX 55 89 56 90
REMARK H PARENT 16 5 10 12 21 27 77 46 47 57
REMARK Flexibility Score: inf
ROOT
ATOM      1  C   UNL A   1      33.640  23.917  23.067  1.00  0.00     0.116 C 
ENDROOT
BRANCH   1   2
ATOM      2  N   UNL A   1      33.891  25.252  22.557  1.00  0.00    -0.356 N 
ATOM      3  C   UNL A   1      33.172  26.396  22.712  1.00  0.00     0.220 C 
ATOM      4  O   UNL A   1      33.495  27.389  22.059  1.00  0.00    -0.275 OA
ATOM      5  H   UNL A   1      34.709  25.344  22.016  1.00  0.00     0.163 HD
BRANCH   3   6
ATOM      6  C   UNL A   1      32.006  26.452  23.678  1.00  0.00     0.102 C 
BRANCH   6   7
ATOM      7  C   UNL A   1      32.399  26.862  25.099  1.00  0.00     0.031 C 
BRANCH   7   8
ATOM      8  C   UNL A   1      32.642  25.716  26.081  1.00  0.00     0.116 C 
BRANCH   8   9
ATOM      9  N   UNL A   1      31.417  25.173  26.641  1.00  0.00    -0.352 N 
ATOM     10  C   UNL A   1      31.026  23.877  26.864  1.00  0.00     0.252 C 
ATOM     11  O   UNL A   1      29.909  23.678  27.335  1.00  0.00    -0.269 OA
ATOM     12  H   UNL A   1      30.754  25.851  26.907  1.00  0.00     0.163 HD
BRANCH  10  13
ATOM     13  C   UNL A   1      31.870  22.727  26.496  1.00  0.00     0.058 A 
ATOM     14  C   UNL A   1      33.342  20.563  25.533  1.00  0.00     0.127 A 
ATOM     15  C   UNL A   1      33.701  21.185  26.730  1.00  0.00     0.048 A 
ATOM     16  N   UNL A   1      32.250  20.984  24.858  1.00  0.00    -0.239 NA
ATOM     17  C   UNL A   1      32.965  22.273  27.215  1.00  0.00     0.019 A 
ATOM     18  C   UNL A   1      31.528  22.020  25.356  1.00  0.00     0.127 A 
BRANCH  14  19
ATOM     19  N   UNL A   1      34.094  19.537  24.989  1.00  0.00    -0.363 N 
ATOM     20  C   UNL A   1      33.481  18.463  24.235  1.00  0.00     0.144 C 
ATOM     21  C   UNL A   1      35.530  19.739  24.905  1.00  0.00     0.144 C 
ENDBRANCH  14  19
ENDBRANCH  10  13
ENDBRANCH   8   9
ENDBRANCH   7   8
ENDBRANCH   6   7
ENDBRANCH   3   6
ENDBRANCH   1   2
BRANCH   1  22
ATOM     22  C   UNL A   1      34.956  23.217  23.408  1.00  0.00     0.023 C 
BRANCH  22  23
ATOM     23  C   UNL A   1      35.485  23.501  24.809  1.00  0.00     0.023 C 
BRANCH  23  24
ATOM     24  C   UNL A   1      36.980  23.769  24.874  1.00  0.00     0.116 C 
BRANCH  24  25
ATOM     25  N   UNL A   1      37.745  22.663  25.429  1.00  0.00    -0.352 N 
ATOM     26  C   UNL A   1      38.857  22.721  26.238  1.00  0.00     0.251 C 
ATOM     27  H   UNL A   1      37.428  21.760  25.197  1.00  0.00     0.163 HD
ATOM     28  O   UNL A   1      39.459  21.701  26.543  1.00  0.00    -0.269 OA
BRANCH  26  29
ATOM     29  C   UNL A   1      39.339  24.043  26.695  1.00  0.00     0.039 A 
ATOM     30  C   UNL A   1      39.160  24.401  28.032  1.00  0.00     0.014 A 
ATOM     31  C   UNL A   1      40.014  24.895  25.817  1.00  0.00     0.014 A 
ATOM     32  C   UNL A   1      39.720  25.590  28.505  1.00  0.00     0.010 A 
ATOM     33  C   UNL A   1      40.649  26.029  26.310  1.00  0.00     0.010 A 
ATOM     34  C   UNL A   1      40.500  26.394  27.657  1.00  0.00    -0.014 A 
BRANCH  34  35
ATOM     35  C   UNL A   1      41.147  27.634  28.152  1.00  0.00     0.031 A 
ATOM     36  C   UNL A   1      42.645  27.769  28.104  1.00  0.00     0.074 A 
ATOM     37  C   UNL A   1      40.393  28.610  28.697  1.00  0.00     0.049 A 
ATOM     38  N   UNL A   1      43.398  28.753  28.521  1.00  0.00    -0.248 NA
ATOM     39  C   UNL A   1      43.398  26.634  27.543  1.00  0.00     0.031 C 
ATOM     40  C   UNL A   1      38.937  28.573  28.855  1.00  0.00     0.029 A 
ATOM     41  N   UNL A   1      40.751  29.828  29.219  1.00  0.00    -0.354 N 
ATOM     42  C   UNL A   1      44.708  28.349  28.293  1.00  0.00     0.074 A 
ATOM     43  C   UNL A   1      44.651  27.007  27.758  1.00  0.00     0.031 C 
ATOM     44  C   UNL A   1      38.523  29.729  29.400  1.00  0.00     0.029 A 
ATOM     45  C   UNL A   1      39.684  30.576  29.658  1.00  0.00     0.049 A 
ATOM     46  H   UNL A   1      41.684  30.137  29.274  1.00  0.00     0.167 HD
ATOM     47  C   UNL A   1      45.857  29.040  28.484  1.00  0.00     0.031 A 
ATOM     48  C   UNL A   1      39.645  31.807  30.201  1.00  0.00     0.031 A 
ATOM     49  C   UNL A   1      45.909  30.384  28.990  1.00  0.00     0.049 A 
ATOM     50  C   UNL A   1      40.931  32.570  30.373  1.00  0.00     0.074 A 
ATOM     51  C   UNL A   1      47.015  31.196  29.169  1.00  0.00     0.029 A 
ATOM     52  N   UNL A   1      44.803  31.119  29.394  1.00  0.00    -0.354 N 
ATOM     53  N   UNL A   1      42.156  32.194  30.093  1.00  0.00    -0.248 NA
ATOM     54  C   UNL A   1      40.824  33.930  30.918  1.00  0.00     0.031 C 
ATOM     55  C   UNL A   1      46.581  32.410  29.714  1.00  0.00     0.029 A 
ATOM     56  C   UNL A   1      45.200  32.371  29.828  1.00  0.00     0.049 A 
ATOM     57  H   UNL A   1      43.873  30.797  29.373  1.00  0.00     0.167 HD
ATOM     58  C   UNL A   1      42.963  33.283  30.398  1.00  0.00     0.074 A 
ATOM     59  C   UNL A   1      42.087  34.335  30.872  1.00  0.00     0.031 C 
ATOM     60  C   UNL A   1      44.311  33.404  30.295  1.00  0.00     0.031 A 
BRANCH  47  61
ATOM     61  C   UNL A   1      47.147  28.348  28.132  1.00  0.00    -0.014 A 
ATOM     62  C   UNL A   1      47.814  27.540  29.072  1.00  0.00     0.010 A 
ATOM     63  C   UNL A   1      47.691  28.492  26.844  1.00  0.00     0.010 A 
ATOM     64  C   UNL A   1      49.028  26.930  28.745  1.00  0.00     0.020 A 
ATOM     65  C   UNL A   1      48.890  27.858  26.504  1.00  0.00     0.020 A 
ATOM     66  C   UNL A   1      49.561  27.098  27.464  1.00  0.00     0.054 A 
BRANCH  66  67
ATOM     67  S   UNL A   1      51.131  26.283  27.062  1.00  0.00     0.124 S 
ATOM     68  O   UNL A   1      50.815  24.880  27.312  1.00  0.00    -0.237 OA
ATOM     69  O   UNL A   1      51.329  26.642  25.660  1.00  0.00    -0.237 OA
ATOM     70  O   UNL A   1      52.082  26.884  27.994  1.00  0.00    -0.744 OA
ENDBRANCH  66  67
ENDBRANCH  47  61
BRANCH  48  71
ATOM     71  C   UNL A   1      38.340  32.414  30.580  1.00  0.00    -0.014 A 
ATOM     72  C   UNL A   1      37.658  33.255  29.682  1.00  0.00     0.010 A 
ATOM     73  C   UNL A   1      37.766  32.148  31.836  1.00  0.00     0.010 A 
ATOM     74  C   UNL A   1      36.438  33.836  30.041  1.00  0.00     0.020 A 
ATOM     75  C   UNL A   1      36.533  32.706  32.189  1.00  0.00     0.020 A 
ATOM     76  C   UNL A   1      35.883  33.557  31.292  1.00  0.00     0.054 A 
BRANCH  76  77
ATOM     77  S   UNL A   1      34.274  34.281  31.719  1.00  0.00     0.124 S 
ATOM     78  O   UNL A   1      33.728  33.286  32.637  1.00  0.00    -0.237 OA
ATOM     79  O   UNL A   1      34.651  35.558  32.319  1.00  0.00    -0.237 OA
ATOM     80  O   UNL A   1      33.595  34.383  30.430  1.00  0.00    -0.744 OA
ENDBRANCH  76  77
ENDBRANCH  48  71
BRANCH  60  81
ATOM     81  C   UNL A   1      44.912  34.733  30.664  1.00  0.00    -0.014 A 
ATOM     82  C   UNL A   1      45.326  35.007  31.979  1.00  0.00     0.010 A 
ATOM     83  C   UNL A   1      45.098  35.708  29.667  1.00  0.00     0.010 A 
ATOM     84  C   UNL A   1      45.875  36.251  32.301  1.00  0.00     0.020 A 
ATOM     85  C   UNL A   1      45.672  36.941  29.978  1.00  0.00     0.020 A 
ATOM     86  C   UNL A   1      46.040  37.213  31.297  1.00  0.00     0.054 A 
BRANCH  86  87
ATOM     87  S   UNL A   1      46.778  38.811  31.732  1.00  0.00     0.124 S 
ATOM     88  O   UNL A   1      47.903  38.408  32.569  1.00  0.00    -0.237 OA
ATOM     89  O   UNL A   1      47.131  39.369  30.429  1.00  0.00    -0.237 OA
ATOM     90  O   UNL A   1      45.700  39.510  32.429  1.00  0.00    -0.744 OA
ENDBRANCH  86  87
ENDBRANCH  60  81
ENDBRANCH  34  35
ENDBRANCH  26  29
ENDBRANCH  24  25
ENDBRANCH  23  24
ENDBRANCH  22  23
ENDBRANCH   1  22
TORSDOF 19
ENDMDL
MODEL 3
REMARK VINA RESULT:      -9.6      3.598      9.219
REMARK SMILES CN(C)c1ccc(C(=O)NCCCC(=O)NCCCCNC(=O)c2ccc(-c3c4nc(c(-c5ccc(S(=O)(=O)[O-])cc5)c5ccc([nH]5)c(-c5ccc(S(=O)(=O)[O-])cc5)c5nc(c(-c6ccc(S(=O)(=O)[O-])cc6)c6ccc3[nH]6)C=C5)C=C4)cc2)cn1
REMARK SMILES IDX 17 1 16 2 14 3 15 4 13 6 12 7 11 8 10 9 8 10 9 11 7 13 4 14
REMARK SMILES IDX 5 15 85 16 6 17 84 18 2 19 1 20 3 21 18 22 19 23 20 24 21 25
REMARK SMILES IDX 22 26 23 28 24 29 25 30 83 31 26 32 82 33 27 34 28 35 29 36
REMARK SMILES IDX 76 37 30 38 81 39 75 40 77 41 31 42 80 43 74 44 73 45 32 47
REMARK SMILES IDX 62 48 43 49 61 50 44 51 47 52 60 53 78 54 45 55 46 56 59 58
REMARK SMILES IDX 79 59 48 60 33 61 34 62 42 63 35 64 41 65 36 66 37 67 38 68
REMARK SMILES IDX 39 69 40 70 63 71 64 72 72 73 65 74 71 75 66 76 67 77 68 78
REMARK SMILES IDX 69 79 70 80 49 81 50 82 58 83 51 84 57 85 52 86 53 87 54 88
REMARK SMILES IDX 55 89 56 90
REMARK H PARENT 16 5 10 12 21 27 77 46 47 57
REMARK Flexibility Score: inf
ROOT
ATOM      1  C   UNL A   1      35.996  23.266  24.410  1.00  0.00     0.116 C 
ENDROOT
BRANCH   1   2
ATOM      2  N   UNL A   1      36.265  21.839  24.421  1.00  0.00    -0.356 N 
ATOM      3  C   UNL A   1      35.466  20.802  24.787  1.00  0.00     0.220 C 
ATOM      4  O   UNL A   1      35.957  19.675  24.860  1.00  0.00    -0.275 OA
ATOM      5  H   UNL A   1      37.166  21.584  24.116  1.00  0.00     0.163 HD
BRANCH   3   6
ATOM      6  C   UNL A   1      33.997  21.025  25.086  1.00  0.00     0.102 C 
BRANCH   6   7
ATOM      7  C   UNL A   1      33.663  21.031  26.579  1.00  0.00     0.031 C 
BRANCH   7   8
ATOM      8  C   UNL A   1      33.335  22.395  27.185  1.00  0.00     0.116 C 
BRANCH   8   9
ATOM      9  N   UNL A   1      31.946  22.524  27.587  1.00  0.00    -0.352 N 
ATOM     10  C   UNL A   1      30.894  23.174  26.994  1.00  0.00     0.252 C 
ATOM     11  O   UNL A   1      29.803  23.153  27.558  1.00  0.00    -0.269 OA
ATOM     12  H   UNL A   1      31.721  22.066  28.430  1.00  0.00     0.163 HD
BRANCH  10  13
ATOM     13  C   UNL A   1      31.047  23.945  25.748  1.00  0.00     0.058 A 
ATOM     14  C   UNL A   1      31.465  25.614  23.554  1.00  0.00     0.127 A 
ATOM     15  C   UNL A   1      31.115  24.276  23.367  1.00  0.00     0.048 A 
ATOM     16  N   UNL A   1      31.560  26.116  24.805  1.00  0.00    -0.239 NA
ATOM     17  C   UNL A   1      30.907  23.435  24.466  1.00  0.00     0.019 A 
ATOM     18  C   UNL A   1      31.325  25.296  25.861  1.00  0.00     0.127 A 
BRANCH  14  19
ATOM     19  N   UNL A   1      31.752  26.450  22.489  1.00  0.00    -0.363 N 
ATOM     20  C   UNL A   1      32.009  27.863  22.679  1.00  0.00     0.144 C 
ATOM     21  C   UNL A   1      32.118  25.821  21.233  1.00  0.00     0.144 C 
ENDBRANCH  14  19
ENDBRANCH  10  13
ENDBRANCH   8   9
ENDBRANCH   7   8
ENDBRANCH   6   7
ENDBRANCH   3   6
ENDBRANCH   1   2
BRANCH   1  22
ATOM     22  C   UNL A   1      36.489  23.913  25.704  1.00  0.00     0.023 C 
BRANCH  22  23
ATOM     23  C   UNL A   1      37.881  23.474  26.146  1.00  0.00     0.023 C 
BRANCH  23  24
ATOM     24  C   UNL A   1      38.771  24.606  26.634  1.00  0.00     0.116 C 
BRANCH  24  25
ATOM     25  N   UNL A   1      39.961  24.803  25.820  1.00  0.00    -0.352 N 
ATOM     26  C   UNL A   1      41.019  25.652  26.052  1.00  0.00     0.251 C 
ATOM     27  H   UNL A   1      40.016  24.260  25.000  1.00  0.00     0.163 HD
ATOM     28  O   UNL A   1      41.904  25.786  25.219  1.00  0.00    -0.269 OA
BRANCH  26  29
ATOM     29  C   UNL A   1      41.042  26.436  27.306  1.00  0.00     0.039 A 
ATOM     30  C   UNL A   1      41.716  27.658  27.326  1.00  0.00     0.014 A 
ATOM     31  C   UNL A   1      40.350  25.990  28.435  1.00  0.00     0.014 A 
ATOM     32  C   UNL A   1      41.640  28.465  28.462  1.00  0.00     0.010 A 
ATOM     33  C   UNL A   1      40.198  26.835  29.528  1.00  0.00     0.010 A 
ATOM     34  C   UNL A   1      40.850  28.077  29.557  1.00  0.00    -0.014 A 
BRANCH  34  35
ATOM     35  C   UNL A   1      40.714  28.944  30.754  1.00  0.00     0.031 A 
ATOM     36  C   UNL A   1      39.647  30.004  30.794  1.00  0.00     0.074 A 
ATOM     37  C   UNL A   1      41.584  28.816  31.776  1.00  0.00     0.049 A 
ATOM     38  N   UNL A   1      39.392  30.883  31.728  1.00  0.00    -0.248 NA
ATOM     39  C   UNL A   1      38.772  30.114  29.614  1.00  0.00     0.031 C 
ATOM     40  C   UNL A   1      42.698  27.866  31.831  1.00  0.00     0.029 A 
ATOM     41  N   UNL A   1      41.667  29.490  32.968  1.00  0.00    -0.354 N 
ATOM     42  C   UNL A   1      38.347  31.659  31.242  1.00  0.00     0.074 A 
ATOM     43  C   UNL A   1      38.054  31.187  29.907  1.00  0.00     0.031 C 
ATOM     44  C   UNL A   1      43.328  27.993  33.010  1.00  0.00     0.029 A 
ATOM     45  C   UNL A   1      42.685  29.052  33.782  1.00  0.00     0.049 A 
ATOM     46  H   UNL A   1      41.053  30.220  33.217  1.00  0.00     0.167 HD
ATOM     47  C   UNL A   1      37.668  32.655  31.859  1.00  0.00     0.031 A 
ATOM     48  C   UNL A   1      43.053  29.453  35.013  1.00  0.00     0.031 A 
ATOM     49  C   UNL A   1      37.943  33.103  33.197  1.00  0.00     0.049 A 
ATOM     50  C   UNL A   1      42.265  30.540  35.693  1.00  0.00     0.074 A 
ATOM     51  C   UNL A   1      37.280  34.066  33.938  1.00  0.00     0.029 A 
ATOM     52  N   UNL A   1      38.962  32.611  34.000  1.00  0.00    -0.354 N 
ATOM     53  N   UNL A   1      41.238  31.219  35.240  1.00  0.00    -0.248 NA
ATOM     54  C   UNL A   1      42.675  30.899  37.056  1.00  0.00     0.031 C 
ATOM     55  C   UNL A   1      37.922  34.181  35.176  1.00  0.00     0.029 A 
ATOM     56  C   UNL A   1      38.953  33.255  35.224  1.00  0.00     0.049 A 
ATOM     57  H   UNL A   1      39.598  31.907  33.737  1.00  0.00     0.167 HD
ATOM     58  C   UNL A   1      40.860  32.066  36.276  1.00  0.00     0.074 A 
ATOM     59  C   UNL A   1      41.760  31.803  37.381  1.00  0.00     0.031 C 
ATOM     60  C   UNL A   1      39.856  32.979  36.311  1.00  0.00     0.031 A 
BRANCH  47  61
ATOM     61  C   UNL A   1      36.559  33.318  31.087  1.00  0.00    -0.014 A 
ATOM     62  C   UNL A   1      36.835  34.096  29.947  1.00  0.00     0.010 A 
ATOM     63  C   UNL A   1      35.224  33.149  31.494  1.00  0.00     0.010 A 
ATOM     64  C   UNL A   1      35.800  34.734  29.258  1.00  0.00     0.020 A 
ATOM     65  C   UNL A   1      34.183  33.762  30.789  1.00  0.00     0.020 A 
ATOM     66  C   UNL A   1      34.481  34.567  29.687  1.00  0.00     0.054 A 
BRANCH  66  67
ATOM     67  S   UNL A   1      33.155  35.396  28.767  1.00  0.00     0.124 S 
ATOM     68  O   UNL A   1      33.908  36.320  27.924  1.00  0.00    -0.237 OA
ATOM     69  O   UNL A   1      32.511  34.288  28.065  1.00  0.00    -0.237 OA
ATOM     70  O   UNL A   1      32.347  36.021  29.811  1.00  0.00    -0.744 OA
ENDBRANCH  66  67
ENDBRANCH  47  61
BRANCH  48  71
ATOM     71  C   UNL A   1      44.196  28.794  35.702  1.00  0.00    -0.014 A 
ATOM     72  C   UNL A   1      45.508  29.263  35.512  1.00  0.00     0.010 A 
ATOM     73  C   UNL A   1      43.979  27.700  36.558  1.00  0.00     0.010 A 
ATOM     74  C   UNL A   1      46.584  28.638  36.148  1.00  0.00     0.020 A 
ATOM     75  C   UNL A   1      45.050  27.087  37.217  1.00  0.00     0.020 A 
ATOM     76  C   UNL A   1      46.348  27.553  36.997  1.00  0.00     0.054 A 
BRANCH  76  77
ATOM     77  S   UNL A   1      47.754  26.787  37.852  1.00  0.00     0.124 S 
ATOM     78  O   UNL A   1      47.350  26.892  39.251  1.00  0.00    -0.237 OA
ATOM     79  O   UNL A   1      47.766  25.438  37.295  1.00  0.00    -0.237 OA
ATOM     80  O   UNL A   1      48.886  27.623  37.462  1.00  0.00    -0.744 OA
ENDBRANCH  76  77
ENDBRANCH  48  71
BRANCH  60  81
ATOM     81  C   UNL A   1      39.656  33.729  37.599  1.00  0.00    -0.014 A 
ATOM     82  C   UNL A   1      38.908  33.181  38.656  1.00  0.00     0.010 A 
ATOM     83  C   UNL A   1      40.258  34.990  37.765  1.00  0.00     0.010 A 
ATOM     84  C   UNL A   1      38.730  33.898  39.841  1.00  0.00     0.020 A 
ATOM     85  C   UNL A   1      40.105  35.699  38.958  1.00  0.00     0.020 A 
ATOM     86  C   UNL A   1      39.326  35.157  39.982  1.00  0.00     0.054 A 
BRANCH  86  87
ATOM     87  S   UNL A   1      39.102  36.061  41.538  1.00  0.00     0.124 S 
ATOM     88  O   UNL A   1      40.287  35.663  42.293  1.00  0.00    -0.237 OA
ATOM     89  O   UNL A   1      39.074  37.455  41.101  1.00  0.00    -0.237 OA
ATOM     90  O   UNL A   1      37.834  35.551  42.053  1.00  0.00    -0.744 OA
ENDBRANCH  86  87
ENDBRANCH  60  81
ENDBRANCH  34  35
ENDBRANCH  26  29
ENDBRANCH  24  25
ENDBRANCH  23  24
ENDBRANCH  22  23
ENDBRANCH   1  22
TORSDOF 19
ENDMDL
