MODEL 1
REMARK VINA RESULT:      -8.4      0.000      0.000
REMARK SMILES CCOc1ccc(-c2ccc(=O)n(CC(=O)NCCCCNC(=O)c3ccc(-c4c5nc(c(-c6ccc(S(=O)(=O)[O-])cc6)c6ccc([nH]6)c(-c6ccc(S(=O)(=O)[O-])cc6)c6nc(c(-c7ccc(S(=O)(=O)[O-])cc7)c7ccc4[nH]7)C=C6)C=C5)cc3)n2)cc1
REMARK SMILES IDX 19 1 18 2 17 3 15 4 16 5 14 7 13 8 8 9 9 10 85 11 10 12
REMARK SMILES IDX 11 13 12 14 7 15 4 16 5 17 87 18 6 19 86 20 3 21 2 22 1 23
REMARK SMILES IDX 20 24 21 25 22 26 23 27 24 29 25 30 26 31 84 32 27 33 83 34
REMARK SMILES IDX 28 35 29 36 30 37 77 38 31 39 82 40 76 41 78 42 32 43 81 44
REMARK SMILES IDX 75 45 74 46 33 48 63 49 44 50 62 51 45 52 48 53 61 54 79 55
REMARK SMILES IDX 46 56 47 57 60 59 80 60 49 61 34 62 35 63 43 64 36 65 42 66
REMARK SMILES IDX 37 67 38 68 39 69 40 70 41 71 64 72 65 73 73 74 66 75 72 76
REMARK SMILES IDX 67 77 68 78 69 79 70 80 71 81 50 82 51 83 59 84 52 85 58 86
REMARK SMILES IDX 53 87 54 88 55 89 56 90 57 91
REMARK H PARENT 17 6 22 28 78 47 48 58
REMARK Flexibility Score: inf
ROOT
ATOM      1  C   UNL A   1      43.135  23.467  26.713  1.00  0.00     0.023 C 
ENDROOT
BRANCH   1   2
ATOM      2  C   UNL A   1      44.654  23.338  26.616  1.00  0.00     0.116 C 
BRANCH   2   3
ATOM      3  N   UNL A   1      45.202  24.121  25.528  1.00  0.00    -0.354 N 
ATOM      4  C   UNL A   1      45.680  25.402  25.550  1.00  0.00     0.241 C 
ATOM      5  O   UNL A   1      46.321  25.781  24.564  1.00  0.00    -0.273 OA
ATOM      6  H   UNL A   1      45.235  23.670  24.655  1.00  0.00     0.163 HD
BRANCH   4   7
ATOM      7  C   UNL A   1      45.586  26.268  26.812  1.00  0.00     0.248 C 
BRANCH   7   8
ATOM      8  N   UNL A   1      44.712  27.423  26.652  1.00  0.00    -0.220 N 
ATOM      9  C   UNL A   1      44.295  29.607  27.188  1.00  0.00     0.091 A 
ATOM     10  C   UNL A   1      42.990  29.595  26.499  1.00  0.00     0.036 A 
ATOM     11  N   UNL A   1      45.107  28.600  27.252  1.00  0.00    -0.169 NA
ATOM     12  C   UNL A   1      42.687  28.481  25.829  1.00  0.00     0.075 A 
ATOM     13  C   UNL A   1      43.592  27.311  25.842  1.00  0.00     0.267 A 
ATOM     14  O   UNL A   1      43.293  26.321  25.182  1.00  0.00    -0.268 OA
BRANCH   9  15
ATOM     15  C   UNL A   1      44.694  30.888  27.809  1.00  0.00     0.002 A 
ATOM     16  C   UNL A   1      45.540  33.253  29.003  1.00  0.00     0.119 A 
ATOM     17  C   UNL A   1      44.218  33.130  28.573  1.00  0.00     0.047 A 
ATOM     18  C   UNL A   1      46.422  32.179  28.889  1.00  0.00     0.047 A 
ATOM     19  C   UNL A   1      43.790  31.945  27.965  1.00  0.00     0.014 A 
ATOM     20  C   UNL A   1      46.003  30.997  28.284  1.00  0.00     0.014 A 
BRANCH  16  21
ATOM     21  O   UNL A   1      45.913  34.395  29.656  1.00  0.00    -0.494 OA
BRANCH  21  22
ATOM     22  C   UNL A   1      46.283  35.459  28.770  1.00  0.00     0.226 C 
ATOM     23  C   UNL A   1      45.127  36.411  28.503  1.00  0.00     0.049 C 
ENDBRANCH  21  22
ENDBRANCH  16  21
ENDBRANCH   9  15
ENDBRANCH   7   8
ENDBRANCH   4   7
ENDBRANCH   2   3
ENDBRANCH   1   2
BRANCH   1  24
ATOM     24  C   UNL A   1      42.352  22.429  25.907  1.00  0.00     0.023 C 
BRANCH  24  25
ATOM     25  C   UNL A   1      41.237  21.725  26.670  1.00  0.00     0.116 C 
BRANCH  25  26
ATOM     26  N   UNL A   1      39.939  21.866  26.032  1.00  0.00    -0.352 N 
ATOM     27  C   UNL A   1      39.041  22.900  26.132  1.00  0.00     0.251 C 
ATOM     28  H   UNL A   1      39.666  21.120  25.449  1.00  0.00     0.163 HD
ATOM     29  O   UNL A   1      37.918  22.780  25.645  1.00  0.00    -0.269 OA
BRANCH  27  30
ATOM     30  C   UNL A   1      39.416  24.140  26.848  1.00  0.00     0.039 A 
ATOM     31  C   UNL A   1      39.975  25.195  26.124  1.00  0.00     0.014 A 
ATOM     32  C   UNL A   1      39.229  24.261  28.228  1.00  0.00     0.014 A 
ATOM     33  C   UNL A   1      40.312  26.383  26.779  1.00  0.00     0.010 A 
ATOM     34  C   UNL A   1      39.481  25.475  28.861  1.00  0.00     0.010 A 
ATOM     35  C   UNL A   1      40.050  26.540  28.150  1.00  0.00    -0.014 A 
BRANCH  35  36
ATOM     36  C   UNL A   1      40.427  27.787  28.866  1.00  0.00     0.031 A 
ATOM     37  C   UNL A   1      41.790  27.902  29.503  1.00  0.00     0.074 A 
ATOM     38  C   UNL A   1      39.548  28.805  28.962  1.00  0.00     0.049 A 
ATOM     39  N   UNL A   1      42.298  28.891  30.193  1.00  0.00    -0.248 NA
ATOM     40  C   UNL A   1      42.693  26.744  29.366  1.00  0.00     0.031 C 
ATOM     41  C   UNL A   1      38.187  28.806  28.420  1.00  0.00     0.029 A 
ATOM     42  N   UNL A   1      39.670  30.040  29.548  1.00  0.00    -0.354 N 
ATOM     43  C   UNL A   1      43.572  28.476  30.569  1.00  0.00     0.074 A 
ATOM     44  C   UNL A   1      43.733  27.119  30.096  1.00  0.00     0.031 C 
ATOM     45  C   UNL A   1      37.614  29.997  28.669  1.00  0.00     0.029 A 
ATOM     46  C   UNL A   1      38.550  30.828  29.420  1.00  0.00     0.049 A 
ATOM     47  H   UNL A   1      40.485  30.335  30.016  1.00  0.00     0.167 HD
ATOM     48  C   UNL A   1      44.538  29.171  31.215  1.00  0.00     0.031 A 
ATOM     49  C   UNL A   1      38.306  32.079  29.859  1.00  0.00     0.031 A 
ATOM     50  C   UNL A   1      44.386  30.525  31.673  1.00  0.00     0.049 A 
ATOM     51  C   UNL A   1      39.391  32.816  30.601  1.00  0.00     0.074 A 
ATOM     52  C   UNL A   1      45.312  31.324  32.321  1.00  0.00     0.029 A 
ATOM     53  N   UNL A   1      43.238  31.287  31.519  1.00  0.00    -0.354 N 
ATOM     54  N   UNL A   1      40.603  32.419  30.906  1.00  0.00    -0.248 NA
ATOM     55  C   UNL A   1      39.078  34.185  31.038  1.00  0.00     0.031 C 
ATOM     56  C   UNL A   1      44.710  32.555  32.598  1.00  0.00     0.029 A 
ATOM     57  C   UNL A   1      43.432  32.545  32.064  1.00  0.00     0.049 A 
ATOM     58  H   UNL A   1      42.409  30.980  31.087  1.00  0.00     0.167 HD
ATOM     59  C   UNL A   1      41.211  33.506  31.528  1.00  0.00     0.074 A 
ATOM     60  C   UNL A   1      40.241  34.579  31.536  1.00  0.00     0.031 C 
ATOM     61  C   UNL A   1      42.460  33.608  32.048  1.00  0.00     0.031 A 
BRANCH  48  62
ATOM     62  C   UNL A   1      45.862  28.486  31.439  1.00  0.00    -0.014 A 
ATOM     63  C   UNL A   1      46.102  27.760  32.620  1.00  0.00     0.010 A 
ATOM     64  C   UNL A   1      46.847  28.507  30.435  1.00  0.00     0.010 A 
ATOM     65  C   UNL A   1      47.311  27.086  32.804  1.00  0.00     0.020 A 
ATOM     66  C   UNL A   1      48.048  27.809  30.603  1.00  0.00     0.020 A 
ATOM     67  C   UNL A   1      48.275  27.110  31.791  1.00  0.00     0.054 A 
BRANCH  67  68
ATOM     68  S   UNL A   1      49.807  26.172  32.035  1.00  0.00     0.124 S 
ATOM     69  O   UNL A   1      50.432  26.895  33.140  1.00  0.00    -0.237 OA
ATOM     70  O   UNL A   1      49.315  24.835  32.356  1.00  0.00    -0.237 OA
ATOM     71  O   UNL A   1      50.494  26.287  30.750  1.00  0.00    -0.744 OA
ENDBRANCH  67  68
ENDBRANCH  48  62
BRANCH  49  72
ATOM     72  C   UNL A   1      36.987  32.729  29.612  1.00  0.00    -0.014 A 
ATOM     73  C   UNL A   1      36.741  33.424  28.413  1.00  0.00     0.010 A 
ATOM     74  C   UNL A   1      35.988  32.709  30.602  1.00  0.00     0.010 A 
ATOM     75  C   UNL A   1      35.552  34.137  28.236  1.00  0.00     0.020 A 
ATOM     76  C   UNL A   1      34.782  33.389  30.414  1.00  0.00     0.020 A 
ATOM     77  C   UNL A   1      34.583  34.122  29.242  1.00  0.00     0.054 A 
BRANCH  77  78
ATOM     78  S   UNL A   1      33.054  35.068  29.002  1.00  0.00     0.124 S 
ATOM     79  O   UNL A   1      32.350  34.259  28.012  1.00  0.00    -0.237 OA
ATOM     80  O   UNL A   1      32.473  35.077  30.341  1.00  0.00    -0.237 OA
ATOM     81  O   UNL A   1      33.527  36.367  28.528  1.00  0.00    -0.744 OA
ENDBRANCH  77  78
ENDBRANCH  49  72
BRANCH  61  82
ATOM     82  C   UNL A   1      42.870  34.948  32.602  1.00  0.00    -0.014 A 
ATOM     83  C   UNL A   1      42.657  35.287  33.950  1.00  0.00     0.010 A 
ATOM     84  C   UNL A   1      43.493  35.881  31.753  1.00  0.00     0.010 A 
ATOM     85  C   UNL A   1      43.002  36.558  34.422  1.00  0.00     0.020 A 
ATOM     86  C   UNL A   1      43.872  37.138  32.228  1.00  0.00     0.020 A 
ATOM     87  C   UNL A   1      43.600  37.477  33.555  1.00  0.00     0.054 A 
BRANCH  87  88
ATOM     88  S   UNL A   1      44.037  39.119  34.189  1.00  0.00     0.124 S 
ATOM     89  O   UNL A   1      42.911  39.929  33.732  1.00  0.00    -0.237 OA
ATOM     90  O   UNL A   1      44.107  38.897  35.631  1.00  0.00    -0.237 OA
ATOM     91  O   UNL A   1      45.316  39.411  33.546  1.00  0.00    -0.744 OA
ENDBRANCH  87  88
ENDBRANCH  61  82
ENDBRANCH  35  36
ENDBRANCH  27  30
ENDBRANCH  25  26
ENDBRANCH  24  25
ENDBRANCH   1  24
TORSDOF 18
ENDMDL
MODEL 2
REMARK VINA RESULT:      -7.9      4.765      8.729
REMARK SMILES CCOc1ccc(-c2ccc(=O)n(CC(=O)NCCCCNC(=O)c3ccc(-c4c5nc(c(-c6ccc(S(=O)(=O)[O-])cc6)c6ccc([nH]6)c(-c6ccc(S(=O)(=O)[O-])cc6)c6nc(c(-c7ccc(S(=O)(=O)[O-])cc7)c7ccc4[nH]7)C=C6)C=C5)cc3)n2)cc1
REMARK SMILES IDX 19 1 18 2 17 3 15 4 16 5 14 7 13 8 8 9 9 10 85 11 10 12
REMARK SMILES IDX 11 13 12 14 7 15 4 16 5 17 87 18 6 19 86 20 3 21 2 22 1 23
REMARK SMILES IDX 20 24 21 25 22 26 23 27 24 29 25 30 26 31 84 32 27 33 83 34
REMARK SMILES IDX 28 35 29 36 30 37 77 38 31 39 82 40 76 41 78 42 32 43 81 44
REMARK SMILES IDX 75 45 74 46 33 48 63 49 44 50 62 51 45 52 48 53 61 54 79 55
REMARK SMILES IDX 46 56 47 57 60 59 80 60 49 61 34 62 35 63 43 64 36 65 42 66
REMARK SMILES IDX 37 67 38 68 39 69 40 70 41 71 64 72 65 73 73 74 66 75 72 76
REMARK SMILES IDX 67 77 68 78 69 79 70 80 71 81 50 82 51 83 59 84 52 85 58 86
REMARK SMILES IDX 53 87 54 88 55 89 56 90 57 91
REMARK H PARENT 17 6 22 28 78 47 48 58
REMARK Flexibility Score: inf
ROOT
ATOM      1  C   UNL A   1      37.543  20.826  24.620  1.00  0.00     0.023 C 
ENDROOT
BRANCH   1   2
ATOM      2  C   UNL A   1      36.184  20.882  25.318  1.00  0.00     0.116 C 
BRANCH   2   3
ATOM      3  N   UNL A   1      36.012  22.097  26.087  1.00  0.00    -0.354 N 
ATOM      4  C   UNL A   1      35.066  23.074  25.946  1.00  0.00     0.241 C 
ATOM      5  O   UNL A   1      34.963  23.895  26.864  1.00  0.00    -0.273 OA
ATOM      6  H   UNL A   1      36.665  22.238  26.809  1.00  0.00     0.163 HD
BRANCH   4   7
ATOM      7  C   UNL A   1      34.056  23.047  24.792  1.00  0.00     0.248 C 
BRANCH   7   8
ATOM      8  N   UNL A   1      32.743  23.555  25.166  1.00  0.00    -0.220 N 
ATOM      9  C   UNL A   1      31.253  25.287  25.069  1.00  0.00     0.091 A 
ATOM     10  C   UNL A   1      30.315  24.618  25.991  1.00  0.00     0.036 A 
ATOM     11  N   UNL A   1      32.381  24.790  24.672  1.00  0.00    -0.169 NA
ATOM     12  C   UNL A   1      30.636  23.376  26.360  1.00  0.00     0.075 A 
ATOM     13  C   UNL A   1      31.897  22.746  25.912  1.00  0.00     0.267 A 
ATOM     14  O   UNL A   1      32.136  21.590  26.244  1.00  0.00    -0.268 OA
BRANCH   9  15
ATOM     15  C   UNL A   1      30.828  26.604  24.548  1.00  0.00     0.002 A 
ATOM     16  C   UNL A   1      30.093  29.128  23.641  1.00  0.00     0.119 A 
ATOM     17  C   UNL A   1      29.440  27.998  23.146  1.00  0.00     0.047 A 
ATOM     18  C   UNL A   1      31.070  29.002  24.627  1.00  0.00     0.047 A 
ATOM     19  C   UNL A   1      29.811  26.726  23.594  1.00  0.00     0.014 A 
ATOM     20  C   UNL A   1      31.445  27.740  25.077  1.00  0.00     0.014 A 
BRANCH  16  21
ATOM     21  O   UNL A   1      29.662  30.362  23.239  1.00  0.00    -0.494 OA
BRANCH  21  22
ATOM     22  C   UNL A   1      28.274  30.388  22.881  1.00  0.00     0.226 C 
ATOM     23  C   UNL A   1      27.564  31.617  23.428  1.00  0.00     0.049 C 
ENDBRANCH  21  22
ENDBRANCH  16  21
ENDBRANCH   9  15
ENDBRANCH   7   8
ENDBRANCH   4   7
ENDBRANCH   2   3
ENDBRANCH   1   2
BRANCH   1  24
ATOM     24  C   UNL A   1      38.416  19.634  25.015  1.00  0.00     0.023 C 
BRANCH  24  25
ATOM     25  C   UNL A   1      39.474  19.929  26.070  1.00  0.00     0.116 C 
BRANCH  25  26
ATOM     26  N   UNL A   1      40.600  19.011  26.016  1.00  0.00    -0.352 N 
ATOM     27  C   UNL A   1      41.941  19.293  26.086  1.00  0.00     0.251 C 
ATOM     28  H   UNL A   1      40.369  18.059  25.916  1.00  0.00     0.163 HD
ATOM     29  O   UNL A   1      42.762  18.405  25.866  1.00  0.00    -0.269 OA
BRANCH  27  30
ATOM     30  C   UNL A   1      42.394  20.667  26.399  1.00  0.00     0.039 A 
ATOM     31  C   UNL A   1      42.514  21.052  27.736  1.00  0.00     0.014 A 
ATOM     32  C   UNL A   1      42.689  21.579  25.381  1.00  0.00     0.014 A 
ATOM     33  C   UNL A   1      42.964  22.337  28.049  1.00  0.00     0.010 A 
ATOM     34  C   UNL A   1      43.222  22.826  25.695  1.00  0.00     0.010 A 
ATOM     35  C   UNL A   1      43.339  23.229  27.032  1.00  0.00    -0.014 A 
BRANCH  35  36
ATOM     36  C   UNL A   1      43.795  24.608  27.349  1.00  0.00     0.031 A 
ATOM     37  C   UNL A   1      45.250  24.972  27.186  1.00  0.00     0.074 A 
ATOM     38  C   UNL A   1      42.914  25.526  27.797  1.00  0.00     0.049 A 
ATOM     39  N   UNL A   1      45.850  26.108  27.435  1.00  0.00    -0.248 NA
ATOM     40  C   UNL A   1      46.155  23.914  26.702  1.00  0.00     0.031 C 
ATOM     41  C   UNL A   1      41.487  25.292  28.030  1.00  0.00     0.029 A 
ATOM     42  N   UNL A   1      43.091  26.845  28.134  1.00  0.00    -0.354 N 
ATOM     43  C   UNL A   1      47.193  25.900  27.139  1.00  0.00     0.074 A 
ATOM     44  C   UNL A   1      47.335  24.512  26.763  1.00  0.00     0.031 C 
ATOM     45  C   UNL A   1      40.913  26.437  28.438  1.00  0.00     0.029 A 
ATOM     46  C   UNL A   1      41.935  27.474  28.533  1.00  0.00     0.049 A 
ATOM     47  H   UNL A   1      43.964  27.298  28.093  1.00  0.00     0.167 HD
ATOM     48  C   UNL A   1      48.213  26.792  27.139  1.00  0.00     0.031 A 
ATOM     49  C   UNL A   1      41.724  28.745  28.931  1.00  0.00     0.031 A 
ATOM     50  C   UNL A   1      48.071  28.176  27.498  1.00  0.00     0.049 A 
ATOM     51  C   UNL A   1      42.885  29.706  28.949  1.00  0.00     0.074 A 
ATOM     52  C   UNL A   1      49.040  29.165  27.512  1.00  0.00     0.029 A 
ATOM     53  N   UNL A   1      46.884  28.774  27.891  1.00  0.00    -0.354 N 
ATOM     54  N   UNL A   1      44.138  29.498  28.622  1.00  0.00    -0.248 NA
ATOM     55  C   UNL A   1      42.594  31.084  29.370  1.00  0.00     0.031 C 
ATOM     56  C   UNL A   1      48.448  30.352  27.956  1.00  0.00     0.029 A 
ATOM     57  C   UNL A   1      47.097  30.116  28.155  1.00  0.00     0.049 A 
ATOM     58  H   UNL A   1      46.019  28.313  27.971  1.00  0.00     0.167 HD
ATOM     59  C   UNL A   1      44.772  30.730  28.754  1.00  0.00     0.074 A 
ATOM     60  C   UNL A   1      43.761  31.678  29.169  1.00  0.00     0.031 C 
ATOM     61  C   UNL A   1      46.075  31.050  28.551  1.00  0.00     0.031 A 
BRANCH  48  62
ATOM     62  C   UNL A   1      49.571  26.300  26.710  1.00  0.00    -0.014 A 
ATOM     63  C   UNL A   1      49.974  26.390  25.365  1.00  0.00     0.010 A 
ATOM     64  C   UNL A   1      50.479  25.809  27.665  1.00  0.00     0.010 A 
ATOM     65  C   UNL A   1      51.251  25.978  24.978  1.00  0.00     0.020 A 
ATOM     66  C   UNL A   1      51.769  25.422  27.287  1.00  0.00     0.020 A 
ATOM     67  C   UNL A   1      52.143  25.502  25.943  1.00  0.00     0.054 A 
BRANCH  67  68
ATOM     68  S   UNL A   1      53.815  25.036  25.418  1.00  0.00     0.124 S 
ATOM     69  O   UNL A   1      53.582  23.741  24.782  1.00  0.00    -0.237 OA
ATOM     70  O   UNL A   1      54.181  26.123  24.514  1.00  0.00    -0.237 OA
ATOM     71  O   UNL A   1      54.572  24.988  26.667  1.00  0.00    -0.744 OA
ENDBRANCH  67  68
ENDBRANCH  48  62
BRANCH  49  72
ATOM     72  C   UNL A   1      40.364  29.199  29.341  1.00  0.00    -0.014 A 
ATOM     73  C   UNL A   1      39.499  29.807  28.413  1.00  0.00     0.010 A 
ATOM     74  C   UNL A   1      39.950  29.082  30.680  1.00  0.00     0.010 A 
ATOM     75  C   UNL A   1      38.276  30.344  28.827  1.00  0.00     0.020 A 
ATOM     76  C   UNL A   1      38.711  29.583  31.091  1.00  0.00     0.020 A 
ATOM     77  C   UNL A   1      37.894  30.236  30.167  1.00  0.00     0.054 A 
BRANCH  77  78
ATOM     78  S   UNL A   1      36.312  30.954  30.689  1.00  0.00     0.124 S 
ATOM     79  O   UNL A   1      36.004  30.172  31.882  1.00  0.00    -0.237 OA
ATOM     80  O   UNL A   1      36.661  32.353  30.921  1.00  0.00    -0.237 OA
ATOM     81  O   UNL A   1      35.437  30.720  29.543  1.00  0.00    -0.744 OA
ENDBRANCH  77  78
ENDBRANCH  49  72
BRANCH  61  82
ATOM     82  C   UNL A   1      46.462  32.498  28.705  1.00  0.00    -0.014 A 
ATOM     83  C   UNL A   1      46.387  33.402  27.630  1.00  0.00     0.010 A 
ATOM     84  C   UNL A   1      46.898  32.963  29.959  1.00  0.00     0.010 A 
ATOM     85  C   UNL A   1      46.802  34.727  27.791  1.00  0.00     0.020 A 
ATOM     86  C   UNL A   1      47.280  34.295  30.134  1.00  0.00     0.020 A 
ATOM     87  C   UNL A   1      47.253  35.163  29.041  1.00  0.00     0.054 A 
BRANCH  87  88
ATOM     88  S   UNL A   1      47.788  36.885  29.226  1.00  0.00     0.124 S 
ATOM     89  O   UNL A   1      46.695  37.459  30.006  1.00  0.00    -0.237 OA
ATOM     90  O   UNL A   1      49.061  36.752  29.931  1.00  0.00    -0.237 OA
ATOM     91  O   UNL A   1      47.891  37.367  27.850  1.00  0.00    -0.744 OA
ENDBRANCH  87  88
ENDBRANCH  61  82
ENDBRANCH  35  36
ENDBRANCH  27  30
ENDBRANCH  25  26
ENDBRANCH  24  25
ENDBRANCH   1  24
TORSDOF 18
ENDMDL
MODEL 3
REMARK VINA RESULT:      -7.6      1.407      8.340
REMARK SMILES CCOc1ccc(-c2ccc(=O)n(CC(=O)NCCCCNC(=O)c3ccc(-c4c5nc(c(-c6ccc(S(=O)(=O)[O-])cc6)c6ccc([nH]6)c(-c6ccc(S(=O)(=O)[O-])cc6)c6nc(c(-c7ccc(S(=O)(=O)[O-])cc7)c7ccc4[nH]7)C=C6)C=C5)cc3)n2)cc1
REMARK SMILES IDX 19 1 18 2 17 3 15 4 16 5 14 7 13 8 8 9 9 10 85 11 10 12
REMARK SMILES IDX 11 13 12 14 7 15 4 16 5 17 87 18 6 19 86 20 3 21 2 22 1 23
REMARK SMILES IDX 20 24 21 25 22 26 23 27 24 29 25 30 26 31 84 32 27 33 83 34
REMARK SMILES IDX 28 35 29 36 30 37 77 38 31 39 82 40 76 41 78 42 32 43 81 44
REMARK SMILES IDX 75 45 74 46 33 48 63 49 44 50 62 51 45 52 48 53 61 54 79 55
REMARK SMILES IDX 46 56 47 57 60 59 80 60 49 61 34 62 35 63 43 64 36 65 42 66
REMARK SMILES IDX 37 67 38 68 39 69 40 70 41 71 64 72 65 73 73 74 66 75 72 76
REMARK SMILES IDX 67 77 68 78 69 79 70 80 71 81 50 82 51 83 59 84 52 85 58 86
REMARK SMILES IDX 53 87 54 88 55 89 56 90 57 91
REMARK H PARENT 17 6 22 28 78 47 48 58
REMARK Flexibility Score: inf
ROOT
ATOM      1  C   UNL A   1      42.910  22.349  26.596  1.00  0.00     0.023 C 
ENDROOT
BRANCH   1   2
ATOM      2  C   UNL A   1      44.253  21.922  26.004  1.00  0.00     0.116 C 
BRANCH   2   3
ATOM      3  N   UNL A   1      44.779  22.901  25.076  1.00  0.00    -0.354 N 
ATOM      4  C   UNL A   1      45.495  24.036  25.342  1.00  0.00     0.241 C 
ATOM      5  O   UNL A   1      46.047  24.590  24.385  1.00  0.00    -0.273 OA
ATOM      6  H   UNL A   1      44.597  22.726  24.125  1.00  0.00     0.163 HD
BRANCH   4   7
ATOM      7  C   UNL A   1      45.754  24.498  26.780  1.00  0.00     0.248 C 
BRANCH   7   8
ATOM      8  N   UNL A   1      46.581  25.695  26.859  1.00  0.00    -0.220 N 
ATOM      9  C   UNL A   1      46.657  27.981  26.878  1.00  0.00     0.091 A 
ATOM     10  C   UNL A   1      48.132  27.997  26.849  1.00  0.00     0.036 A 
ATOM     11  N   UNL A   1      45.929  26.910  26.895  1.00  0.00    -0.169 NA
ATOM     12  C   UNL A   1      48.737  26.810  26.933  1.00  0.00     0.075 A 
ATOM     13  C   UNL A   1      47.956  25.555  26.986  1.00  0.00     0.267 A 
ATOM     14  O   UNL A   1      48.550  24.488  27.102  1.00  0.00    -0.268 OA
BRANCH   9  15
ATOM     15  C   UNL A   1      45.991  29.299  26.929  1.00  0.00     0.002 A 
ATOM     16  C   UNL A   1      44.835  31.827  27.031  1.00  0.00     0.119 A 
ATOM     17  C   UNL A   1      44.025  30.693  27.110  1.00  0.00     0.047 A 
ATOM     18  C   UNL A   1      46.221  31.700  26.960  1.00  0.00     0.047 A 
ATOM     19  C   UNL A   1      44.601  29.419  27.051  1.00  0.00     0.014 A 
ATOM     20  C   UNL A   1      46.801  30.436  26.901  1.00  0.00     0.014 A 
BRANCH  16  21
ATOM     21  O   UNL A   1      44.252  33.057  27.162  1.00  0.00    -0.494 OA
BRANCH  21  22
ATOM     22  C   UNL A   1      44.615  33.968  26.117  1.00  0.00     0.226 C 
ATOM     23  C   UNL A   1      43.686  33.864  24.917  1.00  0.00     0.049 C 
ENDBRANCH  21  22
ENDBRANCH  16  21
ENDBRANCH   9  15
ENDBRANCH   7   8
ENDBRANCH   4   7
ENDBRANCH   2   3
ENDBRANCH   1   2
BRANCH   1  24
ATOM     24  C   UNL A   1      41.684  21.794  25.869  1.00  0.00     0.023 C 
BRANCH  24  25
ATOM     25  C   UNL A   1      40.422  21.694  26.714  1.00  0.00     0.116 C 
BRANCH  25  26
ATOM     26  N   UNL A   1      39.224  22.090  25.993  1.00  0.00    -0.352 N 
ATOM     27  C   UNL A   1      38.553  23.287  26.037  1.00  0.00     0.251 C 
ATOM     28  H   UNL A   1      38.844  21.410  25.391  1.00  0.00     0.163 HD
ATOM     29  O   UNL A   1      37.464  23.395  25.477  1.00  0.00    -0.269 OA
BRANCH  27  30
ATOM     30  C   UNL A   1      39.127  24.432  26.779  1.00  0.00     0.039 A 
ATOM     31  C   UNL A   1      39.968  25.320  26.107  1.00  0.00     0.014 A 
ATOM     32  C   UNL A   1      38.848  24.624  28.136  1.00  0.00     0.014 A 
ATOM     33  C   UNL A   1      40.499  26.420  26.786  1.00  0.00     0.010 A 
ATOM     34  C   UNL A   1      39.304  25.768  28.785  1.00  0.00     0.010 A 
ATOM     35  C   UNL A   1      40.156  26.664  28.126  1.00  0.00    -0.014 A 
BRANCH  35  36
ATOM     36  C   UNL A   1      40.733  27.815  28.870  1.00  0.00     0.031 A 
ATOM     37  C   UNL A   1      39.894  29.045  29.114  1.00  0.00     0.074 A 
ATOM     38  C   UNL A   1      42.008  27.768  29.308  1.00  0.00     0.049 A 
ATOM     39  N   UNL A   1      40.220  30.161  29.715  1.00  0.00    -0.248 NA
ATOM     40  C   UNL A   1      38.514  29.028  28.596  1.00  0.00     0.031 C 
ATOM     41  C   UNL A   1      42.935  26.652  29.107  1.00  0.00     0.029 A 
ATOM     42  N   UNL A   1      42.743  28.683  30.019  1.00  0.00    -0.354 N 
ATOM     43  C   UNL A   1      39.092  30.972  29.646  1.00  0.00     0.074 A 
ATOM     44  C   UNL A   1      38.098  30.252  28.882  1.00  0.00     0.031 C 
ATOM     45  C   UNL A   1      44.103  26.934  29.710  1.00  0.00     0.029 A 
ATOM     46  C   UNL A   1      44.021  28.263  30.307  1.00  0.00     0.049 A 
ATOM     47  H   UNL A   1      42.388  29.558  30.298  1.00  0.00     0.167 HD
ATOM     48  C   UNL A   1      38.883  32.189  30.201  1.00  0.00     0.031 A 
ATOM     49  C   UNL A   1      45.015  28.882  30.976  1.00  0.00     0.031 A 
ATOM     50  C   UNL A   1      39.865  32.901  30.973  1.00  0.00     0.049 A 
ATOM     51  C   UNL A   1      44.763  30.250  31.556  1.00  0.00     0.074 A 
ATOM     52  C   UNL A   1      39.745  34.133  31.594  1.00  0.00     0.029 A 
ATOM     53  N   UNL A   1      41.144  32.439  31.244  1.00  0.00    -0.354 N 
ATOM     54  N   UNL A   1      43.672  30.978  31.516  1.00  0.00    -0.248 NA
ATOM     55  C   UNL A   1      45.873  30.869  32.294  1.00  0.00     0.031 C 
ATOM     56  C   UNL A   1      40.966  34.436  32.204  1.00  0.00     0.029 A 
ATOM     57  C   UNL A   1      41.824  33.364  32.019  1.00  0.00     0.049 A 
ATOM     58  H   UNL A   1      41.514  31.582  30.932  1.00  0.00     0.167 HD
ATOM     59  C   UNL A   1      43.953  32.119  32.263  1.00  0.00     0.074 A 
ATOM     60  C   UNL A   1      45.305  31.972  32.758  1.00  0.00     0.031 C 
ATOM     61  C   UNL A   1      43.164  33.194  32.517  1.00  0.00     0.031 A 
BRANCH  48  62
ATOM     62  C   UNL A   1      37.527  32.819  30.016  1.00  0.00    -0.014 A 
ATOM     63  C   UNL A   1      36.645  32.956  31.104  1.00  0.00     0.010 A 
ATOM     64  C   UNL A   1      37.155  33.342  28.764  1.00  0.00     0.010 A 
ATOM     65  C   UNL A   1      35.408  33.582  30.940  1.00  0.00     0.020 A 
ATOM     66  C   UNL A   1      35.930  33.996  28.602  1.00  0.00     0.020 A 
ATOM     67  C   UNL A   1      35.061  34.105  29.691  1.00  0.00     0.054 A 
BRANCH  67  68
ATOM     68  S   UNL A   1      33.475  34.970  29.527  1.00  0.00     0.124 S 
ATOM     69  O   UNL A   1      32.838  34.229  28.440  1.00  0.00    -0.237 OA
ATOM     70  O   UNL A   1      32.876  34.789  30.846  1.00  0.00    -0.237 OA
ATOM     71  O   UNL A   1      33.859  36.342  29.203  1.00  0.00    -0.744 OA
ENDBRANCH  67  68
ENDBRANCH  48  62
BRANCH  49  72
ATOM     72  C   UNL A   1      46.343  28.225  31.146  1.00  0.00    -0.014 A 
ATOM     73  C   UNL A   1      47.478  28.713  30.473  1.00  0.00     0.010 A 
ATOM     74  C   UNL A   1      46.467  27.069  31.937  1.00  0.00     0.010 A 
ATOM     75  C   UNL A   1      48.692  28.024  30.535  1.00  0.00     0.020 A 
ATOM     76  C   UNL A   1      47.689  26.397  32.033  1.00  0.00     0.020 A 
ATOM     77  C   UNL A   1      48.788  26.863  31.309  1.00  0.00     0.054 A 
BRANCH  77  78
ATOM     78  S   UNL A   1      50.366  25.972  31.363  1.00  0.00     0.124 S 
ATOM     79  O   UNL A   1      50.291  25.302  32.657  1.00  0.00    -0.237 OA
ATOM     80  O   UNL A   1      50.279  25.103  30.193  1.00  0.00    -0.237 OA
ATOM     81  O   UNL A   1      51.362  27.037  31.266  1.00  0.00    -0.744 OA
ENDBRANCH  77  78
ENDBRANCH  49  72
BRANCH  61  82
ATOM     82  C   UNL A   1      43.720  34.258  33.428  1.00  0.00    -0.014 A 
ATOM     83  C   UNL A   1      43.486  34.241  34.814  1.00  0.00     0.010 A 
ATOM     84  C   UNL A   1      44.504  35.290  32.880  1.00  0.00     0.010 A 
ATOM     85  C   UNL A   1      43.972  35.270  35.625  1.00  0.00     0.020 A 
ATOM     86  C   UNL A   1      45.022  36.302  33.691  1.00  0.00     0.020 A 
ATOM     87  C   UNL A   1      44.730  36.298  35.057  1.00  0.00     0.054 A 
BRANCH  87  88
ATOM     88  S   UNL A   1      45.349  37.624  36.128  1.00  0.00     0.124 S 
ATOM     89  O   UNL A   1      46.320  36.915  36.956  1.00  0.00    -0.237 OA
ATOM     90  O   UNL A   1      45.913  38.573  35.171  1.00  0.00    -0.237 OA
ATOM     91  O   UNL A   1      44.155  38.090  36.829  1.00  0.00    -0.744 OA
ENDBRANCH  87  88
ENDBRANCH  61  82
ENDBRANCH  35  36
ENDBRANCH  27  30
ENDBRANCH  25  26
ENDBRANCH  24  25
ENDBRANCH   1  24
TORSDOF 18
ENDMDL
