MODEL 1
REMARK VINA RESULT:     -10.3      0.000      0.000
REMARK SMILES O=C(CSc1nc(-c2cccc(F)c2)n[nH]1)NCCCCNC(=O)c1ccc(-c2c3nc(c(-c4ccc(S(=O)(=O)[O-])cc4)c4ccc([nH]4)c(-c4ccc(S(=O)(=O)[O-])cc4)c4nc(c(-c5ccc(S(=O)(=O)[O-])cc5)c5ccc2[nH]5)C=C4)C=C3)cc1
REMARK SMILES IDX 19 1 18 2 17 3 1 4 2 5 3 7 4 8 5 9 6 10 16 11 7 12 15 13
REMARK SMILES IDX 8 15 9 16 14 17 10 18 12 19 11 20 13 21 20 22 21 23 22 24
REMARK SMILES IDX 23 25 24 27 25 28 26 29 84 30 27 31 83 32 28 33 29 34 30 35
REMARK SMILES IDX 77 36 31 37 82 38 76 39 78 40 32 41 81 42 75 43 74 44 33 46
REMARK SMILES IDX 63 47 44 48 62 49 45 50 48 51 61 52 79 53 46 54 47 55 60 57
REMARK SMILES IDX 80 58 49 59 34 60 35 61 43 62 36 63 42 64 37 65 38 66 39 67
REMARK SMILES IDX 40 68 41 69 64 70 65 71 73 72 66 73 72 74 67 75 68 76 69 77
REMARK SMILES IDX 70 78 71 79 50 80 51 81 59 82 52 83 58 84 53 85 54 86 55 87
REMARK SMILES IDX 56 88 57 89
REMARK H PARENT 17 6 16 14 22 26 78 45 48 56
REMARK Flexibility Score: inf
ROOT
ATOM      1  C   UNL A   1      34.319  33.499  28.073  1.00  0.00     0.023 C 
ENDROOT
BRANCH   1   2
ATOM      2  C   UNL A   1      34.479  35.012  27.938  1.00  0.00     0.116 C 
BRANCH   2   3
ATOM      3  N   UNL A   1      34.329  35.702  29.201  1.00  0.00    -0.355 N 
ATOM      4  O   UNL A   1      32.211  36.486  28.799  1.00  0.00    -0.274 OA
ATOM      5  C   UNL A   1      33.162  36.342  29.565  1.00  0.00     0.230 C 
ATOM      6  H   UNL A   1      35.089  35.716  29.826  1.00  0.00     0.163 HD
BRANCH   5   7
ATOM      7  C   UNL A   1      33.180  36.988  30.943  1.00  0.00     0.178 C 
BRANCH   7   8
ATOM      8  S   UNL A   1      32.780  35.827  32.288  1.00  0.00    -0.077 SA
BRANCH   8   9
ATOM      9  C   UNL A   1      34.354  35.347  32.783  1.00  0.00     0.184 A 
ATOM     10  N   UNL A   1      35.377  35.026  32.035  1.00  0.00    -0.201 NA
ATOM     11  N   UNL A   1      34.691  35.255  34.095  1.00  0.00    -0.254 N 
ATOM     12  C   UNL A   1      36.343  34.688  32.958  1.00  0.00     0.182 A 
ATOM     13  N   UNL A   1      35.944  34.792  34.238  1.00  0.00    -0.153 NA
ATOM     14  H   UNL A   1      34.096  35.496  34.841  1.00  0.00     0.192 HD
BRANCH  12  15
ATOM     15  C   UNL A   1      37.673  34.259  32.560  1.00  0.00     0.024 A 
ATOM     16  C   UNL A   1      38.584  33.803  33.525  1.00  0.00     0.012 A 
ATOM     17  C   UNL A   1      38.058  34.296  31.216  1.00  0.00     0.051 A 
ATOM     18  C   UNL A   1      39.859  33.373  33.149  1.00  0.00     0.004 A 
ATOM     19  C   UNL A   1      39.337  33.886  30.857  1.00  0.00     0.123 A 
ATOM     20  C   UNL A   1      40.238  33.419  31.809  1.00  0.00     0.039 A 
ATOM     21  F   UNL A   1      39.712  33.943  29.571  1.00  0.00    -0.207 F 
ENDBRANCH  12  15
ENDBRANCH   8   9
ENDBRANCH   7   8
ENDBRANCH   5   7
ENDBRANCH   2   3
ENDBRANCH   1   2
BRANCH   1  22
ATOM     22  C   UNL A   1      35.630  32.709  28.125  1.00  0.00     0.023 C 
BRANCH  22  23
ATOM     23  C   UNL A   1      35.560  31.356  28.826  1.00  0.00     0.116 C 
BRANCH  23  24
ATOM     24  N   UNL A   1      35.568  31.461  30.277  1.00  0.00    -0.352 N 
ATOM     25  C   UNL A   1      36.514  31.039  31.180  1.00  0.00     0.251 C 
ATOM     26  H   UNL A   1      34.778  31.900  30.669  1.00  0.00     0.163 HD
ATOM     27  O   UNL A   1      36.274  31.101  32.384  1.00  0.00    -0.269 OA
BRANCH  25  28
ATOM     28  C   UNL A   1      37.805  30.482  30.712  1.00  0.00     0.039 A 
ATOM     29  C   UNL A   1      38.010  30.319  29.340  1.00  0.00     0.014 A 
ATOM     30  C   UNL A   1      38.810  30.121  31.614  1.00  0.00     0.014 A 
ATOM     31  C   UNL A   1      39.245  29.866  28.869  1.00  0.00     0.010 A 
ATOM     32  C   UNL A   1      40.066  29.742  31.140  1.00  0.00     0.010 A 
ATOM     33  C   UNL A   1      40.300  29.614  29.761  1.00  0.00    -0.014 A 
BRANCH  33  34
ATOM     34  C   UNL A   1      41.653  29.231  29.272  1.00  0.00     0.031 A 
ATOM     35  C   UNL A   1      42.752  30.257  29.184  1.00  0.00     0.074 A 
ATOM     36  C   UNL A   1      41.877  27.971  28.847  1.00  0.00     0.049 A 
ATOM     37  N   UNL A   1      43.970  30.121  28.727  1.00  0.00    -0.248 NA
ATOM     38  C   UNL A   1      42.433  31.617  29.649  1.00  0.00     0.031 C 
ATOM     39  C   UNL A   1      40.889  26.889  28.842  1.00  0.00     0.029 A 
ATOM     40  N   UNL A   1      43.006  27.386  28.328  1.00  0.00    -0.354 N 
ATOM     41  C   UNL A   1      44.560  31.376  28.838  1.00  0.00     0.074 A 
ATOM     42  C   UNL A   1      43.547  32.271  29.353  1.00  0.00     0.031 C 
ATOM     43  C   UNL A   1      41.461  25.770  28.370  1.00  0.00     0.029 A 
ATOM     44  C   UNL A   1      42.841  26.062  27.994  1.00  0.00     0.049 A 
ATOM     45  H   UNL A   1      43.855  27.870  28.206  1.00  0.00     0.167 HD
ATOM     46  C   UNL A   1      45.832  31.747  28.555  1.00  0.00     0.031 A 
ATOM     47  C   UNL A   1      43.695  25.180  27.438  1.00  0.00     0.031 A 
ATOM     48  C   UNL A   1      46.839  30.855  28.044  1.00  0.00     0.049 A 
ATOM     49  C   UNL A   1      45.096  25.622  27.109  1.00  0.00     0.074 A 
ATOM     50  C   UNL A   1      48.169  31.127  27.770  1.00  0.00     0.029 A 
ATOM     51  N   UNL A   1      46.632  29.521  27.724  1.00  0.00    -0.354 N 
ATOM     52  N   UNL A   1      45.650  26.799  27.279  1.00  0.00    -0.248 NA
ATOM     53  C   UNL A   1      45.990  24.613  26.524  1.00  0.00     0.031 C 
ATOM     54  C   UNL A   1      48.749  29.974  27.229  1.00  0.00     0.029 A 
ATOM     55  C   UNL A   1      47.800  28.965  27.231  1.00  0.00     0.049 A 
ATOM     56  H   UNL A   1      45.779  29.041  27.832  1.00  0.00     0.167 HD
ATOM     57  C   UNL A   1      46.967  26.663  26.850  1.00  0.00     0.074 A 
ATOM     58  C   UNL A   1      47.128  25.287  26.427  1.00  0.00     0.031 C 
ATOM     59  C   UNL A   1      47.951  27.593  26.812  1.00  0.00     0.031 A 
BRANCH  46  60
ATOM     60  C   UNL A   1      46.206  33.189  28.787  1.00  0.00    -0.014 A 
ATOM     61  C   UNL A   1      46.731  33.615  30.022  1.00  0.00     0.010 A 
ATOM     62  C   UNL A   1      46.074  34.124  27.744  1.00  0.00     0.010 A 
ATOM     63  C   UNL A   1      47.073  34.955  30.222  1.00  0.00     0.020 A 
ATOM     64  C   UNL A   1      46.445  35.458  27.930  1.00  0.00     0.020 A 
ATOM     65  C   UNL A   1      46.926  35.869  29.175  1.00  0.00     0.054 A 
BRANCH  65  66
ATOM     66  S   UNL A   1      47.397  37.597  29.459  1.00  0.00     0.124 S 
ATOM     67  O   UNL A   1      48.722  37.651  28.845  1.00  0.00    -0.237 OA
ATOM     68  O   UNL A   1      46.350  38.334  28.757  1.00  0.00    -0.237 OA
ATOM     69  O   UNL A   1      47.381  37.729  30.914  1.00  0.00    -0.744 OA
ENDBRANCH  65  66
ENDBRANCH  46  60
BRANCH  47  70
ATOM     70  C   UNL A   1      43.249  23.786  27.158  1.00  0.00    -0.014 A 
ATOM     71  C   UNL A   1      43.215  22.825  28.184  1.00  0.00     0.010 A 
ATOM     72  C   UNL A   1      42.845  23.416  25.862  1.00  0.00     0.010 A 
ATOM     73  C   UNL A   1      42.805  21.515  27.915  1.00  0.00     0.020 A 
ATOM     74  C   UNL A   1      42.406  22.116  25.596  1.00  0.00     0.020 A 
ATOM     75  C   UNL A   1      42.399  21.170  26.622  1.00  0.00     0.054 A 
BRANCH  75  76
ATOM     76  S   UNL A   1      41.825  19.478  26.308  1.00  0.00     0.124 S 
ATOM     77  O   UNL A   1      42.169  18.804  27.554  1.00  0.00    -0.237 OA
ATOM     78  O   UNL A   1      40.397  19.672  26.065  1.00  0.00    -0.237 OA
ATOM     79  O   UNL A   1      42.597  19.067  25.138  1.00  0.00    -0.744 OA
ENDBRANCH  75  76
ENDBRANCH  47  70
BRANCH  59  80
ATOM     80  C   UNL A   1      49.309  27.152  26.330  1.00  0.00    -0.014 A 
ATOM     81  C   UNL A   1      50.325  26.786  27.230  1.00  0.00     0.010 A 
ATOM     82  C   UNL A   1      49.553  27.050  24.947  1.00  0.00     0.010 A 
ATOM     83  C   UNL A   1      51.568  26.358  26.757  1.00  0.00     0.020 A 
ATOM     84  C   UNL A   1      50.783  26.593  24.470  1.00  0.00     0.020 A 
ATOM     85  C   UNL A   1      51.789  26.262  25.380  1.00  0.00     0.054 A 
BRANCH  85  86
ATOM     86  S   UNL A   1      53.396  25.660  24.794  1.00  0.00     0.124 S 
ATOM     87  O   UNL A   1      53.251  24.215  24.937  1.00  0.00    -0.237 OA
ATOM     88  O   UNL A   1      53.440  26.154  23.418  1.00  0.00    -0.237 OA
ATOM     89  O   UNL A   1      54.354  26.283  25.703  1.00  0.00    -0.744 OA
ENDBRANCH  85  86
ENDBRANCH  59  80
ENDBRANCH  33  34
ENDBRANCH  25  28
ENDBRANCH  23  24
ENDBRANCH  22  23
ENDBRANCH   1  22
TORSDOF 17
ENDMDL
MODEL 2
REMARK VINA RESULT:     -10.1      5.053      7.185
REMARK SMILES O=C(CSc1nc(-c2cccc(F)c2)n[nH]1)NCCCCNC(=O)c1ccc(-c2c3nc(c(-c4ccc(S(=O)(=O)[O-])cc4)c4ccc([nH]4)c(-c4ccc(S(=O)(=O)[O-])cc4)c4nc(c(-c5ccc(S(=O)(=O)[O-])cc5)c5ccc2[nH]5)C=C4)C=C3)cc1
REMARK SMILES IDX 19 1 18 2 17 3 1 4 2 5 3 7 4 8 5 9 6 10 16 11 7 12 15 13
REMARK SMILES IDX 8 15 9 16 14 17 10 18 12 19 11 20 13 21 20 22 21 23 22 24
REMARK SMILES IDX 23 25 24 27 25 28 26 29 84 30 27 31 83 32 28 33 29 34 30 35
REMARK SMILES IDX 77 36 31 37 82 38 76 39 78 40 32 41 81 42 75 43 74 44 33 46
REMARK SMILES IDX 63 47 44 48 62 49 45 50 48 51 61 52 79 53 46 54 47 55 60 57
REMARK SMILES IDX 80 58 49 59 34 60 35 61 43 62 36 63 42 64 37 65 38 66 39 67
REMARK SMILES IDX 40 68 41 69 64 70 65 71 73 72 66 73 72 74 67 75 68 76 69 77
REMARK SMILES IDX 70 78 71 79 50 80 51 81 59 82 52 83 58 84 53 85 54 86 55 87
REMARK SMILES IDX 56 88 57 89
REMARK H PARENT 17 6 16 14 22 26 78 45 48 56
REMARK Flexibility Score: inf
ROOT
ATOM      1  C   UNL A   1      31.570  29.216  25.861  1.00  0.00     0.023 C 
ENDROOT
BRANCH   1   2
ATOM      2  C   UNL A   1      31.244  29.194  24.370  1.00  0.00     0.116 C 
BRANCH   2   3
ATOM      3  N   UNL A   1      31.372  27.874  23.792  1.00  0.00    -0.355 N 
ATOM      4  O   UNL A   1      29.882  28.211  22.081  1.00  0.00    -0.274 OA
ATOM      5  C   UNL A   1      30.718  27.500  22.636  1.00  0.00     0.230 C 
ATOM      6  H   UNL A   1      31.949  27.215  24.242  1.00  0.00     0.163 HD
BRANCH   5   7
ATOM      7  C   UNL A   1      30.998  26.082  22.162  1.00  0.00     0.178 C 
BRANCH   7   8
ATOM      8  S   UNL A   1      32.612  25.902  21.338  1.00  0.00    -0.077 SA
BRANCH   8   9
ATOM      9  C   UNL A   1      33.306  24.624  22.253  1.00  0.00     0.184 A 
ATOM     10  N   UNL A   1      34.449  24.607  22.886  1.00  0.00    -0.201 NA
ATOM     11  N   UNL A   1      32.672  23.433  22.407  1.00  0.00    -0.254 N 
ATOM     12  C   UNL A   1      34.504  23.328  23.395  1.00  0.00     0.182 A 
ATOM     13  N   UNL A   1      33.436  22.568  23.096  1.00  0.00    -0.153 NA
ATOM     14  H   UNL A   1      31.773  23.231  22.061  1.00  0.00     0.192 HD
BRANCH  12  15
ATOM     15  C   UNL A   1      35.629  22.861  24.188  1.00  0.00     0.024 A 
ATOM     16  C   UNL A   1      36.452  23.782  24.853  1.00  0.00     0.012 A 
ATOM     17  C   UNL A   1      35.902  21.494  24.295  1.00  0.00     0.051 A 
ATOM     18  C   UNL A   1      37.526  23.342  25.631  1.00  0.00     0.004 A 
ATOM     19  C   UNL A   1      36.987  21.068  25.055  1.00  0.00     0.123 A 
ATOM     20  C   UNL A   1      37.796  21.978  25.728  1.00  0.00     0.039 A 
ATOM     21  F   UNL A   1      37.261  19.760  25.139  1.00  0.00    -0.207 F 
ENDBRANCH  12  15
ENDBRANCH   8   9
ENDBRANCH   7   8
ENDBRANCH   5   7
ENDBRANCH   2   3
ENDBRANCH   1   2
BRANCH   1  22
ATOM     22  C   UNL A   1      32.477  28.081  26.346  1.00  0.00     0.023 C 
BRANCH  22  23
ATOM     23  C   UNL A   1      33.620  28.494  27.268  1.00  0.00     0.116 C 
BRANCH  23  24
ATOM     24  N   UNL A   1      33.563  29.894  27.658  1.00  0.00    -0.352 N 
ATOM     25  C   UNL A   1      34.522  30.675  28.260  1.00  0.00     0.251 C 
ATOM     26  H   UNL A   1      32.713  30.349  27.461  1.00  0.00     0.163 HD
ATOM     27  O   UNL A   1      34.233  31.809  28.633  1.00  0.00    -0.269 OA
BRANCH  25  28
ATOM     28  C   UNL A   1      35.886  30.146  28.490  1.00  0.00     0.039 A 
ATOM     29  C   UNL A   1      36.808  30.180  27.441  1.00  0.00     0.014 A 
ATOM     30  C   UNL A   1      36.261  29.618  29.729  1.00  0.00     0.014 A 
ATOM     31  C   UNL A   1      38.123  29.756  27.655  1.00  0.00     0.010 A 
ATOM     32  C   UNL A   1      37.591  29.267  29.962  1.00  0.00     0.010 A 
ATOM     33  C   UNL A   1      38.539  29.335  28.928  1.00  0.00    -0.014 A 
BRANCH  33  34
ATOM     34  C   UNL A   1      39.958  28.980  29.200  1.00  0.00     0.031 A 
ATOM     35  C   UNL A   1      40.903  29.997  29.784  1.00  0.00     0.074 A 
ATOM     36  C   UNL A   1      40.416  27.756  28.864  1.00  0.00     0.049 A 
ATOM     37  N   UNL A   1      42.183  29.887  30.031  1.00  0.00    -0.248 NA
ATOM     38  C   UNL A   1      40.341  31.318  30.111  1.00  0.00     0.031 C 
ATOM     39  C   UNL A   1      39.616  26.690  28.256  1.00  0.00     0.029 A 
ATOM     40  N   UNL A   1      41.668  27.203  28.977  1.00  0.00    -0.354 N 
ATOM     41  C   UNL A   1      42.582  31.122  30.530  1.00  0.00     0.074 A 
ATOM     42  C   UNL A   1      41.420  31.982  30.499  1.00  0.00     0.031 C 
ATOM     43  C   UNL A   1      40.390  25.607  28.074  1.00  0.00     0.029 A 
ATOM     44  C   UNL A   1      41.749  25.914  28.508  1.00  0.00     0.049 A 
ATOM     45  H   UNL A   1      42.437  27.687  29.358  1.00  0.00     0.167 HD
ATOM     46  C   UNL A   1      43.799  31.500  30.991  1.00  0.00     0.031 A 
ATOM     47  C   UNL A   1      42.798  25.071  28.422  1.00  0.00     0.031 A 
ATOM     48  C   UNL A   1      44.954  30.642  31.023  1.00  0.00     0.049 A 
ATOM     49  C   UNL A   1      44.146  25.523  28.916  1.00  0.00     0.074 A 
ATOM     50  C   UNL A   1      46.218  30.921  31.515  1.00  0.00     0.029 A 
ATOM     51  N   UNL A   1      44.992  29.341  30.543  1.00  0.00    -0.354 N 
ATOM     52  N   UNL A   1      44.486  26.676  29.442  1.00  0.00    -0.248 NA
ATOM     53  C   UNL A   1      45.248  24.556  28.818  1.00  0.00     0.031 C 
ATOM     54  C   UNL A   1      47.035  29.811  31.277  1.00  0.00     0.029 A 
ATOM     55  C   UNL A   1      46.263  28.815  30.701  1.00  0.00     0.049 A 
ATOM     56  H   UNL A   1      44.228  28.863  30.147  1.00  0.00     0.167 HD
ATOM     57  C   UNL A   1      45.835  26.562  29.764  1.00  0.00     0.074 A 
ATOM     58  C   UNL A   1      46.242  25.223  29.388  1.00  0.00     0.031 C 
ATOM     59  C   UNL A   1      46.659  27.481  30.322  1.00  0.00     0.031 A 
BRANCH  46  60
ATOM     60  C   UNL A   1      43.945  32.914  31.494  1.00  0.00    -0.014 A 
ATOM     61  C   UNL A   1      43.844  33.213  32.866  1.00  0.00     0.010 A 
ATOM     62  C   UNL A   1      44.231  33.954  30.590  1.00  0.00     0.010 A 
ATOM     63  C   UNL A   1      43.981  34.528  33.317  1.00  0.00     0.020 A 
ATOM     64  C   UNL A   1      44.401  35.265  31.041  1.00  0.00     0.020 A 
ATOM     65  C   UNL A   1      44.257  35.547  32.401  1.00  0.00     0.054 A 
BRANCH  65  66
ATOM     66  S   UNL A   1      44.450  37.241  33.019  1.00  0.00     0.124 S 
ATOM     67  O   UNL A   1      45.714  37.152  33.748  1.00  0.00    -0.237 OA
ATOM     68  O   UNL A   1      44.489  38.028  31.789  1.00  0.00    -0.237 OA
ATOM     69  O   UNL A   1      43.266  37.446  33.850  1.00  0.00    -0.744 OA
ENDBRANCH  65  66
ENDBRANCH  46  60
BRANCH  47  70
ATOM     70  C   UNL A   1      42.614  23.710  27.844  1.00  0.00    -0.014 A 
ATOM     71  C   UNL A   1      42.255  22.625  28.664  1.00  0.00     0.010 A 
ATOM     72  C   UNL A   1      42.789  23.494  26.465  1.00  0.00     0.010 A 
ATOM     73  C   UNL A   1      42.094  21.348  28.120  1.00  0.00     0.020 A 
ATOM     74  C   UNL A   1      42.598  22.225  25.912  1.00  0.00     0.020 A 
ATOM     75  C   UNL A   1      42.263  21.156  26.745  1.00  0.00     0.054 A 
BRANCH  75  76
ATOM     76  S   UNL A   1      42.000  19.500  26.053  1.00  0.00     0.124 S 
ATOM     77  O   UNL A   1      40.557  19.488  25.834  1.00  0.00    -0.237 OA
ATOM     78  O   UNL A   1      42.825  19.529  24.848  1.00  0.00    -0.237 OA
ATOM     79  O   UNL A   1      42.481  18.609  27.107  1.00  0.00    -0.744 OA
ENDBRANCH  75  76
ENDBRANCH  47  70
BRANCH  59  80
ATOM     80  C   UNL A   1      48.081  27.066  30.599  1.00  0.00    -0.014 A 
ATOM     81  C   UNL A   1      49.110  27.309  29.672  1.00  0.00     0.010 A 
ATOM     82  C   UNL A   1      48.401  26.471  31.834  1.00  0.00     0.010 A 
ATOM     83  C   UNL A   1      50.425  26.936  29.962  1.00  0.00     0.020 A 
ATOM     84  C   UNL A   1      49.718  26.125  32.140  1.00  0.00     0.020 A 
ATOM     85  C   UNL A   1      50.722  26.347  31.195  1.00  0.00     0.054 A 
BRANCH  85  86
ATOM     86  S   UNL A   1      52.444  25.914  31.564  1.00  0.00     0.124 S 
ATOM     87  O   UNL A   1      53.089  26.102  30.268  1.00  0.00    -0.237 OA
ATOM     88  O   UNL A   1      52.804  26.886  32.594  1.00  0.00    -0.237 OA
ATOM     89  O   UNL A   1      52.363  24.530  32.025  1.00  0.00    -0.744 OA
ENDBRANCH  85  86
ENDBRANCH  59  80
ENDBRANCH  33  34
ENDBRANCH  25  28
ENDBRANCH  23  24
ENDBRANCH  22  23
ENDBRANCH   1  22
TORSDOF 17
ENDMDL
MODEL 3
REMARK VINA RESULT:     -10.1      3.828      5.216
REMARK SMILES O=C(CSc1nc(-c2cccc(F)c2)n[nH]1)NCCCCNC(=O)c1ccc(-c2c3nc(c(-c4ccc(S(=O)(=O)[O-])cc4)c4ccc([nH]4)c(-c4ccc(S(=O)(=O)[O-])cc4)c4nc(c(-c5ccc(S(=O)(=O)[O-])cc5)c5ccc2[nH]5)C=C4)C=C3)cc1
REMARK SMILES IDX 19 1 18 2 17 3 1 4 2 5 3 7 4 8 5 9 6 10 16 11 7 12 15 13
REMARK SMILES IDX 8 15 9 16 14 17 10 18 12 19 11 20 13 21 20 22 21 23 22 24
REMARK SMILES IDX 23 25 24 27 25 28 26 29 84 30 27 31 83 32 28 33 29 34 30 35
REMARK SMILES IDX 77 36 31 37 82 38 76 39 78 40 32 41 81 42 75 43 74 44 33 46
REMARK SMILES IDX 63 47 44 48 62 49 45 50 48 51 61 52 79 53 46 54 47 55 60 57
REMARK SMILES IDX 80 58 49 59 34 60 35 61 43 62 36 63 42 64 37 65 38 66 39 67
REMARK SMILES IDX 40 68 41 69 64 70 65 71 73 72 66 73 72 74 67 75 68 76 69 77
REMARK SMILES IDX 70 78 71 79 50 80 51 81 59 82 52 83 58 84 53 85 54 86 55 87
REMARK SMILES IDX 56 88 57 89
REMARK H PARENT 17 6 16 14 22 26 78 45 48 56
REMARK Flexibility Score: inf
ROOT
ATOM      1  C   UNL A   1      35.473  32.915  30.391  1.00  0.00     0.023 C 
ENDROOT
BRANCH   1   2
ATOM      2  C   UNL A   1      35.020  32.412  31.759  1.00  0.00     0.116 C 
BRANCH   2   3
ATOM      3  N   UNL A   1      36.041  31.642  32.434  1.00  0.00    -0.355 N 
ATOM      4  O   UNL A   1      36.577  33.249  33.981  1.00  0.00    -0.274 OA
ATOM      5  C   UNL A   1      36.707  32.104  33.551  1.00  0.00     0.230 C 
ATOM      6  H   UNL A   1      36.272  30.751  32.083  1.00  0.00     0.163 HD
BRANCH   5   7
ATOM      7  C   UNL A   1      37.726  31.142  34.143  1.00  0.00     0.178 C 
BRANCH   7   8
ATOM      8  S   UNL A   1      39.434  31.773  34.079  1.00  0.00    -0.077 SA
BRANCH   8   9
ATOM      9  C   UNL A   1      40.322  30.303  34.013  1.00  0.00     0.184 A 
ATOM     10  N   UNL A   1      41.601  30.119  34.206  1.00  0.00    -0.201 NA
ATOM     11  N   UNL A   1      39.719  29.119  33.733  1.00  0.00    -0.254 N 
ATOM     12  C   UNL A   1      41.758  28.768  33.983  1.00  0.00     0.182 A 
ATOM     13  N   UNL A   1      40.622  28.125  33.662  1.00  0.00    -0.153 NA
ATOM     14  H   UNL A   1      38.751  29.004  33.601  1.00  0.00     0.192 HD
BRANCH  12  15
ATOM     15  C   UNL A   1      43.052  28.114  34.092  1.00  0.00     0.024 A 
ATOM     16  C   UNL A   1      44.081  28.710  34.835  1.00  0.00     0.012 A 
ATOM     17  C   UNL A   1      43.282  26.887  33.460  1.00  0.00     0.051 A 
ATOM     18  C   UNL A   1      45.322  28.079  34.960  1.00  0.00     0.004 A 
ATOM     19  C   UNL A   1      44.528  26.280  33.573  1.00  0.00     0.123 A 
ATOM     20  C   UNL A   1      45.547  26.861  34.321  1.00  0.00     0.039 A 
ATOM     21  F   UNL A   1      44.754  25.117  32.948  1.00  0.00    -0.207 F 
ENDBRANCH  12  15
ENDBRANCH   8   9
ENDBRANCH   7   8
ENDBRANCH   5   7
ENDBRANCH   2   3
ENDBRANCH   1   2
BRANCH   1  22
ATOM     22  C   UNL A   1      34.349  33.142  29.375  1.00  0.00     0.023 C 
BRANCH  22  23
ATOM     23  C   UNL A   1      34.592  32.574  27.981  1.00  0.00     0.116 C 
BRANCH  23  24
ATOM     24  N   UNL A   1      33.962  31.280  27.772  1.00  0.00    -0.352 N 
ATOM     25  C   UNL A   1      34.517  30.022  27.796  1.00  0.00     0.251 C 
ATOM     26  H   UNL A   1      32.996  31.310  27.586  1.00  0.00     0.163 HD
ATOM     27  O   UNL A   1      33.839  29.053  27.462  1.00  0.00    -0.269 OA
BRANCH  25  28
ATOM     28  C   UNL A   1      35.932  29.832  28.191  1.00  0.00     0.039 A 
ATOM     29  C   UNL A   1      36.218  29.425  29.497  1.00  0.00     0.014 A 
ATOM     30  C   UNL A   1      36.974  30.051  27.286  1.00  0.00     0.014 A 
ATOM     31  C   UNL A   1      37.540  29.167  29.872  1.00  0.00     0.010 A 
ATOM     32  C   UNL A   1      38.283  29.721  27.639  1.00  0.00     0.010 A 
ATOM     33  C   UNL A   1      38.580  29.271  28.935  1.00  0.00    -0.014 A 
BRANCH  33  34
ATOM     34  C   UNL A   1      39.979  28.900  29.287  1.00  0.00     0.031 A 
ATOM     35  C   UNL A   1      40.882  29.889  29.975  1.00  0.00     0.074 A 
ATOM     36  C   UNL A   1      40.458  27.690  28.932  1.00  0.00     0.049 A 
ATOM     37  N   UNL A   1      42.143  29.765  30.302  1.00  0.00    -0.248 NA
ATOM     38  C   UNL A   1      40.300  31.197  30.318  1.00  0.00     0.031 C 
ATOM     39  C   UNL A   1      39.700  26.652  28.228  1.00  0.00     0.029 A 
ATOM     40  N   UNL A   1      41.699  27.130  29.105  1.00  0.00    -0.354 N 
ATOM     41  C   UNL A   1      42.508  30.977  30.878  1.00  0.00     0.074 A 
ATOM     42  C   UNL A   1      41.351  31.842  30.805  1.00  0.00     0.031 C 
ATOM     43  C   UNL A   1      40.484  25.576  28.054  1.00  0.00     0.029 A 
ATOM     44  C   UNL A   1      41.811  25.860  28.590  1.00  0.00     0.049 A 
ATOM     45  H   UNL A   1      42.441  27.595  29.558  1.00  0.00     0.167 HD
ATOM     46  C   UNL A   1      43.691  31.333  31.435  1.00  0.00     0.031 A 
ATOM     47  C   UNL A   1      42.863  25.019  28.540  1.00  0.00     0.031 A 
ATOM     48  C   UNL A   1      44.841  30.470  31.509  1.00  0.00     0.049 A 
ATOM     49  C   UNL A   1      44.175  25.446  29.142  1.00  0.00     0.074 A 
ATOM     50  C   UNL A   1      46.070  30.725  32.096  1.00  0.00     0.029 A 
ATOM     51  N   UNL A   1      44.911  29.191  30.978  1.00  0.00    -0.354 N 
ATOM     52  N   UNL A   1      44.479  26.575  29.736  1.00  0.00    -0.248 NA
ATOM     53  C   UNL A   1      45.281  24.480  29.078  1.00  0.00     0.031 C 
ATOM     54  C   UNL A   1      46.900  29.623  31.867  1.00  0.00     0.029 A 
ATOM     55  C   UNL A   1      46.168  28.654  31.200  1.00  0.00     0.049 A 
ATOM     56  H   UNL A   1      44.175  28.732  30.513  1.00  0.00     0.167 HD
ATOM     57  C   UNL A   1      45.804  26.443  30.144  1.00  0.00     0.074 A 
ATOM     58  C   UNL A   1      46.235  25.120  29.741  1.00  0.00     0.031 C 
ATOM     59  C   UNL A   1      46.589  27.336  30.793  1.00  0.00     0.031 A 
BRANCH  46  60
ATOM     60  C   UNL A   1      43.803  32.724  32.005  1.00  0.00    -0.014 A 
ATOM     61  C   UNL A   1      44.187  33.812  31.198  1.00  0.00     0.010 A 
ATOM     62  C   UNL A   1      43.478  32.958  33.353  1.00  0.00     0.010 A 
ATOM     63  C   UNL A   1      44.287  35.096  31.740  1.00  0.00     0.020 A 
ATOM     64  C   UNL A   1      43.546  34.246  33.892  1.00  0.00     0.020 A 
ATOM     65  C   UNL A   1      43.968  35.305  33.085  1.00  0.00     0.054 A 
BRANCH  65  66
ATOM     66  S   UNL A   1      44.087  36.986  33.755  1.00  0.00     0.124 S 
ATOM     67  O   UNL A   1      43.723  37.797  32.594  1.00  0.00    -0.237 OA
ATOM     68  O   UNL A   1      43.109  36.968  34.840  1.00  0.00    -0.237 OA
ATOM     69  O   UNL A   1      45.481  37.095  34.176  1.00  0.00    -0.744 OA
ENDBRANCH  65  66
ENDBRANCH  46  60
BRANCH  47  70
ATOM     70  C   UNL A   1      42.718  23.683  27.895  1.00  0.00    -0.014 A 
ATOM     71  C   UNL A   1      43.080  23.493  26.550  1.00  0.00     0.010 A 
ATOM     72  C   UNL A   1      42.224  22.589  28.630  1.00  0.00     0.010 A 
ATOM     73  C   UNL A   1      42.932  22.240  25.946  1.00  0.00     0.020 A 
ATOM     74  C   UNL A   1      42.105  21.328  28.039  1.00  0.00     0.020 A 
ATOM     75  C   UNL A   1      42.449  21.164  26.696  1.00  0.00     0.054 A 
BRANCH  75  76
ATOM     76  S   UNL A   1      42.313  19.537  25.906  1.00  0.00     0.124 S 
ATOM     77  O   UNL A   1      40.916  19.519  25.485  1.00  0.00    -0.237 OA
ATOM     78  O   UNL A   1      43.299  19.626  24.832  1.00  0.00    -0.237 OA
ATOM     79  O   UNL A   1      42.655  18.607  26.979  1.00  0.00    -0.744 OA
ENDBRANCH  75  76
ENDBRANCH  47  70
BRANCH  59  80
ATOM     80  C   UNL A   1      47.989  26.906  31.147  1.00  0.00    -0.014 A 
ATOM     81  C   UNL A   1      48.274  26.263  32.364  1.00  0.00     0.010 A 
ATOM     82  C   UNL A   1      49.028  27.101  30.217  1.00  0.00     0.010 A 
ATOM     83  C   UNL A   1      49.577  25.852  32.658  1.00  0.00     0.020 A 
ATOM     84  C   UNL A   1      50.325  26.664  30.494  1.00  0.00     0.020 A 
ATOM     85  C   UNL A   1      50.595  26.054  31.721  1.00  0.00     0.054 A 
BRANCH  85  86
ATOM     86  S   UNL A   1      52.268  25.471  32.109  1.00  0.00     0.124 S 
ATOM     87  O   UNL A   1      53.017  25.890  30.928  1.00  0.00    -0.237 OA
ATOM     88  O   UNL A   1      52.579  26.193  33.341  1.00  0.00    -0.237 OA
ATOM     89  O   UNL A   1      52.106  24.027  32.264  1.00  0.00    -0.744 OA
ENDBRANCH  85  86
ENDBRANCH  59  80
ENDBRANCH  33  34
ENDBRANCH  25  28
ENDBRANCH  23  24
ENDBRANCH  22  23
ENDBRANCH   1  22
TORSDOF 17
ENDMDL
