MODEL 1
REMARK VINA RESULT:     -12.5      0.000      0.000
REMARK SMILES O=C(NCCCCNC(=O)[C@H]1C[C@H]2CCCC[C@@H]2[N@@H+]1CCn1ccnc1)c1ccc(-c2c3nc(c(-c4ccc(S(=O)(=O)[O-])cc4)c4ccc([nH]4)c(-c4ccc(S(=O)(=O)[O-])cc4)c4nc(c(-c5ccc(S(=O)(=O)[O-])cc5)c5ccc2[nH]5)C=C4)C=C3)cc1
REMARK SMILES IDX 5 1 4 2 3 3 1 4 2 5 27 7 28 8 86 9 29 10 85 11 30 12 31 13
REMARK SMILES IDX 32 14 79 15 33 16 84 17 78 18 80 19 34 20 83 21 77 22 76 23
REMARK SMILES IDX 35 25 65 26 46 27 64 28 47 29 50 30 63 31 81 32 48 33 49 34
REMARK SMILES IDX 62 36 82 37 51 38 36 39 37 40 45 41 38 42 44 43 39 44 40 45
REMARK SMILES IDX 41 46 42 47 43 48 66 49 67 50 75 51 68 52 74 53 69 54 70 55
REMARK SMILES IDX 71 56 72 57 73 58 52 59 53 60 61 61 54 62 60 63 55 64 56 65
REMARK SMILES IDX 57 66 58 67 59 68 6 69 7 70 8 71 9 72 10 74 11 75 12 76
REMARK SMILES IDX 19 77 13 78 18 79 14 81 17 82 15 83 16 84 20 85 21 86 22 87
REMARK SMILES IDX 23 88 26 89 24 90 25 91
REMARK H PARENT 3 6 80 24 50 35 8 73 19 80
REMARK Flexibility Score: inf
ROOT
ATOM      1  C   UNL A   1      32.723  28.581  27.233  1.00  0.00     0.023 C 
ENDROOT
BRANCH   1   2
ATOM      2  C   UNL A   1      32.941  29.859  26.422  1.00  0.00     0.116 C 
BRANCH   2   3
ATOM      3  N   UNL A   1      33.083  31.065  27.211  1.00  0.00    -0.352 N 
ATOM      4  O   UNL A   1      33.901  32.850  28.211  1.00  0.00    -0.269 OA
ATOM      5  C   UNL A   1      34.143  31.720  27.777  1.00  0.00     0.251 C 
ATOM      6  H   UNL A   1      32.224  31.515  27.377  1.00  0.00     0.163 HD
BRANCH   5   7
ATOM      7  C   UNL A   1      35.507  31.151  27.965  1.00  0.00     0.039 A 
ATOM      8  C   UNL A   1      35.867  29.815  27.786  1.00  0.00     0.014 A 
ATOM      9  C   UNL A   1      36.489  32.055  28.416  1.00  0.00     0.014 A 
ATOM     10  C   UNL A   1      37.136  29.371  28.147  1.00  0.00     0.010 A 
ATOM     11  C   UNL A   1      37.763  31.621  28.761  1.00  0.00     0.010 A 
ATOM     12  C   UNL A   1      38.071  30.268  28.665  1.00  0.00    -0.014 A 
BRANCH  12  13
ATOM     13  C   UNL A   1      39.409  29.770  28.971  1.00  0.00     0.031 A 
ATOM     14  C   UNL A   1      39.758  29.759  30.419  1.00  0.00     0.074 A 
ATOM     15  C   UNL A   1      40.222  29.211  28.053  1.00  0.00     0.049 A 
ATOM     16  N   UNL A   1      40.694  30.415  31.026  1.00  0.00    -0.248 NA
ATOM     17  C   UNL A   1      38.879  28.999  31.322  1.00  0.00     0.031 C 
ATOM     18  C   UNL A   1      39.902  28.872  26.664  1.00  0.00     0.029 A 
ATOM     19  N   UNL A   1      41.480  28.710  28.211  1.00  0.00    -0.354 N 
ATOM     20  C   UNL A   1      40.656  29.994  32.354  1.00  0.00     0.074 A 
ATOM     21  C   UNL A   1      39.429  29.255  32.508  1.00  0.00     0.031 C 
ATOM     22  C   UNL A   1      40.837  28.017  26.190  1.00  0.00     0.029 A 
ATOM     23  C   UNL A   1      41.882  27.857  27.189  1.00  0.00     0.049 A 
ATOM     24  H   UNL A   1      42.053  28.931  28.982  1.00  0.00     0.167 HD
ATOM     25  C   UNL A   1      41.740  30.085  33.177  1.00  0.00     0.031 A 
ATOM     26  C   UNL A   1      42.951  27.022  27.197  1.00  0.00     0.031 A 
ATOM     27  C   UNL A   1      42.742  30.974  32.652  1.00  0.00     0.049 A 
ATOM     28  C   UNL A   1      43.887  27.500  28.242  1.00  0.00     0.074 A 
ATOM     29  C   UNL A   1      42.787  32.310  32.308  1.00  0.00     0.029 A 
ATOM     30  N   UNL A   1      43.849  30.399  32.076  1.00  0.00    -0.354 N 
ATOM     31  N   UNL A   1      44.539  28.626  28.165  1.00  0.00    -0.248 NA
ATOM     32  C   UNL A   1      43.790  26.925  29.574  1.00  0.00     0.031 C 
ATOM     33  C   UNL A   1      43.642  32.370  31.169  1.00  0.00     0.029 A 
ATOM     34  C   UNL A   1      44.106  31.077  30.917  1.00  0.00     0.049 A 
ATOM     35  H   UNL A   1      44.364  29.639  32.433  1.00  0.00     0.167 HD
ATOM     36  C   UNL A   1      44.560  29.113  29.464  1.00  0.00     0.074 A 
ATOM     37  C   UNL A   1      44.180  27.975  30.300  1.00  0.00     0.031 C 
ATOM     38  C   UNL A   1      44.617  30.454  29.715  1.00  0.00     0.031 A 
BRANCH  25  39
ATOM     39  C   UNL A   1      42.080  29.049  34.229  1.00  0.00    -0.014 A 
ATOM     40  C   UNL A   1      42.492  27.768  33.805  1.00  0.00     0.010 A 
ATOM     41  C   UNL A   1      41.709  29.181  35.583  1.00  0.00     0.010 A 
ATOM     42  C   UNL A   1      42.412  26.657  34.656  1.00  0.00     0.020 A 
ATOM     43  C   UNL A   1      41.672  28.089  36.453  1.00  0.00     0.020 A 
ATOM     44  C   UNL A   1      41.974  26.825  35.968  1.00  0.00     0.054 A 
BRANCH  44  45
ATOM     45  S   UNL A   1      41.711  25.369  37.009  1.00  0.00     0.124 S 
ATOM     46  O   UNL A   1      41.535  24.320  36.011  1.00  0.00    -0.237 OA
ATOM     47  O   UNL A   1      42.948  25.312  37.781  1.00  0.00    -0.237 OA
ATOM     48  O   UNL A   1      40.516  25.712  37.778  1.00  0.00    -0.744 OA
ENDBRANCH  44  45
ENDBRANCH  25  39
BRANCH  26  49
ATOM     49  C   UNL A   1      43.055  25.670  26.588  1.00  0.00    -0.014 A 
ATOM     50  C   UNL A   1      43.391  25.504  25.231  1.00  0.00     0.010 A 
ATOM     51  C   UNL A   1      43.097  24.529  27.415  1.00  0.00     0.010 A 
ATOM     52  C   UNL A   1      43.810  24.256  24.736  1.00  0.00     0.020 A 
ATOM     53  C   UNL A   1      43.504  23.282  26.929  1.00  0.00     0.020 A 
ATOM     54  C   UNL A   1      43.882  23.156  25.596  1.00  0.00     0.054 A 
BRANCH  54  55
ATOM     55  S   UNL A   1      44.592  21.593  24.997  1.00  0.00     0.124 S 
ATOM     56  O   UNL A   1      43.579  20.619  25.395  1.00  0.00    -0.237 OA
ATOM     57  O   UNL A   1      44.715  21.826  23.561  1.00  0.00    -0.237 OA
ATOM     58  O   UNL A   1      45.861  21.494  25.716  1.00  0.00    -0.744 OA
ENDBRANCH  54  55
ENDBRANCH  26  49
BRANCH  38  59
ATOM     59  C   UNL A   1      44.988  31.387  28.588  1.00  0.00    -0.014 A 
ATOM     60  C   UNL A   1      44.087  31.808  27.592  1.00  0.00     0.010 A 
ATOM     61  C   UNL A   1      46.262  31.983  28.639  1.00  0.00     0.010 A 
ATOM     62  C   UNL A   1      44.461  32.786  26.658  1.00  0.00     0.020 A 
ATOM     63  C   UNL A   1      46.633  32.970  27.724  1.00  0.00     0.020 A 
ATOM     64  C   UNL A   1      45.733  33.363  26.733  1.00  0.00     0.054 A 
BRANCH  64  65
ATOM     65  S   UNL A   1      46.192  34.672  25.565  1.00  0.00     0.124 S 
ATOM     66  O   UNL A   1      47.621  34.428  25.362  1.00  0.00    -0.237 OA
ATOM     67  O   UNL A   1      45.340  34.388  24.409  1.00  0.00    -0.237 OA
ATOM     68  O   UNL A   1      45.870  35.904  26.273  1.00  0.00    -0.744 OA
ENDBRANCH  64  65
ENDBRANCH  38  59
ENDBRANCH  12  13
ENDBRANCH   5   7
ENDBRANCH   2   3
ENDBRANCH   1   2
BRANCH   1  69
ATOM     69  C   UNL A   1      31.498  27.747  26.847  1.00  0.00     0.023 C 
BRANCH  69  70
ATOM     70  C   UNL A   1      31.787  26.408  26.176  1.00  0.00     0.116 C 
BRANCH  70  71
ATOM     71  N   UNL A   1      30.941  25.341  26.674  1.00  0.00    -0.351 N 
ATOM     72  C   UNL A   1      31.191  24.004  26.789  1.00  0.00     0.278 C 
ATOM     73  H   UNL A   1      30.048  25.625  26.975  1.00  0.00     0.163 HD
ATOM     74  O   UNL A   1      30.325  23.311  27.329  1.00  0.00    -0.268 OA
BRANCH  72  75
ATOM     75  C   UNL A   1      32.513  23.413  26.247  1.00  0.00     0.274 C 
ATOM     76  C   UNL A   1      32.760  21.999  26.819  1.00  0.00     0.085 C 
ATOM     77  N   UNL A   1      32.389  23.242  24.770  1.00  0.00    -0.321 N 
ATOM     78  C   UNL A   1      33.093  21.181  25.588  1.00  0.00     0.054 C 
ATOM     79  C   UNL A   1      32.192  21.806  24.539  1.00  0.00     0.188 C 
ATOM     80  H   UNL A   1      31.572  23.730  24.405  1.00  0.00     0.349 HD
ATOM     81  C   UNL A   1      32.925  19.676  25.669  1.00  0.00     0.010 C 
ATOM     82  C   UNL A   1      32.362  21.197  23.150  1.00  0.00     0.065 C 
ATOM     83  C   UNL A   1      33.234  19.072  24.296  1.00  0.00     0.001 C 
ATOM     84  C   UNL A   1      32.354  19.664  23.189  1.00  0.00     0.006 C 
BRANCH  77  85
ATOM     85  C   UNL A   1      33.341  23.987  23.937  1.00  0.00     0.285 C 
BRANCH  85  86
ATOM     86  C   UNL A   1      34.670  24.567  24.489  1.00  0.00     0.184 C 
BRANCH  86  87
ATOM     87  N   UNL A   1      35.791  23.666  24.646  1.00  0.00    -0.332 N 
ATOM     88  C   UNL A   1      36.841  23.790  25.512  1.00  0.00     0.107 A 
ATOM     89  C   UNL A   1      35.948  22.471  23.997  1.00  0.00     0.199 A 
ATOM     90  C   UNL A   1      37.674  22.736  25.217  1.00  0.00     0.130 A 
ATOM     91  N   UNL A   1      37.101  21.911  24.286  1.00  0.00    -0.245 NA
ENDBRANCH  86  87
ENDBRANCH  85  86
ENDBRANCH  77  85
ENDBRANCH  72  75
ENDBRANCH  70  71
ENDBRANCH  69  70
ENDBRANCH   1  69
TORSDOF 17
ENDMDL
MODEL 2
REMARK VINA RESULT:     -12.5      1.069      1.883
REMARK SMILES O=C(NCCCCNC(=O)[C@H]1C[C@H]2CCCC[C@@H]2[N@@H+]1CCn1ccnc1)c1ccc(-c2c3nc(c(-c4ccc(S(=O)(=O)[O-])cc4)c4ccc([nH]4)c(-c4ccc(S(=O)(=O)[O-])cc4)c4nc(c(-c5ccc(S(=O)(=O)[O-])cc5)c5ccc2[nH]5)C=C4)C=C3)cc1
REMARK SMILES IDX 5 1 4 2 3 3 1 4 2 5 27 7 28 8 86 9 29 10 85 11 30 12 31 13
REMARK SMILES IDX 32 14 79 15 33 16 84 17 78 18 80 19 34 20 83 21 77 22 76 23
REMARK SMILES IDX 35 25 65 26 46 27 64 28 47 29 50 30 63 31 81 32 48 33 49 34
REMARK SMILES IDX 62 36 82 37 51 38 36 39 37 40 45 41 38 42 44 43 39 44 40 45
REMARK SMILES IDX 41 46 42 47 43 48 66 49 67 50 75 51 68 52 74 53 69 54 70 55
REMARK SMILES IDX 71 56 72 57 73 58 52 59 53 60 61 61 54 62 60 63 55 64 56 65
REMARK SMILES IDX 57 66 58 67 59 68 6 69 7 70 8 71 9 72 10 74 11 75 12 76
REMARK SMILES IDX 19 77 13 78 18 79 14 81 17 82 15 83 16 84 20 85 21 86 22 87
REMARK SMILES IDX 23 88 26 89 24 90 25 91
REMARK H PARENT 3 6 80 24 50 35 8 73 19 80
REMARK Flexibility Score: inf
ROOT
ATOM      1  C   UNL A   1      32.338  28.669  27.256  1.00  0.00     0.023 C 
ENDROOT
BRANCH   1   2
ATOM      2  C   UNL A   1      32.980  29.856  26.536  1.00  0.00     0.116 C 
BRANCH   2   3
ATOM      3  N   UNL A   1      33.129  31.049  27.342  1.00  0.00    -0.352 N 
ATOM      4  O   UNL A   1      33.955  32.821  28.359  1.00  0.00    -0.269 OA
ATOM      5  C   UNL A   1      34.194  31.699  27.904  1.00  0.00     0.251 C 
ATOM      6  H   UNL A   1      32.271  31.494  27.527  1.00  0.00     0.163 HD
BRANCH   5   7
ATOM      7  C   UNL A   1      35.563  31.133  28.063  1.00  0.00     0.039 A 
ATOM      8  C   UNL A   1      35.919  29.795  27.889  1.00  0.00     0.014 A 
ATOM      9  C   UNL A   1      36.555  32.041  28.482  1.00  0.00     0.014 A 
ATOM     10  C   UNL A   1      37.197  29.355  28.223  1.00  0.00     0.010 A 
ATOM     11  C   UNL A   1      37.838  31.611  28.800  1.00  0.00     0.010 A 
ATOM     12  C   UNL A   1      38.144  30.257  28.709  1.00  0.00    -0.014 A 
BRANCH  12  13
ATOM     13  C   UNL A   1      39.488  29.762  28.986  1.00  0.00     0.031 A 
ATOM     14  C   UNL A   1      39.857  29.722  30.429  1.00  0.00     0.074 A 
ATOM     15  C   UNL A   1      40.294  29.229  28.046  1.00  0.00     0.049 A 
ATOM     16  N   UNL A   1      40.796  30.371  31.038  1.00  0.00    -0.248 NA
ATOM     17  C   UNL A   1      38.995  28.936  31.327  1.00  0.00     0.031 C 
ATOM     18  C   UNL A   1      39.958  28.918  26.654  1.00  0.00     0.029 A 
ATOM     19  N   UNL A   1      41.558  28.733  28.177  1.00  0.00    -0.354 N 
ATOM     20  C   UNL A   1      40.778  29.922  32.358  1.00  0.00     0.074 A 
ATOM     21  C   UNL A   1      39.558  29.171  32.511  1.00  0.00     0.031 C 
ATOM     22  C   UNL A   1      40.893  28.080  26.150  1.00  0.00     0.029 A 
ATOM     23  C   UNL A   1      41.951  27.906  27.132  1.00  0.00     0.049 A 
ATOM     24  H   UNL A   1      42.138  28.942  28.945  1.00  0.00     0.167 HD
ATOM     25  C   UNL A   1      41.872  30.003  33.168  1.00  0.00     0.031 A 
ATOM     26  C   UNL A   1      43.026  27.079  27.108  1.00  0.00     0.031 A 
ATOM     27  C   UNL A   1      42.861  30.910  32.649  1.00  0.00     0.049 A 
ATOM     28  C   UNL A   1      43.973  27.541  28.150  1.00  0.00     0.074 A 
ATOM     29  C   UNL A   1      42.892  32.254  32.334  1.00  0.00     0.029 A 
ATOM     30  N   UNL A   1      43.965  30.356  32.047  1.00  0.00    -0.354 N 
ATOM     31  N   UNL A   1      44.616  28.673  28.090  1.00  0.00    -0.248 NA
ATOM     32  C   UNL A   1      43.897  26.937  29.471  1.00  0.00     0.031 C 
ATOM     33  C   UNL A   1      43.732  32.344  31.186  1.00  0.00     0.029 A 
ATOM     34  C   UNL A   1      44.202  31.061  30.899  1.00  0.00     0.049 A 
ATOM     35  H   UNL A   1      44.489  29.592  32.381  1.00  0.00     0.167 HD
ATOM     36  C   UNL A   1      44.651  29.132  29.399  1.00  0.00     0.074 A 
ATOM     37  C   UNL A   1      44.290  27.974  30.214  1.00  0.00     0.031 C 
ATOM     38  C   UNL A   1      44.701  30.468  29.678  1.00  0.00     0.031 A 
BRANCH  25  39
ATOM     39  C   UNL A   1      42.233  28.947  34.193  1.00  0.00    -0.014 A 
ATOM     40  C   UNL A   1      42.780  27.727  33.740  1.00  0.00     0.010 A 
ATOM     41  C   UNL A   1      41.768  28.979  35.523  1.00  0.00     0.010 A 
ATOM     42  C   UNL A   1      42.742  26.572  34.533  1.00  0.00     0.020 A 
ATOM     43  C   UNL A   1      41.771  27.846  36.339  1.00  0.00     0.020 A 
ATOM     44  C   UNL A   1      42.210  26.637  35.819  1.00  0.00     0.054 A 
BRANCH  44  45
ATOM     45  S   UNL A   1      42.008  25.113  36.774  1.00  0.00     0.124 S 
ATOM     46  O   UNL A   1      43.277  25.043  37.490  1.00  0.00    -0.237 OA
ATOM     47  O   UNL A   1      40.833  25.411  37.587  1.00  0.00    -0.237 OA
ATOM     48  O   UNL A   1      41.808  24.092  35.747  1.00  0.00    -0.744 OA
ENDBRANCH  44  45
ENDBRANCH  25  39
BRANCH  26  49
ATOM     49  C   UNL A   1      43.132  25.742  26.469  1.00  0.00    -0.014 A 
ATOM     50  C   UNL A   1      43.891  25.549  25.298  1.00  0.00     0.010 A 
ATOM     51  C   UNL A   1      42.712  24.593  27.170  1.00  0.00     0.010 A 
ATOM     52  C   UNL A   1      44.263  24.258  24.880  1.00  0.00     0.020 A 
ATOM     53  C   UNL A   1      43.071  23.305  26.756  1.00  0.00     0.020 A 
ATOM     54  C   UNL A   1      43.866  23.145  25.626  1.00  0.00     0.054 A 
BRANCH  54  55
ATOM     55  S   UNL A   1      44.496  21.497  25.186  1.00  0.00     0.124 S 
ATOM     56  O   UNL A   1      44.465  21.532  23.727  1.00  0.00    -0.237 OA
ATOM     57  O   UNL A   1      45.826  21.491  25.790  1.00  0.00    -0.237 OA
ATOM     58  O   UNL A   1      43.536  20.585  25.804  1.00  0.00    -0.744 OA
ENDBRANCH  54  55
ENDBRANCH  26  49
BRANCH  38  59
ATOM     59  C   UNL A   1      45.051  31.428  28.567  1.00  0.00    -0.014 A 
ATOM     60  C   UNL A   1      44.100  32.014  27.711  1.00  0.00     0.010 A 
ATOM     61  C   UNL A   1      46.384  31.872  28.497  1.00  0.00     0.010 A 
ATOM     62  C   UNL A   1      44.480  33.005  26.793  1.00  0.00     0.020 A 
ATOM     63  C   UNL A   1      46.764  32.872  27.599  1.00  0.00     0.020 A 
ATOM     64  C   UNL A   1      45.811  33.429  26.746  1.00  0.00     0.054 A 
BRANCH  64  65
ATOM     65  S   UNL A   1      46.288  34.755  25.604  1.00  0.00     0.124 S 
ATOM     66  O   UNL A   1      45.973  35.961  26.369  1.00  0.00    -0.237 OA
ATOM     67  O   UNL A   1      47.716  34.503  25.395  1.00  0.00    -0.237 OA
ATOM     68  O   UNL A   1      45.451  34.528  24.433  1.00  0.00    -0.744 OA
ENDBRANCH  64  65
ENDBRANCH  38  59
ENDBRANCH  12  13
ENDBRANCH   5   7
ENDBRANCH   2   3
ENDBRANCH   1   2
BRANCH   1  69
ATOM     69  C   UNL A   1      32.421  27.324  26.527  1.00  0.00     0.023 C 
BRANCH  69  70
ATOM     70  C   UNL A   1      31.094  26.737  26.057  1.00  0.00     0.116 C 
BRANCH  70  71
ATOM     71  N   UNL A   1      30.764  25.497  26.731  1.00  0.00    -0.351 N 
ATOM     72  C   UNL A   1      31.306  24.251  26.594  1.00  0.00     0.278 C 
ATOM     73  H   UNL A   1      30.034  25.562  27.389  1.00  0.00     0.163 HD
ATOM     74  O   UNL A   1      30.898  23.369  27.355  1.00  0.00    -0.268 OA
BRANCH  72  75
ATOM     75  C   UNL A   1      32.381  23.989  25.515  1.00  0.00     0.274 C 
ATOM     76  C   UNL A   1      33.687  23.463  26.154  1.00  0.00     0.085 C 
ATOM     77  N   UNL A   1      31.899  22.900  24.614  1.00  0.00    -0.321 N 
ATOM     78  C   UNL A   1      34.022  22.251  25.308  1.00  0.00     0.054 C 
ATOM     79  C   UNL A   1      32.646  21.695  24.991  1.00  0.00     0.188 C 
ATOM     80  H   UNL A   1      30.908  22.709  24.758  1.00  0.00     0.349 HD
ATOM     81  C   UNL A   1      34.944  21.204  25.903  1.00  0.00     0.010 C 
ATOM     82  C   UNL A   1      32.679  20.468  24.084  1.00  0.00     0.065 C 
ATOM     83  C   UNL A   1      35.071  20.042  24.914  1.00  0.00     0.001 C 
ATOM     84  C   UNL A   1      33.711  19.435  24.552  1.00  0.00     0.006 C 
BRANCH  77  85
ATOM     85  C   UNL A   1      31.738  23.241  23.195  1.00  0.00     0.285 C 
BRANCH  85  86
ATOM     86  C   UNL A   1      32.725  24.164  22.433  1.00  0.00     0.184 C 
BRANCH  86  87
ATOM     87  N   UNL A   1      32.505  25.592  22.496  1.00  0.00    -0.332 N 
ATOM     88  C   UNL A   1      31.306  26.249  22.491  1.00  0.00     0.107 A 
ATOM     89  C   UNL A   1      33.479  26.541  22.658  1.00  0.00     0.199 A 
ATOM     90  C   UNL A   1      31.631  27.586  22.479  1.00  0.00     0.130 A 
ATOM     91  N   UNL A   1      32.985  27.757  22.601  1.00  0.00    -0.245 NA
ENDBRANCH  86  87
ENDBRANCH  85  86
ENDBRANCH  77  85
ENDBRANCH  72  75
ENDBRANCH  70  71
ENDBRANCH  69  70
ENDBRANCH   1  69
TORSDOF 17
ENDMDL
MODEL 3
REMARK VINA RESULT:     -12.2      1.109      2.240
REMARK SMILES O=C(NCCCCNC(=O)[C@H]1C[C@H]2CCCC[C@@H]2[N@@H+]1CCn1ccnc1)c1ccc(-c2c3nc(c(-c4ccc(S(=O)(=O)[O-])cc4)c4ccc([nH]4)c(-c4ccc(S(=O)(=O)[O-])cc4)c4nc(c(-c5ccc(S(=O)(=O)[O-])cc5)c5ccc2[nH]5)C=C4)C=C3)cc1
REMARK SMILES IDX 5 1 4 2 3 3 1 4 2 5 27 7 28 8 86 9 29 10 85 11 30 12 31 13
REMARK SMILES IDX 32 14 79 15 33 16 84 17 78 18 80 19 34 20 83 21 77 22 76 23
REMARK SMILES IDX 35 25 65 26 46 27 64 28 47 29 50 30 63 31 81 32 48 33 49 34
REMARK SMILES IDX 62 36 82 37 51 38 36 39 37 40 45 41 38 42 44 43 39 44 40 45
REMARK SMILES IDX 41 46 42 47 43 48 66 49 67 50 75 51 68 52 74 53 69 54 70 55
REMARK SMILES IDX 71 56 72 57 73 58 52 59 53 60 61 61 54 62 60 63 55 64 56 65
REMARK SMILES IDX 57 66 58 67 59 68 6 69 7 70 8 71 9 72 10 74 11 75 12 76
REMARK SMILES IDX 19 77 13 78 18 79 14 81 17 82 15 83 16 84 20 85 21 86 22 87
REMARK SMILES IDX 23 88 26 89 24 90 25 91
REMARK H PARENT 3 6 80 24 50 35 8 73 19 80
REMARK Flexibility Score: inf
ROOT
ATOM      1  C   UNL A   1      31.900  28.647  26.581  1.00  0.00     0.023 C 
ENDROOT
BRANCH   1   2
ATOM      2  C   UNL A   1      33.052  29.130  27.463  1.00  0.00     0.116 C 
BRANCH   2   3
ATOM      3  N   UNL A   1      33.230  30.566  27.500  1.00  0.00    -0.352 N 
ATOM      4  O   UNL A   1      34.095  32.590  27.398  1.00  0.00    -0.269 OA
ATOM      5  C   UNL A   1      34.312  31.395  27.617  1.00  0.00     0.251 C 
ATOM      6  H   UNL A   1      32.380  31.057  27.424  1.00  0.00     0.163 HD
BRANCH   5   7
ATOM      7  C   UNL A   1      35.676  30.976  28.045  1.00  0.00     0.039 A 
ATOM      8  C   UNL A   1      36.634  31.798  28.640  1.00  0.00     0.014 A 
ATOM      9  C   UNL A   1      36.023  29.640  27.762  1.00  0.00     0.014 A 
ATOM     10  C   UNL A   1      37.931  31.335  28.849  1.00  0.00     0.010 A 
ATOM     11  C   UNL A   1      37.310  29.167  27.985  1.00  0.00     0.010 A 
ATOM     12  C   UNL A   1      38.275  30.032  28.491  1.00  0.00    -0.014 A 
BRANCH  12  13
ATOM     13  C   UNL A   1      39.628  29.571  28.786  1.00  0.00     0.031 A 
ATOM     14  C   UNL A   1      39.976  29.529  30.234  1.00  0.00     0.074 A 
ATOM     15  C   UNL A   1      40.462  29.066  27.855  1.00  0.00     0.049 A 
ATOM     16  N   UNL A   1      40.888  30.197  30.862  1.00  0.00    -0.248 NA
ATOM     17  C   UNL A   1      39.121  28.713  31.112  1.00  0.00     0.031 C 
ATOM     18  C   UNL A   1      40.156  28.758  26.455  1.00  0.00     0.029 A 
ATOM     19  N   UNL A   1      41.736  28.604  28.001  1.00  0.00    -0.354 N 
ATOM     20  C   UNL A   1      40.861  29.737  32.178  1.00  0.00     0.074 A 
ATOM     21  C   UNL A   1      39.660  28.953  32.306  1.00  0.00     0.031 C 
ATOM     22  C   UNL A   1      41.120  27.949  25.959  1.00  0.00     0.029 A 
ATOM     23  C   UNL A   1      42.168  27.796  26.955  1.00  0.00     0.049 A 
ATOM     24  H   UNL A   1      42.299  28.821  28.780  1.00  0.00     0.167 HD
ATOM     25  C   UNL A   1      41.940  29.840  33.006  1.00  0.00     0.031 A 
ATOM     26  C   UNL A   1      43.265  26.997  26.942  1.00  0.00     0.031 A 
ATOM     27  C   UNL A   1      42.913  30.778  32.509  1.00  0.00     0.049 A 
ATOM     28  C   UNL A   1      44.183  27.476  28.003  1.00  0.00     0.074 A 
ATOM     29  C   UNL A   1      42.913  32.124  32.206  1.00  0.00     0.029 A 
ATOM     30  N   UNL A   1      44.040  30.258  31.920  1.00  0.00    -0.354 N 
ATOM     31  N   UNL A   1      44.796  28.625  27.961  1.00  0.00    -0.248 NA
ATOM     32  C   UNL A   1      44.103  26.859  29.317  1.00  0.00     0.031 C 
ATOM     33  C   UNL A   1      43.767  32.246  31.071  1.00  0.00     0.029 A 
ATOM     34  C   UNL A   1      44.275  30.978  30.782  1.00  0.00     0.049 A 
ATOM     35  H   UNL A   1      44.579  29.506  32.256  1.00  0.00     0.167 HD
ATOM     36  C   UNL A   1      44.798  29.074  29.274  1.00  0.00     0.074 A 
ATOM     37  C   UNL A   1      44.456  27.900  30.075  1.00  0.00     0.031 C 
ATOM     38  C   UNL A   1      44.809  30.408  29.564  1.00  0.00     0.031 A 
BRANCH  25  39
ATOM     39  C   UNL A   1      42.313  28.786  34.028  1.00  0.00    -0.014 A 
ATOM     40  C   UNL A   1      42.889  27.580  33.573  1.00  0.00     0.010 A 
ATOM     41  C   UNL A   1      41.837  28.801  35.355  1.00  0.00     0.010 A 
ATOM     42  C   UNL A   1      42.867  26.420  34.359  1.00  0.00     0.020 A 
ATOM     43  C   UNL A   1      41.855  27.664  36.164  1.00  0.00     0.020 A 
ATOM     44  C   UNL A   1      42.322  26.467  35.641  1.00  0.00     0.054 A 
BRANCH  44  45
ATOM     45  S   UNL A   1      42.143  24.934  36.586  1.00  0.00     0.124 S 
ATOM     46  O   UNL A   1      43.514  24.693  37.022  1.00  0.00    -0.237 OA
ATOM     47  O   UNL A   1      41.201  25.323  37.631  1.00  0.00    -0.237 OA
ATOM     48  O   UNL A   1      41.620  23.988  35.602  1.00  0.00    -0.744 OA
ENDBRANCH  44  45
ENDBRANCH  25  39
BRANCH  26  49
ATOM     49  C   UNL A   1      43.416  25.669  26.294  1.00  0.00    -0.014 A 
ATOM     50  C   UNL A   1      44.399  25.442  25.312  1.00  0.00     0.010 A 
ATOM     51  C   UNL A   1      42.773  24.541  26.846  1.00  0.00     0.010 A 
ATOM     52  C   UNL A   1      44.764  24.135  24.940  1.00  0.00     0.020 A 
ATOM     53  C   UNL A   1      43.124  23.238  26.475  1.00  0.00     0.020 A 
ATOM     54  C   UNL A   1      44.135  23.040  25.540  1.00  0.00     0.054 A 
BRANCH  54  55
ATOM     55  S   UNL A   1      44.732  21.359  25.190  1.00  0.00     0.124 S 
ATOM     56  O   UNL A   1      43.772  20.532  25.916  1.00  0.00    -0.237 OA
ATOM     57  O   UNL A   1      44.654  21.288  23.734  1.00  0.00    -0.237 OA
ATOM     58  O   UNL A   1      46.089  21.355  25.735  1.00  0.00    -0.744 OA
ENDBRANCH  54  55
ENDBRANCH  26  49
BRANCH  38  59
ATOM     59  C   UNL A   1      45.151  31.386  28.466  1.00  0.00    -0.014 A 
ATOM     60  C   UNL A   1      44.252  31.769  27.452  1.00  0.00     0.010 A 
ATOM     61  C   UNL A   1      46.381  32.061  28.565  1.00  0.00     0.010 A 
ATOM     62  C   UNL A   1      44.588  32.788  26.548  1.00  0.00     0.020 A 
ATOM     63  C   UNL A   1      46.713  33.089  27.680  1.00  0.00     0.020 A 
ATOM     64  C   UNL A   1      45.817  33.443  26.671  1.00  0.00     0.054 A 
BRANCH  64  65
ATOM     65  S   UNL A   1      46.223  34.803  25.541  1.00  0.00     0.124 S 
ATOM     66  O   UNL A   1      47.647  34.585  25.282  1.00  0.00    -0.237 OA
ATOM     67  O   UNL A   1      45.336  34.554  24.403  1.00  0.00    -0.237 OA
ATOM     68  O   UNL A   1      45.910  36.001  26.307  1.00  0.00    -0.744 OA
ENDBRANCH  64  65
ENDBRANCH  38  59
ENDBRANCH  12  13
ENDBRANCH   5   7
ENDBRANCH   2   3
ENDBRANCH   1   2
BRANCH   1  69
ATOM     69  C   UNL A   1      31.210  27.355  27.033  1.00  0.00     0.023 C 
BRANCH  69  70
ATOM     70  C   UNL A   1      31.431  26.135  26.146  1.00  0.00     0.116 C 
BRANCH  70  71
ATOM     71  N   UNL A   1      31.519  24.903  26.905  1.00  0.00    -0.351 N 
ATOM     72  C   UNL A   1      32.268  23.784  26.678  1.00  0.00     0.278 C 
ATOM     73  H   UNL A   1      30.951  24.868  27.708  1.00  0.00     0.163 HD
ATOM     74  O   UNL A   1      32.226  22.893  27.531  1.00  0.00    -0.268 OA
BRANCH  72  75
ATOM     75  C   UNL A   1      33.116  23.667  25.392  1.00  0.00     0.274 C 
ATOM     76  C   UNL A   1      34.422  24.485  25.517  1.00  0.00     0.085 C 
ATOM     77  N   UNL A   1      33.538  22.245  25.224  1.00  0.00    -0.321 N 
ATOM     78  C   UNL A   1      35.489  23.504  25.072  1.00  0.00     0.054 C 
ATOM     79  C   UNL A   1      34.953  22.188  25.609  1.00  0.00     0.188 C 
ATOM     80  H   UNL A   1      33.021  21.627  25.849  1.00  0.00     0.349 HD
ATOM     81  C   UNL A   1      36.918  23.763  25.507  1.00  0.00     0.010 C 
ATOM     82  C   UNL A   1      35.822  20.986  25.252  1.00  0.00     0.065 C 
ATOM     83  C   UNL A   1      37.798  22.609  25.020  1.00  0.00     0.001 C 
ATOM     84  C   UNL A   1      37.308  21.249  25.529  1.00  0.00     0.006 C 
BRANCH  77  85
ATOM     85  C   UNL A   1      33.089  21.564  24.003  1.00  0.00     0.285 C 
BRANCH  85  86
ATOM     86  C   UNL A   1      32.171  20.314  24.024  1.00  0.00     0.184 C 
BRANCH  86  87
ATOM     87  N   UNL A   1      32.768  19.029  23.729  1.00  0.00    -0.332 N 
ATOM     88  C   UNL A   1      33.638  18.319  24.508  1.00  0.00     0.107 A 
ATOM     89  C   UNL A   1      32.490  18.255  22.634  1.00  0.00     0.199 A 
ATOM     90  C   UNL A   1      33.975  17.218  23.755  1.00  0.00     0.130 A 
ATOM     91  N   UNL A   1      33.242  17.178  22.599  1.00  0.00    -0.245 NA
ENDBRANCH  86  87
ENDBRANCH  85  86
ENDBRANCH  77  85
ENDBRANCH  72  75
ENDBRANCH  70  71
ENDBRANCH  69  70
ENDBRANCH   1  69
TORSDOF 17
ENDMDL
