MODEL 1
REMARK VINA RESULT:     -10.6      0.000      0.000
REMARK SMILES COc1ccccc1N1C(=O)[C@@H]2[C@@H](C1=O)[C@@](Cc1ccccc1)(C(=O)NCCCCNC(=O)c1ccc(-c3c4nc(c(-c5ccc(S(=O)(=O)[O-])cc5)c5ccc([nH]5)c(-c5ccc(S(=O)(=O)[O-])cc5)c5nc(c(-c6ccc(S(=O)(=O)[O-])cc6)c6ccc3[nH]6)C=C5)C=C4)cc1)[NH2+][C@H]2c1ccc(C)cc1
REMARK SMILES IDX 29 1 28 2 27 3 26 4 24 5 25 6 16 8 9 9 10 10 14 11 11 12
REMARK SMILES IDX 12 13 13 14 15 15 95 16 94 17 8 20 3 21 4 22 5 23 7 24 6 25
REMARK SMILES IDX 2 26 1 27 96 28 97 29 102 30 98 31 101 32 99 33 100 34 17 35
REMARK SMILES IDX 18 36 19 37 23 38 20 39 22 40 21 41 30 42 31 43 32 44 33 46
REMARK SMILES IDX 34 47 35 48 93 49 36 50 92 51 37 52 38 53 39 54 86 55 40 56
REMARK SMILES IDX 91 57 85 58 87 59 41 60 90 61 84 62 83 63 42 65 72 66 53 67
REMARK SMILES IDX 71 68 54 69 57 70 70 71 88 72 55 73 56 74 69 76 89 77 58 78
REMARK SMILES IDX 43 79 44 80 52 81 45 82 51 83 46 84 47 85 48 86 49 87 50 88
REMARK SMILES IDX 73 89 74 90 82 91 75 92 81 93 76 94 77 95 78 96 79 97 80 98
REMARK SMILES IDX 59 99 60 100 68 101 61 102 67 103 62 104 63 105 64 106
REMARK SMILES IDX 65 107 66 108
REMARK H PARENT 26 7 94 18 94 19 31 45 87 64 57 75
REMARK Flexibility Score: inf
ROOT
ATOM      1  C   UNL A   1      49.925  38.167  27.197  1.00  0.00     0.023 C 
ENDROOT
BRANCH   1   2
ATOM      2  C   UNL A   1      48.625  38.372  26.438  1.00  0.00     0.023 C 
BRANCH   2   3
ATOM      3  C   UNL A   1      48.031  39.766  26.584  1.00  0.00     0.116 C 
BRANCH   3   4
ATOM      4  N   UNL A   1      47.393  40.300  25.406  1.00  0.00    -0.351 N 
ATOM      5  C   UNL A   1      46.653  41.438  25.315  1.00  0.00     0.282 C 
ATOM      6  O   UNL A   1      46.663  42.005  24.214  1.00  0.00    -0.268 OA
ATOM      7  H   UNL A   1      47.505  39.784  24.575  1.00  0.00     0.163 HD
BRANCH   5   8
ATOM      8  C   UNL A   1      45.740  41.998  26.471  1.00  0.00     0.192 C 
ATOM      9  N   UNL A   1      43.456  39.113  27.166  1.00  0.00    -0.246 N 
ATOM     10  C   UNL A   1      42.729  39.968  26.348  1.00  0.00     0.244 C 
ATOM     11  C   UNL A   1      44.739  39.599  27.374  1.00  0.00     0.245 C 
ATOM     12  O   UNL A   1      41.538  39.964  26.086  1.00  0.00    -0.273 OA
ATOM     13  C   UNL A   1      43.743  40.922  25.793  1.00  0.00     0.162 C 
ATOM     14  C   UNL A   1      44.684  41.044  26.983  1.00  0.00     0.170 C 
ATOM     15  O   UNL A   1      45.677  39.024  27.877  1.00  0.00    -0.273 OA
ATOM     16  C   UNL A   1      43.469  42.371  25.509  1.00  0.00     0.228 C 
ATOM     17  N   UNL A   1      44.783  43.024  25.794  1.00  0.00    -0.326 N 
ATOM     18  H   UNL A   1      45.197  43.349  24.921  1.00  0.00     0.347 HD
ATOM     19  H   UNL A   1      44.639  43.816  26.419  1.00  0.00     0.347 HD
BRANCH   9  20
ATOM     20  C   UNL A   1      42.998  37.874  27.685  1.00  0.00     0.094 A 
ATOM     21  C   UNL A   1      43.193  37.478  29.026  1.00  0.00     0.143 A 
ATOM     22  C   UNL A   1      42.892  36.171  29.430  1.00  0.00     0.048 A 
ATOM     23  C   UNL A   1      42.360  35.254  28.527  1.00  0.00     0.004 A 
ATOM     24  C   UNL A   1      42.415  36.947  26.802  1.00  0.00     0.031 A 
ATOM     25  C   UNL A   1      42.114  35.645  27.216  1.00  0.00     0.002 A 
BRANCH  21  26
ATOM     26  O   UNL A   1      43.716  38.249  30.034  1.00  0.00    -0.495 OA
ATOM     27  C   UNL A   1      43.695  37.650  31.324  1.00  0.00     0.278 C 
ENDBRANCH  21  26
ENDBRANCH   9  20
BRANCH  16  28
ATOM     28  C   UNL A   1      42.964  42.715  24.125  1.00  0.00     0.010 A 
ATOM     29  C   UNL A   1      41.718  42.274  23.656  1.00  0.00     0.010 A 
ATOM     30  C   UNL A   1      43.781  43.440  23.243  1.00  0.00     0.010 A 
ATOM     31  C   UNL A   1      41.303  42.545  22.350  1.00  0.00     0.004 A 
ATOM     32  C   UNL A   1      43.364  43.717  21.937  1.00  0.00     0.004 A 
ATOM     33  C   UNL A   1      42.119  43.271  21.481  1.00  0.00    -0.051 A 
ATOM     34  C   UNL A   1      41.659  43.540  20.080  1.00  0.00     0.044 C 
ENDBRANCH  16  28
BRANCH   8  35
ATOM     35  C   UNL A   1      46.481  42.890  27.513  1.00  0.00     0.115 C 
BRANCH  35  36
ATOM     36  C   UNL A   1      45.866  43.140  28.868  1.00  0.00    -0.041 A 
ATOM     37  C   UNL A   1      46.253  42.390  29.987  1.00  0.00     0.004 A 
ATOM     38  C   UNL A   1      44.919  44.162  29.039  1.00  0.00     0.004 A 
ATOM     39  C   UNL A   1      45.791  42.727  31.261  1.00  0.00     0.000 A 
ATOM     40  C   UNL A   1      44.471  44.511  30.317  1.00  0.00     0.000 A 
ATOM     41  C   UNL A   1      44.924  43.805  31.430  1.00  0.00     0.000 A 
ENDBRANCH  35  36
ENDBRANCH   8  35
ENDBRANCH   5   8
ENDBRANCH   3   4
ENDBRANCH   2   3
ENDBRANCH   1   2
BRANCH   1  42
ATOM     42  C   UNL A   1      49.829  37.263  28.420  1.00  0.00     0.116 C 
BRANCH  42  43
ATOM     43  N   UNL A   1      48.797  37.642  29.379  1.00  0.00    -0.352 N 
ATOM     44  C   UNL A   1      47.743  36.873  29.826  1.00  0.00     0.251 C 
ATOM     45  H   UNL A   1      48.859  38.553  29.749  1.00  0.00     0.163 HD
ATOM     46  O   UNL A   1      46.910  37.315  30.608  1.00  0.00    -0.269 OA
BRANCH  44  47
ATOM     47  C   UNL A   1      47.622  35.503  29.287  1.00  0.00     0.039 A 
ATOM     48  C   UNL A   1      48.100  34.432  30.045  1.00  0.00     0.014 A 
ATOM     49  C   UNL A   1      46.858  35.285  28.138  1.00  0.00     0.014 A 
ATOM     50  C   UNL A   1      47.716  33.133  29.706  1.00  0.00     0.010 A 
ATOM     51  C   UNL A   1      46.395  34.004  27.870  1.00  0.00     0.010 A 
ATOM     52  C   UNL A   1      46.812  32.914  28.654  1.00  0.00    -0.014 A 
BRANCH  52  53
ATOM     53  C   UNL A   1      46.280  31.560  28.344  1.00  0.00     0.031 A 
ATOM     54  C   UNL A   1      44.858  31.227  28.715  1.00  0.00     0.074 A 
ATOM     55  C   UNL A   1      47.085  30.610  27.821  1.00  0.00     0.049 A 
ATOM     56  N   UNL A   1      44.238  30.079  28.654  1.00  0.00    -0.248 NA
ATOM     57  C   UNL A   1      44.037  32.324  29.260  1.00  0.00     0.031 C 
ATOM     58  C   UNL A   1      48.494  30.791  27.452  1.00  0.00     0.029 A 
ATOM     59  N   UNL A   1      46.839  29.290  27.522  1.00  0.00    -0.354 N 
ATOM     60  C   UNL A   1      42.974  30.306  29.186  1.00  0.00     0.074 A 
ATOM     61  C   UNL A   1      42.927  31.689  29.603  1.00  0.00     0.031 C 
ATOM     62  C   UNL A   1      48.974  29.638  26.958  1.00  0.00     0.029 A 
ATOM     63  C   UNL A   1      47.933  28.618  27.023  1.00  0.00     0.049 A 
ATOM     64  H   UNL A   1      45.962  28.865  27.654  1.00  0.00     0.167 HD
ATOM     65  C   UNL A   1      41.939  29.445  29.302  1.00  0.00     0.031 A 
ATOM     66  C   UNL A   1      48.085  27.323  26.675  1.00  0.00     0.031 A 
ATOM     67  C   UNL A   1      41.976  28.082  28.845  1.00  0.00     0.049 A 
ATOM     68  C   UNL A   1      46.911  26.386  26.818  1.00  0.00     0.074 A 
ATOM     69  C   UNL A   1      40.948  27.157  28.839  1.00  0.00     0.029 A 
ATOM     70  N   UNL A   1      43.090  27.454  28.316  1.00  0.00    -0.354 N 
ATOM     71  N   UNL A   1      45.698  26.645  27.242  1.00  0.00    -0.248 NA
ATOM     72  C   UNL A   1      47.123  24.984  26.427  1.00  0.00     0.031 C 
ATOM     73  C   UNL A   1      41.460  25.946  28.371  1.00  0.00     0.029 A 
ATOM     74  C   UNL A   1      42.784  26.140  28.012  1.00  0.00     0.049 A 
ATOM     75  H   UNL A   1      43.968  27.877  28.179  1.00  0.00     0.167 HD
ATOM     76  C   UNL A   1      44.993  25.450  27.127  1.00  0.00     0.074 A 
ATOM     77  C   UNL A   1      45.911  24.472  26.585  1.00  0.00     0.031 C 
ATOM     78  C   UNL A   1      43.702  25.187  27.442  1.00  0.00     0.031 A 
BRANCH  65  79
ATOM     79  C   UNL A   1      40.672  29.935  29.949  1.00  0.00    -0.014 A 
ATOM     80  C   UNL A   1      40.545  30.005  31.347  1.00  0.00     0.010 A 
ATOM     81  C   UNL A   1      39.630  30.425  29.139  1.00  0.00     0.010 A 
ATOM     82  C   UNL A   1      39.394  30.547  31.924  1.00  0.00     0.020 A 
ATOM     83  C   UNL A   1      38.492  30.995  29.712  1.00  0.00     0.020 A 
ATOM     84  C   UNL A   1      38.379  31.048  31.102  1.00  0.00     0.054 A 
BRANCH  84  85
ATOM     85  S   UNL A   1      36.936  31.823  31.882  1.00  0.00     0.124 S 
ATOM     86  O   UNL A   1      36.945  31.209  33.208  1.00  0.00    -0.237 OA
ATOM     87  O   UNL A   1      37.279  33.242  31.844  1.00  0.00    -0.237 OA
ATOM     88  O   UNL A   1      35.823  31.429  31.021  1.00  0.00    -0.744 OA
ENDBRANCH  84  85
ENDBRANCH  65  79
BRANCH  66  89
ATOM     89  C   UNL A   1      49.396  26.813  26.173  1.00  0.00    -0.014 A 
ATOM     90  C   UNL A   1      50.355  26.292  27.062  1.00  0.00     0.010 A 
ATOM     91  C   UNL A   1      49.717  26.898  24.805  1.00  0.00     0.010 A 
ATOM     92  C   UNL A   1      51.623  25.919  26.604  1.00  0.00     0.020 A 
ATOM     93  C   UNL A   1      50.971  26.491  24.337  1.00  0.00     0.020 A 
ATOM     94  C   UNL A   1      51.925  26.029  25.245  1.00  0.00     0.054 A 
BRANCH  94  95
ATOM     95  S   UNL A   1      53.579  25.551  24.672  1.00  0.00     0.124 S 
ATOM     96  O   UNL A   1      53.503  24.094  24.709  1.00  0.00    -0.237 OA
ATOM     97  O   UNL A   1      53.637  26.149  23.340  1.00  0.00    -0.237 OA
ATOM     98  O   UNL A   1      54.472  26.157  25.658  1.00  0.00    -0.744 OA
ENDBRANCH  94  95
ENDBRANCH  66  89
BRANCH  78  99
ATOM     99  C   UNL A   1      43.168  23.811  27.145  1.00  0.00    -0.014 A 
ATOM    100  C   UNL A   1      43.022  23.348  25.827  1.00  0.00     0.010 A 
ATOM    101  C   UNL A   1      42.902  22.935  28.214  1.00  0.00     0.010 A 
ATOM    102  C   UNL A   1      42.602  22.037  25.584  1.00  0.00     0.020 A 
ATOM    103  C   UNL A   1      42.515  21.615  27.976  1.00  0.00     0.020 A 
ATOM    104  C   UNL A   1      42.360  21.177  26.660  1.00  0.00     0.054 A 
BRANCH 104 105
ATOM    105  S   UNL A   1      41.890  19.460  26.316  1.00  0.00     0.124 S 
ATOM    106  O   UNL A   1      40.436  19.557  26.209  1.00  0.00    -0.237 OA
ATOM    107  O   UNL A   1      42.595  19.181  25.068  1.00  0.00    -0.237 OA
ATOM    108  O   UNL A   1      42.380  18.726  27.480  1.00  0.00    -0.744 OA
ENDBRANCH 104 105
ENDBRANCH  78  99
ENDBRANCH  52  53
ENDBRANCH  44  47
ENDBRANCH  42  43
ENDBRANCH   1  42
TORSDOF 19
ENDMDL
MODEL 2
REMARK VINA RESULT:     -10.4      7.892     15.448
REMARK SMILES COc1ccccc1N1C(=O)[C@@H]2[C@@H](C1=O)[C@@](Cc1ccccc1)(C(=O)NCCCCNC(=O)c1ccc(-c3c4nc(c(-c5ccc(S(=O)(=O)[O-])cc5)c5ccc([nH]5)c(-c5ccc(S(=O)(=O)[O-])cc5)c5nc(c(-c6ccc(S(=O)(=O)[O-])cc6)c6ccc3[nH]6)C=C5)C=C4)cc1)[NH2+][C@H]2c1ccc(C)cc1
REMARK SMILES IDX 29 1 28 2 27 3 26 4 24 5 25 6 16 8 9 9 10 10 14 11 11 12
REMARK SMILES IDX 12 13 13 14 15 15 95 16 94 17 8 20 3 21 4 22 5 23 7 24 6 25
REMARK SMILES IDX 2 26 1 27 96 28 97 29 102 30 98 31 101 32 99 33 100 34 17 35
REMARK SMILES IDX 18 36 19 37 23 38 20 39 22 40 21 41 30 42 31 43 32 44 33 46
REMARK SMILES IDX 34 47 35 48 93 49 36 50 92 51 37 52 38 53 39 54 86 55 40 56
REMARK SMILES IDX 91 57 85 58 87 59 41 60 90 61 84 62 83 63 42 65 72 66 53 67
REMARK SMILES IDX 71 68 54 69 57 70 70 71 88 72 55 73 56 74 69 76 89 77 58 78
REMARK SMILES IDX 43 79 44 80 52 81 45 82 51 83 46 84 47 85 48 86 49 87 50 88
REMARK SMILES IDX 73 89 74 90 82 91 75 92 81 93 76 94 77 95 78 96 79 97 80 98
REMARK SMILES IDX 59 99 60 100 68 101 61 102 67 103 62 104 63 105 64 106
REMARK SMILES IDX 65 107 66 108
REMARK H PARENT 26 7 94 18 94 19 31 45 87 64 57 75
REMARK Flexibility Score: inf
ROOT
ATOM      1  C   UNL A   1      34.315  28.376  26.016  1.00  0.00     0.023 C 
ENDROOT
BRANCH   1   2
ATOM      2  C   UNL A   1      33.564  27.360  25.172  1.00  0.00     0.023 C 
BRANCH   2   3
ATOM      3  C   UNL A   1      34.165  25.962  25.196  1.00  0.00     0.116 C 
BRANCH   3   4
ATOM      4  N   UNL A   1      33.308  24.920  25.705  1.00  0.00    -0.351 N 
ATOM      5  C   UNL A   1      33.363  23.593  25.414  1.00  0.00     0.282 C 
ATOM      6  O   UNL A   1      32.963  22.826  26.300  1.00  0.00    -0.268 OA
ATOM      7  H   UNL A   1      32.603  25.201  26.334  1.00  0.00     0.163 HD
BRANCH   5   8
ATOM      8  C   UNL A   1      33.805  23.007  24.019  1.00  0.00     0.192 C 
ATOM      9  N   UNL A   1      33.924  19.325  24.691  1.00  0.00    -0.246 N 
ATOM     10  C   UNL A   1      35.241  19.758  24.784  1.00  0.00     0.244 C 
ATOM     11  C   UNL A   1      33.070  20.390  24.445  1.00  0.00     0.245 C 
ATOM     12  O   UNL A   1      36.270  19.106  24.823  1.00  0.00    -0.273 OA
ATOM     13  C   UNL A   1      35.148  21.251  24.868  1.00  0.00     0.162 C 
ATOM     14  C   UNL A   1      33.949  21.503  23.964  1.00  0.00     0.170 C 
ATOM     15  O   UNL A   1      31.860  20.396  24.488  1.00  0.00    -0.273 OA
ATOM     16  C   UNL A   1      36.150  22.193  24.265  1.00  0.00     0.228 C 
ATOM     17  N   UNL A   1      35.313  23.366  23.868  1.00  0.00    -0.326 N 
ATOM     18  H   UNL A   1      35.535  24.159  24.470  1.00  0.00     0.347 HD
ATOM     19  H   UNL A   1      35.509  23.609  22.898  1.00  0.00     0.347 HD
BRANCH   9  20
ATOM     20  C   UNL A   1      33.475  17.992  24.875  1.00  0.00     0.094 A 
ATOM     21  C   UNL A   1      33.233  17.102  23.806  1.00  0.00     0.143 A 
ATOM     22  C   UNL A   1      32.609  15.869  24.039  1.00  0.00     0.048 A 
ATOM     23  C   UNL A   1      32.254  15.485  25.329  1.00  0.00     0.004 A 
ATOM     24  C   UNL A   1      33.153  17.564  26.176  1.00  0.00     0.031 A 
ATOM     25  C   UNL A   1      32.533  16.329  26.398  1.00  0.00     0.002 A 
BRANCH  21  26
ATOM     26  O   UNL A   1      33.508  17.328  22.481  1.00  0.00    -0.495 OA
ATOM     27  C   UNL A   1      32.507  18.046  21.772  1.00  0.00     0.278 C 
ENDBRANCH  21  26
ENDBRANCH   9  20
BRANCH  16  28
ATOM     28  C   UNL A   1      37.315  22.607  25.137  1.00  0.00     0.010 A 
ATOM     29  C   UNL A   1      38.375  21.736  25.427  1.00  0.00     0.010 A 
ATOM     30  C   UNL A   1      37.319  23.874  25.741  1.00  0.00     0.010 A 
ATOM     31  C   UNL A   1      39.404  22.117  26.291  1.00  0.00     0.004 A 
ATOM     32  C   UNL A   1      38.353  24.259  26.602  1.00  0.00     0.004 A 
ATOM     33  C   UNL A   1      39.404  23.381  26.884  1.00  0.00    -0.051 A 
ATOM     34  C   UNL A   1      40.512  23.764  27.817  1.00  0.00     0.044 C 
ENDBRANCH  16  28
BRANCH   8  35
ATOM     35  C   UNL A   1      33.180  23.724  22.784  1.00  0.00     0.115 C 
BRANCH  35  36
ATOM     36  C   UNL A   1      31.977  24.618  22.957  1.00  0.00    -0.041 A 
ATOM     37  C   UNL A   1      30.875  24.208  23.719  1.00  0.00     0.004 A 
ATOM     38  C   UNL A   1      31.958  25.901  22.386  1.00  0.00     0.004 A 
ATOM     39  C   UNL A   1      29.834  25.097  23.997  1.00  0.00     0.000 A 
ATOM     40  C   UNL A   1      30.926  26.796  22.680  1.00  0.00     0.000 A 
ATOM     41  C   UNL A   1      29.874  26.400  23.503  1.00  0.00     0.000 A 
ENDBRANCH  35  36
ENDBRANCH   8  35
ENDBRANCH   5   8
ENDBRANCH   3   4
ENDBRANCH   2   3
ENDBRANCH   1   2
BRANCH   1  42
ATOM     42  C   UNL A   1      33.587  28.847  27.269  1.00  0.00     0.116 C 
BRANCH  42  43
ATOM     43  N   UNL A   1      33.606  30.291  27.478  1.00  0.00    -0.352 N 
ATOM     44  C   UNL A   1      34.614  31.045  28.041  1.00  0.00     0.251 C 
ATOM     45  H   UNL A   1      32.805  30.784  27.184  1.00  0.00     0.163 HD
ATOM     46  O   UNL A   1      34.500  32.254  28.201  1.00  0.00    -0.269 OA
BRANCH  44  47
ATOM     47  C   UNL A   1      35.827  30.333  28.492  1.00  0.00     0.039 A 
ATOM     48  C   UNL A   1      36.887  30.166  27.600  1.00  0.00     0.014 A 
ATOM     49  C   UNL A   1      35.974  30.024  29.847  1.00  0.00     0.014 A 
ATOM     50  C   UNL A   1      38.138  29.788  28.091  1.00  0.00     0.010 A 
ATOM     51  C   UNL A   1      37.242  29.752  30.343  1.00  0.00     0.010 A 
ATOM     52  C   UNL A   1      38.340  29.637  29.472  1.00  0.00    -0.014 A 
BRANCH  52  53
ATOM     53  C   UNL A   1      39.685  29.361  30.045  1.00  0.00     0.031 A 
ATOM     54  C   UNL A   1      40.172  30.188  31.206  1.00  0.00     0.074 A 
ATOM     55  C   UNL A   1      40.497  28.445  29.476  1.00  0.00     0.049 A 
ATOM     56  N   UNL A   1      41.350  30.203  31.771  1.00  0.00    -0.248 NA
ATOM     57  C   UNL A   1      39.218  31.151  31.786  1.00  0.00     0.031 C 
ATOM     58  C   UNL A   1      40.162  27.603  28.322  1.00  0.00     0.029 A 
ATOM     59  N   UNL A   1      41.787  28.076  29.781  1.00  0.00    -0.354 N 
ATOM     60  C   UNL A   1      41.290  31.197  32.739  1.00  0.00     0.074 A 
ATOM     61  C   UNL A   1      39.976  31.793  32.662  1.00  0.00     0.031 C 
ATOM     62  C   UNL A   1      41.205  26.806  28.036  1.00  0.00     0.029 A 
ATOM     63  C   UNL A   1      42.304  27.112  28.944  1.00  0.00     0.049 A 
ATOM     64  H   UNL A   1      42.293  28.466  30.529  1.00  0.00     0.167 HD
ATOM     65  C   UNL A   1      42.239  31.570  33.628  1.00  0.00     0.031 A 
ATOM     66  C   UNL A   1      43.531  26.552  28.901  1.00  0.00     0.031 A 
ATOM     67  C   UNL A   1      43.529  30.944  33.731  1.00  0.00     0.049 A 
ATOM     68  C   UNL A   1      44.569  26.991  29.904  1.00  0.00     0.074 A 
ATOM     69  C   UNL A   1      44.526  31.193  34.656  1.00  0.00     0.029 A 
ATOM     70  N   UNL A   1      43.999  29.951  32.887  1.00  0.00    -0.354 N 
ATOM     71  N   UNL A   1      44.461  27.873  30.869  1.00  0.00    -0.248 NA
ATOM     72  C   UNL A   1      45.893  26.354  29.820  1.00  0.00     0.031 C 
ATOM     73  C   UNL A   1      45.627  30.399  34.330  1.00  0.00     0.029 A 
ATOM     74  C   UNL A   1      45.286  29.601  33.251  1.00  0.00     0.049 A 
ATOM     75  H   UNL A   1      43.493  29.556  32.141  1.00  0.00     0.167 HD
ATOM     76  C   UNL A   1      45.686  27.863  31.531  1.00  0.00     0.074 A 
ATOM     77  C   UNL A   1      46.515  26.882  30.865  1.00  0.00     0.031 C 
ATOM     78  C   UNL A   1      46.087  28.599  32.595  1.00  0.00     0.031 A 
BRANCH  65  79
ATOM     79  C   UNL A   1      41.933  32.708  34.562  1.00  0.00    -0.014 A 
ATOM     80  C   UNL A   1      41.365  32.482  35.828  1.00  0.00     0.010 A 
ATOM     81  C   UNL A   1      42.314  34.015  34.204  1.00  0.00     0.010 A 
ATOM     82  C   UNL A   1      41.173  33.544  36.714  1.00  0.00     0.020 A 
ATOM     83  C   UNL A   1      42.150  35.074  35.098  1.00  0.00     0.020 A 
ATOM     84  C   UNL A   1      41.577  34.832  36.347  1.00  0.00     0.054 A 
BRANCH  84  85
ATOM     85  S   UNL A   1      41.392  36.175  37.553  1.00  0.00     0.124 S 
ATOM     86  O   UNL A   1      40.059  36.682  37.238  1.00  0.00    -0.237 OA
ATOM     87  O   UNL A   1      41.511  35.474  38.829  1.00  0.00    -0.237 OA
ATOM     88  O   UNL A   1      42.494  37.080  37.236  1.00  0.00    -0.744 OA
ENDBRANCH  84  85
ENDBRANCH  65  79
BRANCH  66  89
ATOM     89  C   UNL A   1      43.871  25.527  27.870  1.00  0.00    -0.014 A 
ATOM     90  C   UNL A   1      43.864  24.156  28.186  1.00  0.00     0.010 A 
ATOM     91  C   UNL A   1      44.264  25.921  26.577  1.00  0.00     0.010 A 
ATOM     92  C   UNL A   1      44.291  23.206  27.252  1.00  0.00     0.020 A 
ATOM     93  C   UNL A   1      44.656  24.971  25.627  1.00  0.00     0.020 A 
ATOM     94  C   UNL A   1      44.692  23.622  25.980  1.00  0.00     0.054 A 
BRANCH  94  95
ATOM     95  S   UNL A   1      45.254  22.376  24.786  1.00  0.00     0.124 S 
ATOM     96  O   UNL A   1      44.080  21.517  24.670  1.00  0.00    -0.237 OA
ATOM     97  O   UNL A   1      45.566  23.185  23.610  1.00  0.00    -0.237 OA
ATOM     98  O   UNL A   1      46.411  21.771  25.442  1.00  0.00    -0.744 OA
ENDBRANCH  94  95
ENDBRANCH  66  89
BRANCH  78  99
ATOM     99  C   UNL A   1      47.455  28.332  33.164  1.00  0.00    -0.014 A 
ATOM    100  C   UNL A   1      48.585  29.043  32.724  1.00  0.00     0.010 A 
ATOM    101  C   UNL A   1      47.588  27.422  34.229  1.00  0.00     0.010 A 
ATOM    102  C   UNL A   1      49.828  28.832  33.329  1.00  0.00     0.020 A 
ATOM    103  C   UNL A   1      48.820  27.234  34.858  1.00  0.00     0.020 A 
ATOM    104  C   UNL A   1      49.935  27.935  34.397  1.00  0.00     0.054 A 
BRANCH 104 105
ATOM    105  S   UNL A   1      51.542  27.738  35.212  1.00  0.00     0.124 S 
ATOM    106  O   UNL A   1      51.359  28.509  36.439  1.00  0.00    -0.237 OA
ATOM    107  O   UNL A   1      51.635  26.291  35.387  1.00  0.00    -0.237 OA
ATOM    108  O   UNL A   1      52.489  28.307  34.256  1.00  0.00    -0.744 OA
ENDBRANCH 104 105
ENDBRANCH  78  99
ENDBRANCH  52  53
ENDBRANCH  44  47
ENDBRANCH  42  43
ENDBRANCH   1  42
TORSDOF 19
ENDMDL
MODEL 3
REMARK VINA RESULT:     -10.3      0.609      7.514
REMARK SMILES COc1ccccc1N1C(=O)[C@@H]2[C@@H](C1=O)[C@@](Cc1ccccc1)(C(=O)NCCCCNC(=O)c1ccc(-c3c4nc(c(-c5ccc(S(=O)(=O)[O-])cc5)c5ccc([nH]5)c(-c5ccc(S(=O)(=O)[O-])cc5)c5nc(c(-c6ccc(S(=O)(=O)[O-])cc6)c6ccc3[nH]6)C=C5)C=C4)cc1)[NH2+][C@H]2c1ccc(C)cc1
REMARK SMILES IDX 29 1 28 2 27 3 26 4 24 5 25 6 16 8 9 9 10 10 14 11 11 12
REMARK SMILES IDX 12 13 13 14 15 15 95 16 94 17 8 20 3 21 4 22 5 23 7 24 6 25
REMARK SMILES IDX 2 26 1 27 96 28 97 29 102 30 98 31 101 32 99 33 100 34 17 35
REMARK SMILES IDX 18 36 19 37 23 38 20 39 22 40 21 41 30 42 31 43 32 44 33 46
REMARK SMILES IDX 34 47 35 48 93 49 36 50 92 51 37 52 38 53 39 54 86 55 40 56
REMARK SMILES IDX 91 57 85 58 87 59 41 60 90 61 84 62 83 63 42 65 72 66 53 67
REMARK SMILES IDX 71 68 54 69 57 70 70 71 88 72 55 73 56 74 69 76 89 77 58 78
REMARK SMILES IDX 43 79 44 80 52 81 45 82 51 83 46 84 47 85 48 86 49 87 50 88
REMARK SMILES IDX 73 89 74 90 82 91 75 92 81 93 76 94 77 95 78 96 79 97 80 98
REMARK SMILES IDX 59 99 60 100 68 101 61 102 67 103 62 104 63 105 64 106
REMARK SMILES IDX 65 107 66 108
REMARK H PARENT 26 7 94 18 94 19 31 45 87 64 57 75
REMARK Flexibility Score: inf
ROOT
ATOM      1  C   UNL A   1      50.030  38.186  27.083  1.00  0.00     0.023 C 
ENDROOT
BRANCH   1   2
ATOM      2  C   UNL A   1      48.682  38.340  26.397  1.00  0.00     0.023 C 
BRANCH   2   3
ATOM      3  C   UNL A   1      48.067  39.726  26.535  1.00  0.00     0.116 C 
BRANCH   3   4
ATOM      4  N   UNL A   1      47.410  40.239  25.359  1.00  0.00    -0.351 N 
ATOM      5  C   UNL A   1      46.654  41.365  25.264  1.00  0.00     0.282 C 
ATOM      6  O   UNL A   1      46.644  41.920  24.157  1.00  0.00    -0.268 OA
ATOM      7  H   UNL A   1      47.521  39.715  24.532  1.00  0.00     0.163 HD
BRANCH   5   8
ATOM      8  C   UNL A   1      45.744  41.925  26.423  1.00  0.00     0.192 C 
ATOM      9  N   UNL A   1      43.428  39.058  27.089  1.00  0.00    -0.246 N 
ATOM     10  C   UNL A   1      42.711  39.928  26.277  1.00  0.00     0.244 C 
ATOM     11  C   UNL A   1      44.716  39.529  27.303  1.00  0.00     0.245 C 
ATOM     12  O   UNL A   1      41.522  39.939  26.014  1.00  0.00    -0.273 OA
ATOM     13  C   UNL A   1      43.737  40.876  25.732  1.00  0.00     0.162 C 
ATOM     14  C   UNL A   1      44.677  40.977  26.925  1.00  0.00     0.170 C 
ATOM     15  O   UNL A   1      45.647  38.939  27.803  1.00  0.00    -0.273 OA
ATOM     16  C   UNL A   1      43.479  42.330  25.461  1.00  0.00     0.228 C 
ATOM     17  N   UNL A   1      44.800  42.966  25.754  1.00  0.00    -0.326 N 
ATOM     18  H   UNL A   1      45.218  43.294  24.884  1.00  0.00     0.347 HD
ATOM     19  H   UNL A   1      44.663  43.755  26.385  1.00  0.00     0.347 HD
BRANCH   9  20
ATOM     20  C   UNL A   1      42.956  37.820  27.597  1.00  0.00     0.094 A 
ATOM     21  C   UNL A   1      42.865  37.534  28.976  1.00  0.00     0.143 A 
ATOM     22  C   UNL A   1      42.577  36.234  29.412  1.00  0.00     0.048 A 
ATOM     23  C   UNL A   1      42.338  35.214  28.496  1.00  0.00     0.004 A 
ATOM     24  C   UNL A   1      42.665  36.786  26.688  1.00  0.00     0.031 A 
ATOM     25  C   UNL A   1      42.375  35.492  27.134  1.00  0.00     0.002 A 
BRANCH  21  26
ATOM     26  O   UNL A   1      43.080  38.415  30.006  1.00  0.00    -0.495 OA
ATOM     27  C   UNL A   1      44.076  38.019  30.940  1.00  0.00     0.278 C 
ENDBRANCH  21  26
ENDBRANCH   9  20
BRANCH  16  28
ATOM     28  C   UNL A   1      42.980  42.692  24.079  1.00  0.00     0.010 A 
ATOM     29  C   UNL A   1      41.820  42.123  23.533  1.00  0.00     0.010 A 
ATOM     30  C   UNL A   1      43.723  43.571  23.276  1.00  0.00     0.010 A 
ATOM     31  C   UNL A   1      41.417  42.419  22.230  1.00  0.00     0.004 A 
ATOM     32  C   UNL A   1      43.317  43.873  21.971  1.00  0.00     0.004 A 
ATOM     33  C   UNL A   1      42.159  43.298  21.438  1.00  0.00    -0.051 A 
ATOM     34  C   UNL A   1      41.715  43.593  20.038  1.00  0.00     0.044 C 
ENDBRANCH  16  28
BRANCH   8  35
ATOM     35  C   UNL A   1      46.493  42.799  27.474  1.00  0.00     0.115 C 
BRANCH  35  36
ATOM     36  C   UNL A   1      45.895  43.015  28.843  1.00  0.00    -0.041 A 
ATOM     37  C   UNL A   1      46.294  42.237  29.937  1.00  0.00     0.004 A 
ATOM     38  C   UNL A   1      44.952  44.034  29.051  1.00  0.00     0.004 A 
ATOM     39  C   UNL A   1      45.847  42.541  31.225  1.00  0.00     0.000 A 
ATOM     40  C   UNL A   1      44.521  44.351  30.342  1.00  0.00     0.000 A 
ATOM     41  C   UNL A   1      44.985  43.616  31.431  1.00  0.00     0.000 A 
ENDBRANCH  35  36
ENDBRANCH   8  35
ENDBRANCH   5   8
ENDBRANCH   3   4
ENDBRANCH   2   3
ENDBRANCH   1   2
BRANCH   1  42
ATOM     42  C   UNL A   1      50.021  37.342  28.351  1.00  0.00     0.116 C 
BRANCH  42  43
ATOM     43  N   UNL A   1      49.047  37.758  29.354  1.00  0.00    -0.352 N 
ATOM     44  C   UNL A   1      48.048  36.995  29.922  1.00  0.00     0.251 C 
ATOM     45  H   UNL A   1      49.109  38.691  29.661  1.00  0.00     0.163 HD
ATOM     46  O   UNL A   1      47.259  37.467  30.732  1.00  0.00    -0.269 OA
BRANCH  44  47
ATOM     47  C   UNL A   1      47.929  35.590  29.481  1.00  0.00     0.039 A 
ATOM     48  C   UNL A   1      48.443  34.578  30.294  1.00  0.00     0.014 A 
ATOM     49  C   UNL A   1      47.134  35.286  28.373  1.00  0.00     0.014 A 
ATOM     50  C   UNL A   1      48.066  33.255  30.056  1.00  0.00     0.010 A 
ATOM     51  C   UNL A   1      46.680  33.985  28.206  1.00  0.00     0.010 A 
ATOM     52  C   UNL A   1      47.134  32.955  29.049  1.00  0.00    -0.014 A 
BRANCH  52  53
ATOM     53  C   UNL A   1      46.610  31.578  28.847  1.00  0.00     0.031 A 
ATOM     54  C   UNL A   1      47.479  30.557  28.159  1.00  0.00     0.074 A 
ATOM     55  C   UNL A   1      45.342  31.269  29.190  1.00  0.00     0.049 A 
ATOM     56  N   UNL A   1      47.177  29.347  27.768  1.00  0.00    -0.248 NA
ATOM     57  C   UNL A   1      48.859  30.964  27.836  1.00  0.00     0.031 C 
ATOM     58  C   UNL A   1      44.383  32.177  29.828  1.00  0.00     0.029 A 
ATOM     59  N   UNL A   1      44.628  30.103  29.035  1.00  0.00    -0.354 N 
ATOM     60  C   UNL A   1      48.310  28.867  27.123  1.00  0.00     0.074 A 
ATOM     61  C   UNL A   1      49.293  29.926  27.136  1.00  0.00     0.031 C 
ATOM     62  C   UNL A   1      43.223  31.529  30.029  1.00  0.00     0.029 A 
ATOM     63  C   UNL A   1      43.330  30.179  29.488  1.00  0.00     0.049 A 
ATOM     64  H   UNL A   1      45.011  29.289  28.636  1.00  0.00     0.167 HD
ATOM     65  C   UNL A   1      48.521  27.646  26.582  1.00  0.00     0.031 A 
ATOM     66  C   UNL A   1      42.333  29.270  29.454  1.00  0.00     0.031 A 
ATOM     67  C   UNL A   1      47.557  26.580  26.611  1.00  0.00     0.049 A 
ATOM     68  C   UNL A   1      42.599  27.917  28.842  1.00  0.00     0.074 A 
ATOM     69  C   UNL A   1      47.710  25.279  26.167  1.00  0.00     0.029 A 
ATOM     70  N   UNL A   1      46.269  26.689  27.108  1.00  0.00    -0.354 N 
ATOM     71  N   UNL A   1      43.708  27.455  28.315  1.00  0.00    -0.248 NA
ATOM     72  C   UNL A   1      41.483  26.959  28.826  1.00  0.00     0.031 C 
ATOM     73  C   UNL A   1      46.491  24.620  26.331  1.00  0.00     0.029 A 
ATOM     74  C   UNL A   1      45.605  25.487  26.950  1.00  0.00     0.049 A 
ATOM     75  H   UNL A   1      45.885  27.501  27.512  1.00  0.00     0.167 HD
ATOM     76  C   UNL A   1      43.434  26.141  27.948  1.00  0.00     0.074 A 
ATOM     77  C   UNL A   1      42.061  25.878  28.320  1.00  0.00     0.031 C 
ATOM     78  C   UNL A   1      44.246  25.233  27.356  1.00  0.00     0.031 A 
BRANCH  65  79
ATOM     79  C   UNL A   1      49.840  27.383  25.907  1.00  0.00    -0.014 A 
ATOM     80  C   UNL A   1      50.920  26.817  26.607  1.00  0.00     0.010 A 
ATOM     81  C   UNL A   1      49.963  27.616  24.525  1.00  0.00     0.010 A 
ATOM     82  C   UNL A   1      52.104  26.498  25.938  1.00  0.00     0.020 A 
ATOM     83  C   UNL A   1      51.135  27.272  23.848  1.00  0.00     0.020 A 
ATOM     84  C   UNL A   1      52.200  26.719  24.560  1.00  0.00     0.054 A 
BRANCH  84  85
ATOM     85  S   UNL A   1      53.720  26.216  23.707  1.00  0.00     0.124 S 
ATOM     86  O   UNL A   1      53.232  25.944  22.357  1.00  0.00    -0.237 OA
ATOM     87  O   UNL A   1      54.566  27.398  23.843  1.00  0.00    -0.237 OA
ATOM     88  O   UNL A   1      54.166  25.044  24.456  1.00  0.00    -0.744 OA
ENDBRANCH  84  85
ENDBRANCH  65  79
BRANCH  66  89
ATOM     89  C   UNL A   1      40.979  29.596  29.994  1.00  0.00    -0.014 A 
ATOM     90  C   UNL A   1      40.673  29.378  31.351  1.00  0.00     0.010 A 
ATOM     91  C   UNL A   1      39.967  30.072  29.140  1.00  0.00     0.010 A 
ATOM     92  C   UNL A   1      39.373  29.578  31.829  1.00  0.00     0.020 A 
ATOM     93  C   UNL A   1      38.675  30.308  29.622  1.00  0.00     0.020 A 
ATOM     94  C   UNL A   1      38.381  30.034  30.959  1.00  0.00     0.054 A 
BRANCH  94  95
ATOM     95  S   UNL A   1      36.699  30.276  31.596  1.00  0.00     0.124 S 
ATOM     96  O   UNL A   1      36.763  29.596  32.885  1.00  0.00    -0.237 OA
ATOM     97  O   UNL A   1      36.589  31.732  31.652  1.00  0.00    -0.237 OA
ATOM     98  O   UNL A   1      35.856  29.634  30.589  1.00  0.00    -0.744 OA
ENDBRANCH  94  95
ENDBRANCH  66  89
BRANCH  78  99
ATOM     99  C   UNL A   1      43.711  23.843  27.133  1.00  0.00    -0.014 A 
ATOM    100  C   UNL A   1      43.449  22.976  28.208  1.00  0.00     0.010 A 
ATOM    101  C   UNL A   1      43.374  23.441  25.827  1.00  0.00     0.010 A 
ATOM    102  C   UNL A   1      42.874  21.723  27.976  1.00  0.00     0.020 A 
ATOM    103  C   UNL A   1      42.770  22.204  25.596  1.00  0.00     0.020 A 
ATOM    104  C   UNL A   1      42.531  21.349  26.672  1.00  0.00     0.054 A 
BRANCH 104 105
ATOM    105  S   UNL A   1      41.719  19.750  26.409  1.00  0.00     0.124 S 
ATOM    106  O   UNL A   1      42.057  19.030  27.635  1.00  0.00    -0.237 OA
ATOM    107  O   UNL A   1      40.315  20.125  26.268  1.00  0.00    -0.237 OA
ATOM    108  O   UNL A   1      42.346  19.236  25.193  1.00  0.00    -0.744 OA
ENDBRANCH 104 105
ENDBRANCH  78  99
ENDBRANCH  52  53
ENDBRANCH  44  47
ENDBRANCH  42  43
ENDBRANCH   1  42
TORSDOF 19
ENDMDL
