MODEL 1
REMARK VINA RESULT:     -11.7      0.000      0.000
REMARK SMILES CC1=C2C(=O)N(C[C@H]3CCCO3)C(=O)N=C2S[C@@H]1C(=O)NCCCCNC(=O)c1ccc(-c2c3nc(c(-c4ccc(S(=O)(=O)[O-])cc4)c4ccc([nH]4)c(-c4ccc(S(=O)(=O)[O-])cc4)c4nc(c(-c5ccc(S(=O)(=O)[O-])cc5)c5ccc2[nH]5)C=C4)C=C3)cc1
REMARK SMILES IDX 24 1 23 2 22 3 21 4 19 5 20 6 18 8 1 9 2 10 3 11 4 12 16 13
REMARK SMILES IDX 17 14 5 15 6 16 15 17 13 18 14 19 7 20 8 21 9 22 12 23 10 24
REMARK SMILES IDX 11 25 25 26 26 27 27 28 28 30 29 31 30 32 88 33 31 34 87 35
REMARK SMILES IDX 32 36 33 37 34 38 81 39 35 40 86 41 80 42 82 43 36 44 85 45
REMARK SMILES IDX 79 46 78 47 37 49 67 50 48 51 66 52 49 53 52 54 65 55 83 56
REMARK SMILES IDX 50 57 51 58 64 60 84 61 53 62 38 63 39 64 47 65 40 66 46 67
REMARK SMILES IDX 41 68 42 69 43 70 44 71 45 72 68 73 69 74 77 75 70 76 76 77
REMARK SMILES IDX 71 78 72 79 73 80 74 81 75 82 54 83 55 84 63 85 56 86 62 87
REMARK SMILES IDX 57 88 58 89 59 90 60 91 61 92
REMARK H PARENT 21 7 26 29 82 48 52 59
REMARK Flexibility Score: inf
ROOT
ATOM      1  C   UNL A   1      33.787  28.229  25.763  1.00  0.00     0.023 C 
ENDROOT
BRANCH   1   2
ATOM      2  C   UNL A   1      33.281  29.315  24.814  1.00  0.00     0.023 C 
BRANCH   2   3
ATOM      3  C   UNL A   1      33.164  28.865  23.361  1.00  0.00     0.116 C 
BRANCH   3   4
ATOM      4  N   UNL A   1      31.850  29.148  22.819  1.00  0.00    -0.355 N 
ATOM      5  C   UNL A   1      30.861  28.314  22.392  1.00  0.00     0.237 C 
ATOM      6  O   UNL A   1      29.837  28.840  21.941  1.00  0.00    -0.273 OA
ATOM      7  H   UNL A   1      31.635  30.106  22.746  1.00  0.00     0.163 HD
BRANCH   5   8
ATOM      8  C   UNL A   1      30.935  26.788  22.527  1.00  0.00     0.169 C 
ATOM      9  C   UNL A   1      30.444  26.729  25.068  1.00  0.00     0.042 C 
ATOM     10  C   UNL A   1      31.274  26.290  23.902  1.00  0.00    -0.035 C 
ATOM     11  C   UNL A   1      32.297  25.423  23.973  1.00  0.00     0.073 C 
ATOM     12  C   UNL A   1      32.784  24.674  25.128  1.00  0.00     0.264 C 
ATOM     13  C   UNL A   1      32.944  25.178  22.698  1.00  0.00     0.116 C 
ATOM     14  S   UNL A   1      32.161  26.040  21.402  1.00  0.00    -0.087 SA
ATOM     15  O   UNL A   1      32.257  24.797  26.227  1.00  0.00    -0.268 OA
ATOM     16  N   UNL A   1      33.793  23.779  24.823  1.00  0.00    -0.256 N 
ATOM     17  N   UNL A   1      33.968  24.432  22.518  1.00  0.00    -0.186 NA
ATOM     18  C   UNL A   1      34.472  23.741  23.595  1.00  0.00     0.351 C 
ATOM     19  O   UNL A   1      35.489  23.064  23.464  1.00  0.00    -0.246 OA
BRANCH  16  20
ATOM     20  C   UNL A   1      34.028  22.688  25.763  1.00  0.00     0.163 C 
BRANCH  20  21
ATOM     21  C   UNL A   1      32.913  21.649  26.015  1.00  0.00     0.138 C 
ATOM     22  C   UNL A   1      31.966  21.322  24.868  1.00  0.00     0.036 C 
ATOM     23  O   UNL A   1      33.600  20.380  26.212  1.00  0.00    -0.376 OA
ATOM     24  C   UNL A   1      32.834  20.490  23.956  1.00  0.00     0.031 C 
ATOM     25  C   UNL A   1      33.632  19.674  24.956  1.00  0.00     0.160 C 
ENDBRANCH  20  21
ENDBRANCH  16  20
ENDBRANCH   5   8
ENDBRANCH   3   4
ENDBRANCH   2   3
ENDBRANCH   1   2
BRANCH   1  26
ATOM     26  C   UNL A   1      33.474  28.459  27.239  1.00  0.00     0.116 C 
BRANCH  26  27
ATOM     27  N   UNL A   1      33.413  29.867  27.600  1.00  0.00    -0.352 N 
ATOM     28  C   UNL A   1      34.398  30.650  28.154  1.00  0.00     0.251 C 
ATOM     29  H   UNL A   1      32.556  30.318  27.425  1.00  0.00     0.163 HD
ATOM     30  O   UNL A   1      34.155  31.802  28.496  1.00  0.00    -0.269 OA
BRANCH  28  31
ATOM     31  C   UNL A   1      35.740  30.070  28.369  1.00  0.00     0.039 A 
ATOM     32  C   UNL A   1      36.652  30.080  27.312  1.00  0.00     0.014 A 
ATOM     33  C   UNL A   1      36.108  29.576  29.623  1.00  0.00     0.014 A 
ATOM     34  C   UNL A   1      37.965  29.661  27.534  1.00  0.00     0.010 A 
ATOM     35  C   UNL A   1      37.432  29.214  29.856  1.00  0.00     0.010 A 
ATOM     36  C   UNL A   1      38.374  29.264  28.819  1.00  0.00    -0.014 A 
BRANCH  36  37
ATOM     37  C   UNL A   1      39.791  28.926  29.104  1.00  0.00     0.031 A 
ATOM     38  C   UNL A   1      40.712  29.961  29.685  1.00  0.00     0.074 A 
ATOM     39  C   UNL A   1      40.262  27.708  28.770  1.00  0.00     0.049 A 
ATOM     40  N   UNL A   1      41.996  29.880  29.923  1.00  0.00    -0.248 NA
ATOM     41  C   UNL A   1      40.120  31.266  30.021  1.00  0.00     0.031 C 
ATOM     42  C   UNL A   1      39.479  26.631  28.159  1.00  0.00     0.029 A 
ATOM     43  N   UNL A   1      41.521  27.175  28.888  1.00  0.00    -0.354 N 
ATOM     44  C   UNL A   1      42.369  31.121  30.421  1.00  0.00     0.074 A 
ATOM     45  C   UNL A   1      41.183  31.953  30.413  1.00  0.00     0.031 C 
ATOM     46  C   UNL A   1      40.272  25.562  27.972  1.00  0.00     0.029 A 
ATOM     47  C   UNL A   1      41.623  25.887  28.415  1.00  0.00     0.049 A 
ATOM     48  H   UNL A   1      42.281  27.667  29.275  1.00  0.00     0.167 HD
ATOM     49  C   UNL A   1      43.582  31.528  30.860  1.00  0.00     0.031 A 
ATOM     50  C   UNL A   1      42.685  25.063  28.339  1.00  0.00     0.031 A 
ATOM     51  C   UNL A   1      44.755  30.698  30.884  1.00  0.00     0.049 A 
ATOM     52  C   UNL A   1      44.021  25.538  28.842  1.00  0.00     0.074 A 
ATOM     53  C   UNL A   1      46.021  31.008  31.354  1.00  0.00     0.029 A 
ATOM     54  N   UNL A   1      44.809  29.392  30.423  1.00  0.00    -0.354 N 
ATOM     55  N   UNL A   1      44.340  26.702  29.355  1.00  0.00    -0.248 NA
ATOM     56  C   UNL A   1      45.137  24.585  28.763  1.00  0.00     0.031 C 
ATOM     57  C   UNL A   1      46.847  29.899  31.147  1.00  0.00     0.029 A 
ATOM     58  C   UNL A   1      46.086  28.885  30.586  1.00  0.00     0.049 A 
ATOM     59  H   UNL A   1      44.050  28.897  30.037  1.00  0.00     0.167 HD
ATOM     60  C   UNL A   1      45.689  26.613  29.679  1.00  0.00     0.074 A 
ATOM     61  C   UNL A   1      46.121  25.278  29.318  1.00  0.00     0.031 C 
ATOM     62  C   UNL A   1      46.498  27.554  30.225  1.00  0.00     0.031 A 
BRANCH  49  63
ATOM     63  C   UNL A   1      43.699  32.941  31.364  1.00  0.00    -0.014 A 
ATOM     64  C   UNL A   1      43.492  33.240  32.722  1.00  0.00     0.010 A 
ATOM     65  C   UNL A   1      44.066  33.973  30.481  1.00  0.00     0.010 A 
ATOM     66  C   UNL A   1      43.618  34.553  33.184  1.00  0.00     0.020 A 
ATOM     67  C   UNL A   1      44.214  35.284  30.944  1.00  0.00     0.020 A 
ATOM     68  C   UNL A   1      43.974  35.567  32.290  1.00  0.00     0.054 A 
BRANCH  68  69
ATOM     69  S   UNL A   1      44.159  37.258  32.922  1.00  0.00     0.124 S 
ATOM     70  O   UNL A   1      43.983  38.052  31.709  1.00  0.00    -0.237 OA
ATOM     71  O   UNL A   1      43.080  37.357  33.900  1.00  0.00    -0.237 OA
ATOM     72  O   UNL A   1      45.508  37.270  33.484  1.00  0.00    -0.744 OA
ENDBRANCH  68  69
ENDBRANCH  49  63
BRANCH  50  73
ATOM     73  C   UNL A   1      42.531  23.699  27.770  1.00  0.00    -0.014 A 
ATOM     74  C   UNL A   1      42.191  22.615  28.598  1.00  0.00     0.010 A 
ATOM     75  C   UNL A   1      42.733  23.475  26.396  1.00  0.00     0.010 A 
ATOM     76  C   UNL A   1      42.078  21.328  28.067  1.00  0.00     0.020 A 
ATOM     77  C   UNL A   1      42.598  22.192  25.858  1.00  0.00     0.020 A 
ATOM     78  C   UNL A   1      42.286  21.124  26.701  1.00  0.00     0.054 A 
BRANCH  78  79
ATOM     79  S   UNL A   1      42.100  19.452  26.022  1.00  0.00     0.124 S 
ATOM     80  O   UNL A   1      40.661  19.374  25.796  1.00  0.00    -0.237 OA
ATOM     81  O   UNL A   1      42.929  19.501  24.819  1.00  0.00    -0.237 OA
ATOM     82  O   UNL A   1      42.617  18.594  27.087  1.00  0.00    -0.744 OA
ENDBRANCH  78  79
ENDBRANCH  50  73
BRANCH  62  83
ATOM     83  C   UNL A   1      47.924  27.163  30.492  1.00  0.00    -0.014 A 
ATOM     84  C   UNL A   1      48.936  27.430  29.554  1.00  0.00     0.010 A 
ATOM     85  C   UNL A   1      48.264  26.569  31.721  1.00  0.00     0.010 A 
ATOM     86  C   UNL A   1      50.261  27.084  29.829  1.00  0.00     0.020 A 
ATOM     87  C   UNL A   1      49.590  26.242  32.009  1.00  0.00     0.020 A 
ATOM     88  C   UNL A   1      50.580  26.490  31.054  1.00  0.00     0.054 A 
BRANCH  88  89
ATOM     89  S   UNL A   1      52.314  26.092  31.410  1.00  0.00     0.124 S 
ATOM     90  O   UNL A   1      52.204  24.762  32.003  1.00  0.00    -0.237 OA
ATOM     91  O   UNL A   1      52.935  26.142  30.090  1.00  0.00    -0.237 OA
ATOM     92  O   UNL A   1      52.729  27.151  32.327  1.00  0.00    -0.744 OA
ENDBRANCH  88  89
ENDBRANCH  62  83
ENDBRANCH  36  37
ENDBRANCH  28  31
ENDBRANCH  26  27
ENDBRANCH   1  26
TORSDOF 16
ENDMDL
MODEL 2
REMARK VINA RESULT:     -11.2      0.331      8.107
REMARK SMILES CC1=C2C(=O)N(C[C@H]3CCCO3)C(=O)N=C2S[C@@H]1C(=O)NCCCCNC(=O)c1ccc(-c2c3nc(c(-c4ccc(S(=O)(=O)[O-])cc4)c4ccc([nH]4)c(-c4ccc(S(=O)(=O)[O-])cc4)c4nc(c(-c5ccc(S(=O)(=O)[O-])cc5)c5ccc2[nH]5)C=C4)C=C3)cc1
REMARK SMILES IDX 24 1 23 2 22 3 21 4 19 5 20 6 18 8 1 9 2 10 3 11 4 12 16 13
REMARK SMILES IDX 17 14 5 15 6 16 15 17 13 18 14 19 7 20 8 21 9 22 12 23 10 24
REMARK SMILES IDX 11 25 25 26 26 27 27 28 28 30 29 31 30 32 88 33 31 34 87 35
REMARK SMILES IDX 32 36 33 37 34 38 81 39 35 40 86 41 80 42 82 43 36 44 85 45
REMARK SMILES IDX 79 46 78 47 37 49 67 50 48 51 66 52 49 53 52 54 65 55 83 56
REMARK SMILES IDX 50 57 51 58 64 60 84 61 53 62 38 63 39 64 47 65 40 66 46 67
REMARK SMILES IDX 41 68 42 69 43 70 44 71 45 72 68 73 69 74 77 75 70 76 76 77
REMARK SMILES IDX 71 78 72 79 73 80 74 81 75 82 54 83 55 84 63 85 56 86 62 87
REMARK SMILES IDX 57 88 58 89 59 90 60 91 61 92
REMARK H PARENT 21 7 26 29 82 48 52 59
REMARK Flexibility Score: inf
ROOT
ATOM      1  C   UNL A   1      33.930  28.219  25.687  1.00  0.00     0.023 C 
ENDROOT
BRANCH   1   2
ATOM      2  C   UNL A   1      33.307  29.289  24.790  1.00  0.00     0.023 C 
BRANCH   2   3
ATOM      3  C   UNL A   1      33.180  28.877  23.327  1.00  0.00     0.116 C 
BRANCH   3   4
ATOM      4  N   UNL A   1      31.861  29.170  22.802  1.00  0.00    -0.355 N 
ATOM      5  C   UNL A   1      30.858  28.343  22.395  1.00  0.00     0.237 C 
ATOM      6  O   UNL A   1      29.833  28.877  21.955  1.00  0.00    -0.273 OA
ATOM      7  H   UNL A   1      31.656  30.129  22.726  1.00  0.00     0.163 HD
BRANCH   5   8
ATOM      8  C   UNL A   1      30.918  26.818  22.538  1.00  0.00     0.169 C 
ATOM      9  C   UNL A   1      30.487  26.780  25.090  1.00  0.00     0.042 C 
ATOM     10  C   UNL A   1      31.284  26.324  23.908  1.00  0.00    -0.035 C 
ATOM     11  C   UNL A   1      32.298  25.447  23.960  1.00  0.00     0.073 C 
ATOM     12  C   UNL A   1      32.804  24.699  25.109  1.00  0.00     0.264 C 
ATOM     13  C   UNL A   1      32.913  25.186  22.672  1.00  0.00     0.116 C 
ATOM     14  S   UNL A   1      32.109  26.048  21.390  1.00  0.00    -0.087 SA
ATOM     15  O   UNL A   1      32.306  24.836  26.219  1.00  0.00    -0.268 OA
ATOM     16  N   UNL A   1      33.796  23.792  24.786  1.00  0.00    -0.256 N 
ATOM     17  N   UNL A   1      33.923  24.427  22.473  1.00  0.00    -0.186 NA
ATOM     18  C   UNL A   1      34.445  23.737  23.542  1.00  0.00     0.351 C 
ATOM     19  O   UNL A   1      35.451  23.048  23.392  1.00  0.00    -0.246 OA
BRANCH  16  20
ATOM     20  C   UNL A   1      34.041  22.704  25.728  1.00  0.00     0.163 C 
BRANCH  20  21
ATOM     21  C   UNL A   1      32.917  21.686  26.022  1.00  0.00     0.138 C 
ATOM     22  C   UNL A   1      31.960  21.329  24.893  1.00  0.00     0.036 C 
ATOM     23  O   UNL A   1      33.591  20.418  26.261  1.00  0.00    -0.376 OA
ATOM     24  C   UNL A   1      32.814  20.456  24.006  1.00  0.00     0.031 C 
ATOM     25  C   UNL A   1      33.608  19.668  25.029  1.00  0.00     0.160 C 
ENDBRANCH  20  21
ENDBRANCH  16  20
ENDBRANCH   5   8
ENDBRANCH   3   4
ENDBRANCH   2   3
ENDBRANCH   1   2
BRANCH   1  26
ATOM     26  C   UNL A   1      33.630  28.364  27.175  1.00  0.00     0.116 C 
BRANCH  26  27
ATOM     27  N   UNL A   1      33.486  29.748  27.600  1.00  0.00    -0.352 N 
ATOM     28  C   UNL A   1      34.425  30.562  28.187  1.00  0.00     0.251 C 
ATOM     29  H   UNL A   1      32.602  30.154  27.448  1.00  0.00     0.163 HD
ATOM     30  O   UNL A   1      34.115  31.681  28.582  1.00  0.00    -0.269 OA
BRANCH  28  31
ATOM     31  C   UNL A   1      35.800  30.056  28.373  1.00  0.00     0.039 A 
ATOM     32  C   UNL A   1      36.679  30.086  27.289  1.00  0.00     0.014 A 
ATOM     33  C   UNL A   1      36.229  29.608  29.626  1.00  0.00     0.014 A 
ATOM     34  C   UNL A   1      38.017  29.739  27.480  1.00  0.00     0.010 A 
ATOM     35  C   UNL A   1      37.576  29.318  29.827  1.00  0.00     0.010 A 
ATOM     36  C   UNL A   1      38.484  29.392  28.760  1.00  0.00    -0.014 A 
BRANCH  36  37
ATOM     37  C   UNL A   1      39.923  29.131  29.009  1.00  0.00     0.031 A 
ATOM     38  C   UNL A   1      40.516  27.791  28.678  1.00  0.00     0.074 A 
ATOM     39  C   UNL A   1      40.676  30.080  29.601  1.00  0.00     0.049 A 
ATOM     40  N   UNL A   1      41.728  27.349  28.902  1.00  0.00    -0.248 NA
ATOM     41  C   UNL A   1      39.628  26.810  28.034  1.00  0.00     0.031 C 
ATOM     42  C   UNL A   1      40.206  31.406  30.010  1.00  0.00     0.029 A 
ATOM     43  N   UNL A   1      41.997  30.068  29.972  1.00  0.00    -0.354 N 
ATOM     44  C   UNL A   1      41.744  26.039  28.442  1.00  0.00     0.074 A 
ATOM     45  C   UNL A   1      40.410  25.742  27.963  1.00  0.00     0.031 C 
ATOM     46  C   UNL A   1      41.227  32.084  30.560  1.00  0.00     0.029 A 
ATOM     47  C   UNL A   1      42.412  31.233  30.575  1.00  0.00     0.049 A 
ATOM     48  H   UNL A   1      42.593  29.299  29.822  1.00  0.00     0.167 HD
ATOM     49  C   UNL A   1      42.778  25.167  28.405  1.00  0.00     0.031 A 
ATOM     50  C   UNL A   1      43.609  31.575  31.089  1.00  0.00     0.031 A 
ATOM     51  C   UNL A   1      44.108  25.467  28.864  1.00  0.00     0.049 A 
ATOM     52  C   UNL A   1      44.743  30.590  31.028  1.00  0.00     0.074 A 
ATOM     53  C   UNL A   1      45.234  24.662  28.826  1.00  0.00     0.029 A 
ATOM     54  N   UNL A   1      44.493  26.667  29.441  1.00  0.00    -0.354 N 
ATOM     55  N   UNL A   1      44.750  29.371  30.543  1.00  0.00    -0.248 NA
ATOM     56  C   UNL A   1      46.034  31.030  31.576  1.00  0.00     0.031 C 
ATOM     57  C   UNL A   1      46.293  25.365  29.409  1.00  0.00     0.029 A 
ATOM     58  C   UNL A   1      45.835  26.622  29.774  1.00  0.00     0.049 A 
ATOM     59  H   UNL A   1      43.899  27.438  29.592  1.00  0.00     0.167 HD
ATOM     60  C   UNL A   1      46.049  28.907  30.708  1.00  0.00     0.074 A 
ATOM     61  C   UNL A   1      46.804  29.980  31.324  1.00  0.00     0.031 C 
ATOM     62  C   UNL A   1      46.571  27.699  30.382  1.00  0.00     0.031 A 
BRANCH  49  63
ATOM     63  C   UNL A   1      42.513  23.800  27.836  1.00  0.00    -0.014 A 
ATOM     64  C   UNL A   1      42.577  23.573  26.449  1.00  0.00     0.010 A 
ATOM     65  C   UNL A   1      42.244  22.721  28.697  1.00  0.00     0.010 A 
ATOM     66  C   UNL A   1      42.343  22.297  25.931  1.00  0.00     0.020 A 
ATOM     67  C   UNL A   1      42.031  21.439  28.184  1.00  0.00     0.020 A 
ATOM     68  C   UNL A   1      42.067  21.238  26.802  1.00  0.00     0.054 A 
BRANCH  68  69
ATOM     69  S   UNL A   1      41.798  19.586  26.104  1.00  0.00     0.124 S 
ATOM     70  O   UNL A   1      42.149  18.725  27.230  1.00  0.00    -0.237 OA
ATOM     71  O   UNL A   1      40.382  19.612  25.750  1.00  0.00    -0.237 OA
ATOM     72  O   UNL A   1      42.720  19.535  24.971  1.00  0.00    -0.744 OA
ENDBRANCH  68  69
ENDBRANCH  49  63
BRANCH  50  73
ATOM     73  C   UNL A   1      43.801  32.915  31.702  1.00  0.00    -0.014 A 
ATOM     74  C   UNL A   1      43.566  33.111  33.075  1.00  0.00     0.010 A 
ATOM     75  C   UNL A   1      44.213  34.005  30.915  1.00  0.00     0.010 A 
ATOM     76  C   UNL A   1      43.715  34.378  33.644  1.00  0.00     0.020 A 
ATOM     77  C   UNL A   1      44.387  35.269  31.486  1.00  0.00     0.020 A 
ATOM     78  C   UNL A   1      44.121  35.450  32.845  1.00  0.00     0.054 A 
BRANCH  78  79
ATOM     79  S   UNL A   1      44.345  37.081  33.608  1.00  0.00     0.124 S 
ATOM     80  O   UNL A   1      44.700  37.907  32.458  1.00  0.00    -0.237 OA
ATOM     81  O   UNL A   1      43.033  37.342  34.195  1.00  0.00    -0.237 OA
ATOM     82  O   UNL A   1      45.417  36.858  34.577  1.00  0.00    -0.744 OA
ENDBRANCH  78  79
ENDBRANCH  50  73
BRANCH  62  83
ATOM     83  C   UNL A   1      48.033  27.484  30.657  1.00  0.00    -0.014 A 
ATOM     84  C   UNL A   1      48.467  26.940  31.877  1.00  0.00     0.010 A 
ATOM     85  C   UNL A   1      48.979  27.782  29.659  1.00  0.00     0.010 A 
ATOM     86  C   UNL A   1      49.828  26.722  32.107  1.00  0.00     0.020 A 
ATOM     87  C   UNL A   1      50.337  27.545  29.876  1.00  0.00     0.020 A 
ATOM     88  C   UNL A   1      50.755  27.028  31.106  1.00  0.00     0.054 A 
BRANCH  88  89
ATOM     89  S   UNL A   1      52.512  26.693  31.406  1.00  0.00     0.124 S 
ATOM     90  O   UNL A   1      52.844  27.697  32.412  1.00  0.00    -0.237 OA
ATOM     91  O   UNL A   1      52.502  25.311  31.878  1.00  0.00    -0.237 OA
ATOM     92  O   UNL A   1      53.130  26.892  30.097  1.00  0.00    -0.744 OA
ENDBRANCH  88  89
ENDBRANCH  62  83
ENDBRANCH  36  37
ENDBRANCH  28  31
ENDBRANCH  26  27
ENDBRANCH   1  26
TORSDOF 16
ENDMDL
MODEL 3
REMARK VINA RESULT:     -10.9      2.635      9.289
REMARK SMILES CC1=C2C(=O)N(C[C@H]3CCCO3)C(=O)N=C2S[C@@H]1C(=O)NCCCCNC(=O)c1ccc(-c2c3nc(c(-c4ccc(S(=O)(=O)[O-])cc4)c4ccc([nH]4)c(-c4ccc(S(=O)(=O)[O-])cc4)c4nc(c(-c5ccc(S(=O)(=O)[O-])cc5)c5ccc2[nH]5)C=C4)C=C3)cc1
REMARK SMILES IDX 24 1 23 2 22 3 21 4 19 5 20 6 18 8 1 9 2 10 3 11 4 12 16 13
REMARK SMILES IDX 17 14 5 15 6 16 15 17 13 18 14 19 7 20 8 21 9 22 12 23 10 24
REMARK SMILES IDX 11 25 25 26 26 27 27 28 28 30 29 31 30 32 88 33 31 34 87 35
REMARK SMILES IDX 32 36 33 37 34 38 81 39 35 40 86 41 80 42 82 43 36 44 85 45
REMARK SMILES IDX 79 46 78 47 37 49 67 50 48 51 66 52 49 53 52 54 65 55 83 56
REMARK SMILES IDX 50 57 51 58 64 60 84 61 53 62 38 63 39 64 47 65 40 66 46 67
REMARK SMILES IDX 41 68 42 69 43 70 44 71 45 72 68 73 69 74 77 75 70 76 76 77
REMARK SMILES IDX 71 78 72 79 73 80 74 81 75 82 54 83 55 84 63 85 56 86 62 87
REMARK SMILES IDX 57 88 58 89 59 90 60 91 61 92
REMARK H PARENT 21 7 26 29 82 48 52 59
REMARK Flexibility Score: inf
ROOT
ATOM      1  C   UNL A   1      35.816  23.339  25.998  1.00  0.00     0.023 C 
ENDROOT
BRANCH   1   2
ATOM      2  C   UNL A   1      35.482  21.850  26.098  1.00  0.00     0.023 C 
BRANCH   2   3
ATOM      3  C   UNL A   1      35.024  21.226  24.784  1.00  0.00     0.116 C 
BRANCH   3   4
ATOM      4  N   UNL A   1      34.063  20.163  25.003  1.00  0.00    -0.355 N 
ATOM      5  C   UNL A   1      32.710  20.201  25.153  1.00  0.00     0.237 C 
ATOM      6  O   UNL A   1      32.138  19.124  25.361  1.00  0.00    -0.273 OA
ATOM      7  H   UNL A   1      34.455  19.262  25.054  1.00  0.00     0.163 HD
BRANCH   5   8
ATOM      8  C   UNL A   1      31.883  21.482  24.990  1.00  0.00     0.169 C 
ATOM      9  C   UNL A   1      32.228  21.689  22.433  1.00  0.00     0.042 C 
ATOM     10  C   UNL A   1      32.237  22.316  23.793  1.00  0.00    -0.035 C 
ATOM     11  C   UNL A   1      32.491  23.610  24.039  1.00  0.00     0.073 C 
ATOM     12  C   UNL A   1      32.739  24.692  23.088  1.00  0.00     0.264 C 
ATOM     13  C   UNL A   1      32.449  23.957  25.447  1.00  0.00     0.116 C 
ATOM     14  S   UNL A   1      32.009  22.590  26.433  1.00  0.00    -0.087 SA
ATOM     15  O   UNL A   1      32.746  24.481  21.882  1.00  0.00    -0.268 OA
ATOM     16  N   UNL A   1      32.857  25.935  23.682  1.00  0.00    -0.256 N 
ATOM     17  N   UNL A   1      32.704  25.113  25.934  1.00  0.00    -0.186 NA
ATOM     18  C   UNL A   1      32.977  26.144  25.065  1.00  0.00     0.351 C 
ATOM     19  O   UNL A   1      33.283  27.249  25.506  1.00  0.00    -0.246 OA
BRANCH  16  20
ATOM     20  C   UNL A   1      32.648  27.104  22.834  1.00  0.00     0.163 C 
BRANCH  20  21
ATOM     21  C   UNL A   1      31.226  27.429  22.325  1.00  0.00     0.138 C 
ATOM     22  C   UNL A   1      30.046  27.083  23.224  1.00  0.00     0.036 C 
ATOM     23  O   UNL A   1      31.152  28.882  22.272  1.00  0.00    -0.376 OA
ATOM     24  C   UNL A   1      30.136  28.140  24.298  1.00  0.00     0.031 C 
ATOM     25  C   UNL A   1      30.554  29.357  23.495  1.00  0.00     0.160 C 
ENDBRANCH  20  21
ENDBRANCH  16  20
ENDBRANCH   5   8
ENDBRANCH   3   4
ENDBRANCH   2   3
ENDBRANCH   1   2
BRANCH   1  26
ATOM     26  C   UNL A   1      37.077  23.669  25.204  1.00  0.00     0.116 C 
BRANCH  26  27
ATOM     27  N   UNL A   1      38.169  22.740  25.449  1.00  0.00    -0.352 N 
ATOM     28  C   UNL A   1      39.346  22.965  26.124  1.00  0.00     0.251 C 
ATOM     29  H   UNL A   1      38.051  21.833  25.086  1.00  0.00     0.163 HD
ATOM     30  O   UNL A   1      40.216  22.102  26.156  1.00  0.00    -0.269 OA
BRANCH  28  31
ATOM     31  C   UNL A   1      39.563  24.275  26.772  1.00  0.00     0.039 A 
ATOM     32  C   UNL A   1      39.082  24.471  28.067  1.00  0.00     0.014 A 
ATOM     33  C   UNL A   1      40.287  25.278  26.122  1.00  0.00     0.014 A 
ATOM     34  C   UNL A   1      39.394  25.650  28.745  1.00  0.00     0.010 A 
ATOM     35  C   UNL A   1      40.646  26.428  26.820  1.00  0.00     0.010 A 
ATOM     36  C   UNL A   1      40.213  26.619  28.141  1.00  0.00    -0.014 A 
BRANCH  36  37
ATOM     37  C   UNL A   1      40.652  27.826  28.883  1.00  0.00     0.031 A 
ATOM     38  C   UNL A   1      42.000  27.856  29.547  1.00  0.00     0.074 A 
ATOM     39  C   UNL A   1      39.805  28.867  29.019  1.00  0.00     0.049 A 
ATOM     40  N   UNL A   1      42.522  28.783  30.309  1.00  0.00    -0.248 NA
ATOM     41  C   UNL A   1      42.864  26.681  29.351  1.00  0.00     0.031 C 
ATOM     42  C   UNL A   1      38.453  28.941  28.459  1.00  0.00     0.029 A 
ATOM     43  N   UNL A   1      39.954  30.058  29.684  1.00  0.00    -0.354 N 
ATOM     44  C   UNL A   1      43.766  28.300  30.694  1.00  0.00     0.074 A 
ATOM     45  C   UNL A   1      43.904  26.980  30.117  1.00  0.00     0.031 C 
ATOM     46  C   UNL A   1      37.904  30.122  28.790  1.00  0.00     0.029 A 
ATOM     47  C   UNL A   1      38.848  30.873  29.611  1.00  0.00     0.049 A 
ATOM     48  H   UNL A   1      40.775  30.308  30.166  1.00  0.00     0.167 HD
ATOM     49  C   UNL A   1      44.714  28.907  31.446  1.00  0.00     0.031 A 
ATOM     50  C   UNL A   1      38.616  32.084  30.153  1.00  0.00     0.031 A 
ATOM     51  C   UNL A   1      44.584  30.225  32.005  1.00  0.00     0.049 A 
ATOM     52  C   UNL A   1      39.689  32.738  30.977  1.00  0.00     0.074 A 
ATOM     53  C   UNL A   1      45.510  30.942  32.743  1.00  0.00     0.029 A 
ATOM     54  N   UNL A   1      43.460  31.027  31.885  1.00  0.00    -0.354 N 
ATOM     55  N   UNL A   1      40.879  32.284  31.289  1.00  0.00    -0.248 NA
ATOM     56  C   UNL A   1      39.391  34.073  31.516  1.00  0.00     0.031 C 
ATOM     57  C   UNL A   1      44.933  32.166  33.096  1.00  0.00     0.029 A 
ATOM     58  C   UNL A   1      43.663  32.227  32.544  1.00  0.00     0.049 A 
ATOM     59  H   UNL A   1      42.638  30.780  31.402  1.00  0.00     0.167 HD
ATOM     60  C   UNL A   1      41.479  33.285  32.042  1.00  0.00     0.074 A 
ATOM     61  C   UNL A   1      40.528  34.375  32.127  1.00  0.00     0.031 C 
ATOM     62  C   UNL A   1      42.708  33.301  32.614  1.00  0.00     0.031 A 
BRANCH  49  63
ATOM     63  C   UNL A   1      45.988  28.148  31.700  1.00  0.00    -0.014 A 
ATOM     64  C   UNL A   1      47.086  28.275  30.830  1.00  0.00     0.010 A 
ATOM     65  C   UNL A   1      46.106  27.337  32.843  1.00  0.00     0.010 A 
ATOM     66  C   UNL A   1      48.270  27.577  31.082  1.00  0.00     0.020 A 
ATOM     67  C   UNL A   1      47.297  26.656  33.109  1.00  0.00     0.020 A 
ATOM     68  C   UNL A   1      48.367  26.768  32.218  1.00  0.00     0.054 A 
BRANCH  68  69
ATOM     69  S   UNL A   1      49.926  25.899  32.537  1.00  0.00     0.124 S 
ATOM     70  O   UNL A   1      49.453  24.590  32.982  1.00  0.00    -0.237 OA
ATOM     71  O   UNL A   1      50.580  25.920  31.232  1.00  0.00    -0.237 OA
ATOM     72  O   UNL A   1      50.571  26.711  33.567  1.00  0.00    -0.744 OA
ENDBRANCH  68  69
ENDBRANCH  49  63
BRANCH  50  73
ATOM     73  C   UNL A   1      37.312  32.763  29.928  1.00  0.00    -0.014 A 
ATOM     74  C   UNL A   1      37.080  33.484  28.744  1.00  0.00     0.010 A 
ATOM     75  C   UNL A   1      36.300  32.698  30.902  1.00  0.00     0.010 A 
ATOM     76  C   UNL A   1      35.867  34.149  28.547  1.00  0.00     0.020 A 
ATOM     77  C   UNL A   1      35.076  33.343  30.698  1.00  0.00     0.020 A 
ATOM     78  C   UNL A   1      34.874  34.077  29.528  1.00  0.00     0.054 A 
BRANCH  78  79
ATOM     79  S   UNL A   1      33.291  34.917  29.242  1.00  0.00     0.124 S 
ATOM     80  O   UNL A   1      32.673  34.063  28.232  1.00  0.00    -0.237 OA
ATOM     81  O   UNL A   1      32.670  34.887  30.564  1.00  0.00    -0.237 OA
ATOM     82  O   UNL A   1      33.691  36.246  28.783  1.00  0.00    -0.744 OA
ENDBRANCH  78  79
ENDBRANCH  50  73
BRANCH  62  83
ATOM     83  C   UNL A   1      43.105  34.546  33.358  1.00  0.00    -0.014 A 
ATOM     84  C   UNL A   1      43.071  34.592  34.762  1.00  0.00     0.010 A 
ATOM     85  C   UNL A   1      43.567  35.665  32.643  1.00  0.00     0.010 A 
ATOM     86  C   UNL A   1      43.469  35.748  35.439  1.00  0.00     0.020 A 
ATOM     87  C   UNL A   1      43.986  36.814  33.316  1.00  0.00     0.020 A 
ATOM     88  C   UNL A   1      43.921  36.853  34.711  1.00  0.00     0.054 A 
BRANCH  88  89
ATOM     89  S   UNL A   1      44.477  38.327  35.611  1.00  0.00     0.124 S 
ATOM     90  O   UNL A   1      45.924  38.138  35.638  1.00  0.00    -0.237 OA
ATOM     91  O   UNL A   1      44.001  39.419  34.767  1.00  0.00    -0.237 OA
ATOM     92  O   UNL A   1      43.808  38.213  36.906  1.00  0.00    -0.744 OA
ENDBRANCH  88  89
ENDBRANCH  62  83
ENDBRANCH  36  37
ENDBRANCH  28  31
ENDBRANCH  26  27
ENDBRANCH   1  26
TORSDOF 16
ENDMDL
