MODEL 1
REMARK VINA RESULT:     -13.8      0.000      0.000
REMARK SMILES Cc1ccc(C[C@@H](Cc2cc(F)cc(Br)c2)C(=O)NCCCCNC(=O)c2ccc(-c3c4nc(c(-c5ccc(S(=O)(=O)[O-])cc5)c5ccc([nH]5)c(-c5ccc(S(=O)(=O)[O-])cc5)c5nc(c(-c6ccc(S(=O)(=O)[O-])cc6)c6ccc3[nH]6)C=C5)C=C4)cc2)cc1
REMARK SMILES IDX 22 1 21 2 20 3 19 4 17 5 18 6 7 8 6 9 5 10 1 11 2 12 3 13
REMARK SMILES IDX 88 14 4 15 87 16 8 17 9 18 10 19 16 20 11 21 14 22 12 23
REMARK SMILES IDX 13 24 15 25 23 26 24 27 25 28 26 30 27 31 28 32 86 33 29 34
REMARK SMILES IDX 85 35 30 36 31 37 32 38 79 39 33 40 84 41 78 42 80 43 34 44
REMARK SMILES IDX 83 45 77 46 76 47 35 49 65 50 46 51 64 52 47 53 50 54 63 55
REMARK SMILES IDX 81 56 48 57 49 58 62 60 82 61 51 62 36 63 37 64 45 65 38 66
REMARK SMILES IDX 44 67 39 68 40 69 41 70 42 71 43 72 66 73 67 74 75 75 68 76
REMARK SMILES IDX 74 77 69 78 70 79 71 80 72 81 73 82 52 83 53 84 61 85 54 86
REMARK SMILES IDX 60 87 55 88 56 89 57 90 58 91 59 92
REMARK H PARENT 19 7 24 29 80 48 50 59
REMARK Flexibility Score: inf
ROOT
ATOM      1  C   UNL A   1      34.373  28.456  26.454  1.00  0.00     0.023 C 
ENDROOT
BRANCH   1   2
ATOM      2  C   UNL A   1      33.773  28.946  25.132  1.00  0.00     0.023 C 
BRANCH   2   3
ATOM      3  C   UNL A   1      32.323  29.436  25.228  1.00  0.00     0.116 C 
BRANCH   3   4
ATOM      4  N   UNL A   1      31.428  28.370  25.663  1.00  0.00    -0.356 N 
ATOM      5  C   UNL A   1      31.020  27.231  25.048  1.00  0.00     0.223 C 
ATOM      6  O   UNL A   1      30.237  26.496  25.659  1.00  0.00    -0.275 OA
ATOM      7  H   UNL A   1      31.052  28.500  26.564  1.00  0.00     0.163 HD
BRANCH   5   8
ATOM      8  C   UNL A   1      31.486  26.848  23.653  1.00  0.00     0.087 C 
BRANCH   8   9
ATOM      9  C   UNL A   1      31.524  25.299  23.603  1.00  0.00     0.049 C 
BRANCH   9  10
ATOM     10  C   UNL A   1      32.850  24.588  23.749  1.00  0.00    -0.047 A 
ATOM     11  C   UNL A   1      36.822  22.883  23.830  1.00  0.00     0.044 C 
ATOM     12  C   UNL A   1      35.438  23.455  23.801  1.00  0.00    -0.051 A 
ATOM     13  C   UNL A   1      35.082  24.452  24.712  1.00  0.00     0.004 A 
ATOM     14  C   UNL A   1      34.486  23.012  22.877  1.00  0.00     0.004 A 
ATOM     15  C   UNL A   1      33.809  25.024  24.672  1.00  0.00     0.004 A 
ATOM     16  C   UNL A   1      33.204  23.569  22.855  1.00  0.00     0.004 A 
ENDBRANCH   9  10
ENDBRANCH   8   9
BRANCH   8  17
ATOM     17  C   UNL A   1      30.753  27.528  22.475  1.00  0.00     0.049 C 
BRANCH  17  18
ATOM     18  C   UNL A   1      29.608  28.513  22.605  1.00  0.00    -0.043 A 
ATOM     19  C   UNL A   1      28.379  27.985  23.038  1.00  0.00     0.043 A 
ATOM     20  C   UNL A   1      29.665  29.891  22.369  1.00  0.00     0.019 A 
ATOM     21  C   UNL A   1      27.293  28.811  23.305  1.00  0.00     0.124 A 
ATOM     22  C   UNL A   1      28.587  30.721  22.715  1.00  0.00     0.021 A 
ATOM     23  F   UNL A   1      26.136  28.250  23.672  1.00  0.00    -0.207 F 
ATOM     24  C   UNL A   1      27.396  30.186  23.191  1.00  0.00     0.055 A 
ATOM     25  Br  UNL A   1      28.773  32.598  22.571  1.00  0.00    -0.051 Br
ENDBRANCH  17  18
ENDBRANCH   8  17
ENDBRANCH   5   8
ENDBRANCH   3   4
ENDBRANCH   2   3
ENDBRANCH   1   2
BRANCH   1  26
ATOM     26  C   UNL A   1      34.431  29.527  27.528  1.00  0.00     0.116 C 
BRANCH  26  27
ATOM     27  N   UNL A   1      35.343  30.621  27.248  1.00  0.00    -0.352 N 
ATOM     28  C   UNL A   1      36.375  30.910  28.137  1.00  0.00     0.251 C 
ATOM     29  H   UNL A   1      35.231  31.157  26.430  1.00  0.00     0.163 HD
ATOM     30  O   UNL A   1      36.466  31.924  28.797  1.00  0.00    -0.269 OA
BRANCH  28  31
ATOM     31  C   UNL A   1      37.370  29.821  28.269  1.00  0.00     0.039 A 
ATOM     32  C   UNL A   1      37.434  29.069  29.443  1.00  0.00     0.014 A 
ATOM     33  C   UNL A   1      38.351  29.709  27.283  1.00  0.00     0.014 A 
ATOM     34  C   UNL A   1      38.567  28.292  29.683  1.00  0.00     0.010 A 
ATOM     35  C   UNL A   1      39.510  29.021  27.565  1.00  0.00     0.010 A 
ATOM     36  C   UNL A   1      39.627  28.334  28.774  1.00  0.00    -0.014 A 
BRANCH  36  37
ATOM     37  C   UNL A   1      40.920  27.707  28.999  1.00  0.00     0.031 A 
ATOM     38  C   UNL A   1      41.118  26.293  28.590  1.00  0.00     0.074 A 
ATOM     39  C   UNL A   1      41.954  28.439  29.473  1.00  0.00     0.049 A 
ATOM     40  N   UNL A   1      42.000  25.506  29.106  1.00  0.00    -0.248 NA
ATOM     41  C   UNL A   1      40.309  25.643  27.557  1.00  0.00     0.031 C 
ATOM     42  C   UNL A   1      43.353  28.018  29.537  1.00  0.00     0.029 A 
ATOM     43  N   UNL A   1      41.965  29.664  30.143  1.00  0.00    -0.354 N 
ATOM     44  C   UNL A   1      42.089  24.400  28.291  1.00  0.00     0.074 A 
ATOM     45  C   UNL A   1      40.962  24.487  27.394  1.00  0.00     0.031 C 
ATOM     46  C   UNL A   1      43.979  28.760  30.465  1.00  0.00     0.029 A 
ATOM     47  C   UNL A   1      42.958  29.554  31.127  1.00  0.00     0.049 A 
ATOM     48  H   UNL A   1      41.394  30.444  29.961  1.00  0.00     0.167 HD
ATOM     49  C   UNL A   1      43.195  23.605  28.343  1.00  0.00     0.031 A 
ATOM     50  C   UNL A   1      42.725  29.531  32.476  1.00  0.00     0.031 A 
ATOM     51  C   UNL A   1      44.150  24.074  29.342  1.00  0.00     0.049 A 
ATOM     52  C   UNL A   1      43.264  28.266  33.129  1.00  0.00     0.074 A 
ATOM     53  C   UNL A   1      45.306  24.832  29.249  1.00  0.00     0.029 A 
ATOM     54  N   UNL A   1      43.796  24.057  30.686  1.00  0.00    -0.354 N 
ATOM     55  N   UNL A   1      43.498  27.162  32.473  1.00  0.00    -0.248 NA
ATOM     56  C   UNL A   1      43.587  28.137  34.549  1.00  0.00     0.031 C 
ATOM     57  C   UNL A   1      45.593  25.351  30.538  1.00  0.00     0.029 A 
ATOM     58  C   UNL A   1      44.634  24.877  31.417  1.00  0.00     0.049 A 
ATOM     59  H   UNL A   1      43.052  23.534  31.064  1.00  0.00     0.167 HD
ATOM     60  C   UNL A   1      44.048  26.228  33.308  1.00  0.00     0.074 A 
ATOM     61  C   UNL A   1      44.061  26.878  34.607  1.00  0.00     0.031 C 
ATOM     62  C   UNL A   1      44.470  25.009  32.859  1.00  0.00     0.031 A 
BRANCH  49  63
ATOM     63  C   UNL A   1      43.519  22.606  27.259  1.00  0.00    -0.014 A 
ATOM     64  C   UNL A   1      42.676  21.494  27.058  1.00  0.00     0.010 A 
ATOM     65  C   UNL A   1      44.661  22.688  26.440  1.00  0.00     0.010 A 
ATOM     66  C   UNL A   1      42.999  20.471  26.156  1.00  0.00     0.020 A 
ATOM     67  C   UNL A   1      45.016  21.654  25.557  1.00  0.00     0.020 A 
ATOM     68  C   UNL A   1      44.183  20.546  25.426  1.00  0.00     0.054 A 
BRANCH  68  69
ATOM     69  S   UNL A   1      44.615  19.177  24.319  1.00  0.00     0.124 S 
ATOM     70  O   UNL A   1      46.010  18.914  24.668  1.00  0.00    -0.237 OA
ATOM     71  O   UNL A   1      43.662  18.144  24.714  1.00  0.00    -0.237 OA
ATOM     72  O   UNL A   1      44.411  19.733  22.983  1.00  0.00    -0.744 OA
ENDBRANCH  68  69
ENDBRANCH  49  63
BRANCH  50  73
ATOM     73  C   UNL A   1      41.511  30.280  32.907  1.00  0.00    -0.014 A 
ATOM     74  C   UNL A   1      40.323  29.541  33.096  1.00  0.00     0.010 A 
ATOM     75  C   UNL A   1      41.628  31.539  33.521  1.00  0.00     0.010 A 
ATOM     76  C   UNL A   1      39.369  29.951  34.031  1.00  0.00     0.020 A 
ATOM     77  C   UNL A   1      40.665  31.959  34.450  1.00  0.00     0.020 A 
ATOM     78  C   UNL A   1      39.587  31.123  34.757  1.00  0.00     0.054 A 
BRANCH  78  79
ATOM     79  S   UNL A   1      38.554  31.433  36.221  1.00  0.00     0.124 S 
ATOM     80  O   UNL A   1      37.477  32.255  35.679  1.00  0.00    -0.237 OA
ATOM     81  O   UNL A   1      38.173  30.076  36.624  1.00  0.00    -0.237 OA
ATOM     82  O   UNL A   1      39.463  32.107  37.142  1.00  0.00    -0.744 OA
ENDBRANCH  78  79
ENDBRANCH  50  73
BRANCH  62  83
ATOM     83  C   UNL A   1      44.871  23.834  33.716  1.00  0.00    -0.014 A 
ATOM     84  C   UNL A   1      44.024  22.756  34.012  1.00  0.00     0.010 A 
ATOM     85  C   UNL A   1      46.224  23.718  34.125  1.00  0.00     0.010 A 
ATOM     86  C   UNL A   1      44.491  21.640  34.721  1.00  0.00     0.020 A 
ATOM     87  C   UNL A   1      46.711  22.592  34.790  1.00  0.00     0.020 A 
ATOM     88  C   UNL A   1      45.832  21.564  35.103  1.00  0.00     0.054 A 
BRANCH  88  89
ATOM     89  S   UNL A   1      46.443  20.078  35.935  1.00  0.00     0.124 S 
ATOM     90  O   UNL A   1      45.858  20.217  37.266  1.00  0.00    -0.237 OA
ATOM     91  O   UNL A   1      45.893  18.997  35.120  1.00  0.00    -0.237 OA
ATOM     92  O   UNL A   1      47.896  20.221  35.869  1.00  0.00    -0.744 OA
ENDBRANCH  88  89
ENDBRANCH  62  83
ENDBRANCH  36  37
ENDBRANCH  28  31
ENDBRANCH  26  27
ENDBRANCH   1  26
TORSDOF 18
ENDMDL
MODEL 2
REMARK VINA RESULT:     -13.4      1.855      2.785
REMARK SMILES Cc1ccc(C[C@@H](Cc2cc(F)cc(Br)c2)C(=O)NCCCCNC(=O)c2ccc(-c3c4nc(c(-c5ccc(S(=O)(=O)[O-])cc5)c5ccc([nH]5)c(-c5ccc(S(=O)(=O)[O-])cc5)c5nc(c(-c6ccc(S(=O)(=O)[O-])cc6)c6ccc3[nH]6)C=C5)C=C4)cc2)cc1
REMARK SMILES IDX 22 1 21 2 20 3 19 4 17 5 18 6 7 8 6 9 5 10 1 11 2 12 3 13
REMARK SMILES IDX 88 14 4 15 87 16 8 17 9 18 10 19 16 20 11 21 14 22 12 23
REMARK SMILES IDX 13 24 15 25 23 26 24 27 25 28 26 30 27 31 28 32 86 33 29 34
REMARK SMILES IDX 85 35 30 36 31 37 32 38 79 39 33 40 84 41 78 42 80 43 34 44
REMARK SMILES IDX 83 45 77 46 76 47 35 49 65 50 46 51 64 52 47 53 50 54 63 55
REMARK SMILES IDX 81 56 48 57 49 58 62 60 82 61 51 62 36 63 37 64 45 65 38 66
REMARK SMILES IDX 44 67 39 68 40 69 41 70 42 71 43 72 66 73 67 74 75 75 68 76
REMARK SMILES IDX 74 77 69 78 70 79 71 80 72 81 73 82 52 83 53 84 61 85 54 86
REMARK SMILES IDX 60 87 55 88 56 89 57 90 58 91 59 92
REMARK H PARENT 19 7 24 29 80 48 50 59
REMARK Flexibility Score: inf
ROOT
ATOM      1  C   UNL A   1      33.963  28.783  25.957  1.00  0.00     0.023 C 
ENDROOT
BRANCH   1   2
ATOM      2  C   UNL A   1      32.891  29.609  25.238  1.00  0.00     0.023 C 
BRANCH   2   3
ATOM      3  C   UNL A   1      32.710  29.271  23.753  1.00  0.00     0.116 C 
BRANCH   3   4
ATOM      4  N   UNL A   1      31.307  29.327  23.360  1.00  0.00    -0.356 N 
ATOM      5  C   UNL A   1      30.336  28.378  23.355  1.00  0.00     0.223 C 
ATOM      6  O   UNL A   1      29.213  28.708  22.958  1.00  0.00    -0.275 OA
ATOM      7  H   UNL A   1      31.012  30.211  23.042  1.00  0.00     0.163 HD
BRANCH   5   8
ATOM      8  C   UNL A   1      30.591  26.951  23.809  1.00  0.00     0.087 C 
BRANCH   8   9
ATOM      9  C   UNL A   1      31.578  26.326  22.791  1.00  0.00     0.049 C 
BRANCH   9  10
ATOM     10  C   UNL A   1      31.831  24.836  22.827  1.00  0.00    -0.047 A 
ATOM     11  C   UNL A   1      32.622  20.629  23.428  1.00  0.00     0.044 C 
ATOM     12  C   UNL A   1      32.360  22.086  23.204  1.00  0.00    -0.051 A 
ATOM     13  C   UNL A   1      31.050  22.568  23.236  1.00  0.00     0.004 A 
ATOM     14  C   UNL A   1      33.404  22.985  22.960  1.00  0.00     0.004 A 
ATOM     15  C   UNL A   1      30.792  23.930  23.068  1.00  0.00     0.004 A 
ATOM     16  C   UNL A   1      33.142  24.345  22.769  1.00  0.00     0.004 A 
ENDBRANCH   9  10
ENDBRANCH   8   9
BRANCH   8  17
ATOM     17  C   UNL A   1      30.969  26.763  25.296  1.00  0.00     0.049 C 
BRANCH  17  18
ATOM     18  C   UNL A   1      31.324  25.443  25.951  1.00  0.00    -0.043 A 
ATOM     19  C   UNL A   1      30.245  24.623  26.325  1.00  0.00     0.043 A 
ATOM     20  C   UNL A   1      32.614  24.953  26.188  1.00  0.00     0.019 A 
ATOM     21  C   UNL A   1      30.453  23.343  26.826  1.00  0.00     0.124 A 
ATOM     22  C   UNL A   1      32.807  23.632  26.622  1.00  0.00     0.021 A 
ATOM     23  F   UNL A   1      29.391  22.624  27.206  1.00  0.00    -0.207 F 
ATOM     24  C   UNL A   1      31.728  22.817  26.939  1.00  0.00     0.055 A 
ATOM     25  Br  UNL A   1      34.564  22.938  26.739  1.00  0.00    -0.051 Br
ENDBRANCH  17  18
ENDBRANCH   8  17
ENDBRANCH   5   8
ENDBRANCH   3   4
ENDBRANCH   2   3
ENDBRANCH   1   2
BRANCH   1  26
ATOM     26  C   UNL A   1      34.426  29.396  27.266  1.00  0.00     0.116 C 
BRANCH  26  27
ATOM     27  N   UNL A   1      35.321  30.529  27.124  1.00  0.00    -0.352 N 
ATOM     28  C   UNL A   1      36.279  30.784  28.102  1.00  0.00     0.251 C 
ATOM     29  H   UNL A   1      35.250  31.117  26.337  1.00  0.00     0.163 HD
ATOM     30  O   UNL A   1      36.293  31.753  28.832  1.00  0.00    -0.269 OA
BRANCH  28  31
ATOM     31  C   UNL A   1      37.296  29.715  28.234  1.00  0.00     0.039 A 
ATOM     32  C   UNL A   1      37.381  28.972  29.412  1.00  0.00     0.014 A 
ATOM     33  C   UNL A   1      38.272  29.616  27.242  1.00  0.00     0.014 A 
ATOM     34  C   UNL A   1      38.531  28.217  29.649  1.00  0.00     0.010 A 
ATOM     35  C   UNL A   1      39.445  28.951  27.520  1.00  0.00     0.010 A 
ATOM     36  C   UNL A   1      39.584  28.275  28.732  1.00  0.00    -0.014 A 
BRANCH  36  37
ATOM     37  C   UNL A   1      40.890  27.673  28.952  1.00  0.00     0.031 A 
ATOM     38  C   UNL A   1      41.114  26.264  28.541  1.00  0.00     0.074 A 
ATOM     39  C   UNL A   1      41.911  28.425  29.423  1.00  0.00     0.049 A 
ATOM     40  N   UNL A   1      42.014  25.494  29.054  1.00  0.00    -0.248 NA
ATOM     41  C   UNL A   1      40.315  25.599  27.510  1.00  0.00     0.031 C 
ATOM     42  C   UNL A   1      43.318  28.033  29.482  1.00  0.00     0.029 A 
ATOM     43  N   UNL A   1      41.900  29.650  30.094  1.00  0.00    -0.354 N 
ATOM     44  C   UNL A   1      42.123  24.391  28.238  1.00  0.00     0.074 A 
ATOM     45  C   UNL A   1      40.991  24.456  27.345  1.00  0.00     0.031 C 
ATOM     46  C   UNL A   1      43.932  28.786  30.408  1.00  0.00     0.029 A 
ATOM     47  C   UNL A   1      42.897  29.559  31.074  1.00  0.00     0.049 A 
ATOM     48  H   UNL A   1      41.312  30.419  29.915  1.00  0.00     0.167 HD
ATOM     49  C   UNL A   1      43.244  23.618  28.285  1.00  0.00     0.031 A 
ATOM     50  C   UNL A   1      42.670  29.531  32.424  1.00  0.00     0.031 A 
ATOM     51  C   UNL A   1      44.194  24.105  29.280  1.00  0.00     0.049 A 
ATOM     52  C   UNL A   1      43.237  28.277  33.074  1.00  0.00     0.074 A 
ATOM     53  C   UNL A   1      45.333  24.887  29.184  1.00  0.00     0.029 A 
ATOM     54  N   UNL A   1      43.845  24.080  30.626  1.00  0.00    -0.354 N 
ATOM     55  N   UNL A   1      43.491  27.178  32.416  1.00  0.00    -0.248 NA
ATOM     56  C   UNL A   1      43.568  28.153  34.493  1.00  0.00     0.031 C 
ATOM     57  C   UNL A   1      45.615  25.410  30.473  1.00  0.00     0.029 A 
ATOM     58  C   UNL A   1      44.669  24.917  31.354  1.00  0.00     0.049 A 
ATOM     59  H   UNL A   1      43.113  23.543  31.006  1.00  0.00     0.167 HD
ATOM     60  C   UNL A   1      44.063  26.255  33.248  1.00  0.00     0.074 A 
ATOM     61  C   UNL A   1      44.067  26.904  34.548  1.00  0.00     0.031 C 
ATOM     62  C   UNL A   1      44.507  25.044  32.797  1.00  0.00     0.031 A 
BRANCH  49  63
ATOM     63  C   UNL A   1      43.584  22.626  27.199  1.00  0.00    -0.014 A 
ATOM     64  C   UNL A   1      42.745  21.515  26.979  1.00  0.00     0.010 A 
ATOM     65  C   UNL A   1      44.738  22.715  26.397  1.00  0.00     0.010 A 
ATOM     66  C   UNL A   1      43.082  20.499  26.074  1.00  0.00     0.020 A 
ATOM     67  C   UNL A   1      45.106  21.687  25.512  1.00  0.00     0.020 A 
ATOM     68  C   UNL A   1      44.275  20.579  25.362  1.00  0.00     0.054 A 
BRANCH  68  69
ATOM     69  S   UNL A   1      44.724  19.218  24.252  1.00  0.00     0.124 S 
ATOM     70  O   UNL A   1      43.778  18.171  24.634  1.00  0.00    -0.237 OA
ATOM     71  O   UNL A   1      44.510  19.807  22.933  1.00  0.00    -0.237 OA
ATOM     72  O   UNL A   1      46.118  18.940  24.590  1.00  0.00    -0.744 OA
ENDBRANCH  68  69
ENDBRANCH  49  63
BRANCH  50  73
ATOM     73  C   UNL A   1      41.443  30.255  32.860  1.00  0.00    -0.014 A 
ATOM     74  C   UNL A   1      40.291  29.483  33.123  1.00  0.00     0.010 A 
ATOM     75  C   UNL A   1      41.532  31.545  33.409  1.00  0.00     0.010 A 
ATOM     76  C   UNL A   1      39.352  29.903  34.070  1.00  0.00     0.020 A 
ATOM     77  C   UNL A   1      40.583  31.975  34.350  1.00  0.00     0.020 A 
ATOM     78  C   UNL A   1      39.549  31.116  34.732  1.00  0.00     0.054 A 
BRANCH  78  79
ATOM     79  S   UNL A   1      38.551  31.458  36.214  1.00  0.00     0.124 S 
ATOM     80  O   UNL A   1      38.201  30.120  36.675  1.00  0.00    -0.237 OA
ATOM     81  O   UNL A   1      39.496  32.193  37.060  1.00  0.00    -0.237 OA
ATOM     82  O   UNL A   1      37.446  32.261  35.700  1.00  0.00    -0.744 OA
ENDBRANCH  78  79
ENDBRANCH  50  73
BRANCH  62  83
ATOM     83  C   UNL A   1      44.934  23.877  33.652  1.00  0.00    -0.014 A 
ATOM     84  C   UNL A   1      44.106  22.788  33.960  1.00  0.00     0.010 A 
ATOM     85  C   UNL A   1      46.294  23.781  34.045  1.00  0.00     0.010 A 
ATOM     86  C   UNL A   1      44.597  21.681  34.667  1.00  0.00     0.020 A 
ATOM     87  C   UNL A   1      46.805  22.664  34.706  1.00  0.00     0.020 A 
ATOM     88  C   UNL A   1      45.944  21.624  35.032  1.00  0.00     0.054 A 
BRANCH  88  89
ATOM     89  S   UNL A   1      46.586  20.149  35.860  1.00  0.00     0.124 S 
ATOM     90  O   UNL A   1      45.644  19.123  35.419  1.00  0.00    -0.237 OA
ATOM     91  O   UNL A   1      47.939  20.032  35.319  1.00  0.00    -0.237 OA
ATOM     92  O   UNL A   1      46.518  20.495  37.278  1.00  0.00    -0.744 OA
ENDBRANCH  88  89
ENDBRANCH  62  83
ENDBRANCH  36  37
ENDBRANCH  28  31
ENDBRANCH  26  27
ENDBRANCH   1  26
TORSDOF 18
ENDMDL
MODEL 3
REMARK VINA RESULT:     -13.4      4.866     11.118
REMARK SMILES Cc1ccc(C[C@@H](Cc2cc(F)cc(Br)c2)C(=O)NCCCCNC(=O)c2ccc(-c3c4nc(c(-c5ccc(S(=O)(=O)[O-])cc5)c5ccc([nH]5)c(-c5ccc(S(=O)(=O)[O-])cc5)c5nc(c(-c6ccc(S(=O)(=O)[O-])cc6)c6ccc3[nH]6)C=C5)C=C4)cc2)cc1
REMARK SMILES IDX 22 1 21 2 20 3 19 4 17 5 18 6 7 8 6 9 5 10 1 11 2 12 3 13
REMARK SMILES IDX 88 14 4 15 87 16 8 17 9 18 10 19 16 20 11 21 14 22 12 23
REMARK SMILES IDX 13 24 15 25 23 26 24 27 25 28 26 30 27 31 28 32 86 33 29 34
REMARK SMILES IDX 85 35 30 36 31 37 32 38 79 39 33 40 84 41 78 42 80 43 34 44
REMARK SMILES IDX 83 45 77 46 76 47 35 49 65 50 46 51 64 52 47 53 50 54 63 55
REMARK SMILES IDX 81 56 48 57 49 58 62 60 82 61 51 62 36 63 37 64 45 65 38 66
REMARK SMILES IDX 44 67 39 68 40 69 41 70 42 71 43 72 66 73 67 74 75 75 68 76
REMARK SMILES IDX 74 77 69 78 70 79 71 80 72 81 73 82 52 83 53 84 61 85 54 86
REMARK SMILES IDX 60 87 55 88 56 89 57 90 58 91 59 92
REMARK H PARENT 19 7 24 29 80 48 50 59
REMARK Flexibility Score: inf
ROOT
ATOM      1  C   UNL A   1      36.420  24.035  26.003  1.00  0.00     0.023 C 
ENDROOT
BRANCH   1   2
ATOM      2  C   UNL A   1      35.503  22.956  25.418  1.00  0.00     0.023 C 
BRANCH   2   3
ATOM      3  C   UNL A   1      34.161  23.476  24.886  1.00  0.00     0.116 C 
BRANCH   3   4
ATOM      4  N   UNL A   1      34.335  24.239  23.655  1.00  0.00    -0.356 N 
ATOM      5  C   UNL A   1      33.666  25.312  23.160  1.00  0.00     0.223 C 
ATOM      6  O   UNL A   1      34.031  25.762  22.069  1.00  0.00    -0.275 OA
ATOM      7  H   UNL A   1      35.069  23.919  23.082  1.00  0.00     0.163 HD
BRANCH   5   8
ATOM      8  C   UNL A   1      32.502  25.955  23.895  1.00  0.00     0.087 C 
BRANCH   8   9
ATOM      9  C   UNL A   1      32.865  25.950  25.402  1.00  0.00     0.049 C 
BRANCH   9  10
ATOM     10  C   UNL A   1      33.075  27.266  26.115  1.00  0.00    -0.047 A 
ATOM     11  C   UNL A   1      33.619  31.250  27.702  1.00  0.00     0.044 C 
ATOM     12  C   UNL A   1      33.446  29.864  27.162  1.00  0.00    -0.051 A 
ATOM     13  C   UNL A   1      32.177  29.282  27.141  1.00  0.00     0.004 A 
ATOM     14  C   UNL A   1      34.534  29.131  26.677  1.00  0.00     0.004 A 
ATOM     15  C   UNL A   1      31.993  28.006  26.606  1.00  0.00     0.004 A 
ATOM     16  C   UNL A   1      34.351  27.844  26.162  1.00  0.00     0.004 A 
ENDBRANCH   9  10
ENDBRANCH   8   9
BRANCH   8  17
ATOM     17  C   UNL A   1      32.007  27.309  23.340  1.00  0.00     0.049 C 
BRANCH  17  18
ATOM     18  C   UNL A   1      30.556  27.697  23.136  1.00  0.00    -0.043 A 
ATOM     19  C   UNL A   1      29.599  26.878  23.760  1.00  0.00     0.043 A 
ATOM     20  C   UNL A   1      30.083  28.803  22.420  1.00  0.00     0.019 A 
ATOM     21  C   UNL A   1      28.248  27.204  23.739  1.00  0.00     0.124 A 
ATOM     22  C   UNL A   1      28.728  29.162  22.473  1.00  0.00     0.021 A 
ATOM     23  F   UNL A   1      27.377  26.365  24.312  1.00  0.00    -0.207 F 
ATOM     24  C   UNL A   1      27.802  28.367  23.137  1.00  0.00     0.055 A 
ATOM     25  Br  UNL A   1      28.158  30.773  21.660  1.00  0.00    -0.051 Br
ENDBRANCH  17  18
ENDBRANCH   8  17
ENDBRANCH   5   8
ENDBRANCH   3   4
ENDBRANCH   2   3
ENDBRANCH   1   2
BRANCH   1  26
ATOM     26  C   UNL A   1      37.898  23.736  25.828  1.00  0.00     0.116 C 
BRANCH  26  27
ATOM     27  N   UNL A   1      38.582  23.319  27.038  1.00  0.00    -0.352 N 
ATOM     28  C   UNL A   1      39.739  23.978  27.444  1.00  0.00     0.251 C 
ATOM     29  H   UNL A   1      38.227  22.570  27.570  1.00  0.00     0.163 HD
ATOM     30  O   UNL A   1      40.848  23.487  27.480  1.00  0.00    -0.269 OA
BRANCH  28  31
ATOM     31  C   UNL A   1      39.523  25.402  27.792  1.00  0.00     0.039 A 
ATOM     32  C   UNL A   1      40.051  26.409  26.983  1.00  0.00     0.014 A 
ATOM     33  C   UNL A   1      38.959  25.692  29.036  1.00  0.00     0.014 A 
ATOM     34  C   UNL A   1      40.130  27.706  27.489  1.00  0.00     0.010 A 
ATOM     35  C   UNL A   1      39.127  26.949  29.570  1.00  0.00     0.010 A 
ATOM     36  C   UNL A   1      39.734  27.948  28.807  1.00  0.00    -0.014 A 
BRANCH  36  37
ATOM     37  C   UNL A   1      39.928  29.214  29.498  1.00  0.00     0.031 A 
ATOM     38  C   UNL A   1      38.868  30.250  29.417  1.00  0.00     0.074 A 
ATOM     39  C   UNL A   1      41.010  29.394  30.290  1.00  0.00     0.049 A 
ATOM     40  N   UNL A   1      39.075  31.513  29.579  1.00  0.00    -0.248 NA
ATOM     41  C   UNL A   1      37.468  29.935  29.126  1.00  0.00     0.031 C 
ATOM     42  C   UNL A   1      41.228  30.504  31.215  1.00  0.00     0.029 A 
ATOM     43  N   UNL A   1      42.225  28.707  30.334  1.00  0.00    -0.354 N 
ATOM     44  C   UNL A   1      37.846  32.114  29.729  1.00  0.00     0.074 A 
ATOM     45  C   UNL A   1      36.876  31.114  29.353  1.00  0.00     0.031 C 
ATOM     46  C   UNL A   1      42.546  30.613  31.448  1.00  0.00     0.029 A 
ATOM     47  C   UNL A   1      43.209  29.681  30.550  1.00  0.00     0.049 A 
ATOM     48  H   UNL A   1      42.362  27.737  30.234  1.00  0.00     0.167 HD
ATOM     49  C   UNL A   1      37.757  33.343  30.311  1.00  0.00     0.031 A 
ATOM     50  C   UNL A   1      44.166  30.044  29.642  1.00  0.00     0.031 A 
ATOM     51  C   UNL A   1      39.070  33.864  30.677  1.00  0.00     0.049 A 
ATOM     52  C   UNL A   1      44.108  31.528  29.309  1.00  0.00     0.074 A 
ATOM     53  C   UNL A   1      39.766  33.892  31.874  1.00  0.00     0.029 A 
ATOM     54  N   UNL A   1      39.992  34.154  29.677  1.00  0.00    -0.354 N 
ATOM     55  N   UNL A   1      43.044  32.263  29.488  1.00  0.00    -0.248 NA
ATOM     56  C   UNL A   1      45.222  32.302  28.763  1.00  0.00     0.031 C 
ATOM     57  C   UNL A   1      41.137  34.110  31.578  1.00  0.00     0.029 A 
ATOM     58  C   UNL A   1      41.264  34.250  30.207  1.00  0.00     0.049 A 
ATOM     59  H   UNL A   1      39.769  34.273  28.726  1.00  0.00     0.167 HD
ATOM     60  C   UNL A   1      43.316  33.567  29.174  1.00  0.00     0.074 A 
ATOM     61  C   UNL A   1      44.690  33.537  28.699  1.00  0.00     0.031 C 
ATOM     62  C   UNL A   1      42.401  34.565  29.352  1.00  0.00     0.031 A 
BRANCH  49  63
ATOM     63  C   UNL A   1      36.449  33.898  30.822  1.00  0.00    -0.014 A 
ATOM     64  C   UNL A   1      35.371  34.080  29.933  1.00  0.00     0.010 A 
ATOM     65  C   UNL A   1      36.242  34.299  32.156  1.00  0.00     0.010 A 
ATOM     66  C   UNL A   1      34.182  34.710  30.326  1.00  0.00     0.020 A 
ATOM     67  C   UNL A   1      35.069  34.963  32.556  1.00  0.00     0.020 A 
ATOM     68  C   UNL A   1      34.047  35.171  31.633  1.00  0.00     0.054 A 
BRANCH  68  69
ATOM     69  S   UNL A   1      32.530  36.046  32.099  1.00  0.00     0.124 S 
ATOM     70  O   UNL A   1      32.996  36.955  33.144  1.00  0.00    -0.237 OA
ATOM     71  O   UNL A   1      32.137  36.680  30.843  1.00  0.00    -0.237 OA
ATOM     72  O   UNL A   1      31.643  34.981  32.562  1.00  0.00    -0.744 OA
ENDBRANCH  68  69
ENDBRANCH  49  63
BRANCH  50  73
ATOM     73  C   UNL A   1      44.570  28.959  28.702  1.00  0.00    -0.014 A 
ATOM     74  C   UNL A   1      43.934  28.920  27.442  1.00  0.00     0.010 A 
ATOM     75  C   UNL A   1      45.800  28.300  28.859  1.00  0.00     0.010 A 
ATOM     76  C   UNL A   1      44.600  28.415  26.323  1.00  0.00     0.020 A 
ATOM     77  C   UNL A   1      46.465  27.779  27.738  1.00  0.00     0.020 A 
ATOM     78  C   UNL A   1      45.895  27.916  26.469  1.00  0.00     0.054 A 
BRANCH  78  79
ATOM     79  S   UNL A   1      46.881  27.630  24.968  1.00  0.00     0.124 S 
ATOM     80  O   UNL A   1      46.251  26.445  24.397  1.00  0.00    -0.237 OA
ATOM     81  O   UNL A   1      46.680  28.876  24.223  1.00  0.00    -0.237 OA
ATOM     82  O   UNL A   1      48.234  27.442  25.482  1.00  0.00    -0.744 OA
ENDBRANCH  78  79
ENDBRANCH  50  73
BRANCH  62  83
ATOM     83  C   UNL A   1      42.510  35.977  28.831  1.00  0.00    -0.014 A 
ATOM     84  C   UNL A   1      43.183  37.009  29.500  1.00  0.00     0.010 A 
ATOM     85  C   UNL A   1      42.048  36.257  27.520  1.00  0.00     0.010 A 
ATOM     86  C   UNL A   1      43.345  38.271  28.911  1.00  0.00     0.020 A 
ATOM     87  C   UNL A   1      42.245  37.494  26.905  1.00  0.00     0.020 A 
ATOM     88  C   UNL A   1      42.878  38.504  27.616  1.00  0.00     0.054 A 
BRANCH  88  89
ATOM     89  S   UNL A   1      43.176  40.108  26.832  1.00  0.00     0.124 S 
ATOM     90  O   UNL A   1      43.298  40.990  27.989  1.00  0.00    -0.237 OA
ATOM     91  O   UNL A   1      44.411  39.882  26.084  1.00  0.00    -0.237 OA
ATOM     92  O   UNL A   1      41.987  40.313  26.008  1.00  0.00    -0.744 OA
ENDBRANCH  88  89
ENDBRANCH  62  83
ENDBRANCH  36  37
ENDBRANCH  28  31
ENDBRANCH  26  27
ENDBRANCH   1  26
TORSDOF 18
ENDMDL
