MODEL 1
REMARK VINA RESULT:     -12.1      0.000      0.000
REMARK SMILES Cc1ccc(C(C)C)c(OCC(=O)Nc2nc(CC(=O)NCCCCNC(=O)c3ccc(-c4c5nc(c(-c6ccc(S(=O)(=O)[O-])cc6)c6ccc([nH]6)c(-c6ccc(S(=O)(=O)[O-])cc6)c6nc(c(-c7ccc(S(=O)(=O)[O-])cc7)c7ccc4[nH]7)C=C6)C=C5)cc3)cs2)c1
REMARK SMILES IDX 22 1 21 2 19 3 20 4 18 6 17 7 15 8 16 9 90 10 89 11 14 12
REMARK SMILES IDX 12 13 13 14 11 16 10 17 9 18 1 19 2 20 3 21 91 22 4 23 5 24
REMARK SMILES IDX 6 25 7 26 8 27 23 28 24 29 25 30 26 31 27 32 28 34 29 35
REMARK SMILES IDX 30 36 88 37 31 38 87 39 32 40 33 41 34 42 81 43 35 44 86 45
REMARK SMILES IDX 80 46 82 47 36 48 85 49 79 50 78 51 37 53 67 54 48 55 66 56
REMARK SMILES IDX 49 57 52 58 65 59 83 60 50 61 51 62 64 64 84 65 53 66 38 67
REMARK SMILES IDX 39 68 47 69 40 70 46 71 41 72 42 73 43 74 44 75 45 76 68 77
REMARK SMILES IDX 69 78 77 79 70 80 76 81 71 82 72 83 73 84 74 85 75 86 54 87
REMARK SMILES IDX 55 88 63 89 56 90 62 91 57 92 58 93 59 94 60 95 61 96
REMARK H PARENT 21 5 14 15 26 33 82 52 52 63
REMARK Flexibility Score: inf
ROOT
ATOM      1  C   UNL A   1      35.138  20.680  25.160  1.00  0.00     0.116 C 
ENDROOT
BRANCH   1   2
ATOM      2  N   UNL A   1      34.104  19.777  25.652  1.00  0.00    -0.356 N 
ATOM      3  C   UNL A   1      32.967  19.331  25.037  1.00  0.00     0.226 C 
ATOM      4  O   UNL A   1      32.250  18.526  25.639  1.00  0.00    -0.275 OA
ATOM      5  H   UNL A   1      34.246  19.437  26.565  1.00  0.00     0.163 HD
BRANCH   3   6
ATOM      6  C   UNL A   1      32.598  19.801  23.642  1.00  0.00     0.157 C 
BRANCH   6   7
ATOM      7  C   UNL A   1      32.233  21.246  23.610  1.00  0.00     0.063 A 
ATOM      8  C   UNL A   1      31.135  22.960  24.441  1.00  0.00     0.189 A 
ATOM      9  N   UNL A   1      31.623  21.785  24.729  1.00  0.00    -0.224 NA
ATOM     10  S   UNL A   1      31.552  23.597  22.916  1.00  0.00    -0.105 S 
ATOM     11  C   UNL A   1      32.382  22.134  22.558  1.00  0.00     0.093 A 
BRANCH   8  12
ATOM     12  N   UNL A   1      30.324  23.751  25.191  1.00  0.00    -0.299 N 
ATOM     13  C   UNL A   1      30.724  24.677  26.106  1.00  0.00     0.264 C 
ATOM     14  O   UNL A   1      29.843  25.284  26.731  1.00  0.00    -0.271 OA
ATOM     15  H   UNL A   1      29.355  23.644  25.061  1.00  0.00     0.172 HD
BRANCH  13  16
ATOM     16  C   UNL A   1      32.202  25.067  26.268  1.00  0.00     0.329 C 
BRANCH  16  17
ATOM     17  O   UNL A   1      32.750  26.004  25.363  1.00  0.00    -0.483 OA
BRANCH  17  18
ATOM     18  C   UNL A   1      32.586  27.341  25.603  1.00  0.00     0.123 A 
ATOM     19  C   UNL A   1      34.057  30.227  27.606  1.00  0.00     0.044 C 
ATOM     20  C   UNL A   1      33.151  29.435  26.713  1.00  0.00    -0.047 A 
ATOM     21  C   UNL A   1      32.159  30.079  25.975  1.00  0.00     0.004 A 
ATOM     22  C   UNL A   1      33.347  28.062  26.530  1.00  0.00     0.050 A 
ATOM     23  C   UNL A   1      31.417  29.381  25.023  1.00  0.00     0.008 A 
ATOM     24  C   UNL A   1      31.622  28.007  24.815  1.00  0.00    -0.003 A 
BRANCH  24  25
ATOM     25  C   UNL A   1      30.841  27.289  23.721  1.00  0.00     0.017 C 
ATOM     26  C   UNL A   1      29.418  27.832  23.570  1.00  0.00     0.012 C 
ATOM     27  C   UNL A   1      31.580  27.366  22.381  1.00  0.00     0.012 C 
ENDBRANCH  24  25
ENDBRANCH  17  18
ENDBRANCH  16  17
ENDBRANCH  13  16
ENDBRANCH   8  12
ENDBRANCH   6   7
ENDBRANCH   3   6
ENDBRANCH   1   2
BRANCH   1  28
ATOM     28  C   UNL A   1      35.399  21.890  26.070  1.00  0.00     0.023 C 
BRANCH  28  29
ATOM     29  C   UNL A   1      36.312  22.984  25.510  1.00  0.00     0.023 C 
BRANCH  29  30
ATOM     30  C   UNL A   1      37.753  22.561  25.301  1.00  0.00     0.116 C 
BRANCH  30  31
ATOM     31  N   UNL A   1      38.521  22.228  26.490  1.00  0.00    -0.352 N 
ATOM     32  C   UNL A   1      39.787  22.813  26.650  1.00  0.00     0.251 C 
ATOM     33  H   UNL A   1      38.163  21.608  27.166  1.00  0.00     0.163 HD
ATOM     34  O   UNL A   1      40.840  22.258  26.457  1.00  0.00    -0.269 OA
BRANCH  32  35
ATOM     35  C   UNL A   1      39.719  24.274  26.918  1.00  0.00     0.039 A 
ATOM     36  C   UNL A   1      40.473  25.185  26.180  1.00  0.00     0.014 A 
ATOM     37  C   UNL A   1      39.047  24.669  28.074  1.00  0.00     0.014 A 
ATOM     38  C   UNL A   1      40.682  26.465  26.702  1.00  0.00     0.010 A 
ATOM     39  C   UNL A   1      39.358  25.878  28.647  1.00  0.00     0.010 A 
ATOM     40  C   UNL A   1      40.202  26.765  27.977  1.00  0.00    -0.014 A 
BRANCH  40  41
ATOM     41  C   UNL A   1      40.506  27.972  28.734  1.00  0.00     0.031 A 
ATOM     42  C   UNL A   1      39.539  29.097  28.714  1.00  0.00     0.074 A 
ATOM     43  C   UNL A   1      41.545  27.968  29.601  1.00  0.00     0.049 A 
ATOM     44  N   UNL A   1      39.806  30.302  29.089  1.00  0.00    -0.248 NA
ATOM     45  C   UNL A   1      38.166  28.945  28.233  1.00  0.00     0.031 C 
ATOM     46  C   UNL A   1      41.785  28.921  30.683  1.00  0.00     0.029 A 
ATOM     47  N   UNL A   1      42.719  27.211  29.571  1.00  0.00    -0.354 N 
ATOM     48  C   UNL A   1      38.609  30.977  29.203  1.00  0.00     0.074 A 
ATOM     49  C   UNL A   1      37.631  30.119  28.577  1.00  0.00     0.031 C 
ATOM     50  C   UNL A   1      43.096  28.917  30.973  1.00  0.00     0.029 A 
ATOM     51  C   UNL A   1      43.739  28.095  29.959  1.00  0.00     0.049 A 
ATOM     52  H   UNL A   1      42.813  26.261  29.328  1.00  0.00     0.167 HD
ATOM     53  C   UNL A   1      38.547  32.118  29.947  1.00  0.00     0.031 A 
ATOM     54  C   UNL A   1      44.725  28.537  29.120  1.00  0.00     0.031 A 
ATOM     55  C   UNL A   1      39.868  32.500  30.442  1.00  0.00     0.049 A 
ATOM     56  C   UNL A   1      44.781  30.046  29.014  1.00  0.00     0.074 A 
ATOM     57  C   UNL A   1      40.490  32.357  31.671  1.00  0.00     0.029 A 
ATOM     58  N   UNL A   1      40.860  32.846  29.533  1.00  0.00    -0.354 N 
ATOM     59  N   UNL A   1      43.775  30.833  29.286  1.00  0.00    -0.248 NA
ATOM     60  C   UNL A   1      45.968  30.789  28.601  1.00  0.00     0.031 C 
ATOM     61  C   UNL A   1      41.884  32.547  31.478  1.00  0.00     0.029 A 
ATOM     62  C   UNL A   1      42.100  32.835  30.142  1.00  0.00     0.049 A 
ATOM     63  H   UNL A   1      40.703  33.068  28.587  1.00  0.00     0.167 HD
ATOM     64  C   UNL A   1      44.154  32.143  29.133  1.00  0.00     0.074 A 
ATOM     65  C   UNL A   1      45.538  32.060  28.700  1.00  0.00     0.031 C 
ATOM     66  C   UNL A   1      43.298  33.179  29.384  1.00  0.00     0.031 A 
BRANCH  53  67
ATOM     67  C   UNL A   1      37.256  32.725  30.463  1.00  0.00    -0.014 A 
ATOM     68  C   UNL A   1      36.364  33.336  29.556  1.00  0.00     0.010 A 
ATOM     69  C   UNL A   1      36.883  32.776  31.819  1.00  0.00     0.010 A 
ATOM     70  C   UNL A   1      35.226  34.038  29.981  1.00  0.00     0.020 A 
ATOM     71  C   UNL A   1      35.767  33.503  32.265  1.00  0.00     0.020 A 
ATOM     72  C   UNL A   1      34.948  34.142  31.341  1.00  0.00     0.054 A 
BRANCH  72  73
ATOM     73  S   UNL A   1      33.515  35.111  31.882  1.00  0.00     0.124 S 
ATOM     74  O   UNL A   1      32.761  35.274  30.643  1.00  0.00    -0.237 OA
ATOM     75  O   UNL A   1      32.906  34.239  32.882  1.00  0.00    -0.237 OA
ATOM     76  O   UNL A   1      34.107  36.341  32.408  1.00  0.00    -0.744 OA
ENDBRANCH  72  73
ENDBRANCH  53  67
BRANCH  54  77
ATOM     77  C   UNL A   1      45.096  27.578  28.040  1.00  0.00    -0.014 A 
ATOM     78  C   UNL A   1      45.996  26.555  28.394  1.00  0.00     0.010 A 
ATOM     79  C   UNL A   1      44.261  27.381  26.928  1.00  0.00     0.010 A 
ATOM     80  C   UNL A   1      45.900  25.283  27.826  1.00  0.00     0.020 A 
ATOM     81  C   UNL A   1      44.182  26.110  26.331  1.00  0.00     0.020 A 
ATOM     82  C   UNL A   1      44.927  25.050  26.859  1.00  0.00     0.054 A 
BRANCH  82  83
ATOM     83  S   UNL A   1      44.515  23.325  26.449  1.00  0.00     0.124 S 
ATOM     84  O   UNL A   1      45.816  22.666  26.498  1.00  0.00    -0.237 OA
ATOM     85  O   UNL A   1      43.582  22.968  27.521  1.00  0.00    -0.237 OA
ATOM     86  O   UNL A   1      43.916  23.432  25.123  1.00  0.00    -0.744 OA
ENDBRANCH  82  83
ENDBRANCH  54  77
BRANCH  66  87
ATOM     87  C   UNL A   1      43.508  34.636  29.022  1.00  0.00    -0.014 A 
ATOM     88  C   UNL A   1      43.415  35.155  27.724  1.00  0.00     0.010 A 
ATOM     89  C   UNL A   1      43.685  35.580  30.068  1.00  0.00     0.010 A 
ATOM     90  C   UNL A   1      43.540  36.531  27.472  1.00  0.00     0.020 A 
ATOM     91  C   UNL A   1      43.762  36.956  29.836  1.00  0.00     0.020 A 
ATOM     92  C   UNL A   1      43.711  37.423  28.530  1.00  0.00     0.054 A 
BRANCH  92  93
ATOM     93  S   UNL A   1      43.783  39.200  28.195  1.00  0.00     0.124 S 
ATOM     94  O   UNL A   1      43.016  39.748  29.311  1.00  0.00    -0.237 OA
ATOM     95  O   UNL A   1      45.218  39.478  28.226  1.00  0.00    -0.237 OA
ATOM     96  O   UNL A   1      43.160  39.328  26.882  1.00  0.00    -0.744 OA
ENDBRANCH  92  93
ENDBRANCH  66  87
ENDBRANCH  40  41
ENDBRANCH  32  35
ENDBRANCH  30  31
ENDBRANCH  29  30
ENDBRANCH  28  29
ENDBRANCH   1  28
TORSDOF 20
ENDMDL
MODEL 2
REMARK VINA RESULT:     -11.9      1.543      2.151
REMARK SMILES Cc1ccc(C(C)C)c(OCC(=O)Nc2nc(CC(=O)NCCCCNC(=O)c3ccc(-c4c5nc(c(-c6ccc(S(=O)(=O)[O-])cc6)c6ccc([nH]6)c(-c6ccc(S(=O)(=O)[O-])cc6)c6nc(c(-c7ccc(S(=O)(=O)[O-])cc7)c7ccc4[nH]7)C=C6)C=C5)cc3)cs2)c1
REMARK SMILES IDX 22 1 21 2 19 3 20 4 18 6 17 7 15 8 16 9 90 10 89 11 14 12
REMARK SMILES IDX 12 13 13 14 11 16 10 17 9 18 1 19 2 20 3 21 91 22 4 23 5 24
REMARK SMILES IDX 6 25 7 26 8 27 23 28 24 29 25 30 26 31 27 32 28 34 29 35
REMARK SMILES IDX 30 36 88 37 31 38 87 39 32 40 33 41 34 42 81 43 35 44 86 45
REMARK SMILES IDX 80 46 82 47 36 48 85 49 79 50 78 51 37 53 67 54 48 55 66 56
REMARK SMILES IDX 49 57 52 58 65 59 83 60 50 61 51 62 64 64 84 65 53 66 38 67
REMARK SMILES IDX 39 68 47 69 40 70 46 71 41 72 42 73 43 74 44 75 45 76 68 77
REMARK SMILES IDX 69 78 77 79 70 80 76 81 71 82 72 83 73 84 74 85 75 86 54 87
REMARK SMILES IDX 55 88 63 89 56 90 62 91 57 92 58 93 59 94 60 95 61 96
REMARK H PARENT 21 5 14 15 26 33 82 52 52 63
REMARK Flexibility Score: inf
ROOT
ATOM      1  C   UNL A   1      35.421  20.761  24.781  1.00  0.00     0.116 C 
ENDROOT
BRANCH   1   2
ATOM      2  N   UNL A   1      34.464  19.887  25.451  1.00  0.00    -0.356 N 
ATOM      3  C   UNL A   1      33.155  19.631  25.152  1.00  0.00     0.226 C 
ATOM      4  O   UNL A   1      32.543  18.811  25.844  1.00  0.00    -0.275 OA
ATOM      5  H   UNL A   1      34.815  19.408  26.237  1.00  0.00     0.163 HD
BRANCH   3   6
ATOM      6  C   UNL A   1      32.468  20.327  23.992  1.00  0.00     0.157 C 
BRANCH   6   7
ATOM      7  C   UNL A   1      32.569  21.811  24.081  1.00  0.00     0.063 A 
ATOM      8  C   UNL A   1      33.151  23.744  23.209  1.00  0.00     0.189 A 
ATOM      9  N   UNL A   1      32.831  22.513  22.917  1.00  0.00    -0.224 NA
ATOM     10  S   UNL A   1      32.950  24.211  24.835  1.00  0.00    -0.105 S 
ATOM     11  C   UNL A   1      32.484  22.600  25.215  1.00  0.00     0.093 A 
BRANCH   8  12
ATOM     12  N   UNL A   1      33.639  24.712  22.390  1.00  0.00    -0.299 N 
ATOM     13  C   UNL A   1      32.922  25.719  21.818  1.00  0.00     0.264 C 
ATOM     14  O   UNL A   1      33.524  26.495  21.063  1.00  0.00    -0.271 OA
ATOM     15  H   UNL A   1      34.601  24.683  22.190  1.00  0.00     0.172 HD
BRANCH  13  16
ATOM     16  C   UNL A   1      31.454  25.982  22.196  1.00  0.00     0.329 C 
BRANCH  16  17
ATOM     17  O   UNL A   1      30.960  27.302  22.082  1.00  0.00    -0.483 OA
BRANCH  17  18
ATOM     18  C   UNL A   1      31.130  28.172  23.123  1.00  0.00     0.123 A 
ATOM     19  C   UNL A   1      33.557  29.056  25.922  1.00  0.00     0.044 C 
ATOM     20  C   UNL A   1      32.337  29.045  25.051  1.00  0.00    -0.047 A 
ATOM     21  C   UNL A   1      31.366  30.033  25.196  1.00  0.00     0.004 A 
ATOM     22  C   UNL A   1      32.203  28.109  24.019  1.00  0.00     0.050 A 
ATOM     23  C   UNL A   1      30.310  30.129  24.291  1.00  0.00     0.008 A 
ATOM     24  C   UNL A   1      30.179  29.209  23.238  1.00  0.00    -0.003 A 
BRANCH  24  25
ATOM     25  C   UNL A   1      29.051  29.382  22.227  1.00  0.00     0.017 C 
ATOM     26  C   UNL A   1      27.683  29.025  22.815  1.00  0.00     0.012 C 
ATOM     27  C   UNL A   1      29.030  30.808  21.668  1.00  0.00     0.012 C 
ENDBRANCH  24  25
ENDBRANCH  17  18
ENDBRANCH  16  17
ENDBRANCH  13  16
ENDBRANCH   8  12
ENDBRANCH   6   7
ENDBRANCH   3   6
ENDBRANCH   1   2
BRANCH   1  28
ATOM     28  C   UNL A   1      36.411  21.451  25.731  1.00  0.00     0.023 C 
BRANCH  28  29
ATOM     29  C   UNL A   1      36.521  22.974  25.617  1.00  0.00     0.023 C 
BRANCH  29  30
ATOM     30  C   UNL A   1      37.918  23.526  25.819  1.00  0.00     0.116 C 
BRANCH  30  31
ATOM     31  N   UNL A   1      38.544  23.280  27.108  1.00  0.00    -0.352 N 
ATOM     32  C   UNL A   1      39.746  23.942  27.401  1.00  0.00     0.251 C 
ATOM     33  H   UNL A   1      38.135  22.666  27.760  1.00  0.00     0.163 HD
ATOM     34  O   UNL A   1      40.843  23.441  27.367  1.00  0.00    -0.269 OA
BRANCH  32  35
ATOM     35  C   UNL A   1      39.569  25.405  27.596  1.00  0.00     0.039 A 
ATOM     36  C   UNL A   1      40.166  26.330  26.741  1.00  0.00     0.014 A 
ATOM     37  C   UNL A   1      38.971  25.811  28.788  1.00  0.00     0.014 A 
ATOM     38  C   UNL A   1      40.303  27.653  27.171  1.00  0.00     0.010 A 
ATOM     39  C   UNL A   1      39.220  27.076  29.263  1.00  0.00     0.010 A 
ATOM     40  C   UNL A   1      39.914  27.990  28.468  1.00  0.00    -0.014 A 
BRANCH  40  41
ATOM     41  C   UNL A   1      40.173  29.262  29.127  1.00  0.00     0.031 A 
ATOM     42  C   UNL A   1      39.121  30.308  29.111  1.00  0.00     0.074 A 
ATOM     43  C   UNL A   1      41.266  29.393  29.914  1.00  0.00     0.049 A 
ATOM     44  N   UNL A   1      39.317  31.553  29.392  1.00  0.00    -0.248 NA
ATOM     45  C   UNL A   1      37.735  30.023  28.743  1.00  0.00     0.031 C 
ATOM     46  C   UNL A   1      41.504  30.431  30.916  1.00  0.00     0.029 A 
ATOM     47  N   UNL A   1      42.493  28.727  29.842  1.00  0.00    -0.354 N 
ATOM     48  C   UNL A   1      38.080  32.141  29.554  1.00  0.00     0.074 A 
ATOM     49  C   UNL A   1      37.133  31.173  29.055  1.00  0.00     0.031 C 
ATOM     50  C   UNL A   1      42.829  30.544  31.108  1.00  0.00     0.029 A 
ATOM     51  C   UNL A   1      43.463  29.708  30.100  1.00  0.00     0.049 A 
ATOM     52  H   UNL A   1      42.644  27.772  29.651  1.00  0.00     0.167 HD
ATOM     53  C   UNL A   1      37.980  33.321  30.230  1.00  0.00     0.031 A 
ATOM     54  C   UNL A   1      44.351  30.166  29.165  1.00  0.00     0.031 A 
ATOM     55  C   UNL A   1      39.298  33.832  30.603  1.00  0.00     0.049 A 
ATOM     56  C   UNL A   1      44.279  31.665  28.965  1.00  0.00     0.074 A 
ATOM     57  C   UNL A   1      40.012  33.817  31.788  1.00  0.00     0.029 A 
ATOM     58  N   UNL A   1      40.193  34.192  29.604  1.00  0.00    -0.354 N 
ATOM     59  N   UNL A   1      43.235  32.391  29.263  1.00  0.00    -0.248 NA
ATOM     60  C   UNL A   1      45.372  32.466  28.421  1.00  0.00     0.031 C 
ATOM     61  C   UNL A   1      41.370  34.098  31.482  1.00  0.00     0.029 A 
ATOM     62  C   UNL A   1      41.469  34.314  30.119  1.00  0.00     0.049 A 
ATOM     63  H   UNL A   1      39.954  34.339  28.660  1.00  0.00     0.167 HD
ATOM     64  C   UNL A   1      43.497  33.712  29.004  1.00  0.00     0.074 A 
ATOM     65  C   UNL A   1      44.850  33.706  28.476  1.00  0.00     0.031 C 
ATOM     66  C   UNL A   1      42.581  34.696  29.255  1.00  0.00     0.031 A 
BRANCH  53  67
ATOM     67  C   UNL A   1      36.684  33.862  30.803  1.00  0.00    -0.014 A 
ATOM     68  C   UNL A   1      35.551  33.981  29.969  1.00  0.00     0.010 A 
ATOM     69  C   UNL A   1      36.523  34.316  32.126  1.00  0.00     0.010 A 
ATOM     70  C   UNL A   1      34.367  34.602  30.396  1.00  0.00     0.020 A 
ATOM     71  C   UNL A   1      35.357  34.971  32.559  1.00  0.00     0.020 A 
ATOM     72  C   UNL A   1      34.287  35.122  31.685  1.00  0.00     0.054 A 
BRANCH  72  73
ATOM     73  S   UNL A   1      32.780  35.985  32.201  1.00  0.00     0.124 S 
ATOM     74  O   UNL A   1      32.372  36.666  30.975  1.00  0.00    -0.237 OA
ATOM     75  O   UNL A   1      31.919  34.886  32.628  1.00  0.00    -0.237 OA
ATOM     76  O   UNL A   1      33.235  36.869  33.273  1.00  0.00    -0.744 OA
ENDBRANCH  72  73
ENDBRANCH  53  67
BRANCH  54  77
ATOM     77  C   UNL A   1      44.721  29.169  28.120  1.00  0.00    -0.014 A 
ATOM     78  C   UNL A   1      45.735  28.253  28.461  1.00  0.00     0.010 A 
ATOM     79  C   UNL A   1      43.823  28.825  27.097  1.00  0.00     0.010 A 
ATOM     80  C   UNL A   1      45.709  26.941  27.984  1.00  0.00     0.020 A 
ATOM     81  C   UNL A   1      43.812  27.514  26.589  1.00  0.00     0.020 A 
ATOM     82  C   UNL A   1      44.689  26.560  27.119  1.00  0.00     0.054 A 
BRANCH  82  83
ATOM     83  S   UNL A   1      44.404  24.781  26.854  1.00  0.00     0.124 S 
ATOM     84  O   UNL A   1      43.569  24.419  27.994  1.00  0.00    -0.237 OA
ATOM     85  O   UNL A   1      43.735  24.768  25.549  1.00  0.00    -0.237 OA
ATOM     86  O   UNL A   1      45.752  24.223  26.860  1.00  0.00    -0.744 OA
ENDBRANCH  82  83
ENDBRANCH  54  77
BRANCH  66  87
ATOM     87  C   UNL A   1      42.649  36.138  28.792  1.00  0.00    -0.014 A 
ATOM     88  C   UNL A   1      43.452  37.125  29.378  1.00  0.00     0.010 A 
ATOM     89  C   UNL A   1      41.958  36.507  27.607  1.00  0.00     0.010 A 
ATOM     90  C   UNL A   1      43.528  38.422  28.846  1.00  0.00     0.020 A 
ATOM     91  C   UNL A   1      42.064  37.780  27.040  1.00  0.00     0.020 A 
ATOM     92  C   UNL A   1      42.835  38.741  27.678  1.00  0.00     0.054 A 
BRANCH  92  93
ATOM     93  S   UNL A   1      43.014  40.391  26.958  1.00  0.00     0.124 S 
ATOM     94  O   UNL A   1      41.795  40.505  26.161  1.00  0.00    -0.237 OA
ATOM     95  O   UNL A   1      43.072  41.255  28.137  1.00  0.00    -0.237 OA
ATOM     96  O   UNL A   1      44.256  40.303  26.198  1.00  0.00    -0.744 OA
ENDBRANCH  92  93
ENDBRANCH  66  87
ENDBRANCH  40  41
ENDBRANCH  32  35
ENDBRANCH  30  31
ENDBRANCH  29  30
ENDBRANCH  28  29
ENDBRANCH   1  28
TORSDOF 20
ENDMDL
MODEL 3
REMARK VINA RESULT:     -11.7      1.580      2.362
REMARK SMILES Cc1ccc(C(C)C)c(OCC(=O)Nc2nc(CC(=O)NCCCCNC(=O)c3ccc(-c4c5nc(c(-c6ccc(S(=O)(=O)[O-])cc6)c6ccc([nH]6)c(-c6ccc(S(=O)(=O)[O-])cc6)c6nc(c(-c7ccc(S(=O)(=O)[O-])cc7)c7ccc4[nH]7)C=C6)C=C5)cc3)cs2)c1
REMARK SMILES IDX 22 1 21 2 19 3 20 4 18 6 17 7 15 8 16 9 90 10 89 11 14 12
REMARK SMILES IDX 12 13 13 14 11 16 10 17 9 18 1 19 2 20 3 21 91 22 4 23 5 24
REMARK SMILES IDX 6 25 7 26 8 27 23 28 24 29 25 30 26 31 27 32 28 34 29 35
REMARK SMILES IDX 30 36 88 37 31 38 87 39 32 40 33 41 34 42 81 43 35 44 86 45
REMARK SMILES IDX 80 46 82 47 36 48 85 49 79 50 78 51 37 53 67 54 48 55 66 56
REMARK SMILES IDX 49 57 52 58 65 59 83 60 50 61 51 62 64 64 84 65 53 66 38 67
REMARK SMILES IDX 39 68 47 69 40 70 46 71 41 72 42 73 43 74 44 75 45 76 68 77
REMARK SMILES IDX 69 78 77 79 70 80 76 81 71 82 72 83 73 84 74 85 75 86 54 87
REMARK SMILES IDX 55 88 63 89 56 90 62 91 57 92 58 93 59 94 60 95 61 96
REMARK H PARENT 21 5 14 15 26 33 82 52 52 63
REMARK Flexibility Score: inf
ROOT
ATOM      1  C   UNL A   1      35.226  20.785  25.050  1.00  0.00     0.116 C 
ENDROOT
BRANCH   1   2
ATOM      2  N   UNL A   1      34.188  19.836  25.438  1.00  0.00    -0.356 N 
ATOM      3  C   UNL A   1      32.968  19.594  24.869  1.00  0.00     0.226 C 
ATOM      4  O   UNL A   1      32.263  18.702  25.349  1.00  0.00    -0.275 OA
ATOM      5  H   UNL A   1      34.397  19.287  26.227  1.00  0.00     0.163 HD
BRANCH   3   6
ATOM      6  C   UNL A   1      32.493  20.392  23.669  1.00  0.00     0.157 C 
BRANCH   6   7
ATOM      7  C   UNL A   1      32.423  21.854  23.952  1.00  0.00     0.063 A 
ATOM      8  C   UNL A   1      33.076  23.913  23.545  1.00  0.00     0.189 A 
ATOM      9  N   UNL A   1      32.982  22.720  23.028  1.00  0.00    -0.224 NA
ATOM     10  S   UNL A   1      32.318  24.145  25.054  1.00  0.00    -0.105 S 
ATOM     11  C   UNL A   1      31.904  22.476  25.075  1.00  0.00     0.093 A 
BRANCH   8  12
ATOM     12  N   UNL A   1      33.711  25.007  23.048  1.00  0.00    -0.299 N 
ATOM     13  C   UNL A   1      33.146  25.996  22.300  1.00  0.00     0.264 C 
ATOM     14  O   UNL A   1      33.886  26.903  21.896  1.00  0.00    -0.271 OA
ATOM     15  H   UNL A   1      34.670  25.093  23.247  1.00  0.00     0.172 HD
BRANCH  13  16
ATOM     16  C   UNL A   1      31.626  26.073  22.077  1.00  0.00     0.329 C 
BRANCH  16  17
ATOM     17  O   UNL A   1      30.807  26.434  23.171  1.00  0.00    -0.483 OA
BRANCH  17  18
ATOM     18  C   UNL A   1      30.426  27.740  23.318  1.00  0.00     0.123 A 
ATOM     19  C   UNL A   1      27.879  30.277  22.060  1.00  0.00     0.044 C 
ATOM     20  C   UNL A   1      29.052  29.677  22.776  1.00  0.00    -0.047 A 
ATOM     21  C   UNL A   1      29.734  30.415  23.742  1.00  0.00     0.004 A 
ATOM     22  C   UNL A   1      29.415  28.343  22.561  1.00  0.00     0.050 A 
ATOM     23  C   UNL A   1      30.719  29.818  24.526  1.00  0.00     0.008 A 
ATOM     24  C   UNL A   1      31.076  28.474  24.335  1.00  0.00    -0.003 A 
BRANCH  24  25
ATOM     25  C   UNL A   1      32.109  27.833  25.253  1.00  0.00     0.017 C 
ATOM     26  C   UNL A   1      33.489  28.483  25.119  1.00  0.00     0.012 C 
ATOM     27  C   UNL A   1      31.646  27.876  26.713  1.00  0.00     0.012 C 
ENDBRANCH  24  25
ENDBRANCH  17  18
ENDBRANCH  16  17
ENDBRANCH  13  16
ENDBRANCH   8  12
ENDBRANCH   6   7
ENDBRANCH   3   6
ENDBRANCH   1   2
BRANCH   1  28
ATOM     28  C   UNL A   1      35.335  22.006  25.976  1.00  0.00     0.023 C 
BRANCH  28  29
ATOM     29  C   UNL A   1      36.484  22.979  25.693  1.00  0.00     0.023 C 
BRANCH  29  30
ATOM     30  C   UNL A   1      37.797  22.318  25.323  1.00  0.00     0.116 C 
BRANCH  30  31
ATOM     31  N   UNL A   1      38.695  21.978  26.415  1.00  0.00    -0.352 N 
ATOM     32  C   UNL A   1      39.940  22.622  26.477  1.00  0.00     0.251 C 
ATOM     33  H   UNL A   1      38.436  21.314  27.094  1.00  0.00     0.163 HD
ATOM     34  O   UNL A   1      40.995  22.130  26.158  1.00  0.00    -0.269 OA
BRANCH  32  35
ATOM     35  C   UNL A   1      39.830  24.065  26.816  1.00  0.00     0.039 A 
ATOM     36  C   UNL A   1      40.464  25.042  26.051  1.00  0.00     0.014 A 
ATOM     37  C   UNL A   1      39.256  24.377  28.047  1.00  0.00     0.014 A 
ATOM     38  C   UNL A   1      40.662  26.309  26.607  1.00  0.00     0.010 A 
ATOM     39  C   UNL A   1      39.563  25.577  28.642  1.00  0.00     0.010 A 
ATOM     40  C   UNL A   1      40.294  26.533  27.935  1.00  0.00    -0.014 A 
BRANCH  40  41
ATOM     41  C   UNL A   1      40.613  27.722  28.713  1.00  0.00     0.031 A 
ATOM     42  C   UNL A   1      39.665  28.863  28.705  1.00  0.00     0.074 A 
ATOM     43  C   UNL A   1      41.647  27.687  29.587  1.00  0.00     0.049 A 
ATOM     44  N   UNL A   1      39.950  30.058  29.101  1.00  0.00    -0.248 NA
ATOM     45  C   UNL A   1      38.293  28.741  28.214  1.00  0.00     0.031 C 
ATOM     46  C   UNL A   1      41.895  28.619  30.685  1.00  0.00     0.029 A 
ATOM     47  N   UNL A   1      42.809  26.912  29.551  1.00  0.00    -0.354 N 
ATOM     48  C   UNL A   1      38.762  30.750  29.219  1.00  0.00     0.074 A 
ATOM     49  C   UNL A   1      37.775  29.918  28.573  1.00  0.00     0.031 C 
ATOM     50  C   UNL A   1      43.205  28.589  30.983  1.00  0.00     0.029 A 
ATOM     51  C   UNL A   1      43.840  27.773  29.960  1.00  0.00     0.049 A 
ATOM     52  H   UNL A   1      42.888  25.965  29.294  1.00  0.00     0.167 HD
ATOM     53  C   UNL A   1      38.715  31.880  29.980  1.00  0.00     0.031 A 
ATOM     54  C   UNL A   1      44.839  28.212  29.134  1.00  0.00     0.031 A 
ATOM     55  C   UNL A   1      40.039  32.232  30.490  1.00  0.00     0.049 A 
ATOM     56  C   UNL A   1      44.920  29.722  29.052  1.00  0.00     0.074 A 
ATOM     57  C   UNL A   1      40.651  32.059  31.719  1.00  0.00     0.029 A 
ATOM     58  N   UNL A   1      41.042  32.577  29.593  1.00  0.00    -0.354 N 
ATOM     59  N   UNL A   1      43.926  30.521  29.330  1.00  0.00    -0.248 NA
ATOM     60  C   UNL A   1      46.121  30.451  28.658  1.00  0.00     0.031 C 
ATOM     61  C   UNL A   1      42.048  32.229  31.539  1.00  0.00     0.029 A 
ATOM     62  C   UNL A   1      42.278  32.536  30.209  1.00  0.00     0.049 A 
ATOM     63  H   UNL A   1      40.894  32.816  28.649  1.00  0.00     0.167 HD
ATOM     64  C   UNL A   1      44.326  31.826  29.201  1.00  0.00     0.074 A 
ATOM     65  C   UNL A   1      45.712  31.728  28.775  1.00  0.00     0.031 C 
ATOM     66  C   UNL A   1      43.486  32.872  29.463  1.00  0.00     0.031 A 
BRANCH  53  67
ATOM     67  C   UNL A   1      37.431  32.500  30.498  1.00  0.00    -0.014 A 
ATOM     68  C   UNL A   1      36.676  33.343  29.654  1.00  0.00     0.010 A 
ATOM     69  C   UNL A   1      36.937  32.340  31.806  1.00  0.00     0.010 A 
ATOM     70  C   UNL A   1      35.559  34.058  30.113  1.00  0.00     0.020 A 
ATOM     71  C   UNL A   1      35.842  33.073  32.292  1.00  0.00     0.020 A 
ATOM     72  C   UNL A   1      35.164  33.940  31.442  1.00  0.00     0.054 A 
BRANCH  72  73
ATOM     73  S   UNL A   1      33.764  34.923  32.041  1.00  0.00     0.124 S 
ATOM     74  O   UNL A   1      32.947  35.071  30.840  1.00  0.00    -0.237 OA
ATOM     75  O   UNL A   1      33.204  34.070  33.084  1.00  0.00    -0.237 OA
ATOM     76  O   UNL A   1      34.386  36.159  32.517  1.00  0.00    -0.744 OA
ENDBRANCH  72  73
ENDBRANCH  53  67
BRANCH  54  77
ATOM     77  C   UNL A   1      45.201  27.264  28.040  1.00  0.00    -0.014 A 
ATOM     78  C   UNL A   1      44.877  27.668  26.731  1.00  0.00     0.010 A 
ATOM     79  C   UNL A   1      46.214  26.308  28.216  1.00  0.00     0.010 A 
ATOM     80  C   UNL A   1      45.695  27.329  25.651  1.00  0.00     0.020 A 
ATOM     81  C   UNL A   1      47.022  25.939  27.126  1.00  0.00     0.020 A 
ATOM     82  C   UNL A   1      46.816  26.538  25.878  1.00  0.00     0.054 A 
BRANCH  82  83
ATOM     83  S   UNL A   1      48.096  26.465  24.586  1.00  0.00     0.124 S 
ATOM     84  O   UNL A   1      49.300  26.150  25.348  1.00  0.00    -0.237 OA
ATOM     85  O   UNL A   1      47.596  25.395  23.718  1.00  0.00    -0.237 OA
ATOM     86  O   UNL A   1      48.056  27.801  24.001  1.00  0.00    -0.744 OA
ENDBRANCH  82  83
ENDBRANCH  54  77
BRANCH  66  87
ATOM     87  C   UNL A   1      43.721  34.331  29.126  1.00  0.00    -0.014 A 
ATOM     88  C   UNL A   1      44.280  34.790  27.926  1.00  0.00     0.010 A 
ATOM     89  C   UNL A   1      43.235  35.324  30.017  1.00  0.00     0.010 A 
ATOM     90  C   UNL A   1      44.394  36.161  27.646  1.00  0.00     0.020 A 
ATOM     91  C   UNL A   1      43.297  36.690  29.729  1.00  0.00     0.020 A 
ATOM     92  C   UNL A   1      43.899  37.104  28.549  1.00  0.00     0.054 A 
BRANCH  92  93
ATOM     93  S   UNL A   1      43.976  38.863  28.132  1.00  0.00     0.124 S 
ATOM     94  O   UNL A   1      42.561  39.217  28.063  1.00  0.00    -0.237 OA
ATOM     95  O   UNL A   1      44.709  39.432  29.262  1.00  0.00    -0.237 OA
ATOM     96  O   UNL A   1      44.692  38.885  26.861  1.00  0.00    -0.744 OA
ENDBRANCH  92  93
ENDBRANCH  66  87
ENDBRANCH  40  41
ENDBRANCH  32  35
ENDBRANCH  30  31
ENDBRANCH  29  30
ENDBRANCH  28  29
ENDBRANCH   1  28
TORSDOF 20
ENDMDL
