MODEL 1
REMARK VINA RESULT:     -12.8      0.000      0.000
REMARK SMILES Cc1cccc(C[N@@H+]2CCn3nc(CCC(=O)NCCCCNC(=O)c4ccc(-c5c6nc(c(-c7ccc(S(=O)(=O)[O-])cc7)c7ccc([nH]7)c(-c7ccc(S(=O)(=O)[O-])cc7)c7nc(c(-c8ccc(S(=O)(=O)[O-])cc8)c8ccc5[nH]8)C=C7)C=C6)cc4)cc3C2)c1
REMARK SMILES IDX 20 1 19 2 18 3 16 4 17 5 15 7 14 8 13 9 8 10 9 11 88 12
REMARK SMILES IDX 10 14 87 15 11 16 86 17 12 18 7 19 6 20 1 21 2 22 3 23 89 24
REMARK SMILES IDX 4 25 5 26 21 27 22 28 23 29 24 30 25 32 26 33 27 34 85 35
REMARK SMILES IDX 28 36 84 37 29 38 30 39 31 40 78 41 32 42 83 43 77 44 79 45
REMARK SMILES IDX 33 46 82 47 76 48 75 49 34 51 64 52 45 53 63 54 46 55 49 56
REMARK SMILES IDX 62 57 80 58 47 59 48 60 61 62 81 63 50 64 35 65 36 66 44 67
REMARK SMILES IDX 37 68 43 69 38 70 39 71 40 72 41 73 42 74 65 75 66 76 74 77
REMARK SMILES IDX 67 78 73 79 68 80 69 81 70 82 71 83 72 84 51 85 52 86 60 87
REMARK SMILES IDX 53 88 59 89 54 90 55 91 56 92 57 93 58 94
REMARK H PARENT 18 6 8 13 23 31 79 50 49 61
REMARK Flexibility Score: inf
ROOT
ATOM      1  C   UNL A   1      32.091  29.343  26.920  1.00  0.00     0.023 C 
ENDROOT
BRANCH   1   2
ATOM      2  C   UNL A   1      32.159  30.243  25.688  1.00  0.00     0.116 C 
BRANCH   2   3
ATOM      3  N   UNL A   1      31.371  29.698  24.596  1.00  0.00    -0.356 N 
ATOM      4  C   UNL A   1      31.809  29.103  23.450  1.00  0.00     0.220 C 
ATOM      5  O   UNL A   1      30.984  28.837  22.572  1.00  0.00    -0.275 OA
ATOM      6  H   UNL A   1      30.394  29.768  24.695  1.00  0.00     0.163 HD
BRANCH   4   7
ATOM      7  C   UNL A   1      33.272  28.748  23.263  1.00  0.00     0.106 C 
BRANCH   7   8
ATOM      8  C   UNL A   1      33.466  27.344  22.687  1.00  0.00     0.068 C 
BRANCH   8   9
ATOM      9  C   UNL A   1      32.939  26.258  23.570  1.00  0.00     0.063 A 
ATOM     10  N   UNL A   1      32.542  22.849  26.463  1.00  0.00    -0.325 N 
ATOM     11  C   UNL A   1      32.412  22.152  25.174  1.00  0.00     0.286 C 
ATOM     12  C   UNL A   1      32.103  24.231  26.532  1.00  0.00     0.319 C 
ATOM     13  H   UNL A   1      31.800  22.406  27.005  1.00  0.00     0.348 HD
ATOM     14  C   UNL A   1      31.867  22.956  23.978  1.00  0.00     0.206 C 
ATOM     15  C   UNL A   1      32.413  24.973  25.295  1.00  0.00     0.093 A 
ATOM     16  N   UNL A   1      32.193  24.361  24.102  1.00  0.00    -0.258 N 
ATOM     17  C   UNL A   1      32.947  26.201  24.989  1.00  0.00     0.055 A 
ATOM     18  N   UNL A   1      32.348  25.173  23.043  1.00  0.00    -0.177 NA
BRANCH  10  19
ATOM     19  C   UNL A   1      33.775  22.542  27.197  1.00  0.00     0.299 C 
BRANCH  19  20
ATOM     20  C   UNL A   1      35.058  22.532  26.388  1.00  0.00     0.006 A 
ATOM     21  C   UNL A   1      37.426  20.007  24.767  1.00  0.00     0.044 C 
ATOM     22  C   UNL A   1      36.825  21.303  25.222  1.00  0.00    -0.051 A 
ATOM     23  C   UNL A   1      37.413  22.514  24.857  1.00  0.00     0.003 A 
ATOM     24  C   UNL A   1      35.667  21.320  26.013  1.00  0.00     0.013 A 
ATOM     25  C   UNL A   1      36.811  23.721  25.213  1.00  0.00     0.001 A 
ATOM     26  C   UNL A   1      35.631  23.732  25.953  1.00  0.00     0.009 A 
ENDBRANCH  19  20
ENDBRANCH  10  19
ENDBRANCH   8   9
ENDBRANCH   7   8
ENDBRANCH   4   7
ENDBRANCH   2   3
ENDBRANCH   1   2
BRANCH   1  27
ATOM     27  C   UNL A   1      33.427  28.945  27.534  1.00  0.00     0.023 C 
BRANCH  27  28
ATOM     28  C   UNL A   1      34.614  29.425  26.717  1.00  0.00     0.116 C 
BRANCH  28  29
ATOM     29  N   UNL A   1      35.227  30.667  27.177  1.00  0.00    -0.352 N 
ATOM     30  C   UNL A   1      36.393  30.841  27.923  1.00  0.00     0.251 C 
ATOM     31  H   UNL A   1      34.754  31.493  26.927  1.00  0.00     0.163 HD
ATOM     32  O   UNL A   1      36.689  31.935  28.354  1.00  0.00    -0.269 OA
BRANCH  30  33
ATOM     33  C   UNL A   1      37.279  29.665  28.129  1.00  0.00     0.039 A 
ATOM     34  C   UNL A   1      37.160  28.899  29.295  1.00  0.00     0.014 A 
ATOM     35  C   UNL A   1      38.343  29.454  27.265  1.00  0.00     0.014 A 
ATOM     36  C   UNL A   1      38.223  28.084  29.698  1.00  0.00     0.010 A 
ATOM     37  C   UNL A   1      39.448  28.788  27.736  1.00  0.00     0.010 A 
ATOM     38  C   UNL A   1      39.403  28.109  28.961  1.00  0.00    -0.014 A 
BRANCH  38  39
ATOM     39  C   UNL A   1      40.676  27.506  29.347  1.00  0.00     0.031 A 
ATOM     40  C   UNL A   1      40.989  26.126  28.898  1.00  0.00     0.074 A 
ATOM     41  C   UNL A   1      41.651  28.308  29.823  1.00  0.00     0.049 A 
ATOM     42  N   UNL A   1      42.035  25.454  29.239  1.00  0.00    -0.248 NA
ATOM     43  C   UNL A   1      40.089  25.374  28.027  1.00  0.00     0.031 C 
ATOM     44  C   UNL A   1      43.097  28.112  29.713  1.00  0.00     0.029 A 
ATOM     45  N   UNL A   1      41.528  29.413  30.655  1.00  0.00    -0.354 N 
ATOM     46  C   UNL A   1      42.091  24.335  28.436  1.00  0.00     0.074 A 
ATOM     47  C   UNL A   1      40.831  24.306  27.734  1.00  0.00     0.031 C 
ATOM     48  C   UNL A   1      43.708  28.891  30.622  1.00  0.00     0.029 A 
ATOM     49  C   UNL A   1      42.664  29.449  31.470  1.00  0.00     0.049 A 
ATOM     50  H   UNL A   1      40.780  30.052  30.669  1.00  0.00     0.167 HD
ATOM     51  C   UNL A   1      43.249  23.621  28.348  1.00  0.00     0.031 A 
ATOM     52  C   UNL A   1      42.623  29.342  32.830  1.00  0.00     0.031 A 
ATOM     53  C   UNL A   1      44.252  24.122  29.286  1.00  0.00     0.049 A 
ATOM     54  C   UNL A   1      43.422  28.156  33.310  1.00  0.00     0.074 A 
ATOM     55  C   UNL A   1      45.333  24.973  29.133  1.00  0.00     0.029 A 
ATOM     56  N   UNL A   1      44.021  24.016  30.656  1.00  0.00    -0.354 N 
ATOM     57  N   UNL A   1      43.699  27.123  32.562  1.00  0.00    -0.248 NA
ATOM     58  C   UNL A   1      43.935  28.030  34.668  1.00  0.00     0.031 C 
ATOM     59  C   UNL A   1      45.682  25.465  30.419  1.00  0.00     0.029 A 
ATOM     60  C   UNL A   1      44.843  24.881  31.354  1.00  0.00     0.049 A 
ATOM     61  H   UNL A   1      43.365  23.409  31.069  1.00  0.00     0.167 HD
ATOM     62  C   UNL A   1      44.379  26.204  33.305  1.00  0.00     0.074 A 
ATOM     63  C   UNL A   1      44.512  26.817  34.615  1.00  0.00     0.031 C 
ATOM     64  C   UNL A   1      44.755  24.995  32.802  1.00  0.00     0.031 A 
BRANCH  51  65
ATOM     65  C   UNL A   1      43.553  22.665  27.212  1.00  0.00    -0.014 A 
ATOM     66  C   UNL A   1      42.803  21.478  27.082  1.00  0.00     0.010 A 
ATOM     67  C   UNL A   1      44.599  22.835  26.284  1.00  0.00     0.010 A 
ATOM     68  C   UNL A   1      43.136  20.482  26.148  1.00  0.00     0.020 A 
ATOM     69  C   UNL A   1      44.972  21.833  25.375  1.00  0.00     0.020 A 
ATOM     70  C   UNL A   1      44.240  20.654  25.317  1.00  0.00     0.054 A 
BRANCH  70  71
ATOM     71  S   UNL A   1      44.707  19.333  24.168  1.00  0.00     0.124 S 
ATOM     72  O   UNL A   1      46.110  19.101  24.506  1.00  0.00    -0.237 OA
ATOM     73  O   UNL A   1      43.784  18.263  24.533  1.00  0.00    -0.237 OA
ATOM     74  O   UNL A   1      44.482  19.924  22.850  1.00  0.00    -0.744 OA
ENDBRANCH  70  71
ENDBRANCH  51  65
BRANCH  52  75
ATOM     75  C   UNL A   1      41.339  29.770  33.453  1.00  0.00    -0.014 A 
ATOM     76  C   UNL A   1      41.164  31.136  33.745  1.00  0.00     0.010 A 
ATOM     77  C   UNL A   1      40.204  28.943  33.339  1.00  0.00     0.010 A 
ATOM     78  C   UNL A   1      39.884  31.695  33.755  1.00  0.00     0.020 A 
ATOM     79  C   UNL A   1      38.923  29.507  33.329  1.00  0.00     0.020 A 
ATOM     80  C   UNL A   1      38.783  30.890  33.460  1.00  0.00     0.054 A 
BRANCH  80  81
ATOM     81  S   UNL A   1      37.205  31.693  33.052  1.00  0.00     0.124 S 
ATOM     82  O   UNL A   1      36.419  30.596  32.495  1.00  0.00    -0.237 OA
ATOM     83  O   UNL A   1      36.775  32.166  34.365  1.00  0.00    -0.237 OA
ATOM     84  O   UNL A   1      37.589  32.737  32.108  1.00  0.00    -0.744 OA
ENDBRANCH  80  81
ENDBRANCH  52  75
BRANCH  64  85
ATOM     85  C   UNL A   1      45.147  23.841  33.675  1.00  0.00    -0.014 A 
ATOM     86  C   UNL A   1      44.241  22.828  34.037  1.00  0.00     0.010 A 
ATOM     87  C   UNL A   1      46.499  23.669  34.040  1.00  0.00     0.010 A 
ATOM     88  C   UNL A   1      44.643  21.738  34.811  1.00  0.00     0.020 A 
ATOM     89  C   UNL A   1      46.920  22.558  34.774  1.00  0.00     0.020 A 
ATOM     90  C   UNL A   1      45.980  21.616  35.185  1.00  0.00     0.054 A 
BRANCH  90  91
ATOM     91  S   UNL A   1      46.496  20.183  36.160  1.00  0.00     0.124 S 
ATOM     92  O   UNL A   1      46.023  19.075  35.335  1.00  0.00    -0.237 OA
ATOM     93  O   UNL A   1      47.948  20.336  36.229  1.00  0.00    -0.237 OA
ATOM     94  O   UNL A   1      45.798  20.367  37.429  1.00  0.00    -0.744 OA
ENDBRANCH  90  91
ENDBRANCH  64  85
ENDBRANCH  38  39
ENDBRANCH  30  33
ENDBRANCH  28  29
ENDBRANCH  27  28
ENDBRANCH   1  27
TORSDOF 18
ENDMDL
MODEL 2
REMARK VINA RESULT:     -12.1      4.262     10.987
REMARK SMILES Cc1cccc(C[N@@H+]2CCn3nc(CCC(=O)NCCCCNC(=O)c4ccc(-c5c6nc(c(-c7ccc(S(=O)(=O)[O-])cc7)c7ccc([nH]7)c(-c7ccc(S(=O)(=O)[O-])cc7)c7nc(c(-c8ccc(S(=O)(=O)[O-])cc8)c8ccc5[nH]8)C=C7)C=C6)cc4)cc3C2)c1
REMARK SMILES IDX 20 1 19 2 18 3 16 4 17 5 15 7 14 8 13 9 8 10 9 11 88 12
REMARK SMILES IDX 10 14 87 15 11 16 86 17 12 18 7 19 6 20 1 21 2 22 3 23 89 24
REMARK SMILES IDX 4 25 5 26 21 27 22 28 23 29 24 30 25 32 26 33 27 34 85 35
REMARK SMILES IDX 28 36 84 37 29 38 30 39 31 40 78 41 32 42 83 43 77 44 79 45
REMARK SMILES IDX 33 46 82 47 76 48 75 49 34 51 64 52 45 53 63 54 46 55 49 56
REMARK SMILES IDX 62 57 80 58 47 59 48 60 61 62 81 63 50 64 35 65 36 66 44 67
REMARK SMILES IDX 37 68 43 69 38 70 39 71 40 72 41 73 42 74 65 75 66 76 74 77
REMARK SMILES IDX 67 78 73 79 68 80 69 81 70 82 71 83 72 84 51 85 52 86 60 87
REMARK SMILES IDX 53 88 59 89 54 90 55 91 56 92 57 93 58 94
REMARK H PARENT 18 6 8 13 23 31 79 50 49 61
REMARK Flexibility Score: inf
ROOT
ATOM      1  C   UNL A   1      35.544  21.884  24.438  1.00  0.00     0.023 C 
ENDROOT
BRANCH   1   2
ATOM      2  C   UNL A   1      35.055  21.289  25.758  1.00  0.00     0.116 C 
BRANCH   2   3
ATOM      3  N   UNL A   1      34.182  20.152  25.528  1.00  0.00    -0.356 N 
ATOM      4  C   UNL A   1      32.840  20.148  25.285  1.00  0.00     0.220 C 
ATOM      5  O   UNL A   1      32.249  19.065  25.262  1.00  0.00    -0.275 OA
ATOM      6  H   UNL A   1      34.614  19.267  25.551  1.00  0.00     0.163 HD
BRANCH   4   7
ATOM      7  C   UNL A   1      32.090  21.440  25.022  1.00  0.00     0.106 C 
BRANCH   7   8
ATOM      8  C   UNL A   1      31.787  22.215  26.306  1.00  0.00     0.068 C 
BRANCH   8   9
ATOM      9  C   UNL A   1      31.872  23.699  26.143  1.00  0.00     0.063 A 
ATOM     10  N   UNL A   1      31.737  27.886  24.531  1.00  0.00    -0.325 N 
ATOM     11  C   UNL A   1      33.173  27.582  24.428  1.00  0.00     0.286 C 
ATOM     12  C   UNL A   1      30.980  27.230  25.582  1.00  0.00     0.319 C 
ATOM     13  H   UNL A   1      31.760  28.836  24.902  1.00  0.00     0.348 HD
ATOM     14  C   UNL A   1      33.758  26.550  25.412  1.00  0.00     0.206 C 
ATOM     15  C   UNL A   1      31.424  25.840  25.799  1.00  0.00     0.093 A 
ATOM     16  N   UNL A   1      32.757  25.580  25.806  1.00  0.00    -0.258 N 
ATOM     17  C   UNL A   1      30.808  24.623  25.968  1.00  0.00     0.055 A 
ATOM     18  N   UNL A   1      33.060  24.325  26.175  1.00  0.00    -0.177 NA
BRANCH  10  19
ATOM     19  C   UNL A   1      31.050  28.007  23.240  1.00  0.00     0.299 C 
BRANCH  19  20
ATOM     20  C   UNL A   1      29.760  28.804  23.234  1.00  0.00     0.006 A 
ATOM     21  C   UNL A   1      28.626  32.454  23.215  1.00  0.00     0.044 C 
ATOM     22  C   UNL A   1      28.592  30.956  23.231  1.00  0.00    -0.051 A 
ATOM     23  C   UNL A   1      27.371  30.282  23.184  1.00  0.00     0.003 A 
ATOM     24  C   UNL A   1      29.778  30.211  23.287  1.00  0.00     0.013 A 
ATOM     25  C   UNL A   1      27.341  28.890  23.119  1.00  0.00     0.001 A 
ATOM     26  C   UNL A   1      28.525  28.156  23.121  1.00  0.00     0.009 A 
ENDBRANCH  19  20
ENDBRANCH  10  19
ENDBRANCH   8   9
ENDBRANCH   7   8
ENDBRANCH   4   7
ENDBRANCH   2   3
ENDBRANCH   1   2
BRANCH   1  27
ATOM     27  C   UNL A   1      37.033  22.196  24.355  1.00  0.00     0.023 C 
BRANCH  27  28
ATOM     28  C   UNL A   1      37.535  22.990  25.549  1.00  0.00     0.116 C 
BRANCH  28  29
ATOM     29  N   UNL A   1      38.679  22.413  26.247  1.00  0.00    -0.352 N 
ATOM     30  C   UNL A   1      39.704  23.065  26.932  1.00  0.00     0.251 C 
ATOM     31  H   UNL A   1      38.734  21.430  26.233  1.00  0.00     0.163 HD
ATOM     32  O   UNL A   1      40.667  22.447  27.332  1.00  0.00    -0.269 OA
BRANCH  30  33
ATOM     33  C   UNL A   1      39.558  24.522  27.196  1.00  0.00     0.039 A 
ATOM     34  C   UNL A   1      40.180  25.449  26.351  1.00  0.00     0.014 A 
ATOM     35  C   UNL A   1      38.979  24.943  28.383  1.00  0.00     0.014 A 
ATOM     36  C   UNL A   1      40.409  26.751  26.804  1.00  0.00     0.010 A 
ATOM     37  C   UNL A   1      39.345  26.164  28.894  1.00  0.00     0.010 A 
ATOM     38  C   UNL A   1      40.074  27.073  28.115  1.00  0.00    -0.014 A 
BRANCH  38  39
ATOM     39  C   UNL A   1      40.437  28.298  28.824  1.00  0.00     0.031 A 
ATOM     40  C   UNL A   1      39.495  29.445  28.817  1.00  0.00     0.074 A 
ATOM     41  C   UNL A   1      41.449  28.251  29.715  1.00  0.00     0.049 A 
ATOM     42  N   UNL A   1      39.732  30.603  29.330  1.00  0.00    -0.248 NA
ATOM     43  C   UNL A   1      38.185  29.366  28.173  1.00  0.00     0.031 C 
ATOM     44  C   UNL A   1      41.619  29.070  30.915  1.00  0.00     0.029 A 
ATOM     45  N   UNL A   1      42.638  27.537  29.630  1.00  0.00    -0.354 N 
ATOM     46  C   UNL A   1      38.545  31.305  29.342  1.00  0.00     0.074 A 
ATOM     47  C   UNL A   1      37.625  30.510  28.565  1.00  0.00     0.031 C 
ATOM     48  C   UNL A   1      42.902  29.001  31.308  1.00  0.00     0.029 A 
ATOM     49  C   UNL A   1      43.627  28.302  30.257  1.00  0.00     0.049 A 
ATOM     50  H   UNL A   1      42.762  26.657  29.207  1.00  0.00     0.167 HD
ATOM     51  C   UNL A   1      38.424  32.420  30.116  1.00  0.00     0.031 A 
ATOM     52  C   UNL A   1      44.729  28.787  29.615  1.00  0.00     0.031 A 
ATOM     53  C   UNL A   1      39.700  32.775  30.736  1.00  0.00     0.049 A 
ATOM     54  C   UNL A   1      44.789  30.292  29.690  1.00  0.00     0.074 A 
ATOM     55  C   UNL A   1      40.224  32.547  31.996  1.00  0.00     0.029 A 
ATOM     56  N   UNL A   1      40.765  33.172  29.929  1.00  0.00    -0.354 N 
ATOM     57  N   UNL A   1      43.743  31.046  29.893  1.00  0.00    -0.248 NA
ATOM     58  C   UNL A   1      46.015  31.058  29.509  1.00  0.00     0.031 C 
ATOM     59  C   UNL A   1      41.633  32.702  31.913  1.00  0.00     0.029 A 
ATOM     60  C   UNL A   1      41.958  33.068  30.617  1.00  0.00     0.049 A 
ATOM     61  H   UNL A   1      40.678  33.483  28.999  1.00  0.00     0.167 HD
ATOM     62  C   UNL A   1      44.120  32.354  29.847  1.00  0.00     0.074 A 
ATOM     63  C   UNL A   1      45.553  32.315  29.612  1.00  0.00     0.031 C 
ATOM     64  C   UNL A   1      43.226  33.375  29.971  1.00  0.00     0.031 A 
BRANCH  51  65
ATOM     65  C   UNL A   1      37.089  33.004  30.531  1.00  0.00    -0.014 A 
ATOM     66  C   UNL A   1      36.267  33.619  29.565  1.00  0.00     0.010 A 
ATOM     67  C   UNL A   1      36.612  33.043  31.857  1.00  0.00     0.010 A 
ATOM     68  C   UNL A   1      35.096  34.313  29.912  1.00  0.00     0.020 A 
ATOM     69  C   UNL A   1      35.468  33.767  32.226  1.00  0.00     0.020 A 
ATOM     70  C   UNL A   1      34.717  34.407  31.249  1.00  0.00     0.054 A 
BRANCH  70  71
ATOM     71  S   UNL A   1      33.246  35.366  31.694  1.00  0.00     0.124 S 
ATOM     72  O   UNL A   1      33.800  36.692  31.959  1.00  0.00    -0.237 OA
ATOM     73  O   UNL A   1      32.426  35.253  30.492  1.00  0.00    -0.237 OA
ATOM     74  O   UNL A   1      32.722  34.673  32.870  1.00  0.00    -0.744 OA
ENDBRANCH  70  71
ENDBRANCH  51  65
BRANCH  52  75
ATOM     75  C   UNL A   1      45.145  28.011  28.412  1.00  0.00    -0.014 A 
ATOM     76  C   UNL A   1      45.874  26.823  28.607  1.00  0.00     0.010 A 
ATOM     77  C   UNL A   1      44.468  28.206  27.193  1.00  0.00     0.010 A 
ATOM     78  C   UNL A   1      45.789  25.784  27.676  1.00  0.00     0.020 A 
ATOM     79  C   UNL A   1      44.366  27.159  26.270  1.00  0.00     0.020 A 
ATOM     80  C   UNL A   1      44.965  25.931  26.560  1.00  0.00     0.054 A 
BRANCH  80  81
ATOM     81  S   UNL A   1      44.525  24.450  25.604  1.00  0.00     0.124 S 
ATOM     82  O   UNL A   1      45.595  24.372  24.615  1.00  0.00    -0.237 OA
ATOM     83  O   UNL A   1      44.554  23.421  26.639  1.00  0.00    -0.237 OA
ATOM     84  O   UNL A   1      43.201  24.767  25.078  1.00  0.00    -0.744 OA
ENDBRANCH  80  81
ENDBRANCH  52  75
BRANCH  64  85
ATOM     85  C   UNL A   1      43.536  34.780  29.548  1.00  0.00    -0.014 A 
ATOM     86  C   UNL A   1      43.659  35.151  28.198  1.00  0.00     0.010 A 
ATOM     87  C   UNL A   1      43.568  35.808  30.514  1.00  0.00     0.010 A 
ATOM     88  C   UNL A   1      43.901  36.475  27.828  1.00  0.00     0.020 A 
ATOM     89  C   UNL A   1      43.762  37.143  30.150  1.00  0.00     0.020 A 
ATOM     90  C   UNL A   1      43.961  37.463  28.809  1.00  0.00     0.054 A 
BRANCH  90  91
ATOM     91  S   UNL A   1      44.242  39.180  28.317  1.00  0.00     0.124 S 
ATOM     92  O   UNL A   1      44.712  39.774  29.566  1.00  0.00    -0.237 OA
ATOM     93  O   UNL A   1      45.248  39.062  27.264  1.00  0.00    -0.237 OA
ATOM     94  O   UNL A   1      42.926  39.623  27.865  1.00  0.00    -0.744 OA
ENDBRANCH  90  91
ENDBRANCH  64  85
ENDBRANCH  38  39
ENDBRANCH  30  33
ENDBRANCH  28  29
ENDBRANCH  27  28
ENDBRANCH   1  27
TORSDOF 18
ENDMDL
MODEL 3
REMARK VINA RESULT:     -12.0      4.542     10.950
REMARK SMILES Cc1cccc(C[N@@H+]2CCn3nc(CCC(=O)NCCCCNC(=O)c4ccc(-c5c6nc(c(-c7ccc(S(=O)(=O)[O-])cc7)c7ccc([nH]7)c(-c7ccc(S(=O)(=O)[O-])cc7)c7nc(c(-c8ccc(S(=O)(=O)[O-])cc8)c8ccc5[nH]8)C=C7)C=C6)cc4)cc3C2)c1
REMARK SMILES IDX 20 1 19 2 18 3 16 4 17 5 15 7 14 8 13 9 8 10 9 11 88 12
REMARK SMILES IDX 10 14 87 15 11 16 86 17 12 18 7 19 6 20 1 21 2 22 3 23 89 24
REMARK SMILES IDX 4 25 5 26 21 27 22 28 23 29 24 30 25 32 26 33 27 34 85 35
REMARK SMILES IDX 28 36 84 37 29 38 30 39 31 40 78 41 32 42 83 43 77 44 79 45
REMARK SMILES IDX 33 46 82 47 76 48 75 49 34 51 64 52 45 53 63 54 46 55 49 56
REMARK SMILES IDX 62 57 80 58 47 59 48 60 61 62 81 63 50 64 35 65 36 66 44 67
REMARK SMILES IDX 37 68 43 69 38 70 39 71 40 72 41 73 42 74 65 75 66 76 74 77
REMARK SMILES IDX 67 78 73 79 68 80 69 81 70 82 71 83 72 84 51 85 52 86 60 87
REMARK SMILES IDX 53 88 59 89 54 90 55 91 56 92 57 93 58 94
REMARK H PARENT 18 6 8 13 23 31 79 50 49 61
REMARK Flexibility Score: inf
ROOT
ATOM      1  C   UNL A   1      35.716  21.455  26.156  1.00  0.00     0.023 C 
ENDROOT
BRANCH   1   2
ATOM      2  C   UNL A   1      34.239  21.370  26.541  1.00  0.00     0.116 C 
BRANCH   2   3
ATOM      3  N   UNL A   1      33.638  20.145  26.045  1.00  0.00    -0.356 N 
ATOM      4  C   UNL A   1      32.640  20.002  25.127  1.00  0.00     0.220 C 
ATOM      5  O   UNL A   1      32.163  18.878  24.946  1.00  0.00    -0.275 OA
ATOM      6  H   UNL A   1      33.996  19.308  26.420  1.00  0.00     0.163 HD
BRANCH   4   7
ATOM      7  C   UNL A   1      32.140  21.189  24.325  1.00  0.00     0.106 C 
BRANCH   7   8
ATOM      8  C   UNL A   1      33.190  21.716  23.344  1.00  0.00     0.068 C 
BRANCH   8   9
ATOM      9  C   UNL A   1      33.195  23.207  23.220  1.00  0.00     0.063 A 
ATOM     10  N   UNL A   1      32.459  27.596  23.802  1.00  0.00    -0.325 N 
ATOM     11  C   UNL A   1      31.553  27.297  22.683  1.00  0.00     0.286 C 
ATOM     12  C   UNL A   1      33.660  26.792  23.934  1.00  0.00     0.319 C 
ATOM     13  H   UNL A   1      32.874  28.476  23.493  1.00  0.00     0.348 HD
ATOM     14  C   UNL A   1      31.920  26.116  21.762  1.00  0.00     0.206 C 
ATOM     15  C   UNL A   1      33.423  25.380  23.578  1.00  0.00     0.093 A 
ATOM     16  N   UNL A   1      32.669  25.108  22.481  1.00  0.00    -0.258 N 
ATOM     17  C   UNL A   1      33.747  24.159  24.118  1.00  0.00     0.055 A 
ATOM     18  N   UNL A   1      32.652  23.807  22.148  1.00  0.00    -0.177 NA
BRANCH  10  19
ATOM     19  C   UNL A   1      31.780  27.926  25.061  1.00  0.00     0.299 C 
BRANCH  19  20
ATOM     20  C   UNL A   1      32.400  29.032  25.893  1.00  0.00     0.006 A 
ATOM     21  C   UNL A   1      31.665  32.649  26.889  1.00  0.00     0.044 C 
ATOM     22  C   UNL A   1      32.345  31.318  26.768  1.00  0.00    -0.051 A 
ATOM     23  C   UNL A   1      33.526  31.069  27.466  1.00  0.00     0.003 A 
ATOM     24  C   UNL A   1      31.806  30.307  25.960  1.00  0.00     0.013 A 
ATOM     25  C   UNL A   1      34.117  29.807  27.416  1.00  0.00     0.001 A 
ATOM     26  C   UNL A   1      33.547  28.789  26.655  1.00  0.00     0.009 A 
ENDBRANCH  19  20
ENDBRANCH  10  19
ENDBRANCH   8   9
ENDBRANCH   7   8
ENDBRANCH   4   7
ENDBRANCH   2   3
ENDBRANCH   1   2
BRANCH   1  27
ATOM     27  C   UNL A   1      36.298  22.857  26.038  1.00  0.00     0.023 C 
BRANCH  27  28
ATOM     28  C   UNL A   1      37.709  22.862  25.474  1.00  0.00     0.116 C 
BRANCH  28  29
ATOM     29  N   UNL A   1      38.731  22.292  26.346  1.00  0.00    -0.352 N 
ATOM     30  C   UNL A   1      39.675  22.952  27.132  1.00  0.00     0.251 C 
ATOM     31  H   UNL A   1      38.757  21.309  26.384  1.00  0.00     0.163 HD
ATOM     32  O   UNL A   1      40.557  22.331  27.685  1.00  0.00    -0.269 OA
BRANCH  30  33
ATOM     33  C   UNL A   1      39.540  24.423  27.308  1.00  0.00     0.039 A 
ATOM     34  C   UNL A   1      40.197  25.292  26.429  1.00  0.00     0.014 A 
ATOM     35  C   UNL A   1      38.933  24.918  28.451  1.00  0.00     0.014 A 
ATOM     36  C   UNL A   1      40.430  26.616  26.813  1.00  0.00     0.010 A 
ATOM     37  C   UNL A   1      39.300  26.162  28.902  1.00  0.00     0.010 A 
ATOM     38  C   UNL A   1      40.063  27.017  28.094  1.00  0.00    -0.014 A 
BRANCH  38  39
ATOM     39  C   UNL A   1      40.420  28.276  28.741  1.00  0.00     0.031 A 
ATOM     40  C   UNL A   1      39.460  29.407  28.708  1.00  0.00     0.074 A 
ATOM     41  C   UNL A   1      41.454  28.284  29.609  1.00  0.00     0.049 A 
ATOM     42  N   UNL A   1      39.688  30.590  29.166  1.00  0.00    -0.248 NA
ATOM     43  C   UNL A   1      38.137  29.279  28.099  1.00  0.00     0.031 C 
ATOM     44  C   UNL A   1      41.637  29.156  30.768  1.00  0.00     0.029 A 
ATOM     45  N   UNL A   1      42.653  27.587  29.526  1.00  0.00    -0.354 N 
ATOM     46  C   UNL A   1      38.490  31.272  29.176  1.00  0.00     0.074 A 
ATOM     47  C   UNL A   1      37.567  30.431  28.456  1.00  0.00     0.031 C 
ATOM     48  C   UNL A   1      42.930  29.124  31.133  1.00  0.00     0.029 A 
ATOM     49  C   UNL A   1      43.643  28.393  30.096  1.00  0.00     0.049 A 
ATOM     50  H   UNL A   1      42.781  26.691  29.137  1.00  0.00     0.167 HD
ATOM     51  C   UNL A   1      38.369  32.417  29.906  1.00  0.00     0.031 A 
ATOM     52  C   UNL A   1      44.721  28.868  29.408  1.00  0.00     0.031 A 
ATOM     53  C   UNL A   1      39.652  32.819  30.479  1.00  0.00     0.049 A 
ATOM     54  C   UNL A   1      44.757  30.375  29.417  1.00  0.00     0.074 A 
ATOM     55  C   UNL A   1      40.210  32.653  31.734  1.00  0.00     0.029 A 
ATOM     56  N   UNL A   1      40.691  33.198  29.631  1.00  0.00    -0.354 N 
ATOM     57  N   UNL A   1      43.703  31.120  29.613  1.00  0.00    -0.248 NA
ATOM     58  C   UNL A   1      45.966  31.153  29.175  1.00  0.00     0.031 C 
ATOM     59  C   UNL A   1      41.613  32.827  31.611  1.00  0.00     0.029 A 
ATOM     60  C   UNL A   1      41.902  33.143  30.294  1.00  0.00     0.049 A 
ATOM     61  H   UNL A   1      40.577  33.467  28.691  1.00  0.00     0.167 HD
ATOM     62  C   UNL A   1      44.057  32.432  29.503  1.00  0.00     0.074 A 
ATOM     63  C   UNL A   1      45.485  32.405  29.236  1.00  0.00     0.031 C 
ATOM     64  C   UNL A   1      43.149  33.442  29.606  1.00  0.00     0.031 A 
BRANCH  51  65
ATOM     65  C   UNL A   1      37.033  32.997  30.327  1.00  0.00    -0.014 A 
ATOM     66  C   UNL A   1      36.193  33.586  29.360  1.00  0.00     0.010 A 
ATOM     67  C   UNL A   1      36.574  33.058  31.658  1.00  0.00     0.010 A 
ATOM     68  C   UNL A   1      35.020  34.275  29.709  1.00  0.00     0.020 A 
ATOM     69  C   UNL A   1      35.429  33.779  32.029  1.00  0.00     0.020 A 
ATOM     70  C   UNL A   1      34.659  34.392  31.049  1.00  0.00     0.054 A 
BRANCH  70  71
ATOM     71  S   UNL A   1      33.184  35.346  31.496  1.00  0.00     0.124 S 
ATOM     72  O   UNL A   1      32.651  34.593  32.628  1.00  0.00    -0.237 OA
ATOM     73  O   UNL A   1      33.745  36.654  31.815  1.00  0.00    -0.237 OA
ATOM     74  O   UNL A   1      32.362  35.301  30.287  1.00  0.00    -0.744 OA
ENDBRANCH  70  71
ENDBRANCH  51  65
BRANCH  52  75
ATOM     75  C   UNL A   1      45.122  28.048  28.229  1.00  0.00    -0.014 A 
ATOM     76  C   UNL A   1      44.520  28.327  26.989  1.00  0.00     0.010 A 
ATOM     77  C   UNL A   1      46.346  27.350  28.255  1.00  0.00     0.010 A 
ATOM     78  C   UNL A   1      45.205  28.067  25.799  1.00  0.00     0.020 A 
ATOM     79  C   UNL A   1      47.041  27.107  27.065  1.00  0.00     0.020 A 
ATOM     80  C   UNL A   1      46.495  27.539  25.853  1.00  0.00     0.054 A 
BRANCH  80  81
ATOM     81  S   UNL A   1      47.527  27.609  24.360  1.00  0.00     0.124 S 
ATOM     82  O   UNL A   1      48.797  28.118  24.867  1.00  0.00    -0.237 OA
ATOM     83  O   UNL A   1      47.534  26.208  23.949  1.00  0.00    -0.237 OA
ATOM     84  O   UNL A   1      46.791  28.512  23.481  1.00  0.00    -0.744 OA
ENDBRANCH  80  81
ENDBRANCH  52  75
BRANCH  64  85
ATOM     85  C   UNL A   1      43.425  34.832  29.116  1.00  0.00    -0.014 A 
ATOM     86  C   UNL A   1      44.172  35.760  29.864  1.00  0.00     0.010 A 
ATOM     87  C   UNL A   1      43.056  35.197  27.804  1.00  0.00     0.010 A 
ATOM     88  C   UNL A   1      44.456  37.033  29.365  1.00  0.00     0.020 A 
ATOM     89  C   UNL A   1      43.376  36.451  27.279  1.00  0.00     0.020 A 
ATOM     90  C   UNL A   1      44.046  37.374  28.077  1.00  0.00     0.054 A 
BRANCH  90  91
ATOM     91  S   UNL A   1      44.448  39.013  27.429  1.00  0.00     0.124 S 
ATOM     92  O   UNL A   1      43.250  39.330  26.656  1.00  0.00    -0.237 OA
ATOM     93  O   UNL A   1      44.639  39.810  28.639  1.00  0.00    -0.237 OA
ATOM     94  O   UNL A   1      45.659  38.782  26.647  1.00  0.00    -0.744 OA
ENDBRANCH  90  91
ENDBRANCH  64  85
ENDBRANCH  38  39
ENDBRANCH  30  33
ENDBRANCH  28  29
ENDBRANCH  27  28
ENDBRANCH   1  27
TORSDOF 18
ENDMDL
