MODEL 1
REMARK VINA RESULT:     -10.7      0.000      0.000
REMARK SMILES CCN(C(=O)N1[C@@H](C(=O)NCCCCNC(=O)c2ccc(-c3c4nc(c(-c5ccc(S(=O)(=O)[O-])cc5)c5ccc([nH]5)c(-c5ccc(S(=O)(=O)[O-])cc5)c5nc(c(-c6ccc(S(=O)(=O)[O-])cc6)c6ccc3[nH]6)C=C5)C=C4)cc2)CC[C@H]2CCCC[C@@H]21)C(C)C
REMARK SMILES IDX 12 1 11 2 10 3 8 4 9 5 7 7 6 8 85 9 78 10 80 11 84 12 79 13
REMARK SMILES IDX 81 14 83 15 82 16 4 17 5 18 3 19 2 20 1 21 86 22 87 23 88 24
REMARK SMILES IDX 13 25 14 26 15 27 16 28 17 30 18 31 19 32 77 33 20 34 76 35
REMARK SMILES IDX 21 36 22 37 23 38 70 39 24 40 75 41 69 42 71 43 25 44 74 45
REMARK SMILES IDX 68 46 67 47 26 49 56 50 37 51 55 52 38 53 41 54 54 55 72 56
REMARK SMILES IDX 39 57 40 58 53 60 73 61 42 62 27 63 28 64 36 65 29 66 35 67
REMARK SMILES IDX 30 68 31 69 32 70 33 71 34 72 57 73 58 74 66 75 59 76 65 77
REMARK SMILES IDX 60 78 61 79 62 80 63 81 64 82 43 83 44 84 52 85 45 86 51 87
REMARK SMILES IDX 46 88 47 89 48 90 49 91 50 92
REMARK H PARENT 10 6 15 29 71 48 41 59
REMARK Flexibility Score: inf
ROOT
ATOM      1  C   UNL A   1      33.323  26.530  24.733  1.00  0.00     0.023 C 
ENDROOT
BRANCH   1   2
ATOM      2  C   UNL A   1      33.343  25.009  24.849  1.00  0.00     0.116 C 
BRANCH   2   3
ATOM      3  N   UNL A   1      32.975  24.576  26.178  1.00  0.00    -0.354 N 
ATOM      4  C   UNL A   1      32.512  23.362  26.595  1.00  0.00     0.242 C 
ATOM      5  O   UNL A   1      32.015  23.303  27.725  1.00  0.00    -0.273 OA
ATOM      6  H   UNL A   1      33.073  25.254  26.885  1.00  0.00     0.163 HD
BRANCH   4   7
ATOM      7  C   UNL A   1      32.414  22.152  25.629  1.00  0.00     0.176 C 
ATOM      8  N   UNL A   1      33.677  21.514  25.197  1.00  0.00    -0.309 N 
ATOM      9  C   UNL A   1      33.519  20.356  24.296  1.00  0.00     0.091 C 
ATOM     10  C   UNL A   1      31.596  22.627  24.392  1.00  0.00     0.036 C 
ATOM     11  C   UNL A   1      32.232  20.445  23.450  1.00  0.00     0.012 C 
ATOM     12  C   UNL A   1      33.517  18.975  24.972  1.00  0.00     0.025 C 
ATOM     13  C   UNL A   1      31.954  21.893  23.093  1.00  0.00     0.008 C 
ATOM     14  C   UNL A   1      32.353  19.485  22.271  1.00  0.00     0.006 C 
ATOM     15  C   UNL A   1      33.524  17.875  23.896  1.00  0.00     0.002 C 
ATOM     16  C   UNL A   1      32.452  18.052  22.809  1.00  0.00     0.000 C 
BRANCH   8  17
ATOM     17  C   UNL A   1      34.747  21.551  26.085  1.00  0.00     0.321 C 
ATOM     18  O   UNL A   1      34.542  21.474  27.295  1.00  0.00    -0.248 OA
BRANCH  17  19
ATOM     19  N   UNL A   1      36.023  21.788  25.540  1.00  0.00    -0.322 N 
BRANCH  19  20
ATOM     20  C   UNL A   1      37.159  20.859  25.687  1.00  0.00     0.118 C 
ATOM     21  C   UNL A   1      37.235  19.649  24.770  1.00  0.00     0.027 C 
ENDBRANCH  19  20
BRANCH  19  22
ATOM     22  C   UNL A   1      36.216  23.110  24.886  1.00  0.00     0.080 C 
ATOM     23  C   UNL A   1      37.343  23.913  25.531  1.00  0.00     0.031 C 
ATOM     24  C   UNL A   1      36.358  23.050  23.361  1.00  0.00     0.031 C 
ENDBRANCH  19  22
ENDBRANCH  17  19
ENDBRANCH   8  17
ENDBRANCH   4   7
ENDBRANCH   2   3
ENDBRANCH   1   2
BRANCH   1  25
ATOM     25  C   UNL A   1      32.998  27.259  26.035  1.00  0.00     0.023 C 
BRANCH  25  26
ATOM     26  C   UNL A   1      34.147  28.069  26.623  1.00  0.00     0.116 C 
BRANCH  26  27
ATOM     27  N   UNL A   1      33.753  29.418  26.999  1.00  0.00    -0.352 N 
ATOM     28  C   UNL A   1      34.457  30.344  27.731  1.00  0.00     0.251 C 
ATOM     29  H   UNL A   1      32.864  29.706  26.687  1.00  0.00     0.163 HD
ATOM     30  O   UNL A   1      33.918  31.392  28.076  1.00  0.00    -0.269 OA
BRANCH  28  31
ATOM     31  C   UNL A   1      35.852  30.053  28.120  1.00  0.00     0.039 A 
ATOM     32  C   UNL A   1      36.108  29.546  29.397  1.00  0.00     0.014 A 
ATOM     33  C   UNL A   1      36.900  30.259  27.219  1.00  0.00     0.014 A 
ATOM     34  C   UNL A   1      37.413  29.197  29.751  1.00  0.00     0.010 A 
ATOM     35  C   UNL A   1      38.185  29.840  27.546  1.00  0.00     0.010 A 
ATOM     36  C   UNL A   1      38.458  29.316  28.820  1.00  0.00    -0.014 A 
BRANCH  36  37
ATOM     37  C   UNL A   1      39.849  28.930  29.166  1.00  0.00     0.031 A 
ATOM     38  C   UNL A   1      40.749  29.918  29.857  1.00  0.00     0.074 A 
ATOM     39  C   UNL A   1      40.319  27.717  28.813  1.00  0.00     0.049 A 
ATOM     40  N   UNL A   1      42.008  29.795  30.191  1.00  0.00    -0.248 NA
ATOM     41  C   UNL A   1      40.166  31.227  30.195  1.00  0.00     0.031 C 
ATOM     42  C   UNL A   1      39.558  26.684  28.106  1.00  0.00     0.029 A 
ATOM     43  N   UNL A   1      41.554  27.149  28.999  1.00  0.00    -0.354 N 
ATOM     44  C   UNL A   1      42.369  31.012  30.760  1.00  0.00     0.074 A 
ATOM     45  C   UNL A   1      41.215  31.877  30.675  1.00  0.00     0.031 C 
ATOM     46  C   UNL A   1      40.334  25.599  27.946  1.00  0.00     0.029 A 
ATOM     47  C   UNL A   1      41.655  25.870  28.503  1.00  0.00     0.049 A 
ATOM     48  H   UNL A   1      42.298  27.613  29.445  1.00  0.00     0.167 HD
ATOM     49  C   UNL A   1      43.547  31.369  31.325  1.00  0.00     0.031 A 
ATOM     50  C   UNL A   1      42.694  25.013  28.498  1.00  0.00     0.031 A 
ATOM     51  C   UNL A   1      44.689  30.501  31.423  1.00  0.00     0.049 A 
ATOM     52  C   UNL A   1      43.994  25.434  29.131  1.00  0.00     0.074 A 
ATOM     53  C   UNL A   1      45.915  30.754  32.014  1.00  0.00     0.029 A 
ATOM     54  N   UNL A   1      44.744  29.208  30.923  1.00  0.00    -0.354 N 
ATOM     55  N   UNL A   1      44.300  26.572  29.708  1.00  0.00    -0.248 NA
ATOM     56  C   UNL A   1      45.084  24.448  29.124  1.00  0.00     0.031 C 
ATOM     57  C   UNL A   1      46.725  29.627  31.836  1.00  0.00     0.029 A 
ATOM     58  C   UNL A   1      45.985  28.655  31.184  1.00  0.00     0.049 A 
ATOM     59  H   UNL A   1      44.008  28.753  30.454  1.00  0.00     0.167 HD
ATOM     60  C   UNL A   1      45.605  26.425  30.165  1.00  0.00     0.074 A 
ATOM     61  C   UNL A   1      46.027  25.086  29.806  1.00  0.00     0.031 C 
ATOM     62  C   UNL A   1      46.384  27.316  30.828  1.00  0.00     0.031 A 
BRANCH  49  63
ATOM     63  C   UNL A   1      43.651  32.764  31.886  1.00  0.00    -0.014 A 
ATOM     64  C   UNL A   1      43.342  33.026  33.233  1.00  0.00     0.010 A 
ATOM     65  C   UNL A   1      44.085  33.820  31.066  1.00  0.00     0.010 A 
ATOM     66  C   UNL A   1      43.421  34.325  33.738  1.00  0.00     0.020 A 
ATOM     67  C   UNL A   1      44.195  35.118  31.576  1.00  0.00     0.020 A 
ATOM     68  C   UNL A   1      43.844  35.365  32.904  1.00  0.00     0.054 A 
BRANCH  68  69
ATOM     69  S   UNL A   1      43.954  37.040  33.591  1.00  0.00     0.124 S 
ATOM     70  O   UNL A   1      44.121  37.848  32.385  1.00  0.00    -0.237 OA
ATOM     71  O   UNL A   1      42.672  37.191  34.274  1.00  0.00    -0.237 OA
ATOM     72  O   UNL A   1      45.121  36.980  34.468  1.00  0.00    -0.744 OA
ENDBRANCH  68  69
ENDBRANCH  49  63
BRANCH  50  73
ATOM     73  C   UNL A   1      42.543  23.657  27.902  1.00  0.00    -0.014 A 
ATOM     74  C   UNL A   1      42.990  23.401  26.594  1.00  0.00     0.010 A 
ATOM     75  C   UNL A   1      41.951  22.614  28.638  1.00  0.00     0.010 A 
ATOM     76  C   UNL A   1      42.825  22.136  26.022  1.00  0.00     0.020 A 
ATOM     77  C   UNL A   1      41.811  21.340  28.080  1.00  0.00     0.020 A 
ATOM     78  C   UNL A   1      42.237  21.113  26.769  1.00  0.00     0.054 A 
BRANCH  78  79
ATOM     79  S   UNL A   1      42.070  19.468  26.022  1.00  0.00     0.124 S 
ATOM     80  O   UNL A   1      42.610  18.604  27.066  1.00  0.00    -0.237 OA
ATOM     81  O   UNL A   1      40.631  19.368  25.797  1.00  0.00    -0.237 OA
ATOM     82  O   UNL A   1      42.877  19.563  24.807  1.00  0.00    -0.744 OA
ENDBRANCH  78  79
ENDBRANCH  50  73
BRANCH  62  83
ATOM     83  C   UNL A   1      47.752  26.857  31.254  1.00  0.00    -0.014 A 
ATOM     84  C   UNL A   1      48.883  27.078  30.449  1.00  0.00     0.010 A 
ATOM     85  C   UNL A   1      47.912  26.241  32.509  1.00  0.00     0.010 A 
ATOM     86  C   UNL A   1      50.146  26.657  30.878  1.00  0.00     0.020 A 
ATOM     87  C   UNL A   1      49.175  25.844  32.952  1.00  0.00     0.020 A 
ATOM     88  C   UNL A   1      50.283  26.041  32.126  1.00  0.00     0.054 A 
BRANCH  88  89
ATOM     89  S   UNL A   1      51.937  25.540  32.677  1.00  0.00     0.124 S 
ATOM     90  O   UNL A   1      52.667  25.465  31.415  1.00  0.00    -0.237 OA
ATOM     91  O   UNL A   1      52.325  26.634  33.564  1.00  0.00    -0.237 OA
ATOM     92  O   UNL A   1      51.706  24.260  33.342  1.00  0.00    -0.744 OA
ENDBRANCH  88  89
ENDBRANCH  62  83
ENDBRANCH  36  37
ENDBRANCH  28  31
ENDBRANCH  26  27
ENDBRANCH  25  26
ENDBRANCH   1  25
TORSDOF 18
ENDMDL
MODEL 2
REMARK VINA RESULT:     -10.6      2.978      9.481
REMARK SMILES CCN(C(=O)N1[C@@H](C(=O)NCCCCNC(=O)c2ccc(-c3c4nc(c(-c5ccc(S(=O)(=O)[O-])cc5)c5ccc([nH]5)c(-c5ccc(S(=O)(=O)[O-])cc5)c5nc(c(-c6ccc(S(=O)(=O)[O-])cc6)c6ccc3[nH]6)C=C5)C=C4)cc2)CC[C@H]2CCCC[C@@H]21)C(C)C
REMARK SMILES IDX 12 1 11 2 10 3 8 4 9 5 7 7 6 8 85 9 78 10 80 11 84 12 79 13
REMARK SMILES IDX 81 14 83 15 82 16 4 17 5 18 3 19 2 20 1 21 86 22 87 23 88 24
REMARK SMILES IDX 13 25 14 26 15 27 16 28 17 30 18 31 19 32 77 33 20 34 76 35
REMARK SMILES IDX 21 36 22 37 23 38 70 39 24 40 75 41 69 42 71 43 25 44 74 45
REMARK SMILES IDX 68 46 67 47 26 49 56 50 37 51 55 52 38 53 41 54 54 55 72 56
REMARK SMILES IDX 39 57 40 58 53 60 73 61 42 62 27 63 28 64 36 65 29 66 35 67
REMARK SMILES IDX 30 68 31 69 32 70 33 71 34 72 57 73 58 74 66 75 59 76 65 77
REMARK SMILES IDX 60 78 61 79 62 80 63 81 64 82 43 83 44 84 52 85 45 86 51 87
REMARK SMILES IDX 46 88 47 89 48 90 49 91 50 92
REMARK H PARENT 10 6 15 29 71 48 41 59
REMARK Flexibility Score: inf
ROOT
ATOM      1  C   UNL A   1      33.788  24.373  25.980  1.00  0.00     0.023 C 
ENDROOT
BRANCH   1   2
ATOM      2  C   UNL A   1      32.888  24.833  24.837  1.00  0.00     0.116 C 
BRANCH   2   3
ATOM      3  N   UNL A   1      33.654  25.453  23.779  1.00  0.00    -0.354 N 
ATOM      4  C   UNL A   1      33.254  26.351  22.834  1.00  0.00     0.242 C 
ATOM      5  O   UNL A   1      34.010  26.539  21.874  1.00  0.00    -0.273 OA
ATOM      6  H   UNL A   1      34.602  25.190  23.734  1.00  0.00     0.163 HD
BRANCH   4   7
ATOM      7  C   UNL A   1      31.826  26.958  22.839  1.00  0.00     0.176 C 
ATOM      8  N   UNL A   1      31.525  27.997  23.847  1.00  0.00    -0.309 N 
ATOM      9  C   UNL A   1      30.158  28.551  23.789  1.00  0.00     0.091 C 
ATOM     10  C   UNL A   1      30.831  25.767  22.975  1.00  0.00     0.036 C 
ATOM     11  C   UNL A   1      29.141  27.537  23.225  1.00  0.00     0.012 C 
ATOM     12  C   UNL A   1      29.993  29.849  22.982  1.00  0.00     0.025 C 
ATOM     13  C   UNL A   1      29.514  26.136  23.671  1.00  0.00     0.008 C 
ATOM     14  C   UNL A   1      27.735  27.997  23.596  1.00  0.00     0.006 C 
ATOM     15  C   UNL A   1      28.563  30.390  23.164  1.00  0.00     0.002 C 
ATOM     16  C   UNL A   1      27.461  29.347  22.922  1.00  0.00     0.000 C 
BRANCH   8  17
ATOM     17  C   UNL A   1      32.576  28.809  24.259  1.00  0.00     0.321 C 
ATOM     18  O   UNL A   1      33.331  29.305  23.426  1.00  0.00    -0.248 OA
BRANCH  17  19
ATOM     19  N   UNL A   1      32.785  28.931  25.647  1.00  0.00    -0.322 N 
BRANCH  19  20
ATOM     20  C   UNL A   1      32.619  27.817  26.598  1.00  0.00     0.118 C 
ATOM     21  C   UNL A   1      31.507  27.899  27.631  1.00  0.00     0.027 C 
ENDBRANCH  19  20
BRANCH  19  22
ATOM     22  C   UNL A   1      33.079  30.303  26.142  1.00  0.00     0.080 C 
ATOM     23  C   UNL A   1      31.809  31.070  26.502  1.00  0.00     0.031 C 
ATOM     24  C   UNL A   1      34.120  30.364  27.265  1.00  0.00     0.031 C 
ENDBRANCH  19  22
ENDBRANCH  17  19
ENDBRANCH   8  17
ENDBRANCH   4   7
ENDBRANCH   2   3
ENDBRANCH   1   2
BRANCH   1  25
ATOM     25  C   UNL A   1      34.947  23.476  25.553  1.00  0.00     0.023 C 
BRANCH  25  26
ATOM     26  C   UNL A   1      36.316  23.901  26.072  1.00  0.00     0.116 C 
BRANCH  26  27
ATOM     27  N   UNL A   1      37.328  22.870  25.905  1.00  0.00    -0.352 N 
ATOM     28  C   UNL A   1      38.672  22.936  26.181  1.00  0.00     0.251 C 
ATOM     29  H   UNL A   1      37.008  22.010  25.546  1.00  0.00     0.163 HD
ATOM     30  O   UNL A   1      39.414  22.014  25.851  1.00  0.00    -0.269 OA
BRANCH  28  31
ATOM     31  C   UNL A   1      39.217  24.135  26.852  1.00  0.00     0.039 A 
ATOM     32  C   UNL A   1      39.990  25.034  26.112  1.00  0.00     0.014 A 
ATOM     33  C   UNL A   1      38.946  24.382  28.200  1.00  0.00     0.014 A 
ATOM     34  C   UNL A   1      40.449  26.207  26.714  1.00  0.00     0.010 A 
ATOM     35  C   UNL A   1      39.338  25.586  28.776  1.00  0.00     0.010 A 
ATOM     36  C   UNL A   1      40.103  26.505  28.042  1.00  0.00    -0.014 A 
BRANCH  36  37
ATOM     37  C   UNL A   1      40.560  27.758  28.697  1.00  0.00     0.031 A 
ATOM     38  C   UNL A   1      41.957  27.846  29.249  1.00  0.00     0.074 A 
ATOM     39  C   UNL A   1      39.708  28.792  28.841  1.00  0.00     0.049 A 
ATOM     40  N   UNL A   1      42.526  28.826  29.904  1.00  0.00    -0.248 NA
ATOM     41  C   UNL A   1      42.822  26.669  29.064  1.00  0.00     0.031 C 
ATOM     42  C   UNL A   1      38.316  28.816  28.383  1.00  0.00     0.029 A 
ATOM     43  N   UNL A   1      39.886  30.023  29.421  1.00  0.00    -0.354 N 
ATOM     44  C   UNL A   1      43.802  28.377  30.223  1.00  0.00     0.074 A 
ATOM     45  C   UNL A   1      43.906  27.018  29.739  1.00  0.00     0.031 C 
ATOM     46  C   UNL A   1      37.779  30.013  28.671  1.00  0.00     0.029 A 
ATOM     47  C   UNL A   1      38.772  30.826  29.367  1.00  0.00     0.049 A 
ATOM     48  H   UNL A   1      40.733  30.304  29.835  1.00  0.00     0.167 HD
ATOM     49  C   UNL A   1      44.808  29.043  30.840  1.00  0.00     0.031 A 
ATOM     50  C   UNL A   1      38.572  32.077  29.826  1.00  0.00     0.031 A 
ATOM     51  C   UNL A   1      44.708  30.400  31.305  1.00  0.00     0.049 A 
ATOM     52  C   UNL A   1      39.704  32.796  30.510  1.00  0.00     0.074 A 
ATOM     53  C   UNL A   1      45.682  31.178  31.905  1.00  0.00     0.029 A 
ATOM     54  N   UNL A   1      43.567  31.183  31.216  1.00  0.00    -0.354 N 
ATOM     55  N   UNL A   1      40.921  32.372  30.758  1.00  0.00    -0.248 NA
ATOM     56  C   UNL A   1      39.439  34.169  30.963  1.00  0.00     0.031 C 
ATOM     57  C   UNL A   1      45.118  32.420  32.216  1.00  0.00     0.029 A 
ATOM     58  C   UNL A   1      43.810  32.432  31.759  1.00  0.00     0.049 A 
ATOM     59  H   UNL A   1      42.712  30.893  30.824  1.00  0.00     0.167 HD
ATOM     60  C   UNL A   1      41.577  33.438  31.362  1.00  0.00     0.074 A 
ATOM     61  C   UNL A   1      40.627  34.529  31.434  1.00  0.00     0.031 C 
ATOM     62  C   UNL A   1      42.854  33.510  31.813  1.00  0.00     0.031 A 
BRANCH  49  63
ATOM     63  C   UNL A   1      46.107  28.305  31.039  1.00  0.00    -0.014 A 
ATOM     64  C   UNL A   1      46.338  27.549  32.202  1.00  0.00     0.010 A 
ATOM     65  C   UNL A   1      47.098  28.347  30.042  1.00  0.00     0.010 A 
ATOM     66  C   UNL A   1      47.553  26.886  32.386  1.00  0.00     0.020 A 
ATOM     67  C   UNL A   1      48.304  27.660  30.209  1.00  0.00     0.020 A 
ATOM     68  C   UNL A   1      48.531  26.949  31.389  1.00  0.00     0.054 A 
BRANCH  68  69
ATOM     69  S   UNL A   1      50.094  26.065  31.647  1.00  0.00     0.124 S 
ATOM     70  O   UNL A   1      49.887  25.469  32.965  1.00  0.00    -0.237 OA
ATOM     71  O   UNL A   1      50.119  25.124  30.530  1.00  0.00    -0.237 OA
ATOM     72  O   UNL A   1      51.102  27.120  31.592  1.00  0.00    -0.744 OA
ENDBRANCH  68  69
ENDBRANCH  49  63
BRANCH  50  73
ATOM     73  C   UNL A   1      37.256  32.745  29.627  1.00  0.00    -0.014 A 
ATOM     74  C   UNL A   1      36.970  33.407  28.420  1.00  0.00     0.010 A 
ATOM     75  C   UNL A   1      36.282  32.724  30.642  1.00  0.00     0.010 A 
ATOM     76  C   UNL A   1      35.746  34.058  28.241  1.00  0.00     0.020 A 
ATOM     77  C   UNL A   1      35.046  33.349  30.456  1.00  0.00     0.020 A 
ATOM     78  C   UNL A   1      34.791  34.024  29.260  1.00  0.00     0.054 A 
BRANCH  78  79
ATOM     79  S   UNL A   1      33.194  34.841  28.989  1.00  0.00     0.124 S 
ATOM     80  O   UNL A   1      32.631  34.859  30.335  1.00  0.00    -0.237 OA
ATOM     81  O   UNL A   1      33.590  36.139  28.450  1.00  0.00    -0.237 OA
ATOM     82  O   UNL A   1      32.518  33.961  28.038  1.00  0.00    -0.744 OA
ENDBRANCH  78  79
ENDBRANCH  50  73
BRANCH  62  83
ATOM     83  C   UNL A   1      43.316  34.827  32.377  1.00  0.00    -0.014 A 
ATOM     84  C   UNL A   1      44.058  35.736  31.604  1.00  0.00     0.010 A 
ATOM     85  C   UNL A   1      42.954  35.178  33.691  1.00  0.00     0.010 A 
ATOM     86  C   UNL A   1      44.460  36.960  32.148  1.00  0.00     0.020 A 
ATOM     87  C   UNL A   1      43.330  36.411  34.228  1.00  0.00     0.020 A 
ATOM     88  C   UNL A   1      44.094  37.288  33.458  1.00  0.00     0.054 A 
BRANCH  88  89
ATOM     89  S   UNL A   1      44.593  38.898  34.128  1.00  0.00     0.124 S 
ATOM     90  O   UNL A   1      45.601  39.329  33.163  1.00  0.00    -0.237 OA
ATOM     91  O   UNL A   1      43.343  39.654  34.111  1.00  0.00    -0.237 OA
ATOM     92  O   UNL A   1      45.101  38.576  35.459  1.00  0.00    -0.744 OA
ENDBRANCH  88  89
ENDBRANCH  62  83
ENDBRANCH  36  37
ENDBRANCH  28  31
ENDBRANCH  26  27
ENDBRANCH  25  26
ENDBRANCH   1  25
TORSDOF 18
ENDMDL
MODEL 3
REMARK VINA RESULT:     -10.2      2.078      2.679
REMARK SMILES CCN(C(=O)N1[C@@H](C(=O)NCCCCNC(=O)c2ccc(-c3c4nc(c(-c5ccc(S(=O)(=O)[O-])cc5)c5ccc([nH]5)c(-c5ccc(S(=O)(=O)[O-])cc5)c5nc(c(-c6ccc(S(=O)(=O)[O-])cc6)c6ccc3[nH]6)C=C5)C=C4)cc2)CC[C@H]2CCCC[C@@H]21)C(C)C
REMARK SMILES IDX 12 1 11 2 10 3 8 4 9 5 7 7 6 8 85 9 78 10 80 11 84 12 79 13
REMARK SMILES IDX 81 14 83 15 82 16 4 17 5 18 3 19 2 20 1 21 86 22 87 23 88 24
REMARK SMILES IDX 13 25 14 26 15 27 16 28 17 30 18 31 19 32 77 33 20 34 76 35
REMARK SMILES IDX 21 36 22 37 23 38 70 39 24 40 75 41 69 42 71 43 25 44 74 45
REMARK SMILES IDX 68 46 67 47 26 49 56 50 37 51 55 52 38 53 41 54 54 55 72 56
REMARK SMILES IDX 39 57 40 58 53 60 73 61 42 62 27 63 28 64 36 65 29 66 35 67
REMARK SMILES IDX 30 68 31 69 32 70 33 71 34 72 57 73 58 74 66 75 59 76 65 77
REMARK SMILES IDX 60 78 61 79 62 80 63 81 64 82 43 83 44 84 52 85 45 86 51 87
REMARK SMILES IDX 46 88 47 89 48 90 49 91 50 92
REMARK H PARENT 10 6 15 29 71 48 41 59
REMARK Flexibility Score: inf
ROOT
ATOM      1  C   UNL A   1      33.596  26.705  24.645  1.00  0.00     0.023 C 
ENDROOT
BRANCH   1   2
ATOM      2  C   UNL A   1      33.095  25.265  24.678  1.00  0.00     0.116 C 
BRANCH   2   3
ATOM      3  N   UNL A   1      32.781  24.846  26.025  1.00  0.00    -0.354 N 
ATOM      4  C   UNL A   1      32.376  23.625  26.478  1.00  0.00     0.242 C 
ATOM      5  O   UNL A   1      31.912  23.570  27.623  1.00  0.00    -0.273 OA
ATOM      6  H   UNL A   1      32.872  25.542  26.715  1.00  0.00     0.163 HD
BRANCH   4   7
ATOM      7  C   UNL A   1      32.296  22.392  25.540  1.00  0.00     0.176 C 
ATOM      8  N   UNL A   1      33.567  21.749  25.143  1.00  0.00    -0.309 N 
ATOM      9  C   UNL A   1      33.428  20.569  24.267  1.00  0.00     0.091 C 
ATOM     10  C   UNL A   1      31.497  22.836  24.279  1.00  0.00     0.036 C 
ATOM     11  C   UNL A   1      32.154  20.634  23.399  1.00  0.00     0.012 C 
ATOM     12  C   UNL A   1      33.418  19.204  24.975  1.00  0.00     0.025 C 
ATOM     13  C   UNL A   1      31.878  22.072  23.003  1.00  0.00     0.008 C 
ATOM     14  C   UNL A   1      32.297  19.648  22.245  1.00  0.00     0.006 C 
ATOM     15  C   UNL A   1      33.446  18.079  23.925  1.00  0.00     0.002 C 
ATOM     16  C   UNL A   1      32.391  18.227  22.817  1.00  0.00     0.000 C 
BRANCH   8  17
ATOM     17  C   UNL A   1      34.623  21.809  26.047  1.00  0.00     0.321 C 
ATOM     18  O   UNL A   1      34.422  21.589  27.240  1.00  0.00    -0.248 OA
BRANCH  17  19
ATOM     19  N   UNL A   1      35.869  22.235  25.549  1.00  0.00    -0.322 N 
BRANCH  19  20
ATOM     20  C   UNL A   1      36.044  23.425  24.696  1.00  0.00     0.118 C 
ATOM     21  C   UNL A   1      36.019  23.250  23.186  1.00  0.00     0.027 C 
ENDBRANCH  19  20
BRANCH  19  22
ATOM     22  C   UNL A   1      37.024  21.342  25.835  1.00  0.00     0.080 C 
ATOM     23  C   UNL A   1      37.036  20.109  24.934  1.00  0.00     0.031 C 
ATOM     24  C   UNL A   1      38.384  22.048  25.855  1.00  0.00     0.031 C 
ENDBRANCH  19  22
ENDBRANCH  17  19
ENDBRANCH   8  17
ENDBRANCH   4   7
ENDBRANCH   2   3
ENDBRANCH   1   2
BRANCH   1  25
ATOM     25  C   UNL A   1      33.245  27.526  25.884  1.00  0.00     0.023 C 
BRANCH  25  26
ATOM     26  C   UNL A   1      34.359  28.435  26.390  1.00  0.00     0.116 C 
BRANCH  26  27
ATOM     27  N   UNL A   1      33.902  29.789  26.661  1.00  0.00    -0.352 N 
ATOM     28  C   UNL A   1      34.431  30.714  27.529  1.00  0.00     0.251 C 
ATOM     29  H   UNL A   1      33.109  30.083  26.156  1.00  0.00     0.163 HD
ATOM     30  O   UNL A   1      33.838  31.769  27.739  1.00  0.00    -0.269 OA
BRANCH  28  31
ATOM     31  C   UNL A   1      35.701  30.415  28.223  1.00  0.00     0.039 A 
ATOM     32  C   UNL A   1      35.666  29.693  29.418  1.00  0.00     0.014 A 
ATOM     33  C   UNL A   1      36.922  30.827  27.684  1.00  0.00     0.014 A 
ATOM     34  C   UNL A   1      36.862  29.340  30.046  1.00  0.00     0.010 A 
ATOM     35  C   UNL A   1      38.113  30.409  28.268  1.00  0.00     0.010 A 
ATOM     36  C   UNL A   1      38.095  29.671  29.462  1.00  0.00    -0.014 A 
BRANCH  36  37
ATOM     37  C   UNL A   1      39.381  29.287  30.099  1.00  0.00     0.031 A 
ATOM     38  C   UNL A   1      39.881  30.051  31.294  1.00  0.00     0.074 A 
ATOM     39  C   UNL A   1      40.121  28.290  29.573  1.00  0.00     0.049 A 
ATOM     40  N   UNL A   1      41.001  29.909  31.956  1.00  0.00    -0.248 NA
ATOM     41  C   UNL A   1      39.021  31.136  31.799  1.00  0.00     0.031 C 
ATOM     42  C   UNL A   1      39.764  27.498  28.394  1.00  0.00     0.029 A 
ATOM     43  N   UNL A   1      41.332  27.776  29.963  1.00  0.00    -0.354 N 
ATOM     44  C   UNL A   1      40.987  30.894  32.938  1.00  0.00     0.074 A 
ATOM     45  C   UNL A   1      39.776  31.661  32.751  1.00  0.00     0.031 C 
ATOM     46  C   UNL A   1      40.719  26.579  28.176  1.00  0.00     0.029 A 
ATOM     47  C   UNL A   1      41.773  26.740  29.173  1.00  0.00     0.049 A 
ATOM     48  H   UNL A   1      41.837  28.116  30.735  1.00  0.00     0.167 HD
ATOM     49  C   UNL A   1      41.888  31.124  33.923  1.00  0.00     0.031 A 
ATOM     50  C   UNL A   1      42.898  26.003  29.245  1.00  0.00     0.031 A 
ATOM     51  C   UNL A   1      43.084  30.349  34.116  1.00  0.00     0.049 A 
ATOM     52  C   UNL A   1      43.885  26.279  30.347  1.00  0.00     0.074 A 
ATOM     53  C   UNL A   1      44.041  30.475  35.109  1.00  0.00     0.029 A 
ATOM     54  N   UNL A   1      43.485  29.298  33.304  1.00  0.00    -0.354 N 
ATOM     55  N   UNL A   1      43.830  27.183  31.297  1.00  0.00    -0.248 NA
ATOM     56  C   UNL A   1      45.080  25.424  30.395  1.00  0.00     0.031 C 
ATOM     57  C   UNL A   1      45.041  29.526  34.873  1.00  0.00     0.029 A 
ATOM     58  C   UNL A   1      44.678  28.774  33.767  1.00  0.00     0.049 A 
ATOM     59  H   UNL A   1      42.992  28.974  32.517  1.00  0.00     0.167 HD
ATOM     60  C   UNL A   1      44.963  26.981  32.077  1.00  0.00     0.074 A 
ATOM     61  C   UNL A   1      45.681  25.865  31.494  1.00  0.00     0.031 C 
ATOM     62  C   UNL A   1      45.373  27.655  33.180  1.00  0.00     0.031 A 
BRANCH  49  63
ATOM     63  C   UNL A   1      41.604  32.261  34.869  1.00  0.00    -0.014 A 
ATOM     64  C   UNL A   1      40.900  32.045  36.068  1.00  0.00     0.010 A 
ATOM     65  C   UNL A   1      42.067  33.555  34.571  1.00  0.00     0.010 A 
ATOM     66  C   UNL A   1      40.625  33.110  36.929  1.00  0.00     0.020 A 
ATOM     67  C   UNL A   1      41.819  34.618  35.445  1.00  0.00     0.020 A 
ATOM     68  C   UNL A   1      41.083  34.391  36.610  1.00  0.00     0.054 A 
BRANCH  68  69
ATOM     69  S   UNL A   1      40.724  35.753  37.753  1.00  0.00     0.124 S 
ATOM     70  O   UNL A   1      40.194  35.038  38.913  1.00  0.00    -0.237 OA
ATOM     71  O   UNL A   1      42.035  36.368  37.942  1.00  0.00    -0.237 OA
ATOM     72  O   UNL A   1      39.754  36.569  37.028  1.00  0.00    -0.744 OA
ENDBRANCH  68  69
ENDBRANCH  49  63
BRANCH  50  73
ATOM     73  C   UNL A   1      43.140  24.911  28.263  1.00  0.00    -0.014 A 
ATOM     74  C   UNL A   1      43.932  25.140  27.124  1.00  0.00     0.010 A 
ATOM     75  C   UNL A   1      42.581  23.635  28.460  1.00  0.00     0.010 A 
ATOM     76  C   UNL A   1      44.140  24.124  26.187  1.00  0.00     0.020 A 
ATOM     77  C   UNL A   1      42.809  22.607  27.540  1.00  0.00     0.020 A 
ATOM     78  C   UNL A   1      43.577  22.863  26.401  1.00  0.00     0.054 A 
BRANCH  78  79
ATOM     79  S   UNL A   1      43.893  21.548  25.193  1.00  0.00     0.124 S 
ATOM     80  O   UNL A   1      42.827  20.598  25.493  1.00  0.00    -0.237 OA
ATOM     81  O   UNL A   1      43.774  22.253  23.919  1.00  0.00    -0.237 OA
ATOM     82  O   UNL A   1      45.244  21.099  25.522  1.00  0.00    -0.744 OA
ENDBRANCH  78  79
ENDBRANCH  50  73
BRANCH  62  83
ATOM     83  C   UNL A   1      46.626  27.174  33.861  1.00  0.00    -0.014 A 
ATOM     84  C   UNL A   1      47.890  27.679  33.511  1.00  0.00     0.010 A 
ATOM     85  C   UNL A   1      46.525  26.238  34.907  1.00  0.00     0.010 A 
ATOM     86  C   UNL A   1      49.037  27.227  34.172  1.00  0.00     0.020 A 
ATOM     87  C   UNL A   1      47.665  25.806  35.588  1.00  0.00     0.020 A 
ATOM     88  C   UNL A   1      48.916  26.292  35.205  1.00  0.00     0.054 A 
BRANCH  88  89
ATOM     89  S   UNL A   1      50.413  25.751  36.074  1.00  0.00     0.124 S 
ATOM     90  O   UNL A   1      49.946  24.556  36.770  1.00  0.00    -0.237 OA
ATOM     91  O   UNL A   1      51.352  25.514  34.980  1.00  0.00    -0.237 OA
ATOM     92  O   UNL A   1      50.742  26.885  36.934  1.00  0.00    -0.744 OA
ENDBRANCH  88  89
ENDBRANCH  62  83
ENDBRANCH  36  37
ENDBRANCH  28  31
ENDBRANCH  26  27
ENDBRANCH  25  26
ENDBRANCH   1  25
TORSDOF 18
ENDMDL
