MODEL 1
REMARK VINA RESULT:     -11.6      0.000      0.000
REMARK SMILES CC(C)[NH2+][C@@]1(C(=O)NCCCCNC(=O)c2ccc(-c3c4nc(c(-c5ccc(S(=O)(=O)[O-])cc5)c5ccc([nH]5)c(-c5ccc(S(=O)(=O)[O-])cc5)c5nc(c(-c6ccc(S(=O)(=O)[O-])cc6)c6ccc3[nH]6)C=C5)C=C4)cc2)CCC[C@H](SC2CCCCC2)C1
REMARK SMILES IDX 11 1 10 2 9 3 8 4 6 5 7 6 5 8 76 9 87 10 77 11 79 12 78 13
REMARK SMILES IDX 4 14 2 17 1 18 3 19 80 20 81 21 82 22 86 23 83 24 85 25
REMARK SMILES IDX 84 26 12 27 13 28 14 29 15 31 16 32 17 33 75 34 18 35 74 36
REMARK SMILES IDX 19 37 20 38 21 39 68 40 22 41 73 42 67 43 69 44 23 45 72 46
REMARK SMILES IDX 66 47 65 48 24 50 54 51 35 52 53 53 36 54 39 55 52 56 70 57
REMARK SMILES IDX 37 58 38 59 51 61 71 62 40 63 25 64 26 65 34 66 27 67 33 68
REMARK SMILES IDX 28 69 29 70 30 71 31 72 32 73 55 74 56 75 64 76 57 77 63 78
REMARK SMILES IDX 58 79 59 80 60 81 61 82 62 83 41 84 42 85 50 86 43 87 49 88
REMARK SMILES IDX 44 89 45 90 46 91 47 92 48 93
REMARK H PARENT 8 7 4 15 4 16 13 30 69 49 39 60
REMARK Flexibility Score: inf
ROOT
ATOM      1  C   UNL A   1      37.168  23.581  25.314  1.00  0.00     0.023 C 
ENDROOT
BRANCH   1   2
ATOM      2  C   UNL A   1      37.287  22.099  25.017  1.00  0.00     0.023 C 
BRANCH   2   3
ATOM      3  C   UNL A   1      36.088  21.253  25.397  1.00  0.00     0.116 C 
BRANCH   3   4
ATOM      4  N   UNL A   1      35.275  21.827  26.434  1.00  0.00    -0.351 N 
ATOM      5  C   UNL A   1      33.928  21.901  26.550  1.00  0.00     0.281 C 
ATOM      6  O   UNL A   1      33.515  21.875  27.722  1.00  0.00    -0.268 OA
ATOM      7  H   UNL A   1      35.776  22.229  27.179  1.00  0.00     0.163 HD
BRANCH   5   8
ATOM      8  C   UNL A   1      32.886  22.000  25.345  1.00  0.00     0.176 C 
ATOM      9  C   UNL A   1      33.629  22.022  23.984  1.00  0.00     0.079 C 
ATOM     10  C   UNL A   1      31.822  23.125  25.478  1.00  0.00     0.093 C 
ATOM     11  C   UNL A   1      33.973  23.361  23.351  1.00  0.00     0.008 C 
ATOM     12  C   UNL A   1      31.725  24.152  24.329  1.00  0.00     0.053 C 
ATOM     13  C   UNL A   1      33.006  24.509  23.605  1.00  0.00     0.015 C 
BRANCH   8  14
ATOM     14  N   UNL A   1      32.274  20.611  25.297  1.00  0.00    -0.332 N 
ATOM     15  H   UNL A   1      32.057  20.358  26.261  1.00  0.00     0.347 HD
ATOM     16  H   UNL A   1      31.501  20.731  24.642  1.00  0.00     0.347 HD
BRANCH  14  17
ATOM     17  C   UNL A   1      33.005  19.474  24.722  1.00  0.00     0.176 C 
ATOM     18  C   UNL A   1      33.062  18.389  25.810  1.00  0.00     0.075 C 
ATOM     19  C   UNL A   1      32.429  18.854  23.449  1.00  0.00     0.075 C 
ENDBRANCH  14  17
ENDBRANCH   8  14
BRANCH  12  20
ATOM     20  S   UNL A   1      30.535  25.554  24.711  1.00  0.00    -0.155 SA
BRANCH  20  21
ATOM     21  C   UNL A   1      31.391  27.035  25.502  1.00  0.00     0.047 C 
ATOM     22  C   UNL A   1      32.682  26.728  26.278  1.00  0.00     0.014 C 
ATOM     23  C   UNL A   1      31.696  27.983  24.308  1.00  0.00     0.014 C 
ATOM     24  C   UNL A   1      33.544  27.958  26.572  1.00  0.00     0.001 C 
ATOM     25  C   UNL A   1      32.606  29.171  24.633  1.00  0.00     0.001 C 
ATOM     26  C   UNL A   1      33.889  28.720  25.310  1.00  0.00     0.000 C 
ENDBRANCH  20  21
ENDBRANCH  12  20
ENDBRANCH   5   8
ENDBRANCH   3   4
ENDBRANCH   2   3
ENDBRANCH   1   2
BRANCH   1  27
ATOM     27  C   UNL A   1      38.111  24.091  26.390  1.00  0.00     0.116 C 
BRANCH  27  28
ATOM     28  N   UNL A   1      39.527  23.876  26.104  1.00  0.00    -0.352 N 
ATOM     29  C   UNL A   1      40.607  24.610  26.546  1.00  0.00     0.251 C 
ATOM     30  H   UNL A   1      39.737  23.110  25.522  1.00  0.00     0.163 HD
ATOM     31  O   UNL A   1      41.751  24.330  26.201  1.00  0.00    -0.269 OA
BRANCH  29  32
ATOM     32  C   UNL A   1      40.350  25.768  27.418  1.00  0.00     0.039 A 
ATOM     33  C   UNL A   1      39.509  25.631  28.525  1.00  0.00     0.014 A 
ATOM     34  C   UNL A   1      41.062  26.947  27.199  1.00  0.00     0.014 A 
ATOM     35  C   UNL A   1      39.453  26.657  29.472  1.00  0.00     0.010 A 
ATOM     36  C   UNL A   1      41.092  27.908  28.194  1.00  0.00     0.010 A 
ATOM     37  C   UNL A   1      40.283  27.779  29.338  1.00  0.00    -0.014 A 
BRANCH  37  38
ATOM     38  C   UNL A   1      40.327  28.882  30.331  1.00  0.00     0.031 A 
ATOM     39  C   UNL A   1      41.280  28.758  31.490  1.00  0.00     0.074 A 
ATOM     40  C   UNL A   1      39.432  29.888  30.285  1.00  0.00     0.049 A 
ATOM     41  N   UNL A   1      41.293  29.402  32.625  1.00  0.00    -0.248 NA
ATOM     42  C   UNL A   1      42.313  27.712  31.377  1.00  0.00     0.031 C 
ATOM     43  C   UNL A   1      38.435  30.103  29.233  1.00  0.00     0.029 A 
ATOM     44  N   UNL A   1      39.196  30.908  31.174  1.00  0.00    -0.354 N 
ATOM     45  C   UNL A   1      42.282  28.792  33.388  1.00  0.00     0.074 A 
ATOM     46  C   UNL A   1      42.817  27.703  32.601  1.00  0.00     0.031 C 
ATOM     47  C   UNL A   1      37.707  31.193  29.530  1.00  0.00     0.029 A 
ATOM     48  C   UNL A   1      38.145  31.721  30.818  1.00  0.00     0.049 A 
ATOM     49  H   UNL A   1      39.731  31.045  31.990  1.00  0.00     0.167 HD
ATOM     50  C   UNL A   1      42.717  29.120  34.627  1.00  0.00     0.031 A 
ATOM     51  C   UNL A   1      37.583  32.757  31.470  1.00  0.00     0.031 A 
ATOM     52  C   UNL A   1      42.227  30.250  35.365  1.00  0.00     0.049 A 
ATOM     53  C   UNL A   1      38.124  33.146  32.820  1.00  0.00     0.074 A 
ATOM     54  C   UNL A   1      42.653  30.731  36.588  1.00  0.00     0.029 A 
ATOM     55  N   UNL A   1      41.214  31.093  34.930  1.00  0.00    -0.354 N 
ATOM     56  N   UNL A   1      39.078  32.576  33.518  1.00  0.00    -0.248 NA
ATOM     57  C   UNL A   1      37.516  34.315  33.469  1.00  0.00     0.031 C 
ATOM     58  C   UNL A   1      41.879  31.852  36.907  1.00  0.00     0.029 A 
ATOM     59  C   UNL A   1      41.000  32.091  35.862  1.00  0.00     0.049 A 
ATOM     60  H   UNL A   1      40.721  30.994  34.083  1.00  0.00     0.167 HD
ATOM     61  C   UNL A   1      39.200  33.332  34.679  1.00  0.00     0.074 A 
ATOM     62  C   UNL A   1      38.232  34.405  34.583  1.00  0.00     0.031 C 
ATOM     63  C   UNL A   1      40.035  33.153  35.731  1.00  0.00     0.031 A 
BRANCH  50  64
ATOM     64  C   UNL A   1      43.774  28.245  35.247  1.00  0.00    -0.014 A 
ATOM     65  C   UNL A   1      43.431  27.182  36.103  1.00  0.00     0.010 A 
ATOM     66  C   UNL A   1      45.131  28.485  34.966  1.00  0.00     0.010 A 
ATOM     67  C   UNL A   1      44.427  26.413  36.710  1.00  0.00     0.020 A 
ATOM     68  C   UNL A   1      46.129  27.696  35.545  1.00  0.00     0.020 A 
ATOM     69  C   UNL A   1      45.770  26.678  36.432  1.00  0.00     0.054 A 
BRANCH  69  70
ATOM     70  S   UNL A   1      47.042  25.657  37.226  1.00  0.00     0.124 S 
ATOM     71  O   UNL A   1      46.261  24.513  37.689  1.00  0.00    -0.237 OA
ATOM     72  O   UNL A   1      47.965  25.383  36.126  1.00  0.00    -0.237 OA
ATOM     73  O   UNL A   1      47.571  26.520  38.278  1.00  0.00    -0.744 OA
ENDBRANCH  69  70
ENDBRANCH  50  64
BRANCH  51  74
ATOM     74  C   UNL A   1      36.457  33.509  30.850  1.00  0.00    -0.014 A 
ATOM     75  C   UNL A   1      35.234  33.634  31.531  1.00  0.00     0.010 A 
ATOM     76  C   UNL A   1      36.604  34.121  29.593  1.00  0.00     0.010 A 
ATOM     77  C   UNL A   1      34.173  34.348  30.962  1.00  0.00     0.020 A 
ATOM     78  C   UNL A   1      35.555  34.855  29.030  1.00  0.00     0.020 A 
ATOM     79  C   UNL A   1      34.342  34.956  29.715  1.00  0.00     0.054 A 
BRANCH  79  80
ATOM     80  S   UNL A   1      32.974  35.931  29.027  1.00  0.00     0.124 S 
ATOM     81  O   UNL A   1      32.297  34.951  28.184  1.00  0.00    -0.237 OA
ATOM     82  O   UNL A   1      32.248  36.346  30.224  1.00  0.00    -0.237 OA
ATOM     83  O   UNL A   1      33.652  37.011  28.315  1.00  0.00    -0.744 OA
ENDBRANCH  79  80
ENDBRANCH  51  74
BRANCH  63  84
ATOM     84  C   UNL A   1      39.967  34.158  36.847  1.00  0.00    -0.014 A 
ATOM     85  C   UNL A   1      40.755  35.321  36.821  1.00  0.00     0.010 A 
ATOM     86  C   UNL A   1      39.038  33.973  37.888  1.00  0.00     0.010 A 
ATOM     87  C   UNL A   1      40.625  36.279  37.829  1.00  0.00     0.020 A 
ATOM     88  C   UNL A   1      38.890  34.940  38.884  1.00  0.00     0.020 A 
ATOM     89  C   UNL A   1      39.692  36.083  38.852  1.00  0.00     0.054 A 
BRANCH  89  90
ATOM     90  S   UNL A   1      39.492  37.376  40.109  1.00  0.00     0.124 S 
ATOM     91  O   UNL A   1      39.030  36.607  41.262  1.00  0.00    -0.237 OA
ATOM     92  O   UNL A   1      40.839  37.928  40.220  1.00  0.00    -0.237 OA
ATOM     93  O   UNL A   1      38.502  38.277  39.523  1.00  0.00    -0.744 OA
ENDBRANCH  89  90
ENDBRANCH  63  84
ENDBRANCH  37  38
ENDBRANCH  29  32
ENDBRANCH  27  28
ENDBRANCH   1  27
TORSDOF 18
ENDMDL
MODEL 2
REMARK VINA RESULT:     -11.2      6.312     11.073
REMARK SMILES CC(C)[NH2+][C@@]1(C(=O)NCCCCNC(=O)c2ccc(-c3c4nc(c(-c5ccc(S(=O)(=O)[O-])cc5)c5ccc([nH]5)c(-c5ccc(S(=O)(=O)[O-])cc5)c5nc(c(-c6ccc(S(=O)(=O)[O-])cc6)c6ccc3[nH]6)C=C5)C=C4)cc2)CCC[C@H](SC2CCCCC2)C1
REMARK SMILES IDX 11 1 10 2 9 3 8 4 6 5 7 6 5 8 76 9 87 10 77 11 79 12 78 13
REMARK SMILES IDX 4 14 2 17 1 18 3 19 80 20 81 21 82 22 86 23 83 24 85 25
REMARK SMILES IDX 84 26 12 27 13 28 14 29 15 31 16 32 17 33 75 34 18 35 74 36
REMARK SMILES IDX 19 37 20 38 21 39 68 40 22 41 73 42 67 43 69 44 23 45 72 46
REMARK SMILES IDX 66 47 65 48 24 50 54 51 35 52 53 53 36 54 39 55 52 56 70 57
REMARK SMILES IDX 37 58 38 59 51 61 71 62 40 63 25 64 26 65 34 66 27 67 33 68
REMARK SMILES IDX 28 69 29 70 30 71 31 72 32 73 55 74 56 75 64 76 57 77 63 78
REMARK SMILES IDX 58 79 59 80 60 81 61 82 62 83 41 84 42 85 50 86 43 87 49 88
REMARK SMILES IDX 44 89 45 90 46 91 47 92 48 93
REMARK H PARENT 8 7 4 15 4 16 13 30 69 49 39 60
REMARK Flexibility Score: inf
ROOT
ATOM      1  C   UNL A   1      37.763  21.919  25.346  1.00  0.00     0.023 C 
ENDROOT
BRANCH   1   2
ATOM      2  C   UNL A   1      37.235  23.335  25.220  1.00  0.00     0.023 C 
BRANCH   2   3
ATOM      3  C   UNL A   1      35.774  23.527  25.573  1.00  0.00     0.116 C 
BRANCH   3   4
ATOM      4  N   UNL A   1      35.202  24.739  25.054  1.00  0.00    -0.351 N 
ATOM      5  C   UNL A   1      33.943  25.226  25.153  1.00  0.00     0.281 C 
ATOM      6  O   UNL A   1      33.876  26.467  25.166  1.00  0.00    -0.268 OA
ATOM      7  H   UNL A   1      35.826  25.306  24.545  1.00  0.00     0.163 HD
BRANCH   5   8
ATOM      8  C   UNL A   1      32.607  24.359  25.266  1.00  0.00     0.176 C 
ATOM      9  C   UNL A   1      32.307  24.012  26.747  1.00  0.00     0.079 C 
ATOM     10  C   UNL A   1      32.536  23.125  24.324  1.00  0.00     0.093 C 
ATOM     11  C   UNL A   1      32.808  22.695  27.315  1.00  0.00     0.008 C 
ATOM     12  C   UNL A   1      32.298  21.745  24.975  1.00  0.00     0.053 C 
ATOM     13  C   UNL A   1      32.882  21.517  26.353  1.00  0.00     0.015 C 
BRANCH   8  14
ATOM     14  N   UNL A   1      31.509  25.372  24.997  1.00  0.00    -0.332 N 
ATOM     15  H   UNL A   1      30.817  25.251  25.736  1.00  0.00     0.347 HD
ATOM     16  H   UNL A   1      32.024  26.252  24.955  1.00  0.00     0.347 HD
BRANCH  14  17
ATOM     17  C   UNL A   1      30.767  25.377  23.729  1.00  0.00     0.176 C 
ATOM     18  C   UNL A   1      29.410  26.041  24.013  1.00  0.00     0.075 C 
ATOM     19  C   UNL A   1      31.421  26.094  22.548  1.00  0.00     0.075 C 
ENDBRANCH  14  17
ENDBRANCH   8  14
BRANCH  12  20
ATOM     20  S   UNL A   1      32.425  20.333  23.743  1.00  0.00    -0.155 SA
BRANCH  20  21
ATOM     21  C   UNL A   1      33.311  18.830  24.454  1.00  0.00     0.047 C 
ATOM     22  C   UNL A   1      32.584  18.099  25.594  1.00  0.00     0.014 C 
ATOM     23  C   UNL A   1      33.488  17.879  23.235  1.00  0.00     0.014 C 
ATOM     24  C   UNL A   1      33.122  16.696  25.883  1.00  0.00     0.001 C 
ATOM     25  C   UNL A   1      33.976  16.467  23.574  1.00  0.00     0.001 C 
ATOM     26  C   UNL A   1      33.114  15.823  24.646  1.00  0.00     0.000 C 
ENDBRANCH  20  21
ENDBRANCH  12  20
ENDBRANCH   5   8
ENDBRANCH   3   4
ENDBRANCH   2   3
ENDBRANCH   1   2
BRANCH   1  27
ATOM     27  C   UNL A   1      39.056  21.790  26.132  1.00  0.00     0.116 C 
BRANCH  27  28
ATOM     28  N   UNL A   1      39.706  20.488  26.017  1.00  0.00    -0.352 N 
ATOM     29  C   UNL A   1      41.046  20.189  26.147  1.00  0.00     0.251 C 
ATOM     30  H   UNL A   1      39.114  19.726  25.821  1.00  0.00     0.163 HD
ATOM     31  O   UNL A   1      41.461  19.045  25.995  1.00  0.00    -0.269 OA
BRANCH  29  32
ATOM     32  C   UNL A   1      41.978  21.291  26.440  1.00  0.00     0.039 A 
ATOM     33  C   UNL A   1      42.345  22.178  25.425  1.00  0.00     0.014 A 
ATOM     34  C   UNL A   1      42.371  21.508  27.760  1.00  0.00     0.014 A 
ATOM     35  C   UNL A   1      43.037  23.346  25.755  1.00  0.00     0.010 A 
ATOM     36  C   UNL A   1      42.953  22.718  28.097  1.00  0.00     0.010 A 
ATOM     37  C   UNL A   1      43.300  23.647  27.100  1.00  0.00    -0.014 A 
BRANCH  37  38
ATOM     38  C   UNL A   1      43.976  24.895  27.537  1.00  0.00     0.031 A 
ATOM     39  C   UNL A   1      43.125  26.015  28.074  1.00  0.00     0.074 A 
ATOM     40  C   UNL A   1      45.292  25.082  27.314  1.00  0.00     0.049 A 
ATOM     41  N   UNL A   1      43.415  27.278  28.223  1.00  0.00    -0.248 NA
ATOM     42  C   UNL A   1      41.733  25.669  28.419  1.00  0.00     0.031 C 
ATOM     43  C   UNL A   1      46.219  24.087  26.768  1.00  0.00     0.029 A 
ATOM     44  N   UNL A   1      46.073  26.197  27.491  1.00  0.00    -0.354 N 
ATOM     45  C   UNL A   1      42.227  27.890  28.608  1.00  0.00     0.074 A 
ATOM     46  C   UNL A   1      41.206  26.865  28.628  1.00  0.00     0.031 C 
ATOM     47  C   UNL A   1      47.444  24.633  26.671  1.00  0.00     0.029 A 
ATOM     48  C   UNL A   1      47.378  26.029  27.090  1.00  0.00     0.049 A 
ATOM     49  H   UNL A   1      45.730  27.039  27.871  1.00  0.00     0.167 HD
ATOM     50  C   UNL A   1      42.009  29.186  28.930  1.00  0.00     0.031 A 
ATOM     51  C   UNL A   1      48.397  26.908  27.043  1.00  0.00     0.031 A 
ATOM     52  C   UNL A   1      43.049  30.176  28.977  1.00  0.00     0.049 A 
ATOM     53  C   UNL A   1      48.149  28.331  27.468  1.00  0.00     0.074 A 
ATOM     54  C   UNL A   1      42.964  31.497  29.374  1.00  0.00     0.029 A 
ATOM     55  N   UNL A   1      44.373  29.940  28.638  1.00  0.00    -0.354 N 
ATOM     56  N   UNL A   1      47.026  28.889  27.854  1.00  0.00    -0.248 NA
ATOM     57  C   UNL A   1      49.302  29.241  27.451  1.00  0.00     0.031 C 
ATOM     58  C   UNL A   1      44.234  32.069  29.250  1.00  0.00     0.029 A 
ATOM     59  C   UNL A   1      45.116  31.092  28.814  1.00  0.00     0.049 A 
ATOM     60  H   UNL A   1      44.731  29.080  28.318  1.00  0.00     0.167 HD
ATOM     61  C   UNL A   1      47.343  30.211  28.149  1.00  0.00     0.074 A 
ATOM     62  C   UNL A   1      48.763  30.364  27.908  1.00  0.00     0.031 C 
ATOM     63  C   UNL A   1      46.533  31.209  28.577  1.00  0.00     0.031 A 
BRANCH  50  64
ATOM     64  C   UNL A   1      40.597  29.594  29.259  1.00  0.00    -0.014 A 
ATOM     65  C   UNL A   1      39.615  29.694  28.256  1.00  0.00     0.010 A 
ATOM     66  C   UNL A   1      40.244  29.874  30.591  1.00  0.00     0.010 A 
ATOM     67  C   UNL A   1      38.323  30.122  28.571  1.00  0.00     0.020 A 
ATOM     68  C   UNL A   1      38.944  30.271  30.915  1.00  0.00     0.020 A 
ATOM     69  C   UNL A   1      37.997  30.414  29.898  1.00  0.00     0.054 A 
BRANCH  69  70
ATOM     70  S   UNL A   1      36.310  30.959  30.281  1.00  0.00     0.124 S 
ATOM     71  O   UNL A   1      35.920  30.013  31.323  1.00  0.00    -0.237 OA
ATOM     72  O   UNL A   1      36.511  32.336  30.726  1.00  0.00    -0.237 OA
ATOM     73  O   UNL A   1      35.603  30.815  29.011  1.00  0.00    -0.744 OA
ENDBRANCH  69  70
ENDBRANCH  50  64
BRANCH  51  74
ATOM     74  C   UNL A   1      49.746  26.466  26.593  1.00  0.00    -0.014 A 
ATOM     75  C   UNL A   1      50.634  25.873  27.506  1.00  0.00     0.010 A 
ATOM     76  C   UNL A   1      50.143  26.613  25.252  1.00  0.00     0.010 A 
ATOM     77  C   UNL A   1      51.899  25.444  27.091  1.00  0.00     0.020 A 
ATOM     78  C   UNL A   1      51.398  26.164  24.827  1.00  0.00     0.020 A 
ATOM     79  C   UNL A   1      52.272  25.591  25.753  1.00  0.00     0.054 A 
BRANCH  79  80
ATOM     80  S   UNL A   1      53.893  24.967  25.224  1.00  0.00     0.124 S 
ATOM     81  O   UNL A   1      54.754  25.390  26.324  1.00  0.00    -0.237 OA
ATOM     82  O   UNL A   1      53.661  23.529  25.119  1.00  0.00    -0.237 OA
ATOM     83  O   UNL A   1      54.120  25.648  23.951  1.00  0.00    -0.744 OA
ENDBRANCH  79  80
ENDBRANCH  51  74
BRANCH  63  84
ATOM     84  C   UNL A   1      47.164  32.546  28.849  1.00  0.00    -0.014 A 
ATOM     85  C   UNL A   1      47.215  33.536  27.853  1.00  0.00     0.010 A 
ATOM     86  C   UNL A   1      47.633  32.839  30.143  1.00  0.00     0.010 A 
ATOM     87  C   UNL A   1      47.739  34.798  28.145  1.00  0.00     0.020 A 
ATOM     88  C   UNL A   1      48.136  34.106  30.443  1.00  0.00     0.020 A 
ATOM     89  C   UNL A   1      48.194  35.075  29.439  1.00  0.00     0.054 A 
BRANCH  89  90
ATOM     90  S   UNL A   1      48.803  36.742  29.810  1.00  0.00     0.124 S 
ATOM     91  O   UNL A   1      48.731  37.389  28.503  1.00  0.00    -0.237 OA
ATOM     92  O   UNL A   1      47.845  37.221  30.803  1.00  0.00    -0.237 OA
ATOM     93  O   UNL A   1      50.154  36.511  30.318  1.00  0.00    -0.744 OA
ENDBRANCH  89  90
ENDBRANCH  63  84
ENDBRANCH  37  38
ENDBRANCH  29  32
ENDBRANCH  27  28
ENDBRANCH   1  27
TORSDOF 18
ENDMDL
MODEL 3
REMARK VINA RESULT:     -11.1      3.058      4.634
REMARK SMILES CC(C)[NH2+][C@@]1(C(=O)NCCCCNC(=O)c2ccc(-c3c4nc(c(-c5ccc(S(=O)(=O)[O-])cc5)c5ccc([nH]5)c(-c5ccc(S(=O)(=O)[O-])cc5)c5nc(c(-c6ccc(S(=O)(=O)[O-])cc6)c6ccc3[nH]6)C=C5)C=C4)cc2)CCC[C@H](SC2CCCCC2)C1
REMARK SMILES IDX 11 1 10 2 9 3 8 4 6 5 7 6 5 8 76 9 87 10 77 11 79 12 78 13
REMARK SMILES IDX 4 14 2 17 1 18 3 19 80 20 81 21 82 22 86 23 83 24 85 25
REMARK SMILES IDX 84 26 12 27 13 28 14 29 15 31 16 32 17 33 75 34 18 35 74 36
REMARK SMILES IDX 19 37 20 38 21 39 68 40 22 41 73 42 67 43 69 44 23 45 72 46
REMARK SMILES IDX 66 47 65 48 24 50 54 51 35 52 53 53 36 54 39 55 52 56 70 57
REMARK SMILES IDX 37 58 38 59 51 61 71 62 40 63 25 64 26 65 34 66 27 67 33 68
REMARK SMILES IDX 28 69 29 70 30 71 31 72 32 73 55 74 56 75 64 76 57 77 63 78
REMARK SMILES IDX 58 79 59 80 60 81 61 82 62 83 41 84 42 85 50 86 43 87 49 88
REMARK SMILES IDX 44 89 45 90 46 91 47 92 48 93
REMARK H PARENT 8 7 4 15 4 16 13 30 69 49 39 60
REMARK Flexibility Score: inf
ROOT
ATOM      1  C   UNL A   1      36.472  23.969  24.267  1.00  0.00     0.023 C 
ENDROOT
BRANCH   1   2
ATOM      2  C   UNL A   1      35.592  23.094  23.397  1.00  0.00     0.023 C 
BRANCH   2   3
ATOM      3  C   UNL A   1      34.121  23.459  23.370  1.00  0.00     0.116 C 
BRANCH   3   4
ATOM      4  N   UNL A   1      33.761  24.353  22.303  1.00  0.00    -0.351 N 
ATOM      5  C   UNL A   1      33.370  25.649  22.341  1.00  0.00     0.281 C 
ATOM      6  O   UNL A   1      33.703  26.311  21.344  1.00  0.00    -0.268 OA
ATOM      7  H   UNL A   1      33.808  23.962  21.401  1.00  0.00     0.163 HD
BRANCH   5   8
ATOM      8  C   UNL A   1      32.563  26.352  23.526  1.00  0.00     0.176 C 
ATOM      9  C   UNL A   1      33.528  27.145  24.445  1.00  0.00     0.079 C 
ATOM     10  C   UNL A   1      31.598  25.423  24.313  1.00  0.00     0.093 C 
ATOM     11  C   UNL A   1      34.094  26.468  25.683  1.00  0.00     0.008 C 
ATOM     12  C   UNL A   1      31.791  25.326  25.842  1.00  0.00     0.053 C 
ATOM     13  C   UNL A   1      33.204  25.444  26.372  1.00  0.00     0.015 C 
BRANCH   8  14
ATOM     14  N   UNL A   1      31.848  27.497  22.832  1.00  0.00    -0.332 N 
ATOM     15  H   UNL A   1      32.533  28.246  22.731  1.00  0.00     0.347 HD
ATOM     16  H   UNL A   1      31.488  27.053  21.987  1.00  0.00     0.347 HD
BRANCH  14  17
ATOM     17  C   UNL A   1      30.645  28.108  23.409  1.00  0.00     0.176 C 
ATOM     18  C   UNL A   1      31.116  29.314  24.240  1.00  0.00     0.075 C 
ATOM     19  C   UNL A   1      29.572  28.583  22.430  1.00  0.00     0.075 C 
ENDBRANCH  14  17
ENDBRANCH   8  14
BRANCH  12  20
ATOM     20  S   UNL A   1      30.683  24.030  26.630  1.00  0.00    -0.155 SA
BRANCH  20  21
ATOM     21  C   UNL A   1      31.472  22.319  26.653  1.00  0.00     0.047 C 
ATOM     22  C   UNL A   1      31.728  21.679  25.279  1.00  0.00     0.014 C 
ATOM     23  C   UNL A   1      32.818  22.529  27.405  1.00  0.00     0.014 C 
ATOM     24  C   UNL A   1      32.697  20.496  25.309  1.00  0.00     0.001 C 
ATOM     25  C   UNL A   1      33.782  21.339  27.364  1.00  0.00     0.001 C 
ATOM     26  C   UNL A   1      34.022  20.867  25.941  1.00  0.00     0.000 C 
ENDBRANCH  20  21
ENDBRANCH  12  20
ENDBRANCH   5   8
ENDBRANCH   3   4
ENDBRANCH   2   3
ENDBRANCH   1   2
BRANCH   1  27
ATOM     27  C   UNL A   1      36.802  23.383  25.629  1.00  0.00     0.116 C 
BRANCH  27  28
ATOM     28  N   UNL A   1      38.021  22.580  25.662  1.00  0.00    -0.352 N 
ATOM     29  C   UNL A   1      39.255  22.924  26.171  1.00  0.00     0.251 C 
ATOM     30  H   UNL A   1      37.954  21.679  25.270  1.00  0.00     0.163 HD
ATOM     31  O   UNL A   1      40.208  22.153  26.105  1.00  0.00    -0.269 OA
BRANCH  29  32
ATOM     32  C   UNL A   1      39.413  24.261  26.768  1.00  0.00     0.039 A 
ATOM     33  C   UNL A   1      39.040  24.476  28.097  1.00  0.00     0.014 A 
ATOM     34  C   UNL A   1      40.059  25.254  26.033  1.00  0.00     0.014 A 
ATOM     35  C   UNL A   1      39.404  25.671  28.723  1.00  0.00     0.010 A 
ATOM     36  C   UNL A   1      40.516  26.384  26.689  1.00  0.00     0.010 A 
ATOM     37  C   UNL A   1      40.189  26.610  28.038  1.00  0.00    -0.014 A 
BRANCH  37  38
ATOM     38  C   UNL A   1      40.667  27.875  28.652  1.00  0.00     0.031 A 
ATOM     39  C   UNL A   1      42.051  27.900  29.243  1.00  0.00     0.074 A 
ATOM     40  C   UNL A   1      39.832  28.920  28.818  1.00  0.00     0.049 A 
ATOM     41  N   UNL A   1      42.576  28.745  30.088  1.00  0.00    -0.248 NA
ATOM     42  C   UNL A   1      42.935  26.775  28.885  1.00  0.00     0.031 C 
ATOM     43  C   UNL A   1      38.457  29.007  28.321  1.00  0.00     0.029 A 
ATOM     44  N   UNL A   1      40.015  30.105  29.486  1.00  0.00    -0.354 N 
ATOM     45  C   UNL A   1      43.819  28.216  30.418  1.00  0.00     0.074 A 
ATOM     46  C   UNL A   1      43.949  26.959  29.714  1.00  0.00     0.031 C 
ATOM     47  C   UNL A   1      37.928  30.187  28.690  1.00  0.00     0.029 A 
ATOM     48  C   UNL A   1      38.903  30.914  29.495  1.00  0.00     0.049 A 
ATOM     49  H   UNL A   1      40.865  30.352  29.920  1.00  0.00     0.167 HD
ATOM     50  C   UNL A   1      44.773  28.738  31.224  1.00  0.00     0.031 A 
ATOM     51  C   UNL A   1      38.687  32.095  30.106  1.00  0.00     0.031 A 
ATOM     52  C   UNL A   1      44.659  30.022  31.856  1.00  0.00     0.049 A 
ATOM     53  C   UNL A   1      39.786  32.690  30.946  1.00  0.00     0.074 A 
ATOM     54  C   UNL A   1      45.595  30.692  32.621  1.00  0.00     0.029 A 
ATOM     55  N   UNL A   1      43.543  30.843  31.772  1.00  0.00    -0.354 N 
ATOM     56  N   UNL A   1      40.966  32.192  31.228  1.00  0.00    -0.248 NA
ATOM     57  C   UNL A   1      39.525  34.005  31.547  1.00  0.00     0.031 C 
ATOM     58  C   UNL A   1      45.035  31.910  33.023  1.00  0.00     0.029 A 
ATOM     59  C   UNL A   1      43.766  32.013  32.473  1.00  0.00     0.049 A 
ATOM     60  H   UNL A   1      42.715  30.624  31.286  1.00  0.00     0.167 HD
ATOM     61  C   UNL A   1      41.598  33.142  32.023  1.00  0.00     0.074 A 
ATOM     62  C   UNL A   1      40.674  34.249  32.164  1.00  0.00     0.031 C 
ATOM     63  C   UNL A   1      42.830  33.102  32.586  1.00  0.00     0.031 A 
BRANCH  50  64
ATOM     64  C   UNL A   1      46.015  27.918  31.454  1.00  0.00    -0.014 A 
ATOM     65  C   UNL A   1      47.129  28.028  30.601  1.00  0.00     0.010 A 
ATOM     66  C   UNL A   1      46.073  27.030  32.543  1.00  0.00     0.010 A 
ATOM     67  C   UNL A   1      48.253  27.223  30.799  1.00  0.00     0.020 A 
ATOM     68  C   UNL A   1      47.209  26.247  32.764  1.00  0.00     0.020 A 
ATOM     69  C   UNL A   1      48.284  26.333  31.876  1.00  0.00     0.054 A 
BRANCH  69  70
ATOM     70  S   UNL A   1      49.761  25.307  32.115  1.00  0.00     0.124 S 
ATOM     71  O   UNL A   1      50.706  26.270  32.675  1.00  0.00    -0.237 OA
ATOM     72  O   UNL A   1      49.290  24.279  33.041  1.00  0.00    -0.237 OA
ATOM     73  O   UNL A   1      50.075  24.833  30.771  1.00  0.00    -0.744 OA
ENDBRANCH  69  70
ENDBRANCH  50  64
BRANCH  51  74
ATOM     74  C   UNL A   1      37.387  32.800  29.932  1.00  0.00    -0.014 A 
ATOM     75  C   UNL A   1      37.179  33.632  28.819  1.00  0.00     0.010 A 
ATOM     76  C   UNL A   1      36.344  32.629  30.860  1.00  0.00     0.010 A 
ATOM     77  C   UNL A   1      35.958  34.290  28.641  1.00  0.00     0.020 A 
ATOM     78  C   UNL A   1      35.113  33.265  30.674  1.00  0.00     0.020 A 
ATOM     79  C   UNL A   1      34.931  34.100  29.569  1.00  0.00     0.054 A 
BRANCH  79  80
ATOM     80  S   UNL A   1      33.333  34.912  29.282  1.00  0.00     0.124 S 
ATOM     81  O   UNL A   1      32.731  34.049  28.272  1.00  0.00    -0.237 OA
ATOM     82  O   UNL A   1      32.713  34.868  30.604  1.00  0.00    -0.237 OA
ATOM     83  O   UNL A   1      33.708  36.248  28.824  1.00  0.00    -0.744 OA
ENDBRANCH  79  80
ENDBRANCH  51  74
BRANCH  63  84
ATOM     84  C   UNL A   1      43.267  34.303  33.378  1.00  0.00    -0.014 A 
ATOM     85  C   UNL A   1      43.767  35.449  32.735  1.00  0.00     0.010 A 
ATOM     86  C   UNL A   1      43.093  34.311  34.774  1.00  0.00     0.010 A 
ATOM     87  C   UNL A   1      44.099  36.582  33.482  1.00  0.00     0.020 A 
ATOM     88  C   UNL A   1      43.403  35.450  35.519  1.00  0.00     0.020 A 
ATOM     89  C   UNL A   1      43.913  36.576  34.868  1.00  0.00     0.054 A 
BRANCH  89  90
ATOM     90  S   UNL A   1      44.285  38.084  35.805  1.00  0.00     0.124 S 
ATOM     91  O   UNL A   1      43.442  37.923  36.985  1.00  0.00    -0.237 OA
ATOM     92  O   UNL A   1      45.723  37.971  36.038  1.00  0.00    -0.237 OA
ATOM     93  O   UNL A   1      43.890  39.160  34.898  1.00  0.00    -0.744 OA
ENDBRANCH  89  90
ENDBRANCH  63  84
ENDBRANCH  37  38
ENDBRANCH  29  32
ENDBRANCH  27  28
ENDBRANCH   1  27
TORSDOF 18
ENDMDL
