MODEL 1
REMARK VINA RESULT:     -10.5      0.000      0.000
REMARK SMILES Cc1ccc(NC(=O)c2cccn2CC(=O)NCCCCNC(=O)c2ccc(-c3c4nc(c(-c5ccc(S(=O)(=O)[O-])cc5)c5ccc([nH]5)c(-c5ccc(S(=O)(=O)[O-])cc5)c5nc(c(-c6ccc(S(=O)(=O)[O-])cc6)c6ccc3[nH]6)C=C5)C=C4)cc2)cc1
REMARK SMILES IDX 19 1 18 2 17 3 15 4 16 5 14 7 13 8 9 9 10 10 11 11 12 12
REMARK SMILES IDX 7 13 6 14 8 16 5 17 1 18 2 19 3 20 86 21 4 22 85 23 20 24
REMARK SMILES IDX 21 25 22 26 23 27 24 29 25 30 26 31 84 32 27 33 83 34 28 35
REMARK SMILES IDX 29 36 30 37 77 38 31 39 82 40 76 41 78 42 32 43 81 44 75 45
REMARK SMILES IDX 74 46 33 48 63 49 44 50 62 51 45 52 48 53 61 54 79 55 46 56
REMARK SMILES IDX 47 57 60 59 80 60 49 61 34 62 35 63 43 64 36 65 42 66 37 67
REMARK SMILES IDX 38 68 39 69 40 70 41 71 64 72 65 73 73 74 66 75 72 76 67 77
REMARK SMILES IDX 68 78 69 79 70 80 71 81 50 82 51 83 59 84 52 85 58 86 53 87
REMARK SMILES IDX 54 88 55 89 56 90 57 91
REMARK H PARENT 17 6 6 15 22 28 78 47 48 58
REMARK Flexibility Score: inf
ROOT
ATOM      1  C   UNL A   1      37.707  33.378  34.092  1.00  0.00     0.023 C 
ENDROOT
BRANCH   1   2
ATOM      2  C   UNL A   1      36.763  34.017  33.065  1.00  0.00     0.116 C 
BRANCH   2   3
ATOM      3  N   UNL A   1      35.358  33.772  33.377  1.00  0.00    -0.355 N 
ATOM      4  C   UNL A   1      34.386  33.155  32.636  1.00  0.00     0.239 C 
ATOM      5  O   UNL A   1      33.260  33.053  33.132  1.00  0.00    -0.273 OA
ATOM      6  H   UNL A   1      35.063  34.101  34.256  1.00  0.00     0.163 HD
BRANCH   4   7
ATOM      7  C   UNL A   1      34.681  32.608  31.253  1.00  0.00     0.222 C 
BRANCH   7   8
ATOM      8  N   UNL A   1      34.437  33.575  30.184  1.00  0.00    -0.334 N 
ATOM      9  C   UNL A   1      34.654  33.361  28.836  1.00  0.00     0.107 A 
ATOM     10  C   UNL A   1      34.154  34.469  28.164  1.00  0.00     0.033 A 
ATOM     11  C   UNL A   1      33.714  35.403  29.128  1.00  0.00     0.020 A 
ATOM     12  C   UNL A   1      33.892  34.825  30.364  1.00  0.00     0.087 A 
BRANCH   9  13
ATOM     13  C   UNL A   1      35.235  32.165  28.282  1.00  0.00     0.272 C 
ATOM     14  N   UNL A   1      36.581  31.916  28.382  1.00  0.00    -0.321 N 
ATOM     15  H   UNL A   1      36.862  31.107  27.896  1.00  0.00     0.170 HD
ATOM     16  O   UNL A   1      34.522  31.323  27.718  1.00  0.00    -0.267 OA
BRANCH  14  17
ATOM     17  C   UNL A   1      37.650  32.569  29.032  1.00  0.00     0.041 A 
ATOM     18  C   UNL A   1      41.107  34.295  30.987  1.00  0.00     0.044 C 
ATOM     19  C   UNL A   1      39.910  33.681  30.330  1.00  0.00    -0.051 A 
ATOM     20  C   UNL A   1      38.888  34.499  29.851  1.00  0.00     0.005 A 
ATOM     21  C   UNL A   1      39.781  32.298  30.188  1.00  0.00     0.005 A 
ATOM     22  C   UNL A   1      37.765  33.944  29.226  1.00  0.00     0.026 A 
ATOM     23  C   UNL A   1      38.662  31.750  29.548  1.00  0.00     0.026 A 
ENDBRANCH  14  17
ENDBRANCH   9  13
ENDBRANCH   7   8
ENDBRANCH   4   7
ENDBRANCH   2   3
ENDBRANCH   1   2
BRANCH   1  24
ATOM     24  C   UNL A   1      38.417  32.086  33.637  1.00  0.00     0.023 C 
BRANCH  24  25
ATOM     25  C   UNL A   1      37.585  31.120  32.750  1.00  0.00     0.116 C 
BRANCH  25  26
ATOM     26  N   UNL A   1      37.714  29.732  33.193  1.00  0.00    -0.352 N 
ATOM     27  C   UNL A   1      38.149  28.562  32.598  1.00  0.00     0.251 C 
ATOM     28  H   UNL A   1      37.427  29.601  34.125  1.00  0.00     0.163 HD
ATOM     29  O   UNL A   1      37.717  27.516  33.095  1.00  0.00    -0.269 OA
BRANCH  27  30
ATOM     30  C   UNL A   1      39.101  28.442  31.438  1.00  0.00     0.039 A 
ATOM     31  C   UNL A   1      40.415  28.968  31.563  1.00  0.00     0.014 A 
ATOM     32  C   UNL A   1      38.747  27.959  30.192  1.00  0.00     0.014 A 
ATOM     33  C   UNL A   1      41.371  28.962  30.501  1.00  0.00     0.010 A 
ATOM     34  C   UNL A   1      39.687  27.986  29.135  1.00  0.00     0.010 A 
ATOM     35  C   UNL A   1      41.032  28.443  29.255  1.00  0.00    -0.014 A 
BRANCH  35  36
ATOM     36  C   UNL A   1      41.996  28.051  28.153  1.00  0.00     0.031 A 
ATOM     37  C   UNL A   1      43.003  29.085  27.919  1.00  0.00     0.074 A 
ATOM     38  C   UNL A   1      42.470  26.872  27.648  1.00  0.00     0.049 A 
ATOM     39  N   UNL A   1      44.024  29.113  28.695  1.00  0.00    -0.248 NA
ATOM     40  C   UNL A   1      42.974  30.103  26.891  1.00  0.00     0.031 C 
ATOM     41  C   UNL A   1      41.878  25.555  27.763  1.00  0.00     0.029 A 
ATOM     42  N   UNL A   1      43.747  26.616  27.046  1.00  0.00    -0.354 N 
ATOM     43  C   UNL A   1      44.835  30.117  28.283  1.00  0.00     0.074 A 
ATOM     44  C   UNL A   1      44.163  30.686  27.121  1.00  0.00     0.031 C 
ATOM     45  C   UNL A   1      42.773  24.632  27.347  1.00  0.00     0.029 A 
ATOM     46  C   UNL A   1      44.087  25.249  27.014  1.00  0.00     0.049 A 
ATOM     47  H   UNL A   1      44.328  27.326  26.689  1.00  0.00     0.167 HD
ATOM     48  C   UNL A   1      45.999  30.311  28.956  1.00  0.00     0.031 A 
ATOM     49  C   UNL A   1      45.245  24.659  27.478  1.00  0.00     0.031 A 
ATOM     50  C   UNL A   1      46.155  29.533  30.204  1.00  0.00     0.049 A 
ATOM     51  C   UNL A   1      45.059  24.695  28.960  1.00  0.00     0.074 A 
ATOM     52  C   UNL A   1      46.630  29.792  31.476  1.00  0.00     0.029 A 
ATOM     53  N   UNL A   1      45.680  28.227  30.282  1.00  0.00    -0.354 N 
ATOM     54  N   UNL A   1      45.324  25.754  29.659  1.00  0.00    -0.248 NA
ATOM     55  C   UNL A   1      44.454  23.595  29.694  1.00  0.00     0.031 C 
ATOM     56  C   UNL A   1      46.241  28.706  32.335  1.00  0.00     0.029 A 
ATOM     57  C   UNL A   1      45.571  27.758  31.581  1.00  0.00     0.049 A 
ATOM     58  H   UNL A   1      45.445  27.690  29.492  1.00  0.00     0.167 HD
ATOM     59  C   UNL A   1      44.824  25.535  30.911  1.00  0.00     0.074 A 
ATOM     60  C   UNL A   1      44.239  24.200  30.867  1.00  0.00     0.031 C 
ATOM     61  C   UNL A   1      44.852  26.505  31.866  1.00  0.00     0.031 A 
BRANCH  48  62
ATOM     62  C   UNL A   1      47.049  31.198  28.370  1.00  0.00    -0.014 A 
ATOM     63  C   UNL A   1      48.228  30.604  27.889  1.00  0.00     0.010 A 
ATOM     64  C   UNL A   1      46.879  32.581  28.164  1.00  0.00     0.010 A 
ATOM     65  C   UNL A   1      49.169  31.345  27.164  1.00  0.00     0.020 A 
ATOM     66  C   UNL A   1      47.789  33.320  27.400  1.00  0.00     0.020 A 
ATOM     67  C   UNL A   1      48.931  32.696  26.903  1.00  0.00     0.054 A 
BRANCH  67  68
ATOM     68  S   UNL A   1      50.108  33.625  25.885  1.00  0.00     0.124 S 
ATOM     69  O   UNL A   1      49.225  34.492  25.110  1.00  0.00    -0.237 OA
ATOM     70  O   UNL A   1      50.943  34.291  26.879  1.00  0.00    -0.237 OA
ATOM     71  O   UNL A   1      50.788  32.585  25.112  1.00  0.00    -0.744 OA
ENDBRANCH  67  68
ENDBRANCH  48  62
BRANCH  49  72
ATOM     72  C   UNL A   1      46.723  24.723  27.104  1.00  0.00    -0.014 A 
ATOM     73  C   UNL A   1      47.697  24.734  28.122  1.00  0.00     0.010 A 
ATOM     74  C   UNL A   1      47.161  25.162  25.827  1.00  0.00     0.010 A 
ATOM     75  C   UNL A   1      48.996  25.253  27.894  1.00  0.00     0.020 A 
ATOM     76  C   UNL A   1      48.440  25.703  25.597  1.00  0.00     0.020 A 
ATOM     77  C   UNL A   1      49.347  25.773  26.643  1.00  0.00     0.054 A 
BRANCH  77  78
ATOM     78  S   UNL A   1      50.930  26.653  26.435  1.00  0.00     0.124 S 
ATOM     79  O   UNL A   1      50.496  28.025  26.173  1.00  0.00    -0.237 OA
ATOM     80  O   UNL A   1      51.581  26.442  27.724  1.00  0.00    -0.237 OA
ATOM     81  O   UNL A   1      51.561  25.987  25.297  1.00  0.00    -0.744 OA
ENDBRANCH  77  78
ENDBRANCH  49  72
BRANCH  61  82
ATOM     82  C   UNL A   1      43.969  26.323  33.068  1.00  0.00    -0.014 A 
ATOM     83  C   UNL A   1      42.873  27.151  33.369  1.00  0.00     0.010 A 
ATOM     84  C   UNL A   1      44.334  25.352  34.018  1.00  0.00     0.010 A 
ATOM     85  C   UNL A   1      42.244  27.093  34.619  1.00  0.00     0.020 A 
ATOM     86  C   UNL A   1      43.692  25.262  35.258  1.00  0.00     0.020 A 
ATOM     87  C   UNL A   1      42.669  26.157  35.565  1.00  0.00     0.054 A 
BRANCH  87  88
ATOM     88  S   UNL A   1      41.837  26.068  37.173  1.00  0.00     0.124 S 
ATOM     89  O   UNL A   1      40.921  27.203  37.111  1.00  0.00    -0.237 OA
ATOM     90  O   UNL A   1      41.203  24.752  37.141  1.00  0.00    -0.237 OA
ATOM     91  O   UNL A   1      42.931  26.198  38.135  1.00  0.00    -0.744 OA
ENDBRANCH  87  88
ENDBRANCH  61  82
ENDBRANCH  35  36
ENDBRANCH  27  30
ENDBRANCH  25  26
ENDBRANCH  24  25
ENDBRANCH   1  24
TORSDOF 17
ENDMDL
MODEL 2
REMARK VINA RESULT:     -10.4      5.689      9.700
REMARK SMILES Cc1ccc(NC(=O)c2cccn2CC(=O)NCCCCNC(=O)c2ccc(-c3c4nc(c(-c5ccc(S(=O)(=O)[O-])cc5)c5ccc([nH]5)c(-c5ccc(S(=O)(=O)[O-])cc5)c5nc(c(-c6ccc(S(=O)(=O)[O-])cc6)c6ccc3[nH]6)C=C5)C=C4)cc2)cc1
REMARK SMILES IDX 19 1 18 2 17 3 15 4 16 5 14 7 13 8 9 9 10 10 11 11 12 12
REMARK SMILES IDX 7 13 6 14 8 16 5 17 1 18 2 19 3 20 86 21 4 22 85 23 20 24
REMARK SMILES IDX 21 25 22 26 23 27 24 29 25 30 26 31 84 32 27 33 83 34 28 35
REMARK SMILES IDX 29 36 30 37 77 38 31 39 82 40 76 41 78 42 32 43 81 44 75 45
REMARK SMILES IDX 74 46 33 48 63 49 44 50 62 51 45 52 48 53 61 54 79 55 46 56
REMARK SMILES IDX 47 57 60 59 80 60 49 61 34 62 35 63 43 64 36 65 42 66 37 67
REMARK SMILES IDX 38 68 39 69 40 70 41 71 64 72 65 73 73 74 66 75 72 76 67 77
REMARK SMILES IDX 68 78 69 79 70 80 71 81 50 82 51 83 59 84 52 85 58 86 53 87
REMARK SMILES IDX 54 88 55 89 56 90 57 91
REMARK H PARENT 17 6 6 15 22 28 78 47 48 58
REMARK Flexibility Score: inf
ROOT
ATOM      1  C   UNL A   1      31.464  27.963  25.439  1.00  0.00     0.023 C 
ENDROOT
BRANCH   1   2
ATOM      2  C   UNL A   1      32.217  26.651  25.180  1.00  0.00     0.116 C 
BRANCH   2   3
ATOM      3  N   UNL A   1      32.895  26.648  23.887  1.00  0.00    -0.355 N 
ATOM      4  C   UNL A   1      33.330  25.600  23.123  1.00  0.00     0.239 C 
ATOM      5  O   UNL A   1      33.868  25.857  22.041  1.00  0.00    -0.273 OA
ATOM      6  H   UNL A   1      33.064  27.539  23.504  1.00  0.00     0.163 HD
BRANCH   4   7
ATOM      7  C   UNL A   1      33.156  24.166  23.585  1.00  0.00     0.222 C 
BRANCH   7   8
ATOM      8  N   UNL A   1      34.063  23.792  24.669  1.00  0.00    -0.334 N 
ATOM      9  C   UNL A   1      33.705  23.141  25.834  1.00  0.00     0.107 A 
ATOM     10  C   UNL A   1      34.881  22.847  26.512  1.00  0.00     0.033 A 
ATOM     11  C   UNL A   1      35.955  23.412  25.789  1.00  0.00     0.020 A 
ATOM     12  C   UNL A   1      35.425  23.981  24.654  1.00  0.00     0.087 A 
BRANCH   9  13
ATOM     13  C   UNL A   1      32.354  22.797  26.196  1.00  0.00     0.272 C 
ATOM     14  N   UNL A   1      31.777  21.628  25.765  1.00  0.00    -0.321 N 
ATOM     15  H   UNL A   1      30.829  21.550  26.016  1.00  0.00     0.170 HD
ATOM     16  O   UNL A   1      31.689  23.545  26.926  1.00  0.00    -0.267 OA
BRANCH  14  17
ATOM     17  C   UNL A   1      32.251  20.514  25.040  1.00  0.00     0.041 A 
ATOM     18  C   UNL A   1      33.718  16.930  23.101  1.00  0.00     0.044 C 
ATOM     19  C   UNL A   1      33.233  18.172  23.784  1.00  0.00    -0.051 A 
ATOM     20  C   UNL A   1      32.626  19.180  23.038  1.00  0.00     0.005 A 
ATOM     21  C   UNL A   1      33.378  18.353  25.161  1.00  0.00     0.005 A 
ATOM     22  C   UNL A   1      32.158  20.344  23.659  1.00  0.00     0.026 A 
ATOM     23  C   UNL A   1      32.894  19.514  25.779  1.00  0.00     0.026 A 
ENDBRANCH  14  17
ENDBRANCH   9  13
ENDBRANCH   7   8
ENDBRANCH   4   7
ENDBRANCH   2   3
ENDBRANCH   1   2
BRANCH   1  24
ATOM     24  C   UNL A   1      31.911  28.757  26.685  1.00  0.00     0.023 C 
BRANCH  24  25
ATOM     25  C   UNL A   1      33.441  28.845  26.930  1.00  0.00     0.116 C 
BRANCH  25  26
ATOM     26  N   UNL A   1      33.899  30.233  26.997  1.00  0.00    -0.352 N 
ATOM     27  C   UNL A   1      34.879  30.895  27.713  1.00  0.00     0.251 C 
ATOM     28  H   UNL A   1      33.396  30.829  26.397  1.00  0.00     0.163 HD
ATOM     29  O   UNL A   1      34.706  32.111  27.858  1.00  0.00    -0.269 OA
BRANCH  27  30
ATOM     30  C   UNL A   1      36.128  30.294  28.299  1.00  0.00     0.039 A 
ATOM     31  C   UNL A   1      37.256  30.085  27.461  1.00  0.00     0.014 A 
ATOM     32  C   UNL A   1      36.221  29.805  29.589  1.00  0.00     0.014 A 
ATOM     33  C   UNL A   1      38.464  29.463  27.905  1.00  0.00     0.010 A 
ATOM     34  C   UNL A   1      37.407  29.160  30.013  1.00  0.00     0.010 A 
ATOM     35  C   UNL A   1      38.576  29.002  29.212  1.00  0.00    -0.014 A 
BRANCH  35  36
ATOM     36  C   UNL A   1      39.861  28.643  29.931  1.00  0.00     0.031 A 
ATOM     37  C   UNL A   1      41.027  29.259  29.299  1.00  0.00     0.074 A 
ATOM     38  C   UNL A   1      40.199  28.306  31.212  1.00  0.00     0.049 A 
ATOM     39  N   UNL A   1      41.294  30.478  29.595  1.00  0.00    -0.248 NA
ATOM     40  C   UNL A   1      41.929  28.635  28.355  1.00  0.00     0.031 C 
ATOM     41  C   UNL A   1      39.333  27.790  32.253  1.00  0.00     0.029 A 
ATOM     42  N   UNL A   1      41.438  28.549  31.896  1.00  0.00    -0.354 N 
ATOM     43  C   UNL A   1      42.420  30.833  28.931  1.00  0.00     0.074 A 
ATOM     44  C   UNL A   1      42.813  29.636  28.198  1.00  0.00     0.031 C 
ATOM     45  C   UNL A   1      39.993  27.823  33.432  1.00  0.00     0.029 A 
ATOM     46  C   UNL A   1      41.330  28.465  33.298  1.00  0.00     0.049 A 
ATOM     47  H   UNL A   1      42.280  28.753  31.429  1.00  0.00     0.167 HD
ATOM     48  C   UNL A   1      42.901  32.089  29.120  1.00  0.00     0.031 A 
ATOM     49  C   UNL A   1      41.722  29.405  34.229  1.00  0.00     0.031 A 
ATOM     50  C   UNL A   1      42.020  33.006  29.875  1.00  0.00     0.049 A 
ATOM     51  C   UNL A   1      40.668  30.455  34.098  1.00  0.00     0.074 A 
ATOM     52  C   UNL A   1      41.641  34.331  29.760  1.00  0.00     0.029 A 
ATOM     53  N   UNL A   1      41.265  32.533  30.945  1.00  0.00    -0.354 N 
ATOM     54  N   UNL A   1      40.716  31.361  33.172  1.00  0.00    -0.248 NA
ATOM     55  C   UNL A   1      39.465  30.456  34.913  1.00  0.00     0.031 C 
ATOM     56  C   UNL A   1      40.521  34.560  30.632  1.00  0.00     0.029 A 
ATOM     57  C   UNL A   1      40.243  33.391  31.319  1.00  0.00     0.049 A 
ATOM     58  H   UNL A   1      41.441  31.674  31.392  1.00  0.00     0.167 HD
ATOM     59  C   UNL A   1      39.506  31.997  33.180  1.00  0.00     0.074 A 
ATOM     60  C   UNL A   1      38.740  31.358  34.244  1.00  0.00     0.031 C 
ATOM     61  C   UNL A   1      39.196  32.943  32.253  1.00  0.00     0.031 A 
BRANCH  48  62
ATOM     62  C   UNL A   1      44.278  32.429  28.650  1.00  0.00    -0.014 A 
ATOM     63  C   UNL A   1      45.366  32.063  29.460  1.00  0.00     0.010 A 
ATOM     64  C   UNL A   1      44.558  32.989  27.388  1.00  0.00     0.010 A 
ATOM     65  C   UNL A   1      46.684  32.182  29.001  1.00  0.00     0.020 A 
ATOM     66  C   UNL A   1      45.867  33.067  26.901  1.00  0.00     0.020 A 
ATOM     67  C   UNL A   1      46.925  32.661  27.712  1.00  0.00     0.054 A 
BRANCH  67  68
ATOM     68  S   UNL A   1      48.626  32.724  27.092  1.00  0.00     0.124 S 
ATOM     69  O   UNL A   1      48.794  31.390  26.522  1.00  0.00    -0.237 OA
ATOM     70  O   UNL A   1      48.583  33.824  26.134  1.00  0.00    -0.237 OA
ATOM     71  O   UNL A   1      49.419  32.987  28.292  1.00  0.00    -0.744 OA
ENDBRANCH  67  68
ENDBRANCH  48  62
BRANCH  49  72
ATOM     72  C   UNL A   1      43.052  30.007  34.672  1.00  0.00    -0.014 A 
ATOM     73  C   UNL A   1      43.075  30.934  35.732  1.00  0.00     0.010 A 
ATOM     74  C   UNL A   1      44.203  29.992  33.840  1.00  0.00     0.010 A 
ATOM     75  C   UNL A   1      44.140  31.859  35.880  1.00  0.00     0.020 A 
ATOM     76  C   UNL A   1      45.252  30.921  33.963  1.00  0.00     0.020 A 
ATOM     77  C   UNL A   1      45.203  31.874  34.969  1.00  0.00     0.054 A 
BRANCH  77  78
ATOM     78  S   UNL A   1      46.434  33.218  35.031  1.00  0.00     0.124 S 
ATOM     79  O   UNL A   1      45.688  34.297  35.677  1.00  0.00    -0.237 OA
ATOM     80  O   UNL A   1      47.502  32.632  35.835  1.00  0.00    -0.237 OA
ATOM     81  O   UNL A   1      46.765  33.462  33.629  1.00  0.00    -0.744 OA
ENDBRANCH  77  78
ENDBRANCH  49  72
BRANCH  61  82
ATOM     82  C   UNL A   1      37.749  33.319  32.100  1.00  0.00    -0.014 A 
ATOM     83  C   UNL A   1      36.926  32.863  31.055  1.00  0.00     0.010 A 
ATOM     84  C   UNL A   1      37.218  34.284  32.975  1.00  0.00     0.010 A 
ATOM     85  C   UNL A   1      35.670  33.437  30.820  1.00  0.00     0.020 A 
ATOM     86  C   UNL A   1      35.951  34.841  32.770  1.00  0.00     0.020 A 
ATOM     87  C   UNL A   1      35.195  34.436  31.672  1.00  0.00     0.054 A 
BRANCH  87  88
ATOM     88  S   UNL A   1      33.559  35.159  31.380  1.00  0.00     0.124 S 
ATOM     89  O   UNL A   1      32.776  34.609  32.482  1.00  0.00    -0.237 OA
ATOM     90  O   UNL A   1      33.818  36.595  31.453  1.00  0.00    -0.237 OA
ATOM     91  O   UNL A   1      33.198  34.669  30.050  1.00  0.00    -0.744 OA
ENDBRANCH  87  88
ENDBRANCH  61  82
ENDBRANCH  35  36
ENDBRANCH  27  30
ENDBRANCH  25  26
ENDBRANCH  24  25
ENDBRANCH   1  24
TORSDOF 17
ENDMDL
MODEL 3
REMARK VINA RESULT:     -10.1      1.210      2.306
REMARK SMILES Cc1ccc(NC(=O)c2cccn2CC(=O)NCCCCNC(=O)c2ccc(-c3c4nc(c(-c5ccc(S(=O)(=O)[O-])cc5)c5ccc([nH]5)c(-c5ccc(S(=O)(=O)[O-])cc5)c5nc(c(-c6ccc(S(=O)(=O)[O-])cc6)c6ccc3[nH]6)C=C5)C=C4)cc2)cc1
REMARK SMILES IDX 19 1 18 2 17 3 15 4 16 5 14 7 13 8 9 9 10 10 11 11 12 12
REMARK SMILES IDX 7 13 6 14 8 16 5 17 1 18 2 19 3 20 86 21 4 22 85 23 20 24
REMARK SMILES IDX 21 25 22 26 23 27 24 29 25 30 26 31 84 32 27 33 83 34 28 35
REMARK SMILES IDX 29 36 30 37 77 38 31 39 82 40 76 41 78 42 32 43 81 44 75 45
REMARK SMILES IDX 74 46 33 48 63 49 44 50 62 51 45 52 48 53 61 54 79 55 46 56
REMARK SMILES IDX 47 57 60 59 80 60 49 61 34 62 35 63 43 64 36 65 42 66 37 67
REMARK SMILES IDX 38 68 39 69 40 70 41 71 64 72 65 73 73 74 66 75 72 76 67 77
REMARK SMILES IDX 68 78 69 79 70 80 71 81 50 82 51 83 59 84 52 85 58 86 53 87
REMARK SMILES IDX 54 88 55 89 56 90 57 91
REMARK H PARENT 17 6 6 15 22 28 78 47 48 58
REMARK Flexibility Score: inf
ROOT
ATOM      1  C   UNL A   1      38.299  33.363  33.030  1.00  0.00     0.023 C 
ENDROOT
BRANCH   1   2
ATOM      2  C   UNL A   1      37.270  34.186  32.243  1.00  0.00     0.116 C 
BRANCH   2   3
ATOM      3  N   UNL A   1      35.967  34.216  32.901  1.00  0.00    -0.355 N 
ATOM      4  C   UNL A   1      34.762  33.713  32.492  1.00  0.00     0.239 C 
ATOM      5  O   UNL A   1      33.792  33.852  33.244  1.00  0.00    -0.273 OA
ATOM      6  H   UNL A   1      35.952  34.668  33.775  1.00  0.00     0.163 HD
BRANCH   4   7
ATOM      7  C   UNL A   1      34.619  33.003  31.159  1.00  0.00     0.222 C 
BRANCH   7   8
ATOM      8  N   UNL A   1      34.437  33.916  30.033  1.00  0.00    -0.334 N 
ATOM      9  C   UNL A   1      35.184  33.925  28.870  1.00  0.00     0.107 A 
ATOM     10  C   UNL A   1      34.588  34.840  28.012  1.00  0.00     0.033 A 
ATOM     11  C   UNL A   1      33.523  35.458  28.703  1.00  0.00     0.020 A 
ATOM     12  C   UNL A   1      33.446  34.866  29.943  1.00  0.00     0.087 A 
BRANCH   9  13
ATOM     13  C   UNL A   1      36.320  33.075  28.623  1.00  0.00     0.272 C 
ATOM     14  N   UNL A   1      36.159  31.779  28.196  1.00  0.00    -0.321 N 
ATOM     15  H   UNL A   1      37.008  31.284  28.140  1.00  0.00     0.170 HD
ATOM     16  O   UNL A   1      37.472  33.506  28.770  1.00  0.00    -0.267 OA
BRANCH  14  17
ATOM     17  C   UNL A   1      35.041  31.006  27.821  1.00  0.00     0.041 A 
ATOM     18  C   UNL A   1      31.773  28.364  26.775  1.00  0.00     0.044 C 
ATOM     19  C   UNL A   1      32.917  29.266  27.119  1.00  0.00    -0.051 A 
ATOM     20  C   UNL A   1      32.703  30.637  27.249  1.00  0.00     0.005 A 
ATOM     21  C   UNL A   1      34.208  28.771  27.309  1.00  0.00     0.005 A 
ATOM     22  C   UNL A   1      33.758  31.496  27.579  1.00  0.00     0.026 A 
ATOM     23  C   UNL A   1      35.257  29.633  27.654  1.00  0.00     0.026 A 
ENDBRANCH  14  17
ENDBRANCH   9  13
ENDBRANCH   7   8
ENDBRANCH   4   7
ENDBRANCH   2   3
ENDBRANCH   1   2
BRANCH   1  24
ATOM     24  C   UNL A   1      38.551  31.932  32.511  1.00  0.00     0.023 C 
BRANCH  24  25
ATOM     25  C   UNL A   1      37.307  31.009  32.408  1.00  0.00     0.116 C 
BRANCH  25  26
ATOM     26  N   UNL A   1      37.562  29.689  32.986  1.00  0.00    -0.352 N 
ATOM     27  C   UNL A   1      38.050  28.494  32.492  1.00  0.00     0.251 C 
ATOM     28  H   UNL A   1      37.334  29.643  33.942  1.00  0.00     0.163 HD
ATOM     29  O   UNL A   1      37.723  27.482  33.122  1.00  0.00    -0.269 OA
BRANCH  27  30
ATOM     30  C   UNL A   1      38.946  28.313  31.296  1.00  0.00     0.039 A 
ATOM     31  C   UNL A   1      40.258  28.856  31.325  1.00  0.00     0.014 A 
ATOM     32  C   UNL A   1      38.538  27.754  30.100  1.00  0.00     0.014 A 
ATOM     33  C   UNL A   1      41.162  28.795  30.219  1.00  0.00     0.010 A 
ATOM     34  C   UNL A   1      39.426  27.725  28.998  1.00  0.00     0.010 A 
ATOM     35  C   UNL A   1      40.769  28.200  29.025  1.00  0.00    -0.014 A 
BRANCH  35  36
ATOM     36  C   UNL A   1      41.683  27.751  27.902  1.00  0.00     0.031 A 
ATOM     37  C   UNL A   1      42.658  28.783  27.549  1.00  0.00     0.074 A 
ATOM     38  C   UNL A   1      42.153  26.549  27.451  1.00  0.00     0.049 A 
ATOM     39  N   UNL A   1      43.716  28.877  28.268  1.00  0.00    -0.248 NA
ATOM     40  C   UNL A   1      42.557  29.730  26.460  1.00  0.00     0.031 C 
ATOM     41  C   UNL A   1      41.592  25.233  27.682  1.00  0.00     0.029 A 
ATOM     42  N   UNL A   1      43.402  26.273  26.801  1.00  0.00    -0.354 N 
ATOM     43  C   UNL A   1      44.486  29.864  27.750  1.00  0.00     0.074 A 
ATOM     44  C   UNL A   1      43.745  30.345  26.590  1.00  0.00     0.031 C 
ATOM     45  C   UNL A   1      42.482  24.298  27.281  1.00  0.00     0.029 A 
ATOM     46  C   UNL A   1      43.766  24.912  26.841  1.00  0.00     0.049 A 
ATOM     47  H   UNL A   1      43.951  26.967  26.369  1.00  0.00     0.167 HD
ATOM     48  C   UNL A   1      45.679  30.120  28.348  1.00  0.00     0.031 A 
ATOM     49  C   UNL A   1      44.956  24.372  27.281  1.00  0.00     0.031 A 
ATOM     50  C   UNL A   1      45.913  29.428  29.634  1.00  0.00     0.049 A 
ATOM     51  C   UNL A   1      44.845  24.502  28.766  1.00  0.00     0.074 A 
ATOM     52  C   UNL A   1      46.447  29.777  30.861  1.00  0.00     0.029 A 
ATOM     53  N   UNL A   1      45.467  28.123  29.821  1.00  0.00    -0.354 N 
ATOM     54  N   UNL A   1      45.126  25.609  29.379  1.00  0.00    -0.248 NA
ATOM     55  C   UNL A   1      44.299  23.444  29.599  1.00  0.00     0.031 C 
ATOM     56  C   UNL A   1      46.122  28.744  31.807  1.00  0.00     0.029 A 
ATOM     57  C   UNL A   1      45.432  27.739  31.152  1.00  0.00     0.049 A 
ATOM     58  H   UNL A   1      45.201  27.531  29.081  1.00  0.00     0.167 HD
ATOM     59  C   UNL A   1      44.693  25.466  30.668  1.00  0.00     0.074 A 
ATOM     60  C   UNL A   1      44.133  24.121  30.740  1.00  0.00     0.031 C 
ATOM     61  C   UNL A   1      44.752  26.496  31.555  1.00  0.00     0.031 A 
BRANCH  48  62
ATOM     62  C   UNL A   1      46.681  30.983  27.652  1.00  0.00    -0.014 A 
ATOM     63  C   UNL A   1      46.246  32.207  27.117  1.00  0.00     0.010 A 
ATOM     64  C   UNL A   1      48.059  30.697  27.602  1.00  0.00     0.010 A 
ATOM     65  C   UNL A   1      47.158  33.145  26.618  1.00  0.00     0.020 A 
ATOM     66  C   UNL A   1      48.983  31.646  27.149  1.00  0.00     0.020 A 
ATOM     67  C   UNL A   1      48.526  32.867  26.661  1.00  0.00     0.054 A 
BRANCH  67  68
ATOM     68  S   UNL A   1      49.705  34.124  26.099  1.00  0.00     0.124 S 
ATOM     69  O   UNL A   1      48.820  35.168  25.592  1.00  0.00    -0.237 OA
ATOM     70  O   UNL A   1      50.440  34.448  27.317  1.00  0.00    -0.237 OA
ATOM     71  O   UNL A   1      50.488  33.427  25.079  1.00  0.00    -0.744 OA
ENDBRANCH  67  68
ENDBRANCH  48  62
BRANCH  49  72
ATOM     72  C   UNL A   1      46.412  24.434  26.828  1.00  0.00    -0.014 A 
ATOM     73  C   UNL A   1      47.435  24.545  27.790  1.00  0.00     0.010 A 
ATOM     74  C   UNL A   1      46.776  24.777  25.499  1.00  0.00     0.010 A 
ATOM     75  C   UNL A   1      48.709  25.069  27.455  1.00  0.00     0.020 A 
ATOM     76  C   UNL A   1      48.028  25.321  25.161  1.00  0.00     0.020 A 
ATOM     77  C   UNL A   1      48.985  25.493  26.150  1.00  0.00     0.054 A 
BRANCH  77  78
ATOM     78  S   UNL A   1      50.535  26.383  25.792  1.00  0.00     0.124 S 
ATOM     79  O   UNL A   1      50.311  26.870  24.431  1.00  0.00    -0.237 OA
ATOM     80  O   UNL A   1      50.555  27.413  26.826  1.00  0.00    -0.237 OA
ATOM     81  O   UNL A   1      51.570  25.357  25.907  1.00  0.00    -0.744 OA
ENDBRANCH  77  78
ENDBRANCH  49  72
BRANCH  61  82
ATOM     82  C   UNL A   1      43.935  26.381  32.810  1.00  0.00    -0.014 A 
ATOM     83  C   UNL A   1      42.843  27.213  33.115  1.00  0.00     0.010 A 
ATOM     84  C   UNL A   1      44.362  25.475  33.798  1.00  0.00     0.010 A 
ATOM     85  C   UNL A   1      42.281  27.227  34.398  1.00  0.00     0.020 A 
ATOM     86  C   UNL A   1      43.786  25.457  35.073  1.00  0.00     0.020 A 
ATOM     87  C   UNL A   1      42.767  26.357  35.377  1.00  0.00     0.054 A 
BRANCH  87  88
ATOM     88  S   UNL A   1      42.020  26.361  37.029  1.00  0.00     0.124 S 
ATOM     89  O   UNL A   1      41.074  27.468  36.938  1.00  0.00    -0.237 OA
ATOM     90  O   UNL A   1      41.420  25.032  37.119  1.00  0.00    -0.237 OA
ATOM     91  O   UNL A   1      43.158  26.581  37.921  1.00  0.00    -0.744 OA
ENDBRANCH  87  88
ENDBRANCH  61  82
ENDBRANCH  35  36
ENDBRANCH  27  30
ENDBRANCH  25  26
ENDBRANCH  24  25
ENDBRANCH   1  24
TORSDOF 17
ENDMDL
