MODEL 1
REMARK VINA RESULT:      -8.4      0.000      0.000
REMARK SMILES C[C@H](CC(=O)NCCCCNC(=O)c1ccc(-c2c3nc(c(-c4ccc(S(=O)(=O)[O-])cc4)c4ccc([nH]4)c(-c4ccc(S(=O)(=O)[O-])cc4)c4nc(c(-c5ccc(S(=O)(=O)[O-])cc5)c5ccc2[nH]5)C=C4)C=C3)cc1)c1ccc(O)cc1
REMARK SMILES IDX 8 1 7 2 6 3 4 4 5 5 3 7 2 8 1 9 74 10 75 11 80 12 76 13
REMARK SMILES IDX 79 14 77 15 78 16 9 18 10 19 11 20 12 21 13 23 14 24 15 25
REMARK SMILES IDX 73 26 16 27 72 28 17 29 18 30 19 31 66 32 20 33 71 34 65 35
REMARK SMILES IDX 67 36 21 37 70 38 64 39 63 40 22 42 52 43 33 44 51 45 34 46
REMARK SMILES IDX 37 47 50 48 68 49 35 50 36 51 49 53 69 54 38 55 23 56 24 57
REMARK SMILES IDX 32 58 25 59 31 60 26 61 27 62 28 63 29 64 30 65 53 66 54 67
REMARK SMILES IDX 62 68 55 69 61 70 56 71 57 72 58 73 59 74 60 75 39 76 40 77
REMARK SMILES IDX 48 78 41 79 47 80 42 81 43 82 44 83 45 84 46 85
REMARK H PARENT 6 6 78 17 11 22 67 41 37 52
REMARK Flexibility Score: inf
ROOT
ATOM      1  C   UNL A   1      36.848  33.000  30.421  1.00  0.00     0.023 C 
ENDROOT
BRANCH   1   2
ATOM      2  C   UNL A   1      37.821  34.146  30.674  1.00  0.00     0.116 C 
BRANCH   2   3
ATOM      3  N   UNL A   1      37.623  34.685  32.001  1.00  0.00    -0.356 N 
ATOM      4  C   UNL A   1      38.080  34.214  33.192  1.00  0.00     0.220 C 
ATOM      5  O   UNL A   1      37.681  34.754  34.226  1.00  0.00    -0.275 OA
ATOM      6  H   UNL A   1      37.083  35.507  32.049  1.00  0.00     0.163 HD
BRANCH   4   7
ATOM      7  C   UNL A   1      39.094  33.081  33.250  1.00  0.00     0.108 C 
BRANCH   7   8
ATOM      8  C   UNL A   1      38.635  31.731  33.869  1.00  0.00     0.025 C 
ATOM      9  C   UNL A   1      37.184  31.412  33.475  1.00  0.00     0.013 C 
BRANCH   8  10
ATOM     10  C   UNL A   1      39.628  30.577  33.704  1.00  0.00    -0.044 A 
ATOM     11  C   UNL A   1      40.954  30.730  34.153  1.00  0.00     0.008 A 
ATOM     12  C   UNL A   1      39.279  29.336  33.137  1.00  0.00     0.008 A 
ATOM     13  C   UNL A   1      41.918  29.745  33.921  1.00  0.00     0.046 A 
ATOM     14  C   UNL A   1      40.244  28.344  32.904  1.00  0.00     0.046 A 
ATOM     15  C   UNL A   1      41.565  28.576  33.264  1.00  0.00     0.115 A 
BRANCH  15  16
ATOM     16  O   UNL A   1      42.555  27.689  32.975  1.00  0.00    -0.508 OA
ATOM     17  H   UNL A   1      43.450  27.922  33.123  1.00  0.00     0.293 HD
ENDBRANCH  15  16
ENDBRANCH   8  10
ENDBRANCH   7   8
ENDBRANCH   4   7
ENDBRANCH   2   3
ENDBRANCH   1   2
BRANCH   1  18
ATOM     18  C   UNL A   1      35.499  33.400  29.846  1.00  0.00     0.023 C 
BRANCH  18  19
ATOM     19  C   UNL A   1      35.354  33.097  28.361  1.00  0.00     0.116 C 
BRANCH  19  20
ATOM     20  N   UNL A   1      34.289  32.148  28.049  1.00  0.00    -0.352 N 
ATOM     21  C   UNL A   1      34.380  30.788  27.862  1.00  0.00     0.251 C 
ATOM     22  H   UNL A   1      33.387  32.533  27.960  1.00  0.00     0.163 HD
ATOM     23  O   UNL A   1      33.410  30.157  27.454  1.00  0.00    -0.269 OA
BRANCH  21  24
ATOM     24  C   UNL A   1      35.679  30.119  28.107  1.00  0.00     0.039 A 
ATOM     25  C   UNL A   1      36.637  30.092  27.093  1.00  0.00     0.014 A 
ATOM     26  C   UNL A   1      35.978  29.603  29.370  1.00  0.00     0.014 A 
ATOM     27  C   UNL A   1      37.927  29.637  27.380  1.00  0.00     0.010 A 
ATOM     28  C   UNL A   1      37.286  29.260  29.682  1.00  0.00     0.010 A 
ATOM     29  C   UNL A   1      38.278  29.271  28.691  1.00  0.00    -0.014 A 
BRANCH  29  30
ATOM     30  C   UNL A   1      39.669  28.898  29.054  1.00  0.00     0.031 A 
ATOM     31  C   UNL A   1      40.567  29.903  29.730  1.00  0.00     0.074 A 
ATOM     32  C   UNL A   1      40.155  27.692  28.695  1.00  0.00     0.049 A 
ATOM     33  N   UNL A   1      41.830  29.796  30.049  1.00  0.00    -0.248 NA
ATOM     34  C   UNL A   1      39.977  31.214  30.048  1.00  0.00     0.031 C 
ATOM     35  C   UNL A   1      39.417  26.658  27.964  1.00  0.00     0.029 A 
ATOM     36  N   UNL A   1      41.393  27.133  28.893  1.00  0.00    -0.354 N 
ATOM     37  C   UNL A   1      42.193  31.035  30.568  1.00  0.00     0.074 A 
ATOM     38  C   UNL A   1      41.034  31.892  30.466  1.00  0.00     0.031 C 
ATOM     39  C   UNL A   1      40.201  25.578  27.815  1.00  0.00     0.029 A 
ATOM     40  C   UNL A   1      41.505  25.851  28.406  1.00  0.00     0.049 A 
ATOM     41  H   UNL A   1      42.131  27.604  29.342  1.00  0.00     0.167 HD
ATOM     42  C   UNL A   1      43.375  31.417  31.109  1.00  0.00     0.031 A 
ATOM     43  C   UNL A   1      42.541  24.990  28.440  1.00  0.00     0.031 A 
ATOM     44  C   UNL A   1      44.510  30.548  31.252  1.00  0.00     0.049 A 
ATOM     45  C   UNL A   1      43.818  25.411  29.112  1.00  0.00     0.074 A 
ATOM     46  C   UNL A   1      45.728  30.814  31.852  1.00  0.00     0.029 A 
ATOM     47  N   UNL A   1      44.560  29.238  30.803  1.00  0.00    -0.354 N 
ATOM     48  N   UNL A   1      44.120  26.565  29.657  1.00  0.00    -0.248 NA
ATOM     49  C   UNL A   1      44.887  24.407  29.190  1.00  0.00     0.031 C 
ATOM     50  C   UNL A   1      46.526  29.669  31.743  1.00  0.00     0.029 A 
ATOM     51  C   UNL A   1      45.788  28.680  31.112  1.00  0.00     0.049 A 
ATOM     52  H   UNL A   1      43.829  28.773  30.334  1.00  0.00     0.167 HD
ATOM     53  C   UNL A   1      45.404  26.417  30.167  1.00  0.00     0.074 A 
ATOM     54  C   UNL A   1      45.814  25.058  29.878  1.00  0.00     0.031 C 
ATOM     55  C   UNL A   1      46.174  27.324  30.818  1.00  0.00     0.031 A 
BRANCH  42  56
ATOM     56  C   UNL A   1      43.481  32.838  31.598  1.00  0.00    -0.014 A 
ATOM     57  C   UNL A   1      43.887  33.873  30.735  1.00  0.00     0.010 A 
ATOM     58  C   UNL A   1      43.163  33.148  32.933  1.00  0.00     0.010 A 
ATOM     59  C   UNL A   1      44.029  35.179  31.209  1.00  0.00     0.020 A 
ATOM     60  C   UNL A   1      43.274  34.459  33.405  1.00  0.00     0.020 A 
ATOM     61  C   UNL A   1      43.728  35.461  32.544  1.00  0.00     0.054 A 
BRANCH  61  62
ATOM     62  S   UNL A   1      43.915  37.167  33.135  1.00  0.00     0.124 S 
ATOM     63  O   UNL A   1      42.759  37.305  34.019  1.00  0.00    -0.237 OA
ATOM     64  O   UNL A   1      45.214  37.137  33.802  1.00  0.00    -0.237 OA
ATOM     65  O   UNL A   1      43.864  37.963  31.911  1.00  0.00    -0.744 OA
ENDBRANCH  61  62
ENDBRANCH  42  56
BRANCH  43  66
ATOM     66  C   UNL A   1      42.391  23.624  27.868  1.00  0.00    -0.014 A 
ATOM     67  C   UNL A   1      43.125  23.251  26.727  1.00  0.00     0.010 A 
ATOM     68  C   UNL A   1      41.531  22.686  28.465  1.00  0.00     0.010 A 
ATOM     69  C   UNL A   1      42.987  21.971  26.183  1.00  0.00     0.020 A 
ATOM     70  C   UNL A   1      41.408  21.397  27.937  1.00  0.00     0.020 A 
ATOM     71  C   UNL A   1      42.129  21.052  26.791  1.00  0.00     0.054 A 
BRANCH  71  72
ATOM     72  S   UNL A   1      42.005  19.378  26.101  1.00  0.00     0.124 S 
ATOM     73  O   UNL A   1      42.601  18.568  27.160  1.00  0.00    -0.237 OA
ATOM     74  O   UNL A   1      40.566  19.217  25.914  1.00  0.00    -0.237 OA
ATOM     75  O   UNL A   1      42.780  19.462  24.865  1.00  0.00    -0.744 OA
ENDBRANCH  71  72
ENDBRANCH  43  66
BRANCH  55  76
ATOM     76  C   UNL A   1      47.523  26.861  31.294  1.00  0.00    -0.014 A 
ATOM     77  C   UNL A   1      48.659  26.959  30.471  1.00  0.00     0.010 A 
ATOM     78  C   UNL A   1      47.661  26.359  32.601  1.00  0.00     0.010 A 
ATOM     79  C   UNL A   1      49.903  26.524  30.933  1.00  0.00     0.020 A 
ATOM     80  C   UNL A   1      48.908  25.947  33.075  1.00  0.00     0.020 A 
ATOM     81  C   UNL A   1      50.018  26.017  32.231  1.00  0.00     0.054 A 
BRANCH  81  82
ATOM     82  S   UNL A   1      51.648  25.484  32.822  1.00  0.00     0.124 S 
ATOM     83  O   UNL A   1      51.340  24.199  33.442  1.00  0.00    -0.237 OA
ATOM     84  O   UNL A   1      52.432  25.417  31.591  1.00  0.00    -0.237 OA
ATOM     85  O   UNL A   1      52.044  26.546  33.746  1.00  0.00    -0.744 OA
ENDBRANCH  81  82
ENDBRANCH  55  76
ENDBRANCH  29  30
ENDBRANCH  21  24
ENDBRANCH  19  20
ENDBRANCH  18  19
ENDBRANCH   1  18
TORSDOF 17
ENDMDL
MODEL 2
REMARK VINA RESULT:      -8.3      4.594     11.463
REMARK SMILES C[C@H](CC(=O)NCCCCNC(=O)c1ccc(-c2c3nc(c(-c4ccc(S(=O)(=O)[O-])cc4)c4ccc([nH]4)c(-c4ccc(S(=O)(=O)[O-])cc4)c4nc(c(-c5ccc(S(=O)(=O)[O-])cc5)c5ccc2[nH]5)C=C4)C=C3)cc1)c1ccc(O)cc1
REMARK SMILES IDX 8 1 7 2 6 3 4 4 5 5 3 7 2 8 1 9 74 10 75 11 80 12 76 13
REMARK SMILES IDX 79 14 77 15 78 16 9 18 10 19 11 20 12 21 13 23 14 24 15 25
REMARK SMILES IDX 73 26 16 27 72 28 17 29 18 30 19 31 66 32 20 33 71 34 65 35
REMARK SMILES IDX 67 36 21 37 70 38 64 39 63 40 22 42 52 43 33 44 51 45 34 46
REMARK SMILES IDX 37 47 50 48 68 49 35 50 36 51 49 53 69 54 38 55 23 56 24 57
REMARK SMILES IDX 32 58 25 59 31 60 26 61 27 62 28 63 29 64 30 65 53 66 54 67
REMARK SMILES IDX 62 68 55 69 61 70 56 71 57 72 58 73 59 74 60 75 39 76 40 77
REMARK SMILES IDX 48 78 41 79 47 80 42 81 43 82 44 83 45 84 46 85
REMARK H PARENT 6 6 78 17 11 22 67 41 37 52
REMARK Flexibility Score: inf
ROOT
ATOM      1  C   UNL A   1      35.137  23.984  23.716  1.00  0.00     0.023 C 
ENDROOT
BRANCH   1   2
ATOM      2  C   UNL A   1      33.897  23.351  23.094  1.00  0.00     0.116 C 
BRANCH   2   3
ATOM      3  N   UNL A   1      32.844  23.243  24.080  1.00  0.00    -0.356 N 
ATOM      4  C   UNL A   1      32.143  22.143  24.464  1.00  0.00     0.220 C 
ATOM      5  O   UNL A   1      31.190  22.298  25.230  1.00  0.00    -0.275 OA
ATOM      6  H   UNL A   1      32.603  24.082  24.535  1.00  0.00     0.163 HD
BRANCH   4   7
ATOM      7  C   UNL A   1      32.549  20.752  24.000  1.00  0.00     0.108 C 
BRANCH   7   8
ATOM      8  C   UNL A   1      33.746  20.071  24.718  1.00  0.00     0.025 C 
ATOM      9  C   UNL A   1      34.063  20.776  26.046  1.00  0.00     0.013 C 
BRANCH   8  10
ATOM     10  C   UNL A   1      33.670  18.543  24.789  1.00  0.00    -0.044 A 
ATOM     11  C   UNL A   1      32.618  17.930  25.497  1.00  0.00     0.008 A 
ATOM     12  C   UNL A   1      34.598  17.695  24.154  1.00  0.00     0.008 A 
ATOM     13  C   UNL A   1      32.575  16.545  25.679  1.00  0.00     0.046 A 
ATOM     14  C   UNL A   1      34.556  16.304  24.333  1.00  0.00     0.046 A 
ATOM     15  C   UNL A   1      33.565  15.746  25.128  1.00  0.00     0.115 A 
BRANCH  15  16
ATOM     16  O   UNL A   1      33.534  14.416  25.412  1.00  0.00    -0.508 OA
ATOM     17  H   UNL A   1      34.312  13.901  25.329  1.00  0.00     0.293 HD
ENDBRANCH  15  16
ENDBRANCH   8  10
ENDBRANCH   7   8
ENDBRANCH   4   7
ENDBRANCH   2   3
ENDBRANCH   1   2
BRANCH   1  18
ATOM     18  C   UNL A   1      36.282  23.029  24.014  1.00  0.00     0.023 C 
BRANCH  18  19
ATOM     19  C   UNL A   1      37.051  23.375  25.281  1.00  0.00     0.116 C 
BRANCH  19  20
ATOM     20  N   UNL A   1      38.224  22.537  25.513  1.00  0.00    -0.352 N 
ATOM     21  C   UNL A   1      39.407  22.870  26.132  1.00  0.00     0.251 C 
ATOM     22  H   UNL A   1      38.159  21.611  25.183  1.00  0.00     0.163 HD
ATOM     23  O   UNL A   1      40.353  22.089  26.109  1.00  0.00    -0.269 OA
BRANCH  21  24
ATOM     24  C   UNL A   1      39.529  24.202  26.769  1.00  0.00     0.039 A 
ATOM     25  C   UNL A   1      39.024  24.393  28.056  1.00  0.00     0.014 A 
ATOM     26  C   UNL A   1      40.225  25.228  26.128  1.00  0.00     0.014 A 
ATOM     27  C   UNL A   1      39.307  25.582  28.734  1.00  0.00     0.010 A 
ATOM     28  C   UNL A   1      40.601  26.357  26.843  1.00  0.00     0.010 A 
ATOM     29  C   UNL A   1      40.145  26.550  28.154  1.00  0.00    -0.014 A 
BRANCH  29  30
ATOM     30  C   UNL A   1      40.562  27.769  28.894  1.00  0.00     0.031 A 
ATOM     31  C   UNL A   1      41.912  27.818  29.564  1.00  0.00     0.074 A 
ATOM     32  C   UNL A   1      39.696  28.792  29.044  1.00  0.00     0.049 A 
ATOM     33  N   UNL A   1      42.422  28.754  30.323  1.00  0.00    -0.248 NA
ATOM     34  C   UNL A   1      42.783  26.644  29.395  1.00  0.00     0.031 C 
ATOM     35  C   UNL A   1      38.329  28.836  28.516  1.00  0.00     0.029 A 
ATOM     36  N   UNL A   1      39.836  29.994  29.692  1.00  0.00    -0.354 N 
ATOM     37  C   UNL A   1      43.652  28.264  30.749  1.00  0.00     0.074 A 
ATOM     38  C   UNL A   1      43.784  26.928  30.212  1.00  0.00     0.031 C 
ATOM     39  C   UNL A   1      37.775  30.020  28.823  1.00  0.00     0.029 A 
ATOM     40  C   UNL A   1      38.729  30.806  29.597  1.00  0.00     0.049 A 
ATOM     41  H   UNL A   1      40.652  30.252  30.177  1.00  0.00     0.167 HD
ATOM     42  C   UNL A   1      44.602  28.880  31.493  1.00  0.00     0.031 A 
ATOM     43  C   UNL A   1      38.512  32.046  30.073  1.00  0.00     0.031 A 
ATOM     44  C   UNL A   1      44.488  30.226  31.984  1.00  0.00     0.049 A 
ATOM     45  C   UNL A   1      39.608  32.739  30.834  1.00  0.00     0.074 A 
ATOM     46  C   UNL A   1      45.421  30.969  32.685  1.00  0.00     0.029 A 
ATOM     47  N   UNL A   1      43.375  31.035  31.813  1.00  0.00    -0.354 N 
ATOM     48  N   UNL A   1      40.791  32.283  31.170  1.00  0.00    -0.248 NA
ATOM     49  C   UNL A   1      39.346  34.119  31.263  1.00  0.00     0.031 C 
ATOM     50  C   UNL A   1      44.862  32.223  32.958  1.00  0.00     0.029 A 
ATOM     51  C   UNL A   1      43.597  32.271  32.393  1.00  0.00     0.049 A 
ATOM     52  H   UNL A   1      42.550  30.769  31.346  1.00  0.00     0.167 HD
ATOM     53  C   UNL A   1      41.426  33.332  31.826  1.00  0.00     0.074 A 
ATOM     54  C   UNL A   1      40.500  34.447  31.826  1.00  0.00     0.031 C 
ATOM     55  C   UNL A   1      42.664  33.368  32.378  1.00  0.00     0.031 A 
BRANCH  42  56
ATOM     56  C   UNL A   1      45.851  28.097  31.801  1.00  0.00    -0.014 A 
ATOM     57  C   UNL A   1      46.954  28.120  30.927  1.00  0.00     0.010 A 
ATOM     58  C   UNL A   1      45.930  27.336  32.981  1.00  0.00     0.010 A 
ATOM     59  C   UNL A   1      48.089  27.353  31.197  1.00  0.00     0.020 A 
ATOM     60  C   UNL A   1      47.077  26.591  33.272  1.00  0.00     0.020 A 
ATOM     61  C   UNL A   1      48.139  26.586  32.365  1.00  0.00     0.054 A 
BRANCH  61  62
ATOM     62  S   UNL A   1      49.628  25.603  32.696  1.00  0.00     0.124 S 
ATOM     63  O   UNL A   1      49.128  24.617  33.652  1.00  0.00    -0.237 OA
ATOM     64  O   UNL A   1      49.969  25.080  31.377  1.00  0.00    -0.237 OA
ATOM     65  O   UNL A   1      50.571  26.577  33.240  1.00  0.00    -0.744 OA
ENDBRANCH  61  62
ENDBRANCH  42  56
BRANCH  43  66
ATOM     66  C   UNL A   1      37.221  32.734  29.796  1.00  0.00    -0.014 A 
ATOM     67  C   UNL A   1      36.160  32.646  30.716  1.00  0.00     0.010 A 
ATOM     68  C   UNL A   1      37.048  33.491  28.623  1.00  0.00     0.010 A 
ATOM     69  C   UNL A   1      34.945  33.286  30.459  1.00  0.00     0.020 A 
ATOM     70  C   UNL A   1      35.841  34.151  28.375  1.00  0.00     0.020 A 
ATOM     71  C   UNL A   1      34.792  34.035  29.290  1.00  0.00     0.054 A 
BRANCH  71  72
ATOM     72  S   UNL A   1      33.225  34.903  29.003  1.00  0.00     0.124 S 
ATOM     73  O   UNL A   1      33.679  36.171  28.439  1.00  0.00    -0.237 OA
ATOM     74  O   UNL A   1      32.533  34.010  28.077  1.00  0.00    -0.237 OA
ATOM     75  O   UNL A   1      32.632  34.986  30.336  1.00  0.00    -0.744 OA
ENDBRANCH  71  72
ENDBRANCH  43  66
BRANCH  55  76
ATOM     76  C   UNL A   1      43.101  34.668  32.994  1.00  0.00    -0.014 A 
ATOM     77  C   UNL A   1      43.790  35.636  32.241  1.00  0.00     0.010 A 
ATOM     78  C   UNL A   1      42.781  34.940  34.337  1.00  0.00     0.010 A 
ATOM     79  C   UNL A   1      44.186  36.837  32.834  1.00  0.00     0.020 A 
ATOM     80  C   UNL A   1      43.153  36.149  34.925  1.00  0.00     0.020 A 
ATOM     81  C   UNL A   1      43.869  37.084  34.173  1.00  0.00     0.054 A 
BRANCH  81  82
ATOM     82  S   UNL A   1      44.367  38.662  34.915  1.00  0.00     0.124 S 
ATOM     83  O   UNL A   1      43.461  39.603  34.263  1.00  0.00    -0.237 OA
ATOM     84  O   UNL A   1      44.125  38.440  36.339  1.00  0.00    -0.237 OA
ATOM     85  O   UNL A   1      45.774  38.789  34.544  1.00  0.00    -0.744 OA
ENDBRANCH  81  82
ENDBRANCH  55  76
ENDBRANCH  29  30
ENDBRANCH  21  24
ENDBRANCH  19  20
ENDBRANCH  18  19
ENDBRANCH   1  18
TORSDOF 17
ENDMDL
MODEL 3
REMARK VINA RESULT:      -8.0      3.204      6.589
REMARK SMILES C[C@H](CC(=O)NCCCCNC(=O)c1ccc(-c2c3nc(c(-c4ccc(S(=O)(=O)[O-])cc4)c4ccc([nH]4)c(-c4ccc(S(=O)(=O)[O-])cc4)c4nc(c(-c5ccc(S(=O)(=O)[O-])cc5)c5ccc2[nH]5)C=C4)C=C3)cc1)c1ccc(O)cc1
REMARK SMILES IDX 8 1 7 2 6 3 4 4 5 5 3 7 2 8 1 9 74 10 75 11 80 12 76 13
REMARK SMILES IDX 79 14 77 15 78 16 9 18 10 19 11 20 12 21 13 23 14 24 15 25
REMARK SMILES IDX 73 26 16 27 72 28 17 29 18 30 19 31 66 32 20 33 71 34 65 35
REMARK SMILES IDX 67 36 21 37 70 38 64 39 63 40 22 42 52 43 33 44 51 45 34 46
REMARK SMILES IDX 37 47 50 48 68 49 35 50 36 51 49 53 69 54 38 55 23 56 24 57
REMARK SMILES IDX 32 58 25 59 31 60 26 61 27 62 28 63 29 64 30 65 53 66 54 67
REMARK SMILES IDX 62 68 55 69 61 70 56 71 57 72 58 73 59 74 60 75 39 76 40 77
REMARK SMILES IDX 48 78 41 79 47 80 42 81 43 82 44 83 45 84 46 85
REMARK H PARENT 6 6 78 17 11 22 67 41 37 52
REMARK Flexibility Score: inf
ROOT
ATOM      1  C   UNL A   1      32.588  26.711  26.412  1.00  0.00     0.023 C 
ENDROOT
BRANCH   1   2
ATOM      2  C   UNL A   1      31.917  26.506  25.058  1.00  0.00     0.116 C 
BRANCH   2   3
ATOM      3  N   UNL A   1      32.482  27.409  24.080  1.00  0.00    -0.356 N 
ATOM      4  C   UNL A   1      31.842  28.229  23.204  1.00  0.00     0.220 C 
ATOM      5  O   UNL A   1      32.517  28.821  22.359  1.00  0.00    -0.275 OA
ATOM      6  H   UNL A   1      33.465  27.435  24.044  1.00  0.00     0.163 HD
BRANCH   4   7
ATOM      7  C   UNL A   1      30.339  28.449  23.290  1.00  0.00     0.108 C 
BRANCH   7   8
ATOM      8  C   UNL A   1      29.836  29.774  23.926  1.00  0.00     0.025 C 
ATOM      9  C   UNL A   1      30.876  30.342  24.904  1.00  0.00     0.013 C 
BRANCH   8  10
ATOM     10  C   UNL A   1      29.250  30.783  22.934  1.00  0.00    -0.044 A 
ATOM     11  C   UNL A   1      29.071  32.123  23.327  1.00  0.00     0.008 A 
ATOM     12  C   UNL A   1      28.893  30.446  21.614  1.00  0.00     0.008 A 
ATOM     13  C   UNL A   1      28.438  33.047  22.492  1.00  0.00     0.046 A 
ATOM     14  C   UNL A   1      28.259  31.373  20.772  1.00  0.00     0.046 A 
ATOM     15  C   UNL A   1      28.003  32.655  21.235  1.00  0.00     0.115 A 
BRANCH  15  16
ATOM     16  O   UNL A   1      27.307  33.562  20.496  1.00  0.00    -0.508 OA
ATOM     17  H   UNL A   1      27.251  33.465  19.566  1.00  0.00     0.293 HD
ENDBRANCH  15  16
ENDBRANCH   8  10
ENDBRANCH   7   8
ENDBRANCH   4   7
ENDBRANCH   2   3
ENDBRANCH   1   2
BRANCH   1  18
ATOM     18  C   UNL A   1      32.503  28.119  26.979  1.00  0.00     0.023 C 
BRANCH  18  19
ATOM     19  C   UNL A   1      33.817  28.885  26.909  1.00  0.00     0.116 C 
BRANCH  19  20
ATOM     20  N   UNL A   1      33.779  30.192  27.558  1.00  0.00    -0.352 N 
ATOM     21  C   UNL A   1      34.740  30.788  28.342  1.00  0.00     0.251 C 
ATOM     22  H   UNL A   1      32.957  30.715  27.417  1.00  0.00     0.163 HD
ATOM     23  O   UNL A   1      34.487  31.831  28.938  1.00  0.00    -0.269 OA
BRANCH  21  24
ATOM     24  C   UNL A   1      36.054  30.121  28.492  1.00  0.00     0.039 A 
ATOM     25  C   UNL A   1      36.975  30.179  27.446  1.00  0.00     0.014 A 
ATOM     26  C   UNL A   1      36.403  29.519  29.703  1.00  0.00     0.014 A 
ATOM     27  C   UNL A   1      38.280  29.723  27.654  1.00  0.00     0.010 A 
ATOM     28  C   UNL A   1      37.725  29.173  29.944  1.00  0.00     0.010 A 
ATOM     29  C   UNL A   1      38.681  29.268  28.923  1.00  0.00    -0.014 A 
BRANCH  29  30
ATOM     30  C   UNL A   1      40.088  28.888  29.209  1.00  0.00     0.031 A 
ATOM     31  C   UNL A   1      41.021  29.883  29.852  1.00  0.00     0.074 A 
ATOM     32  C   UNL A   1      40.554  27.688  28.808  1.00  0.00     0.049 A 
ATOM     33  N   UNL A   1      42.299  29.771  30.104  1.00  0.00    -0.248 NA
ATOM     34  C   UNL A   1      40.451  31.190  30.219  1.00  0.00     0.031 C 
ATOM     35  C   UNL A   1      39.778  26.665  28.101  1.00  0.00     0.029 A 
ATOM     36  N   UNL A   1      41.799  27.125  28.934  1.00  0.00    -0.354 N 
ATOM     37  C   UNL A   1      42.690  31.001  30.622  1.00  0.00     0.074 A 
ATOM     38  C   UNL A   1      41.528  31.861  30.593  1.00  0.00     0.031 C 
ATOM     39  C   UNL A   1      40.551  25.586  27.896  1.00  0.00     0.029 A 
ATOM     40  C   UNL A   1      41.884  25.850  28.424  1.00  0.00     0.049 A 
ATOM     41  H   UNL A   1      42.560  27.589  29.351  1.00  0.00     0.167 HD
ATOM     42  C   UNL A   1      43.898  31.375  31.108  1.00  0.00     0.031 A 
ATOM     43  C   UNL A   1      42.918  24.988  28.393  1.00  0.00     0.031 A 
ATOM     44  C   UNL A   1      45.038  30.503  31.181  1.00  0.00     0.049 A 
ATOM     45  C   UNL A   1      44.229  25.398  29.004  1.00  0.00     0.074 A 
ATOM     46  C   UNL A   1      46.286  30.758  31.721  1.00  0.00     0.029 A 
ATOM     47  N   UNL A   1      45.063  29.199  30.710  1.00  0.00    -0.354 N 
ATOM     48  N   UNL A   1      44.560  26.544  29.550  1.00  0.00    -0.248 NA
ATOM     49  C   UNL A   1      45.299  24.392  29.014  1.00  0.00     0.031 C 
ATOM     50  C   UNL A   1      47.074  29.615  31.555  1.00  0.00     0.029 A 
ATOM     51  C   UNL A   1      46.304  28.636  30.948  1.00  0.00     0.049 A 
ATOM     52  H   UNL A   1      44.308  28.742  30.272  1.00  0.00     0.167 HD
ATOM     53  C   UNL A   1      45.868  26.387  29.992  1.00  0.00     0.074 A 
ATOM     54  C   UNL A   1      46.261  25.031  29.663  1.00  0.00     0.031 C 
ATOM     55  C   UNL A   1      46.672  27.283  30.616  1.00  0.00     0.031 A 
BRANCH  42  56
ATOM     56  C   UNL A   1      44.031  32.789  31.612  1.00  0.00    -0.014 A 
ATOM     57  C   UNL A   1      43.670  33.124  32.930  1.00  0.00     0.010 A 
ATOM     58  C   UNL A   1      44.529  33.793  30.763  1.00  0.00     0.010 A 
ATOM     59  C   UNL A   1      43.752  34.446  33.373  1.00  0.00     0.020 A 
ATOM     60  C   UNL A   1      44.642  35.112  31.211  1.00  0.00     0.020 A 
ATOM     61  C   UNL A   1      44.230  35.433  32.507  1.00  0.00     0.054 A 
BRANCH  61  62
ATOM     62  S   UNL A   1      44.332  37.142  33.108  1.00  0.00     0.124 S 
ATOM     63  O   UNL A   1      43.837  37.008  34.476  1.00  0.00    -0.237 OA
ATOM     64  O   UNL A   1      45.754  37.445  32.982  1.00  0.00    -0.237 OA
ATOM     65  O   UNL A   1      43.458  37.880  32.198  1.00  0.00    -0.744 OA
ENDBRANCH  61  62
ENDBRANCH  42  56
BRANCH  43  66
ATOM     66  C   UNL A   1      42.738  23.630  27.809  1.00  0.00    -0.014 A 
ATOM     67  C   UNL A   1      42.924  23.422  26.431  1.00  0.00     0.010 A 
ATOM     68  C   UNL A   1      42.396  22.538  28.626  1.00  0.00     0.010 A 
ATOM     69  C   UNL A   1      42.753  22.151  25.876  1.00  0.00     0.020 A 
ATOM     70  C   UNL A   1      42.246  21.260  28.078  1.00  0.00     0.020 A 
ATOM     71  C   UNL A   1      42.415  21.077  26.703  1.00  0.00     0.054 A 
BRANCH  71  72
ATOM     72  S   UNL A   1      42.251  19.425  25.972  1.00  0.00     0.124 S 
ATOM     73  O   UNL A   1      42.634  18.561  27.085  1.00  0.00    -0.237 OA
ATOM     74  O   UNL A   1      40.840  19.383  25.594  1.00  0.00    -0.237 OA
ATOM     75  O   UNL A   1      43.186  19.455  24.850  1.00  0.00    -0.744 OA
ENDBRANCH  71  72
ENDBRANCH  43  66
BRANCH  55  76
ATOM     76  C   UNL A   1      48.043  26.813  31.015  1.00  0.00    -0.014 A 
ATOM     77  C   UNL A   1      48.289  26.287  32.295  1.00  0.00     0.010 A 
ATOM     78  C   UNL A   1      49.092  26.862  30.077  1.00  0.00     0.010 A 
ATOM     79  C   UNL A   1      49.570  25.855  32.644  1.00  0.00     0.020 A 
ATOM     80  C   UNL A   1      50.367  26.408  30.415  1.00  0.00     0.020 A 
ATOM     81  C   UNL A   1      50.602  25.922  31.703  1.00  0.00     0.054 A 
BRANCH  81  82
ATOM     82  S   UNL A   1      52.252  25.329  32.168  1.00  0.00     0.124 S 
ATOM     83  O   UNL A   1      52.030  23.893  32.308  1.00  0.00    -0.237 OA
ATOM     84  O   UNL A   1      53.073  25.730  31.027  1.00  0.00    -0.237 OA
ATOM     85  O   UNL A   1      52.538  26.042  33.411  1.00  0.00    -0.744 OA
ENDBRANCH  81  82
ENDBRANCH  55  76
ENDBRANCH  29  30
ENDBRANCH  21  24
ENDBRANCH  19  20
ENDBRANCH  18  19
ENDBRANCH   1  18
TORSDOF 17
ENDMDL
