MODEL 1
REMARK VINA RESULT:     -13.3      0.000      0.000
REMARK SMILES CN1C(=O)/C(=C(\SC2=[NH+][C@@H]3N=c4ccccc4=C3N=N2)C(=O)NCCCCNC(=O)c2ccc(-c3c4nc(c(-c5ccc(S(=O)(=O)[O-])cc5)c5ccc([nH]5)c(-c5ccc(S(=O)(=O)[O-])cc5)c5nc(c(-c6ccc(S(=O)(=O)[O-])cc6)c6ccc3[nH]6)C=C5)C=C4)cc2)c2ccccc21
REMARK SMILES IDX 26 1 25 2 24 3 23 4 21 5 22 6 6 8 1 9 2 10 3 11 96 12 4 13
REMARK SMILES IDX 5 14 91 15 95 16 92 17 94 18 93 19 7 20 8 21 9 22 20 23
REMARK SMILES IDX 10 24 19 26 11 27 18 28 12 29 17 30 13 31 16 32 14 33 15 34
REMARK SMILES IDX 27 35 28 36 29 37 30 39 31 40 32 41 90 42 33 43 89 44 34 45
REMARK SMILES IDX 35 46 36 47 83 48 37 49 88 50 82 51 84 52 38 53 87 54 81 55
REMARK SMILES IDX 80 56 39 58 69 59 50 60 68 61 51 62 54 63 67 64 85 65 52 66
REMARK SMILES IDX 53 67 66 69 86 70 55 71 40 72 41 73 49 74 42 75 48 76 43 77
REMARK SMILES IDX 44 78 45 79 46 80 47 81 70 82 71 83 79 84 72 85 78 86 73 87
REMARK SMILES IDX 74 88 75 89 76 90 77 91 56 92 57 93 65 94 58 95 64 96 59 97
REMARK SMILES IDX 60 98 61 99 62 100 63 101
REMARK H PARENT 23 7 9 25 28 38 84 57 54 68
REMARK Flexibility Score: inf
ROOT
ATOM      1  C   UNL A   1      35.690  22.591  24.862  1.00  0.00     0.023 C 
ENDROOT
BRANCH   1   2
ATOM      2  C   UNL A   1      34.976  23.563  23.917  1.00  0.00     0.023 C 
BRANCH   2   3
ATOM      3  C   UNL A   1      34.532  24.898  24.528  1.00  0.00     0.116 C 
BRANCH   3   4
ATOM      4  N   UNL A   1      33.522  24.683  25.551  1.00  0.00    -0.352 N 
ATOM      5  C   UNL A   1      32.231  25.034  25.773  1.00  0.00     0.259 C 
ATOM      6  O   UNL A   1      31.918  24.845  26.952  1.00  0.00    -0.269 OA
ATOM      7  H   UNL A   1      33.872  24.131  26.286  1.00  0.00     0.163 HD
BRANCH   5   8
ATOM      8  C   UNL A   1      31.215  25.557  24.761  1.00  0.00     0.098 C 
ATOM      9  C   UNL A   1      29.921  29.621  22.629  1.00  0.00     0.153 C 
ATOM     10  N   UNL A   1      30.302  28.753  23.707  1.00  0.00    -0.311 N 
ATOM     11  C   UNL A   1      29.818  27.468  23.907  1.00  0.00     0.260 C 
ATOM     12  C   UNL A   1      31.073  29.131  24.813  1.00  0.00     0.052 A 
ATOM     13  O   UNL A   1      28.780  26.980  23.487  1.00  0.00    -0.269 OA
ATOM     14  C   UNL A   1      30.785  26.847  24.874  1.00  0.00     0.069 C 
ATOM     15  C   UNL A   1      31.264  28.022  25.651  1.00  0.00     0.012 A 
ATOM     16  C   UNL A   1      31.442  30.419  25.172  1.00  0.00     0.027 A 
ATOM     17  C   UNL A   1      31.675  28.240  26.957  1.00  0.00     0.011 A 
ATOM     18  C   UNL A   1      31.929  30.616  26.464  1.00  0.00     0.002 A 
ATOM     19  C   UNL A   1      32.017  29.539  27.357  1.00  0.00     0.001 A 
BRANCH   8  20
ATOM     20  S   UNL A   1      30.580  24.394  23.619  1.00  0.00     0.011 SA
BRANCH  20  21
ATOM     21  C   UNL A   1      31.255  22.772  23.923  1.00  0.00     0.386 C 
ATOM     22  N   UNL A   1      31.532  22.024  22.896  1.00  0.00    -0.235 N 
ATOM     23  N   UNL A   1      31.636  22.521  25.226  1.00  0.00     0.088 NA
ATOM     24  C   UNL A   1      32.543  21.012  23.207  1.00  0.00     0.348 C 
ATOM     25  H   UNL A   1      31.111  22.127  22.011  1.00  0.00     0.308 HD
ATOM     26  N   UNL A   1      32.187  21.460  25.577  1.00  0.00    -0.033 NA
ATOM     27  N   UNL A   1      32.475  19.761  22.410  1.00  0.00    -0.232 NA
ATOM     28  C   UNL A   1      32.478  20.567  24.615  1.00  0.00     0.165 C 
ATOM     29  C   UNL A   1      32.644  18.842  23.322  1.00  0.00     0.072 A 
ATOM     30  C   UNL A   1      32.664  19.263  24.733  1.00  0.00     0.032 A 
ATOM     31  C   UNL A   1      32.771  17.379  23.107  1.00  0.00     0.029 A 
ATOM     32  C   UNL A   1      32.738  18.349  25.826  1.00  0.00     0.012 A 
ATOM     33  C   UNL A   1      32.872  16.561  24.173  1.00  0.00     0.002 A 
ATOM     34  C   UNL A   1      32.852  17.040  25.548  1.00  0.00     0.001 A 
ENDBRANCH  20  21
ENDBRANCH   8  20
ENDBRANCH   5   8
ENDBRANCH   3   4
ENDBRANCH   2   3
ENDBRANCH   1   2
BRANCH   1  35
ATOM     35  C   UNL A   1      36.738  23.210  25.781  1.00  0.00     0.116 C 
BRANCH  35  36
ATOM     36  N   UNL A   1      37.941  22.401  25.909  1.00  0.00    -0.352 N 
ATOM     37  C   UNL A   1      39.182  22.748  26.393  1.00  0.00     0.251 C 
ATOM     38  H   UNL A   1      37.855  21.468  25.606  1.00  0.00     0.163 HD
ATOM     39  O   UNL A   1      40.113  21.951  26.326  1.00  0.00    -0.269 OA
BRANCH  37  40
ATOM     40  C   UNL A   1      39.402  24.100  26.952  1.00  0.00     0.039 A 
ATOM     41  C   UNL A   1      40.015  25.098  26.191  1.00  0.00     0.014 A 
ATOM     42  C   UNL A   1      39.018  24.361  28.272  1.00  0.00     0.014 A 
ATOM     43  C   UNL A   1      40.394  26.291  26.798  1.00  0.00     0.010 A 
ATOM     44  C   UNL A   1      39.335  25.590  28.858  1.00  0.00     0.010 A 
ATOM     45  C   UNL A   1      40.074  26.544  28.143  1.00  0.00    -0.014 A 
BRANCH  45  46
ATOM     46  C   UNL A   1      40.542  27.801  28.781  1.00  0.00     0.031 A 
ATOM     47  C   UNL A   1      41.990  27.978  29.156  1.00  0.00     0.074 A 
ATOM     48  C   UNL A   1      39.673  28.817  28.954  1.00  0.00     0.049 A 
ATOM     49  N   UNL A   1      42.579  29.021  29.684  1.00  0.00    -0.248 NA
ATOM     50  C   UNL A   1      42.897  26.845  28.906  1.00  0.00     0.031 C 
ATOM     51  C   UNL A   1      38.252  28.774  28.606  1.00  0.00     0.029 A 
ATOM     52  N   UNL A   1      39.861  30.090  29.432  1.00  0.00    -0.354 N 
ATOM     53  C   UNL A   1      43.915  28.670  29.836  1.00  0.00     0.074 A 
ATOM     54  C   UNL A   1      44.049  27.307  29.374  1.00  0.00     0.031 C 
ATOM     55  C   UNL A   1      37.711  29.982  28.823  1.00  0.00     0.029 A 
ATOM     56  C   UNL A   1      38.728  30.867  29.383  1.00  0.00     0.049 A 
ATOM     57  H   UNL A   1      40.724  30.415  29.776  1.00  0.00     0.167 HD
ATOM     58  C   UNL A   1      44.938  29.420  30.306  1.00  0.00     0.031 A 
ATOM     59  C   UNL A   1      38.521  32.149  29.750  1.00  0.00     0.031 A 
ATOM     60  C   UNL A   1      44.804  30.782  30.754  1.00  0.00     0.049 A 
ATOM     61  C   UNL A   1      39.663  32.947  30.307  1.00  0.00     0.074 A 
ATOM     62  C   UNL A   1      45.789  31.620  31.249  1.00  0.00     0.029 A 
ATOM     63  N   UNL A   1      43.624  31.509  30.749  1.00  0.00    -0.354 N 
ATOM     64  N   UNL A   1      40.914  32.587  30.461  1.00  0.00    -0.248 NA
ATOM     65  C   UNL A   1      39.369  34.318  30.746  1.00  0.00     0.031 C 
ATOM     66  C   UNL A   1      45.195  32.839  31.588  1.00  0.00     0.029 A 
ATOM     67  C   UNL A   1      43.853  32.779  31.251  1.00  0.00     0.049 A 
ATOM     68  H   UNL A   1      42.753  31.172  30.437  1.00  0.00     0.167 HD
ATOM     69  C   UNL A   1      41.558  33.686  31.015  1.00  0.00     0.074 A 
ATOM     70  C   UNL A   1      40.565  34.733  31.147  1.00  0.00     0.031 C 
ATOM     71  C   UNL A   1      42.855  33.811  31.387  1.00  0.00     0.031 A 
BRANCH  58  72
ATOM     72  C   UNL A   1      46.311  28.804  30.367  1.00  0.00    -0.014 A 
ATOM     73  C   UNL A   1      47.150  28.855  29.240  1.00  0.00     0.010 A 
ATOM     74  C   UNL A   1      46.716  28.062  31.491  1.00  0.00     0.010 A 
ATOM     75  C   UNL A   1      48.357  28.150  29.220  1.00  0.00     0.020 A 
ATOM     76  C   UNL A   1      47.932  27.373  31.484  1.00  0.00     0.020 A 
ATOM     77  C   UNL A   1      48.734  27.403  30.339  1.00  0.00     0.054 A 
BRANCH  77  78
ATOM     78  S   UNL A   1      50.288  26.466  30.288  1.00  0.00     0.124 S 
ATOM     79  O   UNL A   1      50.622  26.500  28.868  1.00  0.00    -0.237 OA
ATOM     80  O   UNL A   1      51.161  27.246  31.162  1.00  0.00    -0.237 OA
ATOM     81  O   UNL A   1      49.912  25.154  30.812  1.00  0.00    -0.744 OA
ENDBRANCH  77  78
ENDBRANCH  58  72
BRANCH  59  82
ATOM     82  C   UNL A   1      37.164  32.736  29.584  1.00  0.00    -0.014 A 
ATOM     83  C   UNL A   1      36.783  33.299  28.352  1.00  0.00     0.010 A 
ATOM     84  C   UNL A   1      36.284  32.816  30.676  1.00  0.00     0.010 A 
ATOM     85  C   UNL A   1      35.571  33.981  28.229  1.00  0.00     0.020 A 
ATOM     86  C   UNL A   1      35.056  33.475  30.549  1.00  0.00     0.020 A 
ATOM     87  C   UNL A   1      34.723  34.080  29.334  1.00  0.00     0.054 A 
BRANCH  87  88
ATOM     88  S   UNL A   1      33.175  35.011  29.170  1.00  0.00     0.124 S 
ATOM     89  O   UNL A   1      32.641  34.945  30.528  1.00  0.00    -0.237 OA
ATOM     90  O   UNL A   1      33.634  36.330  28.739  1.00  0.00    -0.237 OA
ATOM     91  O   UNL A   1      32.430  34.256  28.165  1.00  0.00    -0.744 OA
ENDBRANCH  87  88
ENDBRANCH  59  82
BRANCH  71  92
ATOM     92  C   UNL A   1      43.299  35.116  31.987  1.00  0.00    -0.014 A 
ATOM     93  C   UNL A   1      43.210  35.313  33.377  1.00  0.00     0.010 A 
ATOM     94  C   UNL A   1      43.675  36.191  31.162  1.00  0.00     0.010 A 
ATOM     95  C   UNL A   1      43.456  36.571  33.930  1.00  0.00     0.020 A 
ATOM     96  C   UNL A   1      43.945  37.446  31.715  1.00  0.00     0.020 A 
ATOM     97  C   UNL A   1      43.809  37.634  33.094  1.00  0.00     0.054 A 
BRANCH  97  98
ATOM     98  S   UNL A   1      44.092  39.270  33.823  1.00  0.00     0.124 S 
ATOM     99  O   UNL A   1      45.429  39.597  33.335  1.00  0.00    -0.237 OA
ATOM    100  O   UNL A   1      43.004  40.068  33.261  1.00  0.00    -0.237 OA
ATOM    101  O   UNL A   1      43.994  39.024  35.260  1.00  0.00    -0.744 OA
ENDBRANCH  97  98
ENDBRANCH  71  92
ENDBRANCH  45  46
ENDBRANCH  37  40
ENDBRANCH  35  36
ENDBRANCH   1  35
TORSDOF 16
ENDMDL
MODEL 2
REMARK VINA RESULT:     -13.0      1.506      7.880
REMARK SMILES CN1C(=O)/C(=C(\SC2=[NH+][C@@H]3N=c4ccccc4=C3N=N2)C(=O)NCCCCNC(=O)c2ccc(-c3c4nc(c(-c5ccc(S(=O)(=O)[O-])cc5)c5ccc([nH]5)c(-c5ccc(S(=O)(=O)[O-])cc5)c5nc(c(-c6ccc(S(=O)(=O)[O-])cc6)c6ccc3[nH]6)C=C5)C=C4)cc2)c2ccccc21
REMARK SMILES IDX 26 1 25 2 24 3 23 4 21 5 22 6 6 8 1 9 2 10 3 11 96 12 4 13
REMARK SMILES IDX 5 14 91 15 95 16 92 17 94 18 93 19 7 20 8 21 9 22 20 23
REMARK SMILES IDX 10 24 19 26 11 27 18 28 12 29 17 30 13 31 16 32 14 33 15 34
REMARK SMILES IDX 27 35 28 36 29 37 30 39 31 40 32 41 90 42 33 43 89 44 34 45
REMARK SMILES IDX 35 46 36 47 83 48 37 49 88 50 82 51 84 52 38 53 87 54 81 55
REMARK SMILES IDX 80 56 39 58 69 59 50 60 68 61 51 62 54 63 67 64 85 65 52 66
REMARK SMILES IDX 53 67 66 69 86 70 55 71 40 72 41 73 49 74 42 75 48 76 43 77
REMARK SMILES IDX 44 78 45 79 46 80 47 81 70 82 71 83 79 84 72 85 78 86 73 87
REMARK SMILES IDX 74 88 75 89 76 90 77 91 56 92 57 93 65 94 58 95 64 96 59 97
REMARK SMILES IDX 60 98 61 99 62 100 63 101
REMARK H PARENT 23 7 9 25 28 38 84 57 54 68
REMARK Flexibility Score: inf
ROOT
ATOM      1  C   UNL A   1      36.315  24.034  26.258  1.00  0.00     0.023 C 
ENDROOT
BRANCH   1   2
ATOM      2  C   UNL A   1      34.796  23.971  26.078  1.00  0.00     0.023 C 
BRANCH   2   3
ATOM      3  C   UNL A   1      34.027  23.130  27.105  1.00  0.00     0.116 C 
BRANCH   3   4
ATOM      4  N   UNL A   1      32.596  23.349  26.978  1.00  0.00    -0.352 N 
ATOM      5  C   UNL A   1      31.757  24.059  26.183  1.00  0.00     0.259 C 
ATOM      6  O   UNL A   1      30.634  24.140  26.687  1.00  0.00    -0.269 OA
ATOM      7  H   UNL A   1      32.097  22.841  27.658  1.00  0.00     0.163 HD
BRANCH   5   8
ATOM      8  C   UNL A   1      32.056  24.672  24.818  1.00  0.00     0.098 C 
ATOM      9  C   UNL A   1      34.053  28.554  22.899  1.00  0.00     0.153 C 
ATOM     10  N   UNL A   1      33.225  27.793  23.791  1.00  0.00    -0.311 N 
ATOM     11  C   UNL A   1      32.413  26.732  23.417  1.00  0.00     0.260 C 
ATOM     12  C   UNL A   1      32.970  28.117  25.130  1.00  0.00     0.052 A 
ATOM     13  O   UNL A   1      31.963  26.482  22.309  1.00  0.00    -0.269 OA
ATOM     14  C   UNL A   1      32.089  26.031  24.706  1.00  0.00     0.069 C 
ATOM     15  C   UNL A   1      32.137  27.140  25.697  1.00  0.00     0.012 A 
ATOM     16  C   UNL A   1      33.298  29.297  25.780  1.00  0.00     0.027 A 
ATOM     17  C   UNL A   1      31.471  27.439  26.875  1.00  0.00     0.011 A 
ATOM     18  C   UNL A   1      32.682  29.554  27.004  1.00  0.00     0.002 A 
ATOM     19  C   UNL A   1      31.755  28.644  27.533  1.00  0.00     0.001 A 
BRANCH   8  20
ATOM     20  S   UNL A   1      32.191  23.560  23.474  1.00  0.00     0.011 SA
BRANCH  20  21
ATOM     21  C   UNL A   1      32.553  21.911  24.048  1.00  0.00     0.386 C 
ATOM     22  N   UNL A   1      33.769  21.472  23.912  1.00  0.00    -0.235 N 
ATOM     23  N   UNL A   1      31.559  21.310  24.793  1.00  0.00     0.088 NA
ATOM     24  C   UNL A   1      34.080  20.405  24.865  1.00  0.00     0.348 C 
ATOM     25  H   UNL A   1      34.408  21.816  23.246  1.00  0.00     0.308 HD
ATOM     26  N   UNL A   1      31.694  20.188  25.321  1.00  0.00    -0.033 NA
ATOM     27  N   UNL A   1      35.102  19.420  24.428  1.00  0.00    -0.232 NA
ATOM     28  C   UNL A   1      32.893  19.591  25.204  1.00  0.00     0.165 C 
ATOM     29  C   UNL A   1      34.564  18.285  24.785  1.00  0.00     0.072 A 
ATOM     30  C   UNL A   1      33.181  18.303  25.289  1.00  0.00     0.032 A 
ATOM     31  C   UNL A   1      35.176  16.936  24.692  1.00  0.00     0.029 A 
ATOM     32  C   UNL A   1      32.447  17.124  25.614  1.00  0.00     0.012 A 
ATOM     33  C   UNL A   1      34.451  15.857  25.044  1.00  0.00     0.002 A 
ATOM     34  C   UNL A   1      33.073  15.940  25.505  1.00  0.00     0.001 A 
ENDBRANCH  20  21
ENDBRANCH   8  20
ENDBRANCH   5   8
ENDBRANCH   3   4
ENDBRANCH   2   3
ENDBRANCH   1   2
BRANCH   1  35
ATOM     35  C   UNL A   1      37.144  23.631  25.043  1.00  0.00     0.116 C 
BRANCH  35  36
ATOM     36  N   UNL A   1      38.239  22.727  25.367  1.00  0.00    -0.352 N 
ATOM     37  C   UNL A   1      39.372  22.956  26.113  1.00  0.00     0.251 C 
ATOM     38  H   UNL A   1      38.155  21.817  24.999  1.00  0.00     0.163 HD
ATOM     39  O   UNL A   1      40.241  22.093  26.191  1.00  0.00    -0.269 OA
BRANCH  37  40
ATOM     40  C   UNL A   1      39.561  24.262  26.782  1.00  0.00     0.039 A 
ATOM     41  C   UNL A   1      40.212  25.312  26.131  1.00  0.00     0.014 A 
ATOM     42  C   UNL A   1      39.106  24.425  28.095  1.00  0.00     0.014 A 
ATOM     43  C   UNL A   1      40.557  26.455  26.845  1.00  0.00     0.010 A 
ATOM     44  C   UNL A   1      39.391  25.606  28.787  1.00  0.00     0.010 A 
ATOM     45  C   UNL A   1      40.166  26.608  28.186  1.00  0.00    -0.014 A 
BRANCH  45  46
ATOM     46  C   UNL A   1      40.598  27.813  28.940  1.00  0.00     0.031 A 
ATOM     47  C   UNL A   1      39.669  28.986  29.108  1.00  0.00     0.074 A 
ATOM     48  C   UNL A   1      41.805  27.819  29.540  1.00  0.00     0.049 A 
ATOM     49  N   UNL A   1      39.866  30.101  29.767  1.00  0.00    -0.248 NA
ATOM     50  C   UNL A   1      38.349  28.903  28.461  1.00  0.00     0.031 C 
ATOM     51  C   UNL A   1      42.782  26.730  29.471  1.00  0.00     0.029 A 
ATOM     52  N   UNL A   1      42.402  28.751  30.351  1.00  0.00    -0.354 N 
ATOM     53  C   UNL A   1      38.706  30.850  29.608  1.00  0.00     0.074 A 
ATOM     54  C   UNL A   1      37.818  30.080  28.766  1.00  0.00     0.031 C 
ATOM     55  C   UNL A   1      43.827  27.029  30.255  1.00  0.00     0.029 A 
ATOM     56  C   UNL A   1      43.627  28.354  30.835  1.00  0.00     0.049 A 
ATOM     57  H   UNL A   1      41.994  29.620  30.565  1.00  0.00     0.167 HD
ATOM     58  C   UNL A   1      38.406  32.062  30.127  1.00  0.00     0.031 A 
ATOM     59  C   UNL A   1      44.498  28.982  31.650  1.00  0.00     0.031 A 
ATOM     60  C   UNL A   1      39.287  32.821  30.976  1.00  0.00     0.049 A 
ATOM     61  C   UNL A   1      44.158  30.344  32.180  1.00  0.00     0.074 A 
ATOM     62  C   UNL A   1      39.064  34.062  31.548  1.00  0.00     0.029 A 
ATOM     63  N   UNL A   1      40.545  32.410  31.388  1.00  0.00    -0.354 N 
ATOM     64  N   UNL A   1      43.063  31.042  31.999  1.00  0.00    -0.248 NA
ATOM     65  C   UNL A   1      45.168  31.008  33.016  1.00  0.00     0.031 C 
ATOM     66  C   UNL A   1      40.207  34.423  32.266  1.00  0.00     0.029 A 
ATOM     67  C   UNL A   1      41.118  33.382  32.189  1.00  0.00     0.049 A 
ATOM     68  H   UNL A   1      40.968  31.555  31.145  1.00  0.00     0.167 HD
ATOM     69  C   UNL A   1      43.252  32.228  32.698  1.00  0.00     0.074 A 
ATOM     70  C   UNL A   1      44.554  32.144  33.326  1.00  0.00     0.031 C 
ATOM     71  C   UNL A   1      42.419  33.292  32.802  1.00  0.00     0.031 A 
BRANCH  58  72
ATOM     72  C   UNL A   1      37.064  32.667  29.807  1.00  0.00    -0.014 A 
ATOM     73  C   UNL A   1      36.924  33.504  28.686  1.00  0.00     0.010 A 
ATOM     74  C   UNL A   1      35.979  32.514  30.688  1.00  0.00     0.010 A 
ATOM     75  C   UNL A   1      35.734  34.204  28.465  1.00  0.00     0.020 A 
ATOM     76  C   UNL A   1      34.779  33.195  30.460  1.00  0.00     0.020 A 
ATOM     77  C   UNL A   1      34.673  34.054  29.362  1.00  0.00     0.054 A 
BRANCH  77  78
ATOM     78  S   UNL A   1      33.146  34.993  29.081  1.00  0.00     0.124 S 
ATOM     79  O   UNL A   1      32.531  34.986  30.405  1.00  0.00    -0.237 OA
ATOM     80  O   UNL A   1      33.644  36.287  28.623  1.00  0.00    -0.237 OA
ATOM     81  O   UNL A   1      32.448  34.211  28.063  1.00  0.00    -0.744 OA
ENDBRANCH  77  78
ENDBRANCH  58  72
BRANCH  59  82
ATOM     82  C   UNL A   1      45.771  28.300  32.008  1.00  0.00    -0.014 A 
ATOM     83  C   UNL A   1      46.898  28.422  31.174  1.00  0.00     0.010 A 
ATOM     84  C   UNL A   1      45.836  27.457  33.130  1.00  0.00     0.010 A 
ATOM     85  C   UNL A   1      48.048  27.671  31.423  1.00  0.00     0.020 A 
ATOM     86  C   UNL A   1      46.998  26.724  33.398  1.00  0.00     0.020 A 
ATOM     87  C   UNL A   1      48.084  26.813  32.524  1.00  0.00     0.054 A 
BRANCH  87  88
ATOM     88  S   UNL A   1      49.568  25.808  32.803  1.00  0.00     0.124 S 
ATOM     89  O   UNL A   1      49.077  24.804  33.744  1.00  0.00    -0.237 OA
ATOM     90  O   UNL A   1      49.883  25.314  31.465  1.00  0.00    -0.237 OA
ATOM     91  O   UNL A   1      50.527  26.765  33.351  1.00  0.00    -0.744 OA
ENDBRANCH  87  88
ENDBRANCH  59  82
BRANCH  71  92
ATOM     92  C   UNL A   1      42.876  34.474  33.613  1.00  0.00    -0.014 A 
ATOM     93  C   UNL A   1      43.589  35.515  32.991  1.00  0.00     0.010 A 
ATOM     94  C   UNL A   1      42.718  34.486  35.009  1.00  0.00     0.010 A 
ATOM     95  C   UNL A   1      44.165  36.532  33.755  1.00  0.00     0.020 A 
ATOM     96  C   UNL A   1      43.274  35.514  35.775  1.00  0.00     0.020 A 
ATOM     97  C   UNL A   1      44.015  36.518  35.144  1.00  0.00     0.054 A 
BRANCH  97  98
ATOM     98  S   UNL A   1      44.798  37.827  36.126  1.00  0.00     0.124 S 
ATOM     99  O   UNL A   1      46.218  37.572  35.901  1.00  0.00    -0.237 OA
ATOM    100  O   UNL A   1      44.272  39.047  35.518  1.00  0.00    -0.237 OA
ATOM    101  O   UNL A   1      44.324  37.564  37.484  1.00  0.00    -0.744 OA
ENDBRANCH  97  98
ENDBRANCH  71  92
ENDBRANCH  45  46
ENDBRANCH  37  40
ENDBRANCH  35  36
ENDBRANCH   1  35
TORSDOF 16
ENDMDL
MODEL 3
REMARK VINA RESULT:     -13.0      3.569      8.430
REMARK SMILES CN1C(=O)/C(=C(\SC2=[NH+][C@@H]3N=c4ccccc4=C3N=N2)C(=O)NCCCCNC(=O)c2ccc(-c3c4nc(c(-c5ccc(S(=O)(=O)[O-])cc5)c5ccc([nH]5)c(-c5ccc(S(=O)(=O)[O-])cc5)c5nc(c(-c6ccc(S(=O)(=O)[O-])cc6)c6ccc3[nH]6)C=C5)C=C4)cc2)c2ccccc21
REMARK SMILES IDX 26 1 25 2 24 3 23 4 21 5 22 6 6 8 1 9 2 10 3 11 96 12 4 13
REMARK SMILES IDX 5 14 91 15 95 16 92 17 94 18 93 19 7 20 8 21 9 22 20 23
REMARK SMILES IDX 10 24 19 26 11 27 18 28 12 29 17 30 13 31 16 32 14 33 15 34
REMARK SMILES IDX 27 35 28 36 29 37 30 39 31 40 32 41 90 42 33 43 89 44 34 45
REMARK SMILES IDX 35 46 36 47 83 48 37 49 88 50 82 51 84 52 38 53 87 54 81 55
REMARK SMILES IDX 80 56 39 58 69 59 50 60 68 61 51 62 54 63 67 64 85 65 52 66
REMARK SMILES IDX 53 67 66 69 86 70 55 71 40 72 41 73 49 74 42 75 48 76 43 77
REMARK SMILES IDX 44 78 45 79 46 80 47 81 70 82 71 83 79 84 72 85 78 86 73 87
REMARK SMILES IDX 74 88 75 89 76 90 77 91 56 92 57 93 65 94 58 95 64 96 59 97
REMARK SMILES IDX 60 98 61 99 62 100 63 101
REMARK H PARENT 23 7 9 25 28 38 84 57 54 68
REMARK Flexibility Score: inf
ROOT
ATOM      1  C   UNL A   1      37.711  22.933  25.731  1.00  0.00     0.023 C 
ENDROOT
BRANCH   1   2
ATOM      2  C   UNL A   1      36.370  23.447  25.197  1.00  0.00     0.023 C 
BRANCH   2   3
ATOM      3  C   UNL A   1      35.675  24.524  26.039  1.00  0.00     0.116 C 
BRANCH   3   4
ATOM      4  N   UNL A   1      34.351  24.082  26.445  1.00  0.00    -0.352 N 
ATOM      5  C   UNL A   1      33.068  24.263  26.043  1.00  0.00     0.259 C 
ATOM      6  O   UNL A   1      32.276  23.902  26.919  1.00  0.00    -0.269 OA
ATOM      7  H   UNL A   1      34.398  23.487  27.227  1.00  0.00     0.163 HD
BRANCH   5   8
ATOM      8  C   UNL A   1      32.572  24.789  24.699  1.00  0.00     0.098 C 
ATOM      9  C   UNL A   1      31.986  28.904  22.362  1.00  0.00     0.153 C 
ATOM     10  N   UNL A   1      31.923  27.984  23.463  1.00  0.00    -0.311 N 
ATOM     11  C   UNL A   1      31.530  26.656  23.372  1.00  0.00     0.260 C 
ATOM     12  C   UNL A   1      32.069  28.329  24.812  1.00  0.00     0.052 A 
ATOM     13  O   UNL A   1      30.848  26.130  22.507  1.00  0.00    -0.269 OA
ATOM     14  C   UNL A   1      32.012  26.032  24.651  1.00  0.00     0.069 C 
ATOM     15  C   UNL A   1      31.971  27.174  25.604  1.00  0.00     0.012 A 
ATOM     16  C   UNL A   1      32.108  29.607  25.347  1.00  0.00     0.027 A 
ATOM     17  C   UNL A   1      31.723  27.319  26.960  1.00  0.00     0.011 A 
ATOM     18  C   UNL A   1      31.937  29.738  26.725  1.00  0.00     0.002 A 
ATOM     19  C   UNL A   1      31.718  28.604  27.520  1.00  0.00     0.001 A 
BRANCH   8  20
ATOM     20  S   UNL A   1      32.640  23.676  23.351  1.00  0.00     0.011 SA
BRANCH  20  21
ATOM     21  C   UNL A   1      32.854  22.000  23.921  1.00  0.00     0.386 C 
ATOM     22  N   UNL A   1      34.056  21.505  23.921  1.00  0.00    -0.235 N 
ATOM     23  N   UNL A   1      31.750  21.433  24.527  1.00  0.00     0.088 NA
ATOM     24  C   UNL A   1      34.199  20.404  24.877  1.00  0.00     0.348 C 
ATOM     25  H   UNL A   1      34.785  21.831  23.346  1.00  0.00     0.308 HD
ATOM     26  N   UNL A   1      31.768  20.296  25.037  1.00  0.00    -0.033 NA
ATOM     27  N   UNL A   1      35.220  19.380  24.539  1.00  0.00    -0.232 NA
ATOM     28  C   UNL A   1      32.944  19.643  25.050  1.00  0.00     0.165 C 
ATOM     29  C   UNL A   1      34.592  18.266  24.800  1.00  0.00     0.072 A 
ATOM     30  C   UNL A   1      33.160  18.341  25.135  1.00  0.00     0.032 A 
ATOM     31  C   UNL A   1      35.148  16.891  24.747  1.00  0.00     0.029 A 
ATOM     32  C   UNL A   1      32.339  17.193  25.340  1.00  0.00     0.012 A 
ATOM     33  C   UNL A   1      34.336  15.841  24.981  1.00  0.00     0.002 A 
ATOM     34  C   UNL A   1      32.918  15.982  25.275  1.00  0.00     0.001 A 
ENDBRANCH  20  21
ENDBRANCH   8  20
ENDBRANCH   5   8
ENDBRANCH   3   4
ENDBRANCH   2   3
ENDBRANCH   1   2
BRANCH   1  35
ATOM     35  C   UNL A   1      38.570  23.957  26.465  1.00  0.00     0.116 C 
BRANCH  35  36
ATOM     36  N   UNL A   1      39.983  23.873  26.125  1.00  0.00    -0.352 N 
ATOM     37  C   UNL A   1      41.024  24.689  26.504  1.00  0.00     0.251 C 
ATOM     38  H   UNL A   1      40.230  23.123  25.537  1.00  0.00     0.163 HD
ATOM     39  O   UNL A   1      42.142  24.518  26.028  1.00  0.00    -0.269 OA
BRANCH  37  40
ATOM     40  C   UNL A   1      40.782  25.799  27.452  1.00  0.00     0.039 A 
ATOM     41  C   UNL A   1      41.500  26.992  27.352  1.00  0.00     0.014 A 
ATOM     42  C   UNL A   1      39.844  25.627  28.475  1.00  0.00     0.014 A 
ATOM     43  C   UNL A   1      41.404  27.939  28.368  1.00  0.00     0.010 A 
ATOM     44  C   UNL A   1      39.696  26.613  29.455  1.00  0.00     0.010 A 
ATOM     45  C   UNL A   1      40.514  27.752  29.439  1.00  0.00    -0.014 A 
BRANCH  45  46
ATOM     46  C   UNL A   1      40.476  28.751  30.539  1.00  0.00     0.031 A 
ATOM     47  C   UNL A   1      39.434  29.839  30.550  1.00  0.00     0.074 A 
ATOM     48  C   UNL A   1      41.334  28.631  31.571  1.00  0.00     0.049 A 
ATOM     49  N   UNL A   1      39.229  30.769  31.448  1.00  0.00    -0.248 NA
ATOM     50  C   UNL A   1      38.500  29.893  29.413  1.00  0.00     0.031 C 
ATOM     51  C   UNL A   1      42.370  27.602  31.686  1.00  0.00     0.029 A 
ATOM     52  N   UNL A   1      41.453  29.354  32.732  1.00  0.00    -0.354 N 
ATOM     53  C   UNL A   1      38.156  31.520  30.984  1.00  0.00     0.074 A 
ATOM     54  C   UNL A   1      37.767  30.959  29.710  1.00  0.00     0.031 C 
ATOM     55  C   UNL A   1      42.976  27.721  32.876  1.00  0.00     0.029 A 
ATOM     56  C   UNL A   1      42.418  28.870  33.584  1.00  0.00     0.049 A 
ATOM     57  H   UNL A   1      40.900  30.142  32.934  1.00  0.00     0.167 HD
ATOM     58  C   UNL A   1      37.542  32.572  31.574  1.00  0.00     0.031 A 
ATOM     59  C   UNL A   1      42.817  29.299  34.798  1.00  0.00     0.031 A 
ATOM     60  C   UNL A   1      37.923  33.120  32.850  1.00  0.00     0.049 A 
ATOM     61  C   UNL A   1      42.147  30.493  35.412  1.00  0.00     0.074 A 
ATOM     62  C   UNL A   1      37.357  34.188  33.524  1.00  0.00     0.029 A 
ATOM     63  N   UNL A   1      38.949  32.640  33.648  1.00  0.00    -0.354 N 
ATOM     64  N   UNL A   1      41.147  31.200  34.945  1.00  0.00    -0.248 NA
ATOM     65  C   UNL A   1      42.661  30.954  36.710  1.00  0.00     0.031 C 
ATOM     66  C   UNL A   1      38.072  34.385  34.709  1.00  0.00     0.029 A 
ATOM     67  C   UNL A   1      39.045  33.404  34.800  1.00  0.00     0.049 A 
ATOM     68  H   UNL A   1      39.524  31.872  33.429  1.00  0.00     0.167 HD
ATOM     69  C   UNL A   1      40.910  32.190  35.891  1.00  0.00     0.074 A 
ATOM     70  C   UNL A   1      41.854  31.977  36.969  1.00  0.00     0.031 C 
ATOM     71  C   UNL A   1      39.995  33.189  35.862  1.00  0.00     0.031 A 
BRANCH  58  72
ATOM     72  C   UNL A   1      36.382  33.217  30.862  1.00  0.00    -0.014 A 
ATOM     73  C   UNL A   1      36.586  33.845  29.620  1.00  0.00     0.010 A 
ATOM     74  C   UNL A   1      35.125  33.318  31.483  1.00  0.00     0.010 A 
ATOM     75  C   UNL A   1      35.564  34.589  29.024  1.00  0.00     0.020 A 
ATOM     76  C   UNL A   1      34.093  34.043  30.880  1.00  0.00     0.020 A 
ATOM     77  C   UNL A   1      34.327  34.693  29.665  1.00  0.00     0.054 A 
BRANCH  77  78
ATOM     78  S   UNL A   1      33.020  35.689  28.895  1.00  0.00     0.124 S 
ATOM     79  O   UNL A   1      32.358  34.716  28.032  1.00  0.00    -0.237 OA
ATOM     80  O   UNL A   1      32.244  36.145  30.046  1.00  0.00    -0.237 OA
ATOM     81  O   UNL A   1      33.758  36.742  28.200  1.00  0.00    -0.744 OA
ENDBRANCH  77  78
ENDBRANCH  58  72
BRANCH  59  82
ATOM     82  C   UNL A   1      43.907  28.568  35.499  1.00  0.00    -0.014 A 
ATOM     83  C   UNL A   1      45.253  28.821  35.171  1.00  0.00     0.010 A 
ATOM     84  C   UNL A   1      43.606  27.558  36.427  1.00  0.00     0.010 A 
ATOM     85  C   UNL A   1      46.273  28.040  35.716  1.00  0.00     0.020 A 
ATOM     86  C   UNL A   1      44.629  26.791  36.996  1.00  0.00     0.020 A 
ATOM     87  C   UNL A   1      45.953  27.017  36.612  1.00  0.00     0.054 A 
BRANCH  87  88
ATOM     88  S   UNL A   1      47.287  25.980  37.272  1.00  0.00     0.124 S 
ATOM     89  O   UNL A   1      47.072  26.097  38.711  1.00  0.00    -0.237 OA
ATOM     90  O   UNL A   1      46.994  24.669  36.697  1.00  0.00    -0.237 OA
ATOM     91  O   UNL A   1      48.497  26.622  36.763  1.00  0.00    -0.744 OA
ENDBRANCH  87  88
ENDBRANCH  59  82
BRANCH  71  92
ATOM     92  C   UNL A   1      39.958  34.151  37.017  1.00  0.00    -0.014 A 
ATOM     93  C   UNL A   1      39.197  33.845  38.159  1.00  0.00     0.010 A 
ATOM     94  C   UNL A   1      40.566  35.415  36.913  1.00  0.00     0.010 A 
ATOM     95  C   UNL A   1      39.016  34.796  39.165  1.00  0.00     0.020 A 
ATOM     96  C   UNL A   1      40.405  36.362  37.928  1.00  0.00     0.020 A 
ATOM     97  C   UNL A   1      39.610  36.054  39.037  1.00  0.00     0.054 A 
BRANCH  97  98
ATOM     98  S   UNL A   1      39.337  37.292  40.334  1.00  0.00     0.124 S 
ATOM     99  O   UNL A   1      38.549  36.546  41.310  1.00  0.00    -0.237 OA
ATOM    100  O   UNL A   1      40.697  37.631  40.749  1.00  0.00    -0.237 OA
ATOM    101  O   UNL A   1      38.623  38.362  39.639  1.00  0.00    -0.744 OA
ENDBRANCH  97  98
ENDBRANCH  71  92
ENDBRANCH  45  46
ENDBRANCH  37  40
ENDBRANCH  35  36
ENDBRANCH   1  35
TORSDOF 16
ENDMDL
