MODEL 1
REMARK VINA RESULT:     -11.4      0.000      0.000
REMARK SMILES Cc1nn(C)c(=O)c(C(=O)N2CCCC[C@H]2C(=O)NCCCCNC(=O)c2ccc(-c3c4nc(c(-c5ccc(S(=O)(=O)[O-])cc5)c5ccc([nH]5)c(-c5ccc(S(=O)(=O)[O-])cc5)c5nc(c(-c6ccc(S(=O)(=O)[O-])cc6)c6ccc3[nH]6)C=C5)C=C4)cc2)c1C
REMARK SMILES IDX 22 1 21 2 20 3 19 4 17 5 18 6 16 8 11 9 12 10 13 11 15 12
REMARK SMILES IDX 14 13 9 14 10 15 8 16 1 17 2 18 3 19 87 20 4 21 88 22 5 23
REMARK SMILES IDX 6 24 7 25 23 26 24 27 25 28 26 30 27 31 28 32 86 33 29 34
REMARK SMILES IDX 85 35 30 36 31 37 32 38 79 39 33 40 84 41 78 42 80 43 34 44
REMARK SMILES IDX 83 45 77 46 76 47 35 49 65 50 46 51 64 52 47 53 50 54 63 55
REMARK SMILES IDX 81 56 48 57 49 58 62 60 82 61 51 62 36 63 37 64 45 65 38 66
REMARK SMILES IDX 44 67 39 68 40 69 41 70 42 71 43 72 66 73 67 74 75 75 68 76
REMARK SMILES IDX 74 77 69 78 70 79 71 80 72 81 73 82 52 83 53 84 61 85 54 86
REMARK SMILES IDX 60 87 55 88 56 89 57 90 58 91 59 92
REMARK H PARENT 19 7 24 29 80 48 50 59
REMARK Flexibility Score: inf
ROOT
ATOM      1  C   UNL A   1      33.953  28.350  25.754  1.00  0.00     0.023 C 
ENDROOT
BRANCH   1   2
ATOM      2  C   UNL A   1      32.876  28.911  24.825  1.00  0.00     0.023 C 
BRANCH   2   3
ATOM      3  C   UNL A   1      32.482  28.012  23.654  1.00  0.00     0.116 C 
BRANCH   3   4
ATOM      4  N   UNL A   1      33.398  26.912  23.444  1.00  0.00    -0.354 N 
ATOM      5  C   UNL A   1      33.266  25.562  23.404  1.00  0.00     0.242 C 
ATOM      6  O   UNL A   1      34.248  24.971  22.931  1.00  0.00    -0.273 OA
ATOM      7  H   UNL A   1      34.326  27.209  23.297  1.00  0.00     0.163 HD
BRANCH   5   8
ATOM      8  C   UNL A   1      32.099  24.713  23.991  1.00  0.00     0.174 C 
ATOM      9  N   UNL A   1      32.139  24.595  25.468  1.00  0.00    -0.326 N 
ATOM     10  C   UNL A   1      31.513  25.684  26.199  1.00  0.00     0.120 C 
ATOM     11  C   UNL A   1      30.032  25.737  25.868  1.00  0.00     0.022 C 
ATOM     12  C   UNL A   1      30.654  24.951  23.519  1.00  0.00     0.035 C 
ATOM     13  C   UNL A   1      29.827  25.927  24.370  1.00  0.00     0.004 C 
BRANCH   9  14
ATOM     14  C   UNL A   1      32.431  23.439  26.187  1.00  0.00     0.260 C 
ATOM     15  O   UNL A   1      32.170  23.334  27.387  1.00  0.00    -0.269 OA
BRANCH  14  16
ATOM     16  C   UNL A   1      33.221  22.359  25.545  1.00  0.00     0.111 A 
ATOM     17  C   UNL A   1      36.718  21.395  24.601  1.00  0.00     0.069 C 
ATOM     18  C   UNL A   1      35.286  21.245  25.058  1.00  0.00     0.062 A 
ATOM     19  N   UNL A   1      34.768  20.061  24.986  1.00  0.00    -0.175 NA
ATOM     20  C   UNL A   1      34.565  22.439  25.573  1.00  0.00    -0.010 A 
ATOM     21  N   UNL A   1      33.430  19.945  25.256  1.00  0.00    -0.232 N 
ATOM     22  C   UNL A   1      35.392  23.516  26.212  1.00  0.00     0.047 C 
ATOM     23  C   UNL A   1      32.930  18.588  25.371  1.00  0.00     0.178 C 
ATOM     24  C   UNL A   1      32.568  21.039  25.300  1.00  0.00     0.279 A 
ATOM     25  O   UNL A   1      31.345  20.945  25.214  1.00  0.00    -0.267 OA
ENDBRANCH  14  16
ENDBRANCH   9  14
ENDBRANCH   5   8
ENDBRANCH   3   4
ENDBRANCH   2   3
ENDBRANCH   1   2
BRANCH   1  26
ATOM     26  C   UNL A   1      33.700  28.530  27.245  1.00  0.00     0.116 C 
BRANCH  26  27
ATOM     27  N   UNL A   1      33.605  29.921  27.663  1.00  0.00    -0.352 N 
ATOM     28  C   UNL A   1      34.585  30.702  28.228  1.00  0.00     0.251 C 
ATOM     29  H   UNL A   1      32.733  30.355  27.524  1.00  0.00     0.163 HD
ATOM     30  O   UNL A   1      34.343  31.853  28.580  1.00  0.00    -0.269 OA
BRANCH  28  31
ATOM     31  C   UNL A   1      35.918  30.111  28.446  1.00  0.00     0.039 A 
ATOM     32  C   UNL A   1      36.887  30.255  27.450  1.00  0.00     0.014 A 
ATOM     33  C   UNL A   1      36.227  29.504  29.665  1.00  0.00     0.014 A 
ATOM     34  C   UNL A   1      38.196  29.848  27.709  1.00  0.00     0.010 A 
ATOM     35  C   UNL A   1      37.545  29.165  29.946  1.00  0.00     0.010 A 
ATOM     36  C   UNL A   1      38.540  29.335  28.970  1.00  0.00    -0.014 A 
BRANCH  36  37
ATOM     37  C   UNL A   1      39.935  28.941  29.278  1.00  0.00     0.031 A 
ATOM     38  C   UNL A   1      40.825  29.896  30.023  1.00  0.00     0.074 A 
ATOM     39  C   UNL A   1      40.404  27.748  28.862  1.00  0.00     0.049 A 
ATOM     40  N   UNL A   1      42.082  29.761  30.355  1.00  0.00    -0.248 NA
ATOM     41  C   UNL A   1      40.229  31.180  30.429  1.00  0.00     0.031 C 
ATOM     42  C   UNL A   1      39.638  26.749  28.113  1.00  0.00     0.029 A 
ATOM     43  N   UNL A   1      41.638  27.169  29.021  1.00  0.00    -0.354 N 
ATOM     44  C   UNL A   1      42.426  30.939  31.007  1.00  0.00     0.074 A 
ATOM     45  C   UNL A   1      41.268  31.802  30.967  1.00  0.00     0.031 C 
ATOM     46  C   UNL A   1      40.404  25.661  27.920  1.00  0.00     0.029 A 
ATOM     47  C   UNL A   1      41.724  25.900  28.497  1.00  0.00     0.049 A 
ATOM     48  H   UNL A   1      42.391  27.618  29.469  1.00  0.00     0.167 HD
ATOM     49  C   UNL A   1      43.590  31.259  31.617  1.00  0.00     0.031 A 
ATOM     50  C   UNL A   1      42.749  25.026  28.492  1.00  0.00     0.031 A 
ATOM     51  C   UNL A   1      44.735  30.392  31.666  1.00  0.00     0.049 A 
ATOM     52  C   UNL A   1      44.046  25.422  29.143  1.00  0.00     0.074 A 
ATOM     53  C   UNL A   1      45.959  30.616  32.270  1.00  0.00     0.029 A 
ATOM     54  N   UNL A   1      44.790  29.129  31.098  1.00  0.00    -0.354 N 
ATOM     55  N   UNL A   1      44.346  26.534  29.771  1.00  0.00    -0.248 NA
ATOM     56  C   UNL A   1      45.142  24.444  29.088  1.00  0.00     0.031 C 
ATOM     57  C   UNL A   1      46.767  29.498  32.039  1.00  0.00     0.029 A 
ATOM     58  C   UNL A   1      46.030  28.562  31.331  1.00  0.00     0.049 A 
ATOM     59  H   UNL A   1      44.056  28.698  30.604  1.00  0.00     0.167 HD
ATOM     60  C   UNL A   1      45.657  26.380  30.207  1.00  0.00     0.074 A 
ATOM     61  C   UNL A   1      46.088  25.064  29.782  1.00  0.00     0.031 C 
ATOM     62  C   UNL A   1      46.434  27.249  30.898  1.00  0.00     0.031 A 
BRANCH  49  63
ATOM     63  C   UNL A   1      43.668  32.601  32.293  1.00  0.00    -0.014 A 
ATOM     64  C   UNL A   1      44.074  33.740  31.574  1.00  0.00     0.010 A 
ATOM     65  C   UNL A   1      43.310  32.733  33.646  1.00  0.00     0.010 A 
ATOM     66  C   UNL A   1      44.156  34.983  32.206  1.00  0.00     0.020 A 
ATOM     67  C   UNL A   1      43.363  33.981  34.275  1.00  0.00     0.020 A 
ATOM     68  C   UNL A   1      43.801  35.095  33.553  1.00  0.00     0.054 A 
BRANCH  68  69
ATOM     69  S   UNL A   1      43.893  36.728  34.339  1.00  0.00     0.124 S 
ATOM     70  O   UNL A   1      44.972  37.363  33.584  1.00  0.00    -0.237 OA
ATOM     71  O   UNL A   1      42.559  37.271  34.104  1.00  0.00    -0.237 OA
ATOM     72  O   UNL A   1      44.205  36.425  35.733  1.00  0.00    -0.744 OA
ENDBRANCH  68  69
ENDBRANCH  49  63
BRANCH  50  73
ATOM     73  C   UNL A   1      42.581  23.677  27.886  1.00  0.00    -0.014 A 
ATOM     74  C   UNL A   1      42.126  22.604  28.673  1.00  0.00     0.010 A 
ATOM     75  C   UNL A   1      42.864  23.456  26.526  1.00  0.00     0.010 A 
ATOM     76  C   UNL A   1      41.971  21.331  28.114  1.00  0.00     0.020 A 
ATOM     77  C   UNL A   1      42.688  22.190  25.959  1.00  0.00     0.020 A 
ATOM     78  C   UNL A   1      42.251  21.133  26.760  1.00  0.00     0.054 A 
BRANCH  78  79
ATOM     79  S   UNL A   1      41.996  19.483  26.048  1.00  0.00     0.124 S 
ATOM     80  O   UNL A   1      42.496  18.614  27.108  1.00  0.00    -0.237 OA
ATOM     81  O   UNL A   1      40.550  19.453  25.833  1.00  0.00    -0.237 OA
ATOM     82  O   UNL A   1      42.798  19.511  24.828  1.00  0.00    -0.744 OA
ENDBRANCH  78  79
ENDBRANCH  50  73
BRANCH  62  83
ATOM     83  C   UNL A   1      47.824  26.802  31.257  1.00  0.00    -0.014 A 
ATOM     84  C   UNL A   1      48.916  27.103  30.424  1.00  0.00     0.010 A 
ATOM     85  C   UNL A   1      48.048  26.147  32.481  1.00  0.00     0.010 A 
ATOM     86  C   UNL A   1      50.210  26.741  30.804  1.00  0.00     0.020 A 
ATOM     87  C   UNL A   1      49.344  25.806  32.875  1.00  0.00     0.020 A 
ATOM     88  C   UNL A   1      50.416  26.098  32.030  1.00  0.00     0.054 A 
BRANCH  88  89
ATOM     89  S   UNL A   1      52.113  25.700  32.528  1.00  0.00     0.124 S 
ATOM     90  O   UNL A   1      52.054  25.873  33.977  1.00  0.00    -0.237 OA
ATOM     91  O   UNL A   1      52.268  24.323  32.064  1.00  0.00    -0.237 OA
ATOM     92  O   UNL A   1      52.924  26.686  31.815  1.00  0.00    -0.744 OA
ENDBRANCH  88  89
ENDBRANCH  62  83
ENDBRANCH  36  37
ENDBRANCH  28  31
ENDBRANCH  26  27
ENDBRANCH   1  26
TORSDOF 16
ENDMDL
MODEL 2
REMARK VINA RESULT:     -11.2      0.813      1.444
REMARK SMILES Cc1nn(C)c(=O)c(C(=O)N2CCCC[C@H]2C(=O)NCCCCNC(=O)c2ccc(-c3c4nc(c(-c5ccc(S(=O)(=O)[O-])cc5)c5ccc([nH]5)c(-c5ccc(S(=O)(=O)[O-])cc5)c5nc(c(-c6ccc(S(=O)(=O)[O-])cc6)c6ccc3[nH]6)C=C5)C=C4)cc2)c1C
REMARK SMILES IDX 22 1 21 2 20 3 19 4 17 5 18 6 16 8 11 9 12 10 13 11 15 12
REMARK SMILES IDX 14 13 9 14 10 15 8 16 1 17 2 18 3 19 87 20 4 21 88 22 5 23
REMARK SMILES IDX 6 24 7 25 23 26 24 27 25 28 26 30 27 31 28 32 86 33 29 34
REMARK SMILES IDX 85 35 30 36 31 37 32 38 79 39 33 40 84 41 78 42 80 43 34 44
REMARK SMILES IDX 83 45 77 46 76 47 35 49 65 50 46 51 64 52 47 53 50 54 63 55
REMARK SMILES IDX 81 56 48 57 49 58 62 60 82 61 51 62 36 63 37 64 45 65 38 66
REMARK SMILES IDX 44 67 39 68 40 69 41 70 42 71 43 72 66 73 67 74 75 75 68 76
REMARK SMILES IDX 74 77 69 78 70 79 71 80 72 81 73 82 52 83 53 84 61 85 54 86
REMARK SMILES IDX 60 87 55 88 56 89 57 90 58 91 59 92
REMARK H PARENT 19 7 24 29 80 48 50 59
REMARK Flexibility Score: inf
ROOT
ATOM      1  C   UNL A   1      33.023  28.529  25.552  1.00  0.00     0.023 C 
ENDROOT
BRANCH   1   2
ATOM      2  C   UNL A   1      33.818  28.167  24.297  1.00  0.00     0.023 C 
BRANCH   2   3
ATOM      3  C   UNL A   1      33.178  27.116  23.391  1.00  0.00     0.116 C 
BRANCH   3   4
ATOM      4  N   UNL A   1      33.960  25.904  23.280  1.00  0.00    -0.354 N 
ATOM      5  C   UNL A   1      33.682  24.582  23.399  1.00  0.00     0.242 C 
ATOM      6  O   UNL A   1      34.573  23.836  22.965  1.00  0.00    -0.273 OA
ATOM      7  H   UNL A   1      34.907  26.078  23.070  1.00  0.00     0.163 HD
BRANCH   5   8
ATOM      8  C   UNL A   1      32.458  23.939  24.116  1.00  0.00     0.174 C 
ATOM      9  N   UNL A   1      32.565  23.953  25.594  1.00  0.00    -0.326 N 
ATOM     10  C   UNL A   1      32.111  25.173  26.242  1.00  0.00     0.120 C 
ATOM     11  C   UNL A   1      30.630  25.375  25.972  1.00  0.00     0.022 C 
ATOM     12  C   UNL A   1      31.027  24.306  23.686  1.00  0.00     0.035 C 
ATOM     13  C   UNL A   1      30.367  25.450  24.472  1.00  0.00     0.004 C 
BRANCH   9  14
ATOM     14  C   UNL A   1      32.758  22.841  26.409  1.00  0.00     0.260 C 
ATOM     15  O   UNL A   1      32.165  22.708  27.482  1.00  0.00    -0.269 OA
BRANCH  14  16
ATOM     16  C   UNL A   1      33.819  21.861  26.069  1.00  0.00     0.111 A 
ATOM     17  C   UNL A   1      34.363  18.470  24.567  1.00  0.00     0.069 C 
ATOM     18  C   UNL A   1      34.621  19.916  24.923  1.00  0.00     0.062 A 
ATOM     19  N   UNL A   1      35.838  20.341  24.805  1.00  0.00    -0.175 NA
ATOM     20  C   UNL A   1      33.483  20.764  25.366  1.00  0.00    -0.010 A 
ATOM     21  N   UNL A   1      36.108  21.602  25.267  1.00  0.00    -0.232 N 
ATOM     22  C   UNL A   1      32.120  20.405  24.848  1.00  0.00     0.047 C 
ATOM     23  C   UNL A   1      37.421  22.123  24.932  1.00  0.00     0.178 C 
ATOM     24  C   UNL A   1      35.244  22.304  26.103  1.00  0.00     0.279 A 
ATOM     25  O   UNL A   1      35.590  23.271  26.782  1.00  0.00    -0.267 OA
ENDBRANCH  14  16
ENDBRANCH   9  14
ENDBRANCH   5   8
ENDBRANCH   3   4
ENDBRANCH   2   3
ENDBRANCH   1   2
BRANCH   1  26
ATOM     26  C   UNL A   1      33.837  28.679  26.831  1.00  0.00     0.116 C 
BRANCH  26  27
ATOM     27  N   UNL A   1      33.659  29.962  27.496  1.00  0.00    -0.352 N 
ATOM     28  C   UNL A   1      34.576  30.660  28.246  1.00  0.00     0.251 C 
ATOM     29  H   UNL A   1      32.775  30.381  27.395  1.00  0.00     0.163 HD
ATOM     30  O   UNL A   1      34.265  31.713  28.793  1.00  0.00    -0.269 OA
BRANCH  28  31
ATOM     31  C   UNL A   1      35.926  30.090  28.416  1.00  0.00     0.039 A 
ATOM     32  C   UNL A   1      36.836  30.192  27.362  1.00  0.00     0.014 A 
ATOM     33  C   UNL A   1      36.308  29.545  29.644  1.00  0.00     0.014 A 
ATOM     34  C   UNL A   1      38.161  29.808  27.567  1.00  0.00     0.010 A 
ATOM     35  C   UNL A   1      37.643  29.230  29.867  1.00  0.00     0.010 A 
ATOM     36  C   UNL A   1      38.580  29.359  28.830  1.00  0.00    -0.014 A 
BRANCH  36  37
ATOM     37  C   UNL A   1      39.994  28.991  29.078  1.00  0.00     0.031 A 
ATOM     38  C   UNL A   1      40.908  29.979  29.746  1.00  0.00     0.074 A 
ATOM     39  C   UNL A   1      40.456  27.791  28.677  1.00  0.00     0.049 A 
ATOM     40  N   UNL A   1      42.182  29.869  30.017  1.00  0.00    -0.248 NA
ATOM     41  C   UNL A   1      40.318  31.270  30.141  1.00  0.00     0.031 C 
ATOM     42  C   UNL A   1      39.666  26.759  28.001  1.00  0.00     0.029 A 
ATOM     43  N   UNL A   1      41.704  27.231  28.790  1.00  0.00    -0.354 N 
ATOM     44  C   UNL A   1      42.544  31.071  30.613  1.00  0.00     0.074 A 
ATOM     45  C   UNL A   1      41.374  31.920  30.605  1.00  0.00     0.031 C 
ATOM     46  C   UNL A   1      40.435  25.675  27.803  1.00  0.00     0.029 A 
ATOM     47  C   UNL A   1      41.779  25.947  28.303  1.00  0.00     0.049 A 
ATOM     48  H   UNL A   1      42.473  27.703  29.184  1.00  0.00     0.167 HD
ATOM     49  C   UNL A   1      43.734  31.424  31.151  1.00  0.00     0.031 A 
ATOM     50  C   UNL A   1      42.814  25.084  28.273  1.00  0.00     0.031 A 
ATOM     51  C   UNL A   1      44.890  30.572  31.169  1.00  0.00     0.049 A 
ATOM     52  C   UNL A   1      44.138  25.516  28.844  1.00  0.00     0.074 A 
ATOM     53  C   UNL A   1      46.141  30.829  31.702  1.00  0.00     0.029 A 
ATOM     54  N   UNL A   1      44.933  29.292  30.640  1.00  0.00    -0.354 N 
ATOM     55  N   UNL A   1      44.454  26.651  29.420  1.00  0.00    -0.248 NA
ATOM     56  C   UNL A   1      45.241  24.549  28.764  1.00  0.00     0.031 C 
ATOM     57  C   UNL A   1      46.950  29.714  31.465  1.00  0.00     0.029 A 
ATOM     58  C   UNL A   1      46.190  28.747  30.826  1.00  0.00     0.049 A 
ATOM     59  H   UNL A   1      44.180  28.837  30.198  1.00  0.00     0.167 HD
ATOM     60  C   UNL A   1      45.788  26.525  29.793  1.00  0.00     0.074 A 
ATOM     61  C   UNL A   1      46.214  25.201  29.388  1.00  0.00     0.031 C 
ATOM     62  C   UNL A   1      46.588  27.425  30.415  1.00  0.00     0.031 A 
BRANCH  49  63
ATOM     63  C   UNL A   1      43.829  32.788  31.780  1.00  0.00    -0.014 A 
ATOM     64  C   UNL A   1      44.280  33.890  31.030  1.00  0.00     0.010 A 
ATOM     65  C   UNL A   1      43.442  32.979  33.117  1.00  0.00     0.010 A 
ATOM     66  C   UNL A   1      44.378  35.152  31.617  1.00  0.00     0.020 A 
ATOM     67  C   UNL A   1      43.511  34.248  33.702  1.00  0.00     0.020 A 
ATOM     68  C   UNL A   1      43.994  35.323  32.951  1.00  0.00     0.054 A 
BRANCH  68  69
ATOM     69  S   UNL A   1      44.108  36.981  33.678  1.00  0.00     0.124 S 
ATOM     70  O   UNL A   1      43.627  37.822  32.584  1.00  0.00    -0.237 OA
ATOM     71  O   UNL A   1      43.221  36.886  34.833  1.00  0.00    -0.237 OA
ATOM     72  O   UNL A   1      45.527  37.124  33.994  1.00  0.00    -0.744 OA
ENDBRANCH  68  69
ENDBRANCH  49  63
BRANCH  50  73
ATOM     73  C   UNL A   1      42.632  23.715  27.720  1.00  0.00    -0.014 A 
ATOM     74  C   UNL A   1      42.269  22.655  28.570  1.00  0.00     0.010 A 
ATOM     75  C   UNL A   1      42.811  23.461  26.348  1.00  0.00     0.010 A 
ATOM     76  C   UNL A   1      42.102  21.363  28.061  1.00  0.00     0.020 A 
ATOM     77  C   UNL A   1      42.622  22.175  25.832  1.00  0.00     0.020 A 
ATOM     78  C   UNL A   1      42.279  21.132  26.694  1.00  0.00     0.054 A 
BRANCH  78  79
ATOM     79  S   UNL A   1      42.009  19.457  26.050  1.00  0.00     0.124 S 
ATOM     80  O   UNL A   1      40.570  19.452  25.808  1.00  0.00    -0.237 OA
ATOM     81  O   UNL A   1      42.853  19.439  24.857  1.00  0.00    -0.237 OA
ATOM     82  O   UNL A   1      42.465  18.596  27.139  1.00  0.00    -0.744 OA
ENDBRANCH  78  79
ENDBRANCH  50  73
BRANCH  62  83
ATOM     83  C   UNL A   1      48.000  27.005  30.716  1.00  0.00    -0.014 A 
ATOM     84  C   UNL A   1      49.072  27.467  29.933  1.00  0.00     0.010 A 
ATOM     85  C   UNL A   1      48.262  26.208  31.845  1.00  0.00     0.010 A 
ATOM     86  C   UNL A   1      50.384  27.124  30.266  1.00  0.00     0.020 A 
ATOM     87  C   UNL A   1      49.575  25.884  32.194  1.00  0.00     0.020 A 
ATOM     88  C   UNL A   1      50.628  26.338  31.397  1.00  0.00     0.054 A 
BRANCH  88  89
ATOM     89  S   UNL A   1      52.345  25.964  31.843  1.00  0.00     0.124 S 
ATOM     90  O   UNL A   1      52.203  24.703  32.567  1.00  0.00    -0.237 OA
ATOM     91  O   UNL A   1      53.001  25.871  30.541  1.00  0.00    -0.237 OA
ATOM     92  O   UNL A   1      52.749  27.109  32.657  1.00  0.00    -0.744 OA
ENDBRANCH  88  89
ENDBRANCH  62  83
ENDBRANCH  36  37
ENDBRANCH  28  31
ENDBRANCH  26  27
ENDBRANCH   1  26
TORSDOF 16
ENDMDL
MODEL 3
REMARK VINA RESULT:     -11.0      3.278      4.354
REMARK SMILES Cc1nn(C)c(=O)c(C(=O)N2CCCC[C@H]2C(=O)NCCCCNC(=O)c2ccc(-c3c4nc(c(-c5ccc(S(=O)(=O)[O-])cc5)c5ccc([nH]5)c(-c5ccc(S(=O)(=O)[O-])cc5)c5nc(c(-c6ccc(S(=O)(=O)[O-])cc6)c6ccc3[nH]6)C=C5)C=C4)cc2)c1C
REMARK SMILES IDX 22 1 21 2 20 3 19 4 17 5 18 6 16 8 11 9 12 10 13 11 15 12
REMARK SMILES IDX 14 13 9 14 10 15 8 16 1 17 2 18 3 19 87 20 4 21 88 22 5 23
REMARK SMILES IDX 6 24 7 25 23 26 24 27 25 28 26 30 27 31 28 32 86 33 29 34
REMARK SMILES IDX 85 35 30 36 31 37 32 38 79 39 33 40 84 41 78 42 80 43 34 44
REMARK SMILES IDX 83 45 77 46 76 47 35 49 65 50 46 51 64 52 47 53 50 54 63 55
REMARK SMILES IDX 81 56 48 57 49 58 62 60 82 61 51 62 36 63 37 64 45 65 38 66
REMARK SMILES IDX 44 67 39 68 40 69 41 70 42 71 43 72 66 73 67 74 75 75 68 76
REMARK SMILES IDX 74 77 69 78 70 79 71 80 72 81 73 82 52 83 53 84 61 85 54 86
REMARK SMILES IDX 60 87 55 88 56 89 57 90 58 91 59 92
REMARK H PARENT 19 7 24 29 80 48 50 59
REMARK Flexibility Score: inf
ROOT
ATOM      1  C   UNL A   1      34.525  31.951  27.967  1.00  0.00     0.023 C 
ENDROOT
BRANCH   1   2
ATOM      2  C   UNL A   1      34.134  30.693  27.192  1.00  0.00     0.023 C 
BRANCH   2   3
ATOM      3  C   UNL A   1      32.669  30.611  26.765  1.00  0.00     0.116 C 
BRANCH   3   4
ATOM      4  N   UNL A   1      31.960  29.501  27.366  1.00  0.00    -0.354 N 
ATOM      5  C   UNL A   1      31.848  28.180  27.077  1.00  0.00     0.242 C 
ATOM      6  O   UNL A   1      31.358  27.502  27.993  1.00  0.00    -0.273 OA
ATOM      7  H   UNL A   1      31.443  29.763  28.162  1.00  0.00     0.163 HD
BRANCH   5   8
ATOM      8  C   UNL A   1      32.145  27.486  25.715  1.00  0.00     0.174 C 
ATOM      9  N   UNL A   1      31.037  27.602  24.739  1.00  0.00    -0.326 N 
ATOM     10  C   UNL A   1      31.029  28.819  23.944  1.00  0.00     0.120 C 
ATOM     11  C   UNL A   1      32.285  28.882  23.093  1.00  0.00     0.022 C 
ATOM     12  C   UNL A   1      33.496  27.707  25.011  1.00  0.00     0.035 C 
ATOM     13  C   UNL A   1      33.528  28.841  23.974  1.00  0.00     0.004 C 
BRANCH   9  14
ATOM     14  C   UNL A   1      30.216  26.563  24.308  1.00  0.00     0.260 C 
ATOM     15  O   UNL A   1      29.047  26.754  23.966  1.00  0.00    -0.269 OA
BRANCH  14  16
ATOM     16  C   UNL A   1      30.695  25.162  24.412  1.00  0.00     0.111 A 
ATOM     17  C   UNL A   1      32.549  22.508  22.522  1.00  0.00     0.069 C 
ATOM     18  C   UNL A   1      32.062  23.330  23.692  1.00  0.00     0.062 A 
ATOM     19  N   UNL A   1      32.187  22.806  24.869  1.00  0.00    -0.175 NA
ATOM     20  C   UNL A   1      31.490  24.679  23.438  1.00  0.00    -0.010 A 
ATOM     21  N   UNL A   1      31.615  23.477  25.917  1.00  0.00    -0.232 N 
ATOM     22  C   UNL A   1      31.983  25.415  22.227  1.00  0.00     0.047 C 
ATOM     23  C   UNL A   1      31.950  22.977  27.238  1.00  0.00     0.178 C 
ATOM     24  C   UNL A   1      30.677  24.492  25.746  1.00  0.00     0.279 A 
ATOM     25  O   UNL A   1      29.920  24.878  26.636  1.00  0.00    -0.267 OA
ENDBRANCH  14  16
ENDBRANCH   9  14
ENDBRANCH   5   8
ENDBRANCH   3   4
ENDBRANCH   2   3
ENDBRANCH   1   2
BRANCH   1  26
ATOM     26  C   UNL A   1      35.779  31.836  28.825  1.00  0.00     0.116 C 
BRANCH  26  27
ATOM     27  N   UNL A   1      35.551  31.221  30.124  1.00  0.00    -0.352 N 
ATOM     28  C   UNL A   1      36.440  30.501  30.886  1.00  0.00     0.251 C 
ATOM     29  H   UNL A   1      34.650  31.335  30.504  1.00  0.00     0.163 HD
ATOM     30  O   UNL A   1      36.088  29.993  31.946  1.00  0.00    -0.269 OA
BRANCH  28  31
ATOM     31  C   UNL A   1      37.811  30.311  30.377  1.00  0.00     0.039 A 
ATOM     32  C   UNL A   1      38.864  30.242  31.292  1.00  0.00     0.014 A 
ATOM     33  C   UNL A   1      38.032  30.111  29.012  1.00  0.00     0.014 A 
ATOM     34  C   UNL A   1      40.137  29.898  30.840  1.00  0.00     0.010 A 
ATOM     35  C   UNL A   1      39.286  29.701  28.576  1.00  0.00     0.010 A 
ATOM     36  C   UNL A   1      40.348  29.591  29.486  1.00  0.00    -0.014 A 
BRANCH  36  37
ATOM     37  C   UNL A   1      41.685  29.179  28.997  1.00  0.00     0.031 A 
ATOM     38  C   UNL A   1      42.809  30.176  28.990  1.00  0.00     0.074 A 
ATOM     39  C   UNL A   1      41.876  27.927  28.536  1.00  0.00     0.049 A 
ATOM     40  N   UNL A   1      44.037  30.030  28.568  1.00  0.00    -0.248 NA
ATOM     41  C   UNL A   1      42.506  31.523  29.505  1.00  0.00     0.031 C 
ATOM     42  C   UNL A   1      40.854  26.879  28.475  1.00  0.00     0.029 A 
ATOM     43  N   UNL A   1      43.001  27.320  28.039  1.00  0.00    -0.354 N 
ATOM     44  C   UNL A   1      44.651  31.261  28.767  1.00  0.00     0.074 A 
ATOM     45  C   UNL A   1      43.646  32.160  29.284  1.00  0.00     0.031 C 
ATOM     46  C   UNL A   1      41.411  25.747  28.016  1.00  0.00     0.029 A 
ATOM     47  C   UNL A   1      42.817  25.997  27.714  1.00  0.00     0.049 A 
ATOM     48  H   UNL A   1      43.861  27.788  27.926  1.00  0.00     0.167 HD
ATOM     49  C   UNL A   1      45.945  31.602  28.569  1.00  0.00     0.031 A 
ATOM     50  C   UNL A   1      43.688  25.086  27.235  1.00  0.00     0.031 A 
ATOM     51  C   UNL A   1      46.945  30.700  28.067  1.00  0.00     0.049 A 
ATOM     52  C   UNL A   1      45.113  25.503  26.988  1.00  0.00     0.074 A 
ATOM     53  C   UNL A   1      48.288  30.943  27.843  1.00  0.00     0.029 A 
ATOM     54  N   UNL A   1      46.711  29.378  27.723  1.00  0.00    -0.354 N 
ATOM     55  N   UNL A   1      45.678  26.667  27.199  1.00  0.00    -0.248 NA
ATOM     56  C   UNL A   1      46.017  24.480  26.442  1.00  0.00     0.031 C 
ATOM     57  C   UNL A   1      48.860  29.774  27.332  1.00  0.00     0.029 A 
ATOM     58  C   UNL A   1      47.883  28.792  27.281  1.00  0.00     0.049 A 
ATOM     59  H   UNL A   1      45.840  28.923  27.785  1.00  0.00     0.167 HD
ATOM     60  C   UNL A   1      47.011  26.511  26.834  1.00  0.00     0.074 A 
ATOM     61  C   UNL A   1      47.169  25.137  26.401  1.00  0.00     0.031 C 
ATOM     62  C   UNL A   1      48.014  27.422  26.856  1.00  0.00     0.031 A 
BRANCH  49  63
ATOM     63  C   UNL A   1      46.349  33.009  28.918  1.00  0.00    -0.014 A 
ATOM     64  C   UNL A   1      46.814  33.319  30.210  1.00  0.00     0.010 A 
ATOM     65  C   UNL A   1      46.290  34.023  27.947  1.00  0.00     0.010 A 
ATOM     66  C   UNL A   1      47.178  34.626  30.535  1.00  0.00     0.020 A 
ATOM     67  C   UNL A   1      46.680  35.329  28.261  1.00  0.00     0.020 A 
ATOM     68  C   UNL A   1      47.108  35.624  29.559  1.00  0.00     0.054 A 
BRANCH  68  69
ATOM     69  S   UNL A   1      47.612  37.308  30.006  1.00  0.00     0.124 S 
ATOM     70  O   UNL A   1      46.362  37.873  30.507  1.00  0.00    -0.237 OA
ATOM     71  O   UNL A   1      48.645  37.076  31.011  1.00  0.00    -0.237 OA
ATOM     72  O   UNL A   1      48.088  37.873  28.746  1.00  0.00    -0.744 OA
ENDBRANCH  68  69
ENDBRANCH  49  63
BRANCH  50  73
ATOM     73  C   UNL A   1      43.251  23.684  26.997  1.00  0.00    -0.014 A 
ATOM     74  C   UNL A   1      43.031  23.228  25.685  1.00  0.00     0.010 A 
ATOM     75  C   UNL A   1      43.061  22.796  28.070  1.00  0.00     0.010 A 
ATOM     76  C   UNL A   1      42.614  21.914  25.452  1.00  0.00     0.020 A 
ATOM     77  C   UNL A   1      42.666  21.474  27.839  1.00  0.00     0.020 A 
ATOM     78  C   UNL A   1      42.436  21.045  26.531  1.00  0.00     0.054 A 
BRANCH  78  79
ATOM     79  S   UNL A   1      41.941  19.330  26.198  1.00  0.00     0.124 S 
ATOM     80  O   UNL A   1      40.520  19.477  25.901  1.00  0.00    -0.237 OA
ATOM     81  O   UNL A   1      42.792  18.971  25.066  1.00  0.00    -0.237 OA
ATOM     82  O   UNL A   1      42.252  18.638  27.446  1.00  0.00    -0.744 OA
ENDBRANCH  78  79
ENDBRANCH  50  73
BRANCH  62  83
ATOM     83  C   UNL A   1      49.377  26.963  26.419  1.00  0.00    -0.014 A 
ATOM     84  C   UNL A   1      50.220  26.264  27.300  1.00  0.00     0.010 A 
ATOM     85  C   UNL A   1      49.782  27.161  25.086  1.00  0.00     0.010 A 
ATOM     86  C   UNL A   1      51.455  25.784  26.859  1.00  0.00     0.020 A 
ATOM     87  C   UNL A   1      51.006  26.661  24.636  1.00  0.00     0.020 A 
ATOM     88  C   UNL A   1      51.839  25.983  25.529  1.00  0.00     0.054 A 
BRANCH  88  89
ATOM     89  S   UNL A   1      53.418  25.291  24.967  1.00  0.00     0.124 S 
ATOM     90  O   UNL A   1      54.380  26.025  25.785  1.00  0.00    -0.237 OA
ATOM     91  O   UNL A   1      53.276  23.872  25.284  1.00  0.00    -0.237 OA
ATOM     92  O   UNL A   1      53.445  25.604  23.539  1.00  0.00    -0.744 OA
ENDBRANCH  88  89
ENDBRANCH  62  83
ENDBRANCH  36  37
ENDBRANCH  28  31
ENDBRANCH  26  27
ENDBRANCH   1  26
TORSDOF 16
ENDMDL
