MODEL 1
REMARK VINA RESULT:     -10.8      0.000      0.000
REMARK SMILES CC(C)[C@@H]1CSC[C@@H](C(=O)NCCCCNC(=O)c2ccc(-c3c4nc(c(-c5ccc(S(=O)(=O)[O-])cc5)c5ccc([nH]5)c(-c5ccc(S(=O)(=O)[O-])cc5)c5nc(c(-c6ccc(S(=O)(=O)[O-])cc6)c6ccc3[nH]6)C=C5)C=C4)cc2)[NH2+]1
REMARK SMILES IDX 14 1 13 2 12 3 11 4 9 5 10 6 8 8 4 9 5 10 79 11 6 12 7 15
REMARK SMILES IDX 2 16 1 17 3 18 15 19 16 20 17 21 18 23 19 24 20 25 78 26
REMARK SMILES IDX 21 27 77 28 22 29 23 30 24 31 71 32 25 33 76 34 70 35 72 36
REMARK SMILES IDX 26 37 75 38 69 39 68 40 27 42 57 43 38 44 56 45 39 46 42 47
REMARK SMILES IDX 55 48 73 49 40 50 41 51 54 53 74 54 43 55 28 56 29 57 37 58
REMARK SMILES IDX 30 59 36 60 31 61 32 62 33 63 34 64 35 65 58 66 59 67 67 68
REMARK SMILES IDX 60 69 66 70 61 71 62 72 63 73 64 74 65 75 44 76 45 77 53 78
REMARK SMILES IDX 46 79 52 80 47 81 48 82 49 83 50 84 51 85
REMARK H PARENT 11 7 79 13 79 14 16 22 72 41 42 52
REMARK Flexibility Score: inf
ROOT
ATOM      1  C   UNL A   1      40.528  21.729  27.563  1.00  0.00     0.023 C 
ENDROOT
BRANCH   1   2
ATOM      2  C   UNL A   1      40.070  21.450  26.132  1.00  0.00     0.023 C 
BRANCH   2   3
ATOM      3  C   UNL A   1      40.150  19.986  25.714  1.00  0.00     0.116 C 
BRANCH   3   4
ATOM      4  N   UNL A   1      40.959  19.200  26.630  1.00  0.00    -0.351 N 
ATOM      5  C   UNL A   1      42.317  19.053  26.675  1.00  0.00     0.279 C 
ATOM      6  O   UNL A   1      42.793  18.289  27.518  1.00  0.00    -0.268 OA
ATOM      7  H   UNL A   1      40.459  18.703  27.316  1.00  0.00     0.163 HD
BRANCH   5   8
ATOM      8  C   UNL A   1      43.229  19.826  25.701  1.00  0.00     0.282 C 
ATOM      9  C   UNL A   1      44.769  21.781  25.655  1.00  0.00     0.195 C 
ATOM     10  C   UNL A   1      45.966  20.943  25.159  1.00  0.00     0.135 C 
ATOM     11  N   UNL A   1      43.820  20.969  26.423  1.00  0.00    -0.332 N 
ATOM     12  S   UNL A   1      45.552  19.548  24.065  1.00  0.00    -0.149 SA
ATOM     13  H   UNL A   1      43.059  21.578  26.725  1.00  0.00     0.347 HD
ATOM     14  H   UNL A   1      44.356  20.567  27.192  1.00  0.00     0.347 HD
ATOM     15  C   UNL A   1      44.180  18.825  25.023  1.00  0.00     0.145 C 
BRANCH   9  16
ATOM     16  C   UNL A   1      44.174  22.782  24.610  1.00  0.00     0.042 C 
ATOM     17  C   UNL A   1      44.350  24.280  24.867  1.00  0.00     0.014 C 
ATOM     18  C   UNL A   1      44.662  22.467  23.188  1.00  0.00     0.014 C 
ENDBRANCH   9  16
ENDBRANCH   5   8
ENDBRANCH   3   4
ENDBRANCH   2   3
ENDBRANCH   1   2
BRANCH   1  19
ATOM     19  C   UNL A   1      41.236  23.063  27.769  1.00  0.00     0.116 C 
BRANCH  19  20
ATOM     20  N   UNL A   1      41.234  23.893  26.575  1.00  0.00    -0.352 N 
ATOM     21  C   UNL A   1      41.024  25.246  26.459  1.00  0.00     0.251 C 
ATOM     22  H   UNL A   1      41.406  23.419  25.730  1.00  0.00     0.163 HD
ATOM     23  O   UNL A   1      40.913  25.752  25.349  1.00  0.00    -0.269 OA
BRANCH  21  24
ATOM     24  C   UNL A   1      40.901  26.078  27.675  1.00  0.00     0.039 A 
ATOM     25  C   UNL A   1      41.915  26.992  27.965  1.00  0.00     0.014 A 
ATOM     26  C   UNL A   1      39.790  25.970  28.518  1.00  0.00     0.014 A 
ATOM     27  C   UNL A   1      41.787  27.835  29.070  1.00  0.00     0.010 A 
ATOM     28  C   UNL A   1      39.624  26.870  29.568  1.00  0.00     0.010 A 
ATOM     29  C   UNL A   1      40.625  27.808  29.861  1.00  0.00    -0.014 A 
BRANCH  29  30
ATOM     30  C   UNL A   1      40.457  28.762  30.987  1.00  0.00     0.031 A 
ATOM     31  C   UNL A   1      41.307  28.646  32.224  1.00  0.00     0.074 A 
ATOM     32  C   UNL A   1      39.521  29.730  30.900  1.00  0.00     0.049 A 
ATOM     33  N   UNL A   1      41.321  29.410  33.286  1.00  0.00    -0.248 NA
ATOM     34  C   UNL A   1      42.246  27.514  32.289  1.00  0.00     0.031 C 
ATOM     35  C   UNL A   1      38.593  29.910  29.779  1.00  0.00     0.029 A 
ATOM     36  N   UNL A   1      39.201  30.749  31.760  1.00  0.00    -0.354 N 
ATOM     37  C   UNL A   1      42.272  28.860  34.138  1.00  0.00     0.074 A 
ATOM     38  C   UNL A   1      42.760  27.656  33.503  1.00  0.00     0.031 C 
ATOM     39  C   UNL A   1      37.837  30.997  30.005  1.00  0.00     0.029 A 
ATOM     40  C   UNL A   1      38.198  31.569  31.297  1.00  0.00     0.049 A 
ATOM     41  H   UNL A   1      39.647  30.881  32.627  1.00  0.00     0.167 HD
ATOM     42  C   UNL A   1      42.722  29.328  35.327  1.00  0.00     0.031 A 
ATOM     43  C   UNL A   1      37.632  32.660  31.848  1.00  0.00     0.031 A 
ATOM     44  C   UNL A   1      42.231  30.524  35.961  1.00  0.00     0.049 A 
ATOM     45  C   UNL A   1      38.143  33.155  33.175  1.00  0.00     0.074 A 
ATOM     46  C   UNL A   1      42.644  31.099  37.149  1.00  0.00     0.029 A 
ATOM     47  N   UNL A   1      41.219  31.327  35.458  1.00  0.00    -0.354 N 
ATOM     48  N   UNL A   1      39.093  32.656  33.930  1.00  0.00    -0.248 NA
ATOM     49  C   UNL A   1      37.520  34.372  33.711  1.00  0.00     0.031 C 
ATOM     50  C   UNL A   1      41.844  32.222  37.392  1.00  0.00     0.029 A 
ATOM     51  C   UNL A   1      40.980  32.384  36.322  1.00  0.00     0.049 A 
ATOM     52  H   UNL A   1      40.740  31.171  34.612  1.00  0.00     0.167 HD
ATOM     53  C   UNL A   1      39.196  33.514  35.021  1.00  0.00     0.074 A 
ATOM     54  C   UNL A   1      38.234  34.576  34.809  1.00  0.00     0.031 C 
ATOM     55  C   UNL A   1      40.012  33.428  36.102  1.00  0.00     0.031 A 
BRANCH  42  56
ATOM     56  C   UNL A   1      43.816  28.549  36.012  1.00  0.00    -0.014 A 
ATOM     57  C   UNL A   1      45.168  28.913  35.855  1.00  0.00     0.010 A 
ATOM     58  C   UNL A   1      43.494  27.475  36.861  1.00  0.00     0.010 A 
ATOM     59  C   UNL A   1      46.175  28.195  36.504  1.00  0.00     0.020 A 
ATOM     60  C   UNL A   1      44.497  26.775  37.538  1.00  0.00     0.020 A 
ATOM     61  C   UNL A   1      45.834  27.132  37.343  1.00  0.00     0.054 A 
BRANCH  61  62
ATOM     62  S   UNL A   1      47.163  26.243  38.200  1.00  0.00     0.124 S 
ATOM     63  O   UNL A   1      46.971  24.877  37.720  1.00  0.00    -0.237 OA
ATOM     64  O   UNL A   1      48.363  26.916  37.710  1.00  0.00    -0.237 OA
ATOM     65  O   UNL A   1      46.867  26.453  39.614  1.00  0.00    -0.744 OA
ENDBRANCH  61  62
ENDBRANCH  42  56
BRANCH  43  66
ATOM     66  C   UNL A   1      36.521  33.360  31.146  1.00  0.00    -0.014 A 
ATOM     67  C   UNL A   1      36.666  33.803  29.819  1.00  0.00     0.010 A 
ATOM     68  C   UNL A   1      35.302  33.593  31.812  1.00  0.00     0.010 A 
ATOM     69  C   UNL A   1      35.628  34.492  29.184  1.00  0.00     0.020 A 
ATOM     70  C   UNL A   1      34.250  34.251  31.169  1.00  0.00     0.020 A 
ATOM     71  C   UNL A   1      34.427  34.712  29.865  1.00  0.00     0.054 A 
BRANCH  71  72
ATOM     72  S   UNL A   1      33.082  35.582  29.011  1.00  0.00     0.124 S 
ATOM     73  O   UNL A   1      32.301  36.104  30.128  1.00  0.00    -0.237 OA
ATOM     74  O   UNL A   1      33.803  36.578  28.222  1.00  0.00    -0.237 OA
ATOM     75  O   UNL A   1      32.436  34.529  28.231  1.00  0.00    -0.744 OA
ENDBRANCH  71  72
ENDBRANCH  43  66
BRANCH  55  76
ATOM     76  C   UNL A   1      39.916  34.533  37.123  1.00  0.00    -0.014 A 
ATOM     77  C   UNL A   1      40.665  35.716  36.995  1.00  0.00     0.010 A 
ATOM     78  C   UNL A   1      39.047  34.390  38.221  1.00  0.00     0.010 A 
ATOM     79  C   UNL A   1      40.588  36.712  37.972  1.00  0.00     0.020 A 
ATOM     80  C   UNL A   1      38.940  35.398  39.182  1.00  0.00     0.020 A 
ATOM     81  C   UNL A   1      39.728  36.544  39.063  1.00  0.00     0.054 A 
BRANCH  81  82
ATOM     82  S   UNL A   1      39.639  37.854  40.313  1.00  0.00     0.124 S 
ATOM     83  O   UNL A   1      38.743  38.817  39.680  1.00  0.00    -0.237 OA
ATOM     84  O   UNL A   1      39.092  37.153  41.472  1.00  0.00    -0.237 OA
ATOM     85  O   UNL A   1      41.025  38.294  40.455  1.00  0.00    -0.744 OA
ENDBRANCH  81  82
ENDBRANCH  55  76
ENDBRANCH  29  30
ENDBRANCH  21  24
ENDBRANCH  19  20
ENDBRANCH   1  19
TORSDOF 15
ENDMDL
MODEL 2
REMARK VINA RESULT:     -10.7      5.250     11.261
REMARK SMILES CC(C)[C@@H]1CSC[C@@H](C(=O)NCCCCNC(=O)c2ccc(-c3c4nc(c(-c5ccc(S(=O)(=O)[O-])cc5)c5ccc([nH]5)c(-c5ccc(S(=O)(=O)[O-])cc5)c5nc(c(-c6ccc(S(=O)(=O)[O-])cc6)c6ccc3[nH]6)C=C5)C=C4)cc2)[NH2+]1
REMARK SMILES IDX 14 1 13 2 12 3 11 4 9 5 10 6 8 8 4 9 5 10 79 11 6 12 7 15
REMARK SMILES IDX 2 16 1 17 3 18 15 19 16 20 17 21 18 23 19 24 20 25 78 26
REMARK SMILES IDX 21 27 77 28 22 29 23 30 24 31 71 32 25 33 76 34 70 35 72 36
REMARK SMILES IDX 26 37 75 38 69 39 68 40 27 42 57 43 38 44 56 45 39 46 42 47
REMARK SMILES IDX 55 48 73 49 40 50 41 51 54 53 74 54 43 55 28 56 29 57 37 58
REMARK SMILES IDX 30 59 36 60 31 61 32 62 33 63 34 64 35 65 58 66 59 67 67 68
REMARK SMILES IDX 60 69 66 70 61 71 62 72 63 73 64 74 65 75 44 76 45 77 53 78
REMARK SMILES IDX 46 79 52 80 47 81 48 82 49 83 50 84 51 85
REMARK H PARENT 11 7 79 13 79 14 16 22 72 41 42 52
REMARK Flexibility Score: inf
ROOT
ATOM      1  C   UNL A   1      33.274  27.740  26.817  1.00  0.00     0.023 C 
ENDROOT
BRANCH   1   2
ATOM      2  C   UNL A   1      31.763  27.748  26.592  1.00  0.00     0.023 C 
BRANCH   2   3
ATOM      3  C   UNL A   1      31.238  26.581  25.762  1.00  0.00     0.116 C 
BRANCH   3   4
ATOM      4  N   UNL A   1      30.806  25.471  26.593  1.00  0.00    -0.351 N 
ATOM      5  C   UNL A   1      31.136  24.148  26.508  1.00  0.00     0.279 C 
ATOM      6  O   UNL A   1      30.606  23.363  27.299  1.00  0.00    -0.268 OA
ATOM      7  H   UNL A   1      30.187  25.705  27.322  1.00  0.00     0.163 HD
BRANCH   5   8
ATOM      8  C   UNL A   1      32.146  23.651  25.455  1.00  0.00     0.282 C 
ATOM      9  C   UNL A   1      34.213  22.277  25.277  1.00  0.00     0.195 C 
ATOM     10  C   UNL A   1      33.589  21.302  24.256  1.00  0.00     0.135 C 
ATOM     11  N   UNL A   1      33.197  22.879  26.145  1.00  0.00    -0.332 N 
ATOM     12  S   UNL A   1      32.371  22.030  23.115  1.00  0.00    -0.149 SA
ATOM     13  H   UNL A   1      33.671  23.505  26.796  1.00  0.00     0.347 HD
ATOM     14  H   UNL A   1      32.719  22.099  26.597  1.00  0.00     0.347 HD
ATOM     15  C   UNL A   1      31.369  22.965  24.317  1.00  0.00     0.145 C 
BRANCH   9  16
ATOM     16  C   UNL A   1      35.321  23.223  24.706  1.00  0.00     0.042 C 
ATOM     17  C   UNL A   1      36.130  24.063  25.695  1.00  0.00     0.014 C 
ATOM     18  C   UNL A   1      36.295  22.463  23.793  1.00  0.00     0.014 C 
ENDBRANCH   9  16
ENDBRANCH   5   8
ENDBRANCH   3   4
ENDBRANCH   2   3
ENDBRANCH   1   2
BRANCH   1  19
ATOM     19  C   UNL A   1      34.031  28.902  26.185  1.00  0.00     0.116 C 
BRANCH  19  20
ATOM     20  N   UNL A   1      33.808  30.163  26.875  1.00  0.00    -0.352 N 
ATOM     21  C   UNL A   1      34.582  30.779  27.829  1.00  0.00     0.251 C 
ATOM     22  H   UNL A   1      32.986  30.642  26.624  1.00  0.00     0.163 HD
ATOM     23  O   UNL A   1      34.157  31.772  28.407  1.00  0.00    -0.269 OA
BRANCH  21  24
ATOM     24  C   UNL A   1      35.907  30.221  28.174  1.00  0.00     0.039 A 
ATOM     25  C   UNL A   1      36.916  30.253  27.211  1.00  0.00     0.014 A 
ATOM     26  C   UNL A   1      36.159  29.682  29.439  1.00  0.00     0.014 A 
ATOM     27  C   UNL A   1      38.193  29.794  27.536  1.00  0.00     0.010 A 
ATOM     28  C   UNL A   1      37.454  29.305  29.788  1.00  0.00     0.010 A 
ATOM     29  C   UNL A   1      38.484  29.350  28.838  1.00  0.00    -0.014 A 
BRANCH  29  30
ATOM     30  C   UNL A   1      39.864  28.939  29.203  1.00  0.00     0.031 A 
ATOM     31  C   UNL A   1      40.776  29.883  29.941  1.00  0.00     0.074 A 
ATOM     32  C   UNL A   1      40.303  27.712  28.854  1.00  0.00     0.049 A 
ATOM     33  N   UNL A   1      41.996  29.680  30.370  1.00  0.00    -0.248 NA
ATOM     34  C   UNL A   1      40.264  31.236  30.212  1.00  0.00     0.031 C 
ATOM     35  C   UNL A   1      39.536  26.726  28.085  1.00  0.00     0.029 A 
ATOM     36  N   UNL A   1      41.493  27.078  29.107  1.00  0.00    -0.354 N 
ATOM     37  C   UNL A   1      42.392  30.871  30.968  1.00  0.00     0.074 A 
ATOM     38  C   UNL A   1      41.312  31.815  30.780  1.00  0.00     0.031 C 
ATOM     39  C   UNL A   1      40.261  25.602  27.963  1.00  0.00     0.029 A 
ATOM     40  C   UNL A   1      41.553  25.796  28.611  1.00  0.00     0.049 A 
ATOM     41  H   UNL A   1      42.234  27.501  29.597  1.00  0.00     0.167 HD
ATOM     42  C   UNL A   1      43.535  31.147  31.639  1.00  0.00     0.031 A 
ATOM     43  C   UNL A   1      42.536  24.878  28.672  1.00  0.00     0.031 A 
ATOM     44  C   UNL A   1      44.612  30.208  31.818  1.00  0.00     0.049 A 
ATOM     45  C   UNL A   1      43.802  25.212  29.414  1.00  0.00     0.074 A 
ATOM     46  C   UNL A   1      45.798  30.381  32.509  1.00  0.00     0.029 A 
ATOM     47  N   UNL A   1      44.633  28.920  31.305  1.00  0.00    -0.354 N 
ATOM     48  N   UNL A   1      44.126  26.323  30.032  1.00  0.00    -0.248 NA
ATOM     49  C   UNL A   1      44.825  24.161  29.486  1.00  0.00     0.031 C 
ATOM     50  C   UNL A   1      46.560  29.216  32.368  1.00  0.00     0.029 A 
ATOM     51  C   UNL A   1      45.819  28.293  31.647  1.00  0.00     0.049 A 
ATOM     52  H   UNL A   1      43.910  28.511  30.775  1.00  0.00     0.167 HD
ATOM     53  C   UNL A   1      45.382  26.095  30.586  1.00  0.00     0.074 A 
ATOM     54  C   UNL A   1      45.742  24.731  30.254  1.00  0.00     0.031 C 
ATOM     55  C   UNL A   1      46.168  26.938  31.301  1.00  0.00     0.031 A 
BRANCH  42  56
ATOM     56  C   UNL A   1      43.673  32.522  32.243  1.00  0.00    -0.014 A 
ATOM     57  C   UNL A   1      44.180  33.595  31.485  1.00  0.00     0.010 A 
ATOM     58  C   UNL A   1      43.247  32.760  33.562  1.00  0.00     0.010 A 
ATOM     59  C   UNL A   1      44.292  34.869  32.047  1.00  0.00     0.020 A 
ATOM     60  C   UNL A   1      43.328  34.041  34.117  1.00  0.00     0.020 A 
ATOM     61  C   UNL A   1      43.864  35.085  33.359  1.00  0.00     0.054 A 
BRANCH  61  62
ATOM     62  S   UNL A   1      43.988  36.759  34.047  1.00  0.00     0.124 S 
ATOM     63  O   UNL A   1      44.383  36.488  35.427  1.00  0.00    -0.237 OA
ATOM     64  O   UNL A   1      45.017  37.372  33.209  1.00  0.00    -0.237 OA
ATOM     65  O   UNL A   1      42.645  37.305  33.879  1.00  0.00    -0.744 OA
ENDBRANCH  61  62
ENDBRANCH  42  56
BRANCH  43  66
ATOM     66  C   UNL A   1      42.362  23.553  28.013  1.00  0.00    -0.014 A 
ATOM     67  C   UNL A   1      41.685  22.504  28.660  1.00  0.00     0.010 A 
ATOM     68  C   UNL A   1      42.885  23.333  26.724  1.00  0.00     0.010 A 
ATOM     69  C   UNL A   1      41.561  21.254  28.046  1.00  0.00     0.020 A 
ATOM     70  C   UNL A   1      42.733  22.095  26.093  1.00  0.00     0.020 A 
ATOM     71  C   UNL A   1      42.088  21.058  26.766  1.00  0.00     0.054 A 
BRANCH  71  72
ATOM     72  S   UNL A   1      41.890  19.437  25.975  1.00  0.00     0.124 S 
ATOM     73  O   UNL A   1      40.460  19.413  25.684  1.00  0.00    -0.237 OA
ATOM     74  O   UNL A   1      42.771  19.544  24.814  1.00  0.00    -0.237 OA
ATOM     75  O   UNL A   1      42.336  18.499  27.002  1.00  0.00    -0.744 OA
ENDBRANCH  71  72
ENDBRANCH  43  66
BRANCH  55  76
ATOM     76  C   UNL A   1      47.483  26.395  31.798  1.00  0.00    -0.014 A 
ATOM     77  C   UNL A   1      48.630  26.392  30.983  1.00  0.00     0.010 A 
ATOM     78  C   UNL A   1      47.577  25.897  33.111  1.00  0.00     0.010 A 
ATOM     79  C   UNL A   1      49.830  25.852  31.452  1.00  0.00     0.020 A 
ATOM     80  C   UNL A   1      48.783  25.388  33.597  1.00  0.00     0.020 A 
ATOM     81  C   UNL A   1      49.897  25.348  32.756  1.00  0.00     0.054 A 
BRANCH  81  82
ATOM     82  S   UNL A   1      51.467  24.660  33.344  1.00  0.00     0.124 S 
ATOM     83  O   UNL A   1      52.209  24.486  32.099  1.00  0.00    -0.237 OA
ATOM     84  O   UNL A   1      51.965  25.709  34.231  1.00  0.00    -0.237 OA
ATOM     85  O   UNL A   1      51.076  23.421  34.013  1.00  0.00    -0.744 OA
ENDBRANCH  81  82
ENDBRANCH  55  76
ENDBRANCH  29  30
ENDBRANCH  21  24
ENDBRANCH  19  20
ENDBRANCH   1  19
TORSDOF 15
ENDMDL
MODEL 3
REMARK VINA RESULT:     -10.7      5.646     10.813
REMARK SMILES CC(C)[C@@H]1CSC[C@@H](C(=O)NCCCCNC(=O)c2ccc(-c3c4nc(c(-c5ccc(S(=O)(=O)[O-])cc5)c5ccc([nH]5)c(-c5ccc(S(=O)(=O)[O-])cc5)c5nc(c(-c6ccc(S(=O)(=O)[O-])cc6)c6ccc3[nH]6)C=C5)C=C4)cc2)[NH2+]1
REMARK SMILES IDX 14 1 13 2 12 3 11 4 9 5 10 6 8 8 4 9 5 10 79 11 6 12 7 15
REMARK SMILES IDX 2 16 1 17 3 18 15 19 16 20 17 21 18 23 19 24 20 25 78 26
REMARK SMILES IDX 21 27 77 28 22 29 23 30 24 31 71 32 25 33 76 34 70 35 72 36
REMARK SMILES IDX 26 37 75 38 69 39 68 40 27 42 57 43 38 44 56 45 39 46 42 47
REMARK SMILES IDX 55 48 73 49 40 50 41 51 54 53 74 54 43 55 28 56 29 57 37 58
REMARK SMILES IDX 30 59 36 60 31 61 32 62 33 63 34 64 35 65 58 66 59 67 67 68
REMARK SMILES IDX 60 69 66 70 61 71 62 72 63 73 64 74 65 75 44 76 45 77 53 78
REMARK SMILES IDX 46 79 52 80 47 81 48 82 49 83 50 84 51 85
REMARK H PARENT 11 7 79 13 79 14 16 22 72 41 42 52
REMARK Flexibility Score: inf
ROOT
ATOM      1  C   UNL A   1      32.242  27.466  27.114  1.00  0.00     0.023 C 
ENDROOT
BRANCH   1   2
ATOM      2  C   UNL A   1      31.387  27.628  25.857  1.00  0.00     0.023 C 
BRANCH   2   3
ATOM      3  C   UNL A   1      30.944  26.318  25.217  1.00  0.00     0.116 C 
BRANCH   3   4
ATOM      4  N   UNL A   1      30.270  25.448  26.166  1.00  0.00    -0.351 N 
ATOM      5  C   UNL A   1      30.583  24.172  26.541  1.00  0.00     0.279 C 
ATOM      6  O   UNL A   1      29.835  23.597  27.336  1.00  0.00    -0.268 OA
ATOM      7  H   UNL A   1      29.476  25.832  26.601  1.00  0.00     0.163 HD
BRANCH   5   8
ATOM      8  C   UNL A   1      31.840  23.470  25.988  1.00  0.00     0.282 C 
ATOM      9  C   UNL A   1      34.203  22.996  26.608  1.00  0.00     0.195 C 
ATOM     10  C   UNL A   1      34.030  21.469  26.473  1.00  0.00     0.135 C 
ATOM     11  N   UNL A   1      32.941  23.658  26.952  1.00  0.00    -0.332 N 
ATOM     12  S   UNL A   1      32.852  20.920  25.198  1.00  0.00    -0.149 SA
ATOM     13  H   UNL A   1      33.122  24.659  27.031  1.00  0.00     0.347 HD
ATOM     14  H   UNL A   1      32.627  23.225  27.821  1.00  0.00     0.347 HD
ATOM     15  C   UNL A   1      31.462  22.033  25.587  1.00  0.00     0.145 C 
BRANCH   9  16
ATOM     16  C   UNL A   1      35.088  23.668  25.506  1.00  0.00     0.042 C 
ATOM     17  C   UNL A   1      34.747  25.098  25.083  1.00  0.00     0.014 C 
ATOM     18  C   UNL A   1      36.580  23.604  25.867  1.00  0.00     0.014 C 
ENDBRANCH   9  16
ENDBRANCH   5   8
ENDBRANCH   3   4
ENDBRANCH   2   3
ENDBRANCH   1   2
BRANCH   1  19
ATOM     19  C   UNL A   1      33.565  28.223  27.100  1.00  0.00     0.116 C 
BRANCH  19  20
ATOM     20  N   UNL A   1      33.403  29.647  27.347  1.00  0.00    -0.352 N 
ATOM     21  C   UNL A   1      34.283  30.534  27.919  1.00  0.00     0.251 C 
ATOM     22  H   UNL A   1      32.542  30.029  27.063  1.00  0.00     0.163 HD
ATOM     23  O   UNL A   1      33.914  31.673  28.180  1.00  0.00    -0.269 OA
BRANCH  21  24
ATOM     24  C   UNL A   1      35.657  30.099  28.247  1.00  0.00     0.039 A 
ATOM     25  C   UNL A   1      36.618  30.101  27.235  1.00  0.00     0.014 A 
ATOM     26  C   UNL A   1      36.002  29.703  29.544  1.00  0.00     0.014 A 
ATOM     27  C   UNL A   1      37.937  29.760  27.537  1.00  0.00     0.010 A 
ATOM     28  C   UNL A   1      37.334  29.447  29.860  1.00  0.00     0.010 A 
ATOM     29  C   UNL A   1      38.316  29.465  28.859  1.00  0.00    -0.014 A 
BRANCH  29  30
ATOM     30  C   UNL A   1      39.736  29.181  29.190  1.00  0.00     0.031 A 
ATOM     31  C   UNL A   1      40.346  27.843  28.870  1.00  0.00     0.074 A 
ATOM     32  C   UNL A   1      40.475  30.132  29.798  1.00  0.00     0.049 A 
ATOM     33  N   UNL A   1      41.575  27.434  29.055  1.00  0.00    -0.248 NA
ATOM     34  C   UNL A   1      39.458  26.823  28.288  1.00  0.00     0.031 C 
ATOM     35  C   UNL A   1      39.983  31.449  30.215  1.00  0.00     0.029 A 
ATOM     36  N   UNL A   1      41.799  30.144  30.162  1.00  0.00    -0.354 N 
ATOM     37  C   UNL A   1      41.611  26.119  28.606  1.00  0.00     0.074 A 
ATOM     38  C   UNL A   1      40.264  25.774  28.209  1.00  0.00     0.031 C 
ATOM     39  C   UNL A   1      40.999  32.152  30.741  1.00  0.00     0.029 A 
ATOM     40  C   UNL A   1      42.203  31.328  30.733  1.00  0.00     0.049 A 
ATOM     41  H   UNL A   1      42.401  29.378  30.026  1.00  0.00     0.167 HD
ATOM     42  C   UNL A   1      42.672  25.283  28.503  1.00  0.00     0.031 A 
ATOM     43  C   UNL A   1      43.409  31.710  31.198  1.00  0.00     0.031 A 
ATOM     44  C   UNL A   1      44.011  25.627  28.906  1.00  0.00     0.049 A 
ATOM     45  C   UNL A   1      44.570  30.760  31.082  1.00  0.00     0.074 A 
ATOM     46  C   UNL A   1      45.160  24.862  28.814  1.00  0.00     0.029 A 
ATOM     47  N   UNL A   1      44.380  26.836  29.476  1.00  0.00    -0.354 N 
ATOM     48  N   UNL A   1      44.594  29.545  30.589  1.00  0.00    -0.248 NA
ATOM     49  C   UNL A   1      45.870  31.242  31.566  1.00  0.00     0.031 C 
ATOM     50  C   UNL A   1      46.215  25.588  29.377  1.00  0.00     0.029 A 
ATOM     51  C   UNL A   1      45.736  26.831  29.758  1.00  0.00     0.049 A 
ATOM     52  H   UNL A   1      43.769  27.587  29.654  1.00  0.00     0.167 HD
ATOM     53  C   UNL A   1      45.917  29.126  30.682  1.00  0.00     0.074 A 
ATOM     54  C   UNL A   1      46.665  30.230  31.250  1.00  0.00     0.031 C 
ATOM     55  C   UNL A   1      46.464  27.934  30.333  1.00  0.00     0.031 A 
BRANCH  42  56
ATOM     56  C   UNL A   1      42.426  23.916  27.917  1.00  0.00    -0.014 A 
ATOM     57  C   UNL A   1      42.498  23.705  26.527  1.00  0.00     0.010 A 
ATOM     58  C   UNL A   1      42.171  22.821  28.761  1.00  0.00     0.010 A 
ATOM     59  C   UNL A   1      42.284  22.432  25.991  1.00  0.00     0.020 A 
ATOM     60  C   UNL A   1      41.987  21.539  28.231  1.00  0.00     0.020 A 
ATOM     61  C   UNL A   1      42.031  21.357  26.846  1.00  0.00     0.054 A 
BRANCH  61  62
ATOM     62  S   UNL A   1      41.793  19.711  26.122  1.00  0.00     0.124 S 
ATOM     63  O   UNL A   1      42.695  19.754  24.974  1.00  0.00    -0.237 OA
ATOM     64  O   UNL A   1      42.202  18.824  27.207  1.00  0.00    -0.237 OA
ATOM     65  O   UNL A   1      40.370  19.677  25.794  1.00  0.00    -0.744 OA
ENDBRANCH  61  62
ENDBRANCH  42  56
BRANCH  43  66
ATOM     66  C   UNL A   1      43.579  33.057  31.812  1.00  0.00    -0.014 A 
ATOM     67  C   UNL A   1      43.510  33.231  33.206  1.00  0.00     0.010 A 
ATOM     68  C   UNL A   1      43.805  34.181  30.996  1.00  0.00     0.010 A 
ATOM     69  C   UNL A   1      43.634  34.505  33.768  1.00  0.00     0.020 A 
ATOM     70  C   UNL A   1      43.963  35.451  31.557  1.00  0.00     0.020 A 
ATOM     71  C   UNL A   1      43.859  35.608  32.939  1.00  0.00     0.054 A 
BRANCH  71  72
ATOM     72  S   UNL A   1      44.046  37.248  33.691  1.00  0.00     0.124 S 
ATOM     73  O   UNL A   1      44.807  37.965  32.673  1.00  0.00    -0.237 OA
ATOM     74  O   UNL A   1      42.660  37.676  33.864  1.00  0.00    -0.237 OA
ATOM     75  O   UNL A   1      44.765  36.974  34.933  1.00  0.00    -0.744 OA
ENDBRANCH  71  72
ENDBRANCH  43  66
BRANCH  55  76
ATOM     76  C   UNL A   1      47.951  27.777  30.529  1.00  0.00    -0.014 A 
ATOM     77  C   UNL A   1      48.868  28.202  29.550  1.00  0.00     0.010 A 
ATOM     78  C   UNL A   1      48.438  27.211  31.722  1.00  0.00     0.010 A 
ATOM     79  C   UNL A   1      50.240  28.015  29.737  1.00  0.00     0.020 A 
ATOM     80  C   UNL A   1      49.810  27.054  31.929  1.00  0.00     0.020 A 
ATOM     81  C   UNL A   1      50.702  27.436  30.924  1.00  0.00     0.054 A 
BRANCH  81  82
ATOM     82  S   UNL A   1      52.487  27.212  31.147  1.00  0.00     0.124 S 
ATOM     83  O   UNL A   1      52.653  25.791  30.856  1.00  0.00    -0.237 OA
ATOM     84  O   UNL A   1      53.051  28.127  30.158  1.00  0.00    -0.237 OA
ATOM     85  O   UNL A   1      52.714  27.591  32.540  1.00  0.00    -0.744 OA
ENDBRANCH  81  82
ENDBRANCH  55  76
ENDBRANCH  29  30
ENDBRANCH  21  24
ENDBRANCH  19  20
ENDBRANCH   1  19
TORSDOF 15
ENDMDL
