MODEL 1
REMARK VINA RESULT:     -13.2      0.000      0.000
REMARK SMILES Cc1cc(NC(=O)c2ccc(Br)cc2N)ccc1C(=O)NCCCCNC(=O)c1ccc(-c2c3nc(c(-c4ccc(S(=O)(=O)[O-])cc4)c4ccc([nH]4)c(-c4ccc(S(=O)(=O)[O-])cc4)c4nc(c(-c5ccc(S(=O)(=O)[O-])cc5)c5ccc2[nH]5)C=C4)C=C3)cc1
REMARK SMILES IDX 23 1 22 2 21 3 19 4 20 5 18 7 1 8 2 9 3 10 4 11 17 12 16 13
REMARK SMILES IDX 5 14 6 15 7 17 8 18 9 19 14 20 10 21 13 22 11 23 12 24 15 25
REMARK SMILES IDX 24 28 25 29 26 30 27 31 28 33 29 34 30 35 88 36 31 37 87 38
REMARK SMILES IDX 32 39 33 40 34 41 81 42 35 43 86 44 80 45 82 46 36 47 85 48
REMARK SMILES IDX 79 49 78 50 37 52 67 53 48 54 66 55 49 56 52 57 65 58 83 59
REMARK SMILES IDX 50 60 51 61 64 63 84 64 53 65 38 66 39 67 47 68 40 69 46 70
REMARK SMILES IDX 41 71 42 72 43 73 44 74 45 75 68 76 69 77 77 78 70 79 76 80
REMARK SMILES IDX 71 81 72 82 73 83 74 84 75 85 54 86 55 87 63 88 56 89 62 90
REMARK SMILES IDX 57 91 58 92 59 93 60 94 61 95
REMARK H PARENT 21 6 5 16 15 26 15 27 26 32 82 51 52 62
REMARK Flexibility Score: inf
ROOT
ATOM      1  C   UNL A   1      33.895  28.963  25.435  1.00  0.00     0.023 C 
ENDROOT
BRANCH   1   2
ATOM      2  C   UNL A   1      33.463  29.197  23.978  1.00  0.00     0.116 C 
BRANCH   2   3
ATOM      3  N   UNL A   1      32.029  29.403  23.909  1.00  0.00    -0.352 N 
ATOM      4  C   UNL A   1      30.924  28.617  24.089  1.00  0.00     0.251 C 
ATOM      5  O   UNL A   1      29.843  29.171  23.852  1.00  0.00    -0.269 OA
ATOM      6  H   UNL A   1      31.794  30.331  23.678  1.00  0.00     0.163 HD
BRANCH   4   7
ATOM      7  C   UNL A   1      30.875  27.210  24.621  1.00  0.00     0.042 A 
ATOM      8  C   UNL A   1      31.281  27.517  27.173  1.00  0.00     0.045 C 
ATOM      9  C   UNL A   1      31.004  26.725  25.935  1.00  0.00    -0.036 A 
ATOM     10  C   UNL A   1      30.945  25.331  26.159  1.00  0.00     0.030 A 
ATOM     11  C   UNL A   1      30.814  24.408  25.128  1.00  0.00     0.041 A 
ATOM     12  C   UNL A   1      30.809  26.243  23.582  1.00  0.00     0.016 A 
ATOM     13  C   UNL A   1      30.816  24.865  23.822  1.00  0.00     0.027 A 
BRANCH  11  14
ATOM     14  N   UNL A   1      30.687  23.032  25.376  1.00  0.00    -0.322 N 
ATOM     15  C   UNL A   1      31.655  22.048  25.275  1.00  0.00     0.257 C 
ATOM     16  H   UNL A   1      29.793  22.728  25.658  1.00  0.00     0.170 HD
ATOM     17  O   UNL A   1      31.323  20.867  25.183  1.00  0.00    -0.269 OA
BRANCH  15  18
ATOM     18  C   UNL A   1      33.104  22.396  25.351  1.00  0.00     0.063 A 
ATOM     19  C   UNL A   1      33.657  22.509  26.638  1.00  0.00     0.017 A 
ATOM     20  C   UNL A   1      33.906  22.608  24.207  1.00  0.00     0.045 A 
ATOM     21  C   UNL A   1      35.006  22.824  26.799  1.00  0.00     0.016 A 
ATOM     22  C   UNL A   1      35.254  22.947  24.394  1.00  0.00     0.042 A 
ATOM     23  C   UNL A   1      35.796  23.046  25.675  1.00  0.00     0.020 A 
ATOM     24  Br  UNL A   1      37.609  23.533  25.888  1.00  0.00    -0.051 Br
BRANCH  20  25
ATOM     25  N   UNL A   1      33.398  22.660  22.907  1.00  0.00    -0.398 N 
ATOM     26  H   UNL A   1      32.647  22.077  22.648  1.00  0.00     0.156 HD
ATOM     27  H   UNL A   1      33.789  23.279  22.249  1.00  0.00     0.156 HD
ENDBRANCH  20  25
ENDBRANCH  15  18
ENDBRANCH  11  14
ENDBRANCH   4   7
ENDBRANCH   2   3
ENDBRANCH   1   2
BRANCH   1  28
ATOM     28  C   UNL A   1      33.580  30.101  26.401  1.00  0.00     0.023 C 
BRANCH  28  29
ATOM     29  C   UNL A   1      34.421  30.028  27.660  1.00  0.00     0.116 C 
BRANCH  29  30
ATOM     30  N   UNL A   1      35.242  31.210  27.903  1.00  0.00    -0.352 N 
ATOM     31  C   UNL A   1      36.560  31.239  28.328  1.00  0.00     0.251 C 
ATOM     32  H   UNL A   1      34.811  32.082  27.748  1.00  0.00     0.163 HD
ATOM     33  O   UNL A   1      37.112  32.280  28.665  1.00  0.00    -0.269 OA
BRANCH  31  34
ATOM     34  C   UNL A   1      37.307  29.964  28.282  1.00  0.00     0.039 A 
ATOM     35  C   UNL A   1      37.370  29.205  29.454  1.00  0.00     0.014 A 
ATOM     36  C   UNL A   1      38.186  29.733  27.229  1.00  0.00     0.014 A 
ATOM     37  C   UNL A   1      38.453  28.352  29.654  1.00  0.00     0.010 A 
ATOM     38  C   UNL A   1      39.325  28.996  27.486  1.00  0.00     0.010 A 
ATOM     39  C   UNL A   1      39.485  28.342  28.718  1.00  0.00    -0.014 A 
BRANCH  39  40
ATOM     40  C   UNL A   1      40.804  27.760  28.963  1.00  0.00     0.031 A 
ATOM     41  C   UNL A   1      41.062  26.341  28.612  1.00  0.00     0.074 A 
ATOM     42  C   UNL A   1      41.826  28.527  29.409  1.00  0.00     0.049 A 
ATOM     43  N   UNL A   1      42.042  25.633  29.072  1.00  0.00    -0.248 NA
ATOM     44  C   UNL A   1      40.165  25.574  27.751  1.00  0.00     0.031 C 
ATOM     45  C   UNL A   1      43.248  28.193  29.362  1.00  0.00     0.029 A 
ATOM     46  N   UNL A   1      41.783  29.679  30.200  1.00  0.00    -0.354 N 
ATOM     47  C   UNL A   1      42.096  24.473  28.328  1.00  0.00     0.074 A 
ATOM     48  C   UNL A   1      40.844  24.434  27.614  1.00  0.00     0.031 C 
ATOM     49  C   UNL A   1      43.885  28.892  30.313  1.00  0.00     0.029 A 
ATOM     50  C   UNL A   1      42.870  29.587  31.086  1.00  0.00     0.049 A 
ATOM     51  H   UNL A   1      41.124  30.409  30.146  1.00  0.00     0.167 HD
ATOM     52  C   UNL A   1      43.259  23.761  28.274  1.00  0.00     0.031 A 
ATOM     53  C   UNL A   1      42.760  29.557  32.446  1.00  0.00     0.031 A 
ATOM     54  C   UNL A   1      44.233  24.242  29.255  1.00  0.00     0.049 A 
ATOM     55  C   UNL A   1      43.378  28.326  33.072  1.00  0.00     0.074 A 
ATOM     56  C   UNL A   1      45.388  25.001  29.160  1.00  0.00     0.029 A 
ATOM     57  N   UNL A   1      43.922  24.169  30.610  1.00  0.00    -0.354 N 
ATOM     58  N   UNL A   1      43.763  27.283  32.390  1.00  0.00    -0.248 NA
ATOM     59  C   UNL A   1      43.559  28.141  34.510  1.00  0.00     0.031 C 
ATOM     60  C   UNL A   1      45.714  25.466  30.462  1.00  0.00     0.029 A 
ATOM     61  C   UNL A   1      44.778  24.963  31.349  1.00  0.00     0.049 A 
ATOM     62  H   UNL A   1      43.193  23.627  30.989  1.00  0.00     0.167 HD
ATOM     63  C   UNL A   1      44.195  26.304  33.244  1.00  0.00     0.074 A 
ATOM     64  C   UNL A   1      44.069  26.897  34.563  1.00  0.00     0.031 C 
ATOM     65  C   UNL A   1      44.601  25.083  32.790  1.00  0.00     0.031 A 
BRANCH  52  66
ATOM     66  C   UNL A   1      43.616  22.831  27.124  1.00  0.00    -0.014 A 
ATOM     67  C   UNL A   1      42.819  21.692  26.874  1.00  0.00     0.010 A 
ATOM     68  C   UNL A   1      44.766  22.951  26.321  1.00  0.00     0.010 A 
ATOM     69  C   UNL A   1      43.206  20.691  25.965  1.00  0.00     0.020 A 
ATOM     70  C   UNL A   1      45.179  21.954  25.426  1.00  0.00     0.020 A 
ATOM     71  C   UNL A   1      44.404  20.814  25.267  1.00  0.00     0.054 A 
BRANCH  71  72
ATOM     72  S   UNL A   1      44.951  19.478  24.174  1.00  0.00     0.124 S 
ATOM     73  O   UNL A   1      44.235  18.323  24.708  1.00  0.00    -0.237 OA
ATOM     74  O   UNL A   1      44.512  19.945  22.863  1.00  0.00    -0.237 OA
ATOM     75  O   UNL A   1      46.400  19.444  24.366  1.00  0.00    -0.744 OA
ENDBRANCH  71  72
ENDBRANCH  52  66
BRANCH  53  76
ATOM     76  C   UNL A   1      41.590  30.297  32.987  1.00  0.00    -0.014 A 
ATOM     77  C   UNL A   1      41.824  31.611  33.442  1.00  0.00     0.010 A 
ATOM     78  C   UNL A   1      40.281  29.918  32.638  1.00  0.00     0.010 A 
ATOM     79  C   UNL A   1      40.823  32.578  33.365  1.00  0.00     0.020 A 
ATOM     80  C   UNL A   1      39.272  30.888  32.565  1.00  0.00     0.020 A 
ATOM     81  C   UNL A   1      39.574  32.223  32.857  1.00  0.00     0.054 A 
BRANCH  81  82
ATOM     82  S   UNL A   1      38.451  33.563  32.364  1.00  0.00     0.124 S 
ATOM     83  O   UNL A   1      38.824  33.790  30.972  1.00  0.00    -0.237 OA
ATOM     84  O   UNL A   1      37.145  32.940  32.575  1.00  0.00    -0.237 OA
ATOM     85  O   UNL A   1      38.788  34.639  33.292  1.00  0.00    -0.744 OA
ENDBRANCH  81  82
ENDBRANCH  53  76
BRANCH  65  86
ATOM     86  C   UNL A   1      44.932  23.892  33.654  1.00  0.00    -0.014 A 
ATOM     87  C   UNL A   1      44.003  22.908  34.028  1.00  0.00     0.010 A 
ATOM     88  C   UNL A   1      46.285  23.668  34.006  1.00  0.00     0.010 A 
ATOM     89  C   UNL A   1      44.395  21.782  34.768  1.00  0.00     0.020 A 
ATOM     90  C   UNL A   1      46.693  22.530  34.708  1.00  0.00     0.020 A 
ATOM     91  C   UNL A   1      45.738  21.603  35.107  1.00  0.00     0.054 A 
BRANCH  91  92
ATOM     92  S   UNL A   1      46.254  20.114  36.000  1.00  0.00     0.124 S 
ATOM     93  O   UNL A   1      47.709  20.191  35.897  1.00  0.00    -0.237 OA
ATOM     94  O   UNL A   1      45.710  20.326  37.341  1.00  0.00    -0.237 OA
ATOM     95  O   UNL A   1      45.627  19.032  35.247  1.00  0.00    -0.744 OA
ENDBRANCH  91  92
ENDBRANCH  65  86
ENDBRANCH  39  40
ENDBRANCH  31  34
ENDBRANCH  29  30
ENDBRANCH  28  29
ENDBRANCH   1  28
TORSDOF 17
ENDMDL
MODEL 2
REMARK VINA RESULT:     -13.2      1.172      1.710
REMARK SMILES Cc1cc(NC(=O)c2ccc(Br)cc2N)ccc1C(=O)NCCCCNC(=O)c1ccc(-c2c3nc(c(-c4ccc(S(=O)(=O)[O-])cc4)c4ccc([nH]4)c(-c4ccc(S(=O)(=O)[O-])cc4)c4nc(c(-c5ccc(S(=O)(=O)[O-])cc5)c5ccc2[nH]5)C=C4)C=C3)cc1
REMARK SMILES IDX 23 1 22 2 21 3 19 4 20 5 18 7 1 8 2 9 3 10 4 11 17 12 16 13
REMARK SMILES IDX 5 14 6 15 7 17 8 18 9 19 14 20 10 21 13 22 11 23 12 24 15 25
REMARK SMILES IDX 24 28 25 29 26 30 27 31 28 33 29 34 30 35 88 36 31 37 87 38
REMARK SMILES IDX 32 39 33 40 34 41 81 42 35 43 86 44 80 45 82 46 36 47 85 48
REMARK SMILES IDX 79 49 78 50 37 52 67 53 48 54 66 55 49 56 52 57 65 58 83 59
REMARK SMILES IDX 50 60 51 61 64 63 84 64 53 65 38 66 39 67 47 68 40 69 46 70
REMARK SMILES IDX 41 71 42 72 43 73 44 74 45 75 68 76 69 77 77 78 70 79 76 80
REMARK SMILES IDX 71 81 72 82 73 83 74 84 75 85 54 86 55 87 63 88 56 89 62 90
REMARK SMILES IDX 57 91 58 92 59 93 60 94 61 95
REMARK H PARENT 21 6 5 16 15 26 15 27 26 32 82 51 52 62
REMARK Flexibility Score: inf
ROOT
ATOM      1  C   UNL A   1      33.177  29.433  25.336  1.00  0.00     0.023 C 
ENDROOT
BRANCH   1   2
ATOM      2  C   UNL A   1      33.468  29.311  23.831  1.00  0.00     0.116 C 
BRANCH   2   3
ATOM      3  N   UNL A   1      32.229  29.349  23.078  1.00  0.00    -0.352 N 
ATOM      4  C   UNL A   1      31.269  28.435  22.741  1.00  0.00     0.251 C 
ATOM      5  O   UNL A   1      30.379  28.862  21.994  1.00  0.00    -0.269 OA
ATOM      6  H   UNL A   1      32.032  30.246  22.723  1.00  0.00     0.163 HD
BRANCH   4   7
ATOM      7  C   UNL A   1      31.127  27.024  23.244  1.00  0.00     0.042 A 
ATOM      8  C   UNL A   1      32.092  25.591  21.298  1.00  0.00     0.045 C 
ATOM      9  C   UNL A   1      31.492  25.802  22.651  1.00  0.00    -0.036 A 
ATOM     10  C   UNL A   1      31.218  24.598  23.339  1.00  0.00     0.030 A 
ATOM     11  C   UNL A   1      30.555  24.563  24.561  1.00  0.00     0.041 A 
ATOM     12  C   UNL A   1      30.394  26.956  24.459  1.00  0.00     0.016 A 
ATOM     13  C   UNL A   1      30.078  25.748  25.092  1.00  0.00     0.027 A 
BRANCH  11  14
ATOM     14  N   UNL A   1      30.355  23.364  25.262  1.00  0.00    -0.322 N 
ATOM     15  C   UNL A   1      31.262  22.345  25.497  1.00  0.00     0.257 C 
ATOM     16  H   UNL A   1      29.454  23.232  25.636  1.00  0.00     0.170 HD
ATOM     17  O   UNL A   1      30.860  21.227  25.814  1.00  0.00    -0.269 OA
BRANCH  15  18
ATOM     18  C   UNL A   1      32.730  22.606  25.443  1.00  0.00     0.063 A 
ATOM     19  C   UNL A   1      33.248  23.489  26.406  1.00  0.00     0.017 A 
ATOM     20  C   UNL A   1      33.583  22.011  24.486  1.00  0.00     0.045 A 
ATOM     21  C   UNL A   1      34.612  23.782  26.430  1.00  0.00     0.016 A 
ATOM     22  C   UNL A   1      34.946  22.339  24.515  1.00  0.00     0.042 A 
ATOM     23  C   UNL A   1      35.452  23.209  25.481  1.00  0.00     0.020 A 
ATOM     24  Br  UNL A   1      37.290  23.649  25.471  1.00  0.00    -0.051 Br
BRANCH  20  25
ATOM     25  N   UNL A   1      33.122  21.245  23.413  1.00  0.00    -0.398 N 
ATOM     26  H   UNL A   1      33.326  20.282  23.372  1.00  0.00     0.156 HD
ATOM     27  H   UNL A   1      32.593  21.666  22.698  1.00  0.00     0.156 HD
ENDBRANCH  20  25
ENDBRANCH  15  18
ENDBRANCH  11  14
ENDBRANCH   4   7
ENDBRANCH   2   3
ENDBRANCH   1   2
BRANCH   1  28
ATOM     28  C   UNL A   1      34.370  29.189  26.255  1.00  0.00     0.023 C 
BRANCH  28  29
ATOM     29  C   UNL A   1      34.202  29.870  27.599  1.00  0.00     0.116 C 
BRANCH  29  30
ATOM     30  N   UNL A   1      35.004  31.078  27.764  1.00  0.00    -0.352 N 
ATOM     31  C   UNL A   1      36.344  31.151  28.109  1.00  0.00     0.251 C 
ATOM     32  H   UNL A   1      34.542  31.934  27.614  1.00  0.00     0.163 HD
ATOM     33  O   UNL A   1      36.887  32.214  28.388  1.00  0.00    -0.269 OA
BRANCH  31  34
ATOM     34  C   UNL A   1      37.120  29.895  28.050  1.00  0.00     0.039 A 
ATOM     35  C   UNL A   1      37.164  29.103  29.200  1.00  0.00     0.014 A 
ATOM     36  C   UNL A   1      38.037  29.715  27.019  1.00  0.00     0.014 A 
ATOM     37  C   UNL A   1      38.259  28.268  29.410  1.00  0.00     0.010 A 
ATOM     38  C   UNL A   1      39.184  28.995  27.291  1.00  0.00     0.010 A 
ATOM     39  C   UNL A   1      39.320  28.308  28.507  1.00  0.00    -0.014 A 
BRANCH  39  40
ATOM     40  C   UNL A   1      40.643  27.748  28.777  1.00  0.00     0.031 A 
ATOM     41  C   UNL A   1      40.918  26.321  28.473  1.00  0.00     0.074 A 
ATOM     42  C   UNL A   1      41.655  28.540  29.203  1.00  0.00     0.049 A 
ATOM     43  N   UNL A   1      41.902  25.638  28.961  1.00  0.00    -0.248 NA
ATOM     44  C   UNL A   1      40.033  25.518  27.634  1.00  0.00     0.031 C 
ATOM     45  C   UNL A   1      43.081  28.219  29.173  1.00  0.00     0.029 A 
ATOM     46  N   UNL A   1      41.597  29.716  29.956  1.00  0.00    -0.354 N 
ATOM     47  C   UNL A   1      41.972  24.456  28.255  1.00  0.00     0.074 A 
ATOM     48  C   UNL A   1      40.724  24.381  27.537  1.00  0.00     0.031 C 
ATOM     49  C   UNL A   1      43.707  28.955  30.104  1.00  0.00     0.029 A 
ATOM     50  C   UNL A   1      42.681  29.664  30.849  1.00  0.00     0.049 A 
ATOM     51  H   UNL A   1      40.931  30.437  29.876  1.00  0.00     0.167 HD
ATOM     52  C   UNL A   1      43.142  23.754  28.229  1.00  0.00     0.031 A 
ATOM     53  C   UNL A   1      42.564  29.677  32.209  1.00  0.00     0.031 A 
ATOM     54  C   UNL A   1      44.107  24.277  29.199  1.00  0.00     0.049 A 
ATOM     55  C   UNL A   1      43.192  28.473  32.878  1.00  0.00     0.074 A 
ATOM     56  C   UNL A   1      45.254  25.044  29.085  1.00  0.00     0.029 A 
ATOM     57  N   UNL A   1      43.789  24.245  30.554  1.00  0.00    -0.354 N 
ATOM     58  N   UNL A   1      43.590  27.413  32.231  1.00  0.00    -0.248 NA
ATOM     59  C   UNL A   1      43.367  28.337  34.322  1.00  0.00     0.031 C 
ATOM     60  C   UNL A   1      45.569  25.555  30.373  1.00  0.00     0.029 A 
ATOM     61  C   UNL A   1      44.634  25.071  31.271  1.00  0.00     0.049 A 
ATOM     62  H   UNL A   1      43.064  23.708  30.947  1.00  0.00     0.167 HD
ATOM     63  C   UNL A   1      44.028  26.466  33.119  1.00  0.00     0.074 A 
ATOM     64  C   UNL A   1      43.889  27.100  34.417  1.00  0.00     0.031 C 
ATOM     65  C   UNL A   1      44.449  25.235  32.707  1.00  0.00     0.031 A 
BRANCH  52  66
ATOM     66  C   UNL A   1      43.514  22.791  27.112  1.00  0.00    -0.014 A 
ATOM     67  C   UNL A   1      42.746  21.622  26.913  1.00  0.00     0.010 A 
ATOM     68  C   UNL A   1      44.653  22.912  26.294  1.00  0.00     0.010 A 
ATOM     69  C   UNL A   1      43.153  20.598  26.038  1.00  0.00     0.020 A 
ATOM     70  C   UNL A   1      45.085  21.893  25.433  1.00  0.00     0.020 A 
ATOM     71  C   UNL A   1      44.340  20.727  25.324  1.00  0.00     0.054 A 
BRANCH  71  72
ATOM     72  S   UNL A   1      44.914  19.366  24.278  1.00  0.00     0.124 S 
ATOM     73  O   UNL A   1      46.353  19.365  24.524  1.00  0.00    -0.237 OA
ATOM     74  O   UNL A   1      44.178  18.225  24.815  1.00  0.00    -0.237 OA
ATOM     75  O   UNL A   1      44.522  19.776  22.930  1.00  0.00    -0.744 OA
ENDBRANCH  71  72
ENDBRANCH  52  66
BRANCH  53  76
ATOM     76  C   UNL A   1      41.384  30.422  32.720  1.00  0.00    -0.014 A 
ATOM     77  C   UNL A   1      40.200  29.681  32.913  1.00  0.00     0.010 A 
ATOM     78  C   UNL A   1      41.549  31.638  33.407  1.00  0.00     0.010 A 
ATOM     79  C   UNL A   1      39.293  30.039  33.910  1.00  0.00     0.020 A 
ATOM     80  C   UNL A   1      40.635  32.001  34.407  1.00  0.00     0.020 A 
ATOM     81  C   UNL A   1      39.558  31.157  34.698  1.00  0.00     0.054 A 
BRANCH  81  82
ATOM     82  S   UNL A   1      38.616  31.345  36.241  1.00  0.00     0.124 S 
ATOM     83  O   UNL A   1      39.553  32.064  37.096  1.00  0.00    -0.237 OA
ATOM     84  O   UNL A   1      37.460  32.115  35.783  1.00  0.00    -0.237 OA
ATOM     85  O   UNL A   1      38.335  29.966  36.630  1.00  0.00    -0.744 OA
ENDBRANCH  81  82
ENDBRANCH  53  76
BRANCH  65  86
ATOM     86  C   UNL A   1      44.787  24.076  33.610  1.00  0.00    -0.014 A 
ATOM     87  C   UNL A   1      43.917  23.009  33.881  1.00  0.00     0.010 A 
ATOM     88  C   UNL A   1      46.106  23.978  34.117  1.00  0.00     0.010 A 
ATOM     89  C   UNL A   1      44.324  21.921  34.669  1.00  0.00     0.020 A 
ATOM     90  C   UNL A   1      46.534  22.880  34.868  1.00  0.00     0.020 A 
ATOM     91  C   UNL A   1      45.630  21.866  35.160  1.00  0.00     0.054 A 
BRANCH  91  92
ATOM     92  S   UNL A   1      46.176  20.427  36.117  1.00  0.00     0.124 S 
ATOM     93  O   UNL A   1      45.884  20.847  37.485  1.00  0.00    -0.237 OA
ATOM     94  O   UNL A   1      45.336  19.348  35.601  1.00  0.00    -0.237 OA
ATOM     95  O   UNL A   1      47.593  20.317  35.783  1.00  0.00    -0.744 OA
ENDBRANCH  91  92
ENDBRANCH  65  86
ENDBRANCH  39  40
ENDBRANCH  31  34
ENDBRANCH  29  30
ENDBRANCH  28  29
ENDBRANCH   1  28
TORSDOF 17
ENDMDL
MODEL 3
REMARK VINA RESULT:     -13.0      4.169     11.196
REMARK SMILES Cc1cc(NC(=O)c2ccc(Br)cc2N)ccc1C(=O)NCCCCNC(=O)c1ccc(-c2c3nc(c(-c4ccc(S(=O)(=O)[O-])cc4)c4ccc([nH]4)c(-c4ccc(S(=O)(=O)[O-])cc4)c4nc(c(-c5ccc(S(=O)(=O)[O-])cc5)c5ccc2[nH]5)C=C4)C=C3)cc1
REMARK SMILES IDX 23 1 22 2 21 3 19 4 20 5 18 7 1 8 2 9 3 10 4 11 17 12 16 13
REMARK SMILES IDX 5 14 6 15 7 17 8 18 9 19 14 20 10 21 13 22 11 23 12 24 15 25
REMARK SMILES IDX 24 28 25 29 26 30 27 31 28 33 29 34 30 35 88 36 31 37 87 38
REMARK SMILES IDX 32 39 33 40 34 41 81 42 35 43 86 44 80 45 82 46 36 47 85 48
REMARK SMILES IDX 79 49 78 50 37 52 67 53 48 54 66 55 49 56 52 57 65 58 83 59
REMARK SMILES IDX 50 60 51 61 64 63 84 64 53 65 38 66 39 67 47 68 40 69 46 70
REMARK SMILES IDX 41 71 42 72 43 73 44 74 45 75 68 76 69 77 77 78 70 79 76 80
REMARK SMILES IDX 71 81 72 82 73 83 74 84 75 85 54 86 55 87 63 88 56 89 62 90
REMARK SMILES IDX 57 91 58 92 59 93 60 94 61 95
REMARK H PARENT 21 6 5 16 15 26 15 27 26 32 82 51 52 62
REMARK Flexibility Score: inf
ROOT
ATOM      1  C   UNL A   1      37.331  21.006  25.149  1.00  0.00     0.023 C 
ENDROOT
BRANCH   1   2
ATOM      2  C   UNL A   1      35.806  20.871  25.003  1.00  0.00     0.116 C 
BRANCH   2   3
ATOM      3  N   UNL A   1      35.161  21.077  26.287  1.00  0.00    -0.352 N 
ATOM      4  C   UNL A   1      34.185  21.910  26.761  1.00  0.00     0.251 C 
ATOM      5  O   UNL A   1      33.970  21.824  27.977  1.00  0.00    -0.269 OA
ATOM      6  H   UNL A   1      35.509  20.474  26.983  1.00  0.00     0.163 HD
BRANCH   4   7
ATOM      7  C   UNL A   1      33.299  22.831  25.967  1.00  0.00     0.042 A 
ATOM      8  C   UNL A   1      34.985  24.453  24.827  1.00  0.00     0.045 C 
ATOM      9  C   UNL A   1      33.625  23.907  25.121  1.00  0.00    -0.036 A 
ATOM     10  C   UNL A   1      32.580  24.636  24.509  1.00  0.00     0.030 A 
ATOM     11  C   UNL A   1      31.236  24.369  24.745  1.00  0.00     0.041 A 
ATOM     12  C   UNL A   1      31.921  22.623  26.242  1.00  0.00     0.016 A 
ATOM     13  C   UNL A   1      30.904  23.398  25.673  1.00  0.00     0.027 A 
BRANCH  11  14
ATOM     14  N   UNL A   1      30.214  25.058  24.074  1.00  0.00    -0.322 N 
ATOM     15  C   UNL A   1      29.771  26.352  24.282  1.00  0.00     0.257 C 
ATOM     16  H   UNL A   1      29.753  24.555  23.363  1.00  0.00     0.170 HD
ATOM     17  O   UNL A   1      28.663  26.696  23.872  1.00  0.00    -0.269 OA
BRANCH  15  18
ATOM     18  C   UNL A   1      30.654  27.363  24.934  1.00  0.00     0.063 A 
ATOM     19  C   UNL A   1      30.951  27.156  26.292  1.00  0.00     0.017 A 
ATOM     20  C   UNL A   1      31.182  28.481  24.249  1.00  0.00     0.045 A 
ATOM     21  C   UNL A   1      31.776  28.049  26.976  1.00  0.00     0.016 A 
ATOM     22  C   UNL A   1      31.989  29.379  24.964  1.00  0.00     0.042 A 
ATOM     23  C   UNL A   1      32.286  29.158  26.309  1.00  0.00     0.020 A 
ATOM     24  Br  UNL A   1      33.353  30.404  27.246  1.00  0.00    -0.051 Br
BRANCH  20  25
ATOM     25  N   UNL A   1      30.814  28.832  22.948  1.00  0.00    -0.398 N 
ATOM     26  H   UNL A   1      30.822  28.155  22.234  1.00  0.00     0.156 HD
ATOM     27  H   UNL A   1      30.547  29.758  22.745  1.00  0.00     0.156 HD
ENDBRANCH  20  25
ENDBRANCH  15  18
ENDBRANCH  11  14
ENDBRANCH   4   7
ENDBRANCH   2   3
ENDBRANCH   1   2
BRANCH   1  28
ATOM     28  C   UNL A   1      37.881  22.419  24.980  1.00  0.00     0.023 C 
BRANCH  28  29
ATOM     29  C   UNL A   1      38.015  23.140  26.307  1.00  0.00     0.116 C 
BRANCH  29  30
ATOM     30  N   UNL A   1      39.278  22.898  26.997  1.00  0.00    -0.352 N 
ATOM     31  C   UNL A   1      40.115  23.845  27.564  1.00  0.00     0.251 C 
ATOM     32  H   UNL A   1      39.565  21.959  27.068  1.00  0.00     0.163 HD
ATOM     33  O   UNL A   1      41.235  23.561  27.974  1.00  0.00    -0.269 OA
BRANCH  31  34
ATOM     34  C   UNL A   1      39.569  25.209  27.729  1.00  0.00     0.039 A 
ATOM     35  C   UNL A   1      40.043  26.206  26.873  1.00  0.00     0.014 A 
ATOM     36  C   UNL A   1      38.898  25.531  28.904  1.00  0.00     0.014 A 
ATOM     37  C   UNL A   1      40.028  27.532  27.299  1.00  0.00     0.010 A 
ATOM     38  C   UNL A   1      39.010  26.821  29.381  1.00  0.00     0.010 A 
ATOM     39  C   UNL A   1      39.619  27.817  28.601  1.00  0.00    -0.014 A 
BRANCH  39  40
ATOM     40  C   UNL A   1      39.864  29.092  29.274  1.00  0.00     0.031 A 
ATOM     41  C   UNL A   1      38.864  30.184  29.175  1.00  0.00     0.074 A 
ATOM     42  C   UNL A   1      40.944  29.253  30.074  1.00  0.00     0.049 A 
ATOM     43  N   UNL A   1      39.104  31.430  29.428  1.00  0.00    -0.248 NA
ATOM     44  C   UNL A   1      37.503  29.956  28.697  1.00  0.00     0.031 C 
ATOM     45  C   UNL A   1      41.137  30.305  31.071  1.00  0.00     0.029 A 
ATOM     46  N   UNL A   1      42.194  28.631  30.005  1.00  0.00    -0.354 N 
ATOM     47  C   UNL A   1      37.890  32.081  29.478  1.00  0.00     0.074 A 
ATOM     48  C   UNL A   1      36.950  31.153  28.899  1.00  0.00     0.031 C 
ATOM     49  C   UNL A   1      42.453  30.465  31.278  1.00  0.00     0.029 A 
ATOM     50  C   UNL A   1      43.142  29.620  30.319  1.00  0.00     0.049 A 
ATOM     51  H   UNL A   1      42.373  27.689  29.781  1.00  0.00     0.167 HD
ATOM     52  C   UNL A   1      37.785  33.264  30.150  1.00  0.00     0.031 A 
ATOM     53  C   UNL A   1      44.138  30.031  29.481  1.00  0.00     0.031 A 
ATOM     54  C   UNL A   1      39.100  33.790  30.523  1.00  0.00     0.049 A 
ATOM     55  C   UNL A   1      44.102  31.515  29.188  1.00  0.00     0.074 A 
ATOM     56  C   UNL A   1      39.798  33.855  31.717  1.00  0.00     0.029 A 
ATOM     57  N   UNL A   1      40.008  34.116  29.520  1.00  0.00    -0.354 N 
ATOM     58  N   UNL A   1      43.098  32.289  29.496  1.00  0.00    -0.248 NA
ATOM     59  C   UNL A   1      45.155  32.235  28.475  1.00  0.00     0.031 C 
ATOM     60  C   UNL A   1      41.159  34.128  31.415  1.00  0.00     0.029 A 
ATOM     61  C   UNL A   1      41.279  34.260  30.043  1.00  0.00     0.049 A 
ATOM     62  H   UNL A   1      39.776  34.229  28.569  1.00  0.00     0.167 HD
ATOM     63  C   UNL A   1      43.325  33.554  29.022  1.00  0.00     0.074 A 
ATOM     64  C   UNL A   1      44.638  33.476  28.409  1.00  0.00     0.031 C 
ATOM     65  C   UNL A   1      42.402  34.549  29.161  1.00  0.00     0.031 A 
BRANCH  52  66
ATOM     66  C   UNL A   1      36.478  33.781  30.731  1.00  0.00    -0.014 A 
ATOM     67  C   UNL A   1      35.367  33.979  29.883  1.00  0.00     0.010 A 
ATOM     68  C   UNL A   1      36.300  34.191  32.066  1.00  0.00     0.010 A 
ATOM     69  C   UNL A   1      34.203  34.641  30.314  1.00  0.00     0.020 A 
ATOM     70  C   UNL A   1      35.157  34.872  32.508  1.00  0.00     0.020 A 
ATOM     71  C   UNL A   1      34.118  35.113  31.621  1.00  0.00     0.054 A 
BRANCH  71  72
ATOM     72  S   UNL A   1      32.663  36.054  32.145  1.00  0.00     0.124 S 
ATOM     73  O   UNL A   1      33.177  36.825  33.273  1.00  0.00    -0.237 OA
ATOM     74  O   UNL A   1      32.338  36.823  30.948  1.00  0.00    -0.237 OA
ATOM     75  O   UNL A   1      31.690  35.021  32.500  1.00  0.00    -0.744 OA
ENDBRANCH  71  72
ENDBRANCH  52  66
BRANCH  53  76
ATOM     76  C   UNL A   1      44.630  28.985  28.546  1.00  0.00    -0.014 A 
ATOM     77  C   UNL A   1      45.725  28.210  28.980  1.00  0.00     0.010 A 
ATOM     78  C   UNL A   1      43.793  28.480  27.535  1.00  0.00     0.010 A 
ATOM     79  C   UNL A   1      45.871  26.889  28.560  1.00  0.00     0.020 A 
ATOM     80  C   UNL A   1      43.940  27.152  27.109  1.00  0.00     0.020 A 
ATOM     81  C   UNL A   1      44.932  26.349  27.682  1.00  0.00     0.054 A 
BRANCH  81  82
ATOM     82  S   UNL A   1      44.889  24.541  27.499  1.00  0.00     0.124 S 
ATOM     83  O   UNL A   1      44.017  24.362  26.344  1.00  0.00    -0.237 OA
ATOM     84  O   UNL A   1      46.302  24.238  27.277  1.00  0.00    -0.237 OA
ATOM     85  O   UNL A   1      44.346  24.090  28.777  1.00  0.00    -0.744 OA
ENDBRANCH  81  82
ENDBRANCH  53  76
BRANCH  65  86
ATOM     86  C   UNL A   1      42.486  35.917  28.532  1.00  0.00    -0.014 A 
ATOM     87  C   UNL A   1      41.929  36.247  27.287  1.00  0.00     0.010 A 
ATOM     88  C   UNL A   1      43.043  36.976  29.290  1.00  0.00     0.010 A 
ATOM     89  C   UNL A   1      41.975  37.561  26.794  1.00  0.00     0.020 A 
ATOM     90  C   UNL A   1      43.058  38.295  28.827  1.00  0.00     0.020 A 
ATOM     91  C   UNL A   1      42.543  38.575  27.567  1.00  0.00     0.054 A 
BRANCH  91  92
ATOM     92  S   UNL A   1      42.538  40.283  26.962  1.00  0.00     0.124 S 
ATOM     93  O   UNL A   1      43.442  40.200  25.818  1.00  0.00    -0.237 OA
ATOM     94  O   UNL A   1      41.132  40.514  26.632  1.00  0.00    -0.237 OA
ATOM     95  O   UNL A   1      43.035  41.048  28.102  1.00  0.00    -0.744 OA
ENDBRANCH  91  92
ENDBRANCH  65  86
ENDBRANCH  39  40
ENDBRANCH  31  34
ENDBRANCH  29  30
ENDBRANCH  28  29
ENDBRANCH   1  28
TORSDOF 17
ENDMDL
