MODEL 1
REMARK VINA RESULT:     -13.7      0.000      0.000
REMARK SMILES O=C(NCCCCNC(=O)c1ccccc1C(=O)Nc1ccc(N2C(=O)[C@H]3[C@@H]4CC[C@@H](C4)[C@@H]3C2=O)cc1)c1ccc(-c2c3nc(c(-c4ccc(S(=O)(=O)[O-])cc4)c4ccc([nH]4)c(-c4ccc(S(=O)(=O)[O-])cc4)c4nc(c(-c5ccc(S(=O)(=O)[O-])cc5)c5ccc2[nH]5)C=C4)C=C3)cc1
REMARK SMILES IDX 5 1 4 2 3 3 1 4 2 5 38 7 39 8 97 9 40 10 96 11 41 12 42 13
REMARK SMILES IDX 43 14 90 15 44 16 95 17 89 18 91 19 45 20 94 21 88 22 87 23
REMARK SMILES IDX 46 25 76 26 57 27 75 28 58 29 61 30 74 31 92 32 59 33 60 34
REMARK SMILES IDX 73 36 93 37 62 38 47 39 48 40 56 41 49 42 55 43 50 44 51 45
REMARK SMILES IDX 52 46 53 47 54 48 77 49 78 50 86 51 79 52 85 53 80 54 81 55
REMARK SMILES IDX 82 56 83 57 84 58 63 59 64 60 72 61 65 62 71 63 66 64 67 65
REMARK SMILES IDX 68 66 69 67 70 68 6 69 7 70 8 71 9 72 10 74 11 75 12 76
REMARK SMILES IDX 16 77 13 78 15 79 14 80 17 81 18 82 19 83 20 85 21 86 37 87
REMARK SMILES IDX 22 88 36 89 23 90 24 91 25 92 34 93 26 94 27 95 33 96 35 97
REMARK SMILES IDX 28 98 31 99 29 100 32 101 30 102
REMARK H PARENT 3 6 91 24 61 35 8 73 19 84
REMARK Flexibility Score: inf
ROOT
ATOM      1  C   UNL A   1      34.076  28.588  27.259  1.00  0.00     0.023 C 
ENDROOT
BRANCH   1   2
ATOM      2  C   UNL A   1      35.370  29.351  27.533  1.00  0.00     0.116 C 
BRANCH   2   3
ATOM      3  N   UNL A   1      35.350  30.086  28.784  1.00  0.00    -0.352 N 
ATOM      4  O   UNL A   1      36.071  30.854  30.768  1.00  0.00    -0.269 OA
ATOM      5  C   UNL A   1      36.348  30.316  29.699  1.00  0.00     0.251 C 
ATOM      6  H   UNL A   1      34.479  30.484  29.014  1.00  0.00     0.163 HD
BRANCH   5   7
ATOM      7  C   UNL A   1      37.743  29.899  29.427  1.00  0.00     0.039 A 
ATOM      8  C   UNL A   1      38.612  29.522  30.454  1.00  0.00     0.014 A 
ATOM      9  C   UNL A   1      38.168  29.831  28.097  1.00  0.00     0.014 A 
ATOM     10  C   UNL A   1      39.938  29.197  30.162  1.00  0.00     0.010 A 
ATOM     11  C   UNL A   1      39.477  29.438  27.801  1.00  0.00     0.010 A 
ATOM     12  C   UNL A   1      40.384  29.144  28.831  1.00  0.00    -0.014 A 
BRANCH  12  13
ATOM     13  C   UNL A   1      41.779  28.739  28.510  1.00  0.00     0.031 A 
ATOM     14  C   UNL A   1      42.894  29.751  28.497  1.00  0.00     0.074 A 
ATOM     15  C   UNL A   1      42.041  27.454  28.196  1.00  0.00     0.049 A 
ATOM     16  N   UNL A   1      44.154  29.588  28.180  1.00  0.00    -0.248 NA
ATOM     17  C   UNL A   1      42.545  31.128  28.880  1.00  0.00     0.031 C 
ATOM     18  C   UNL A   1      41.051  26.374  28.169  1.00  0.00     0.029 A 
ATOM     19  N   UNL A   1      43.212  26.839  27.830  1.00  0.00    -0.354 N 
ATOM     20  C   UNL A   1      44.744  30.842  28.304  1.00  0.00     0.074 A 
ATOM     21  C   UNL A   1      43.696  31.760  28.696  1.00  0.00     0.031 C 
ATOM     22  C   UNL A   1      41.660  25.229  27.828  1.00  0.00     0.029 A 
ATOM     23  C   UNL A   1      43.067  25.502  27.549  1.00  0.00     0.049 A 
ATOM     24  H   UNL A   1      44.075  27.312  27.776  1.00  0.00     0.167 HD
ATOM     25  C   UNL A   1      46.039  31.194  28.110  1.00  0.00     0.031 A 
ATOM     26  C   UNL A   1      43.952  24.596  27.090  1.00  0.00     0.031 A 
ATOM     27  C   UNL A   1      47.075  30.279  27.703  1.00  0.00     0.049 A 
ATOM     28  C   UNL A   1      45.371  25.020  26.833  1.00  0.00     0.074 A 
ATOM     29  C   UNL A   1      48.422  30.534  27.511  1.00  0.00     0.029 A 
ATOM     30  N   UNL A   1      46.880  28.936  27.412  1.00  0.00    -0.354 N 
ATOM     31  N   UNL A   1      45.919  26.201  26.993  1.00  0.00    -0.248 NA
ATOM     32  C   UNL A   1      46.293  23.988  26.341  1.00  0.00     0.031 C 
ATOM     33  C   UNL A   1      49.028  29.365  27.042  1.00  0.00     0.029 A 
ATOM     34  C   UNL A   1      48.076  28.359  27.015  1.00  0.00     0.049 A 
ATOM     35  H   UNL A   1      46.019  28.463  27.478  1.00  0.00     0.167 HD
ATOM     36  C   UNL A   1      47.258  26.046  26.650  1.00  0.00     0.074 A 
ATOM     37  C   UNL A   1      47.438  24.656  26.284  1.00  0.00     0.031 C 
ATOM     38  C   UNL A   1      48.247  26.973  26.649  1.00  0.00     0.031 A 
BRANCH  25  39
ATOM     39  C   UNL A   1      46.402  32.646  28.300  1.00  0.00    -0.014 A 
ATOM     40  C   UNL A   1      46.325  33.569  27.240  1.00  0.00     0.010 A 
ATOM     41  C   UNL A   1      46.798  33.105  29.572  1.00  0.00     0.010 A 
ATOM     42  C   UNL A   1      46.691  34.904  27.433  1.00  0.00     0.020 A 
ATOM     43  C   UNL A   1      47.134  34.447  29.777  1.00  0.00     0.020 A 
ATOM     44  C   UNL A   1      47.099  35.333  28.699  1.00  0.00     0.054 A 
BRANCH  44  45
ATOM     45  S   UNL A   1      47.574  37.071  28.918  1.00  0.00     0.124 S 
ATOM     46  O   UNL A   1      46.530  37.763  28.167  1.00  0.00    -0.237 OA
ATOM     47  O   UNL A   1      47.516  37.237  30.368  1.00  0.00    -0.237 OA
ATOM     48  O   UNL A   1      48.911  37.143  28.337  1.00  0.00    -0.744 OA
ENDBRANCH  44  45
ENDBRANCH  25  39
BRANCH  26  49
ATOM     49  C   UNL A   1      43.507  23.198  26.840  1.00  0.00    -0.014 A 
ATOM     50  C   UNL A   1      43.755  22.577  25.604  1.00  0.00     0.010 A 
ATOM     51  C   UNL A   1      42.869  22.464  27.859  1.00  0.00     0.010 A 
ATOM     52  C   UNL A   1      43.370  21.250  25.390  1.00  0.00     0.020 A 
ATOM     53  C   UNL A   1      42.512  21.129  27.659  1.00  0.00     0.020 A 
ATOM     54  C   UNL A   1      42.760  20.532  26.422  1.00  0.00     0.054 A 
BRANCH  54  55
ATOM     55  S   UNL A   1      42.339  18.789  26.142  1.00  0.00     0.124 S 
ATOM     56  O   UNL A   1      42.590  18.201  27.454  1.00  0.00    -0.237 OA
ATOM     57  O   UNL A   1      40.937  18.866  25.740  1.00  0.00    -0.237 OA
ATOM     58  O   UNL A   1      43.260  18.380  25.085  1.00  0.00    -0.744 OA
ENDBRANCH  54  55
ENDBRANCH  26  49
BRANCH  38  59
ATOM     59  C   UNL A   1      49.636  26.511  26.286  1.00  0.00    -0.014 A 
ATOM     60  C   UNL A   1      50.152  26.676  24.989  1.00  0.00     0.010 A 
ATOM     61  C   UNL A   1      50.460  25.960  27.285  1.00  0.00     0.010 A 
ATOM     62  C   UNL A   1      51.459  26.274  24.692  1.00  0.00     0.020 A 
ATOM     63  C   UNL A   1      51.775  25.585  27.000  1.00  0.00     0.020 A 
ATOM     64  C   UNL A   1      52.263  25.734  25.701  1.00  0.00     0.054 A 
BRANCH  64  65
ATOM     65  S   UNL A   1      53.972  25.274  25.304  1.00  0.00     0.124 S 
ATOM     66  O   UNL A   1      54.137  25.836  23.967  1.00  0.00    -0.237 OA
ATOM     67  O   UNL A   1      54.734  25.934  26.362  1.00  0.00    -0.237 OA
ATOM     68  O   UNL A   1      53.962  23.814  25.370  1.00  0.00    -0.744 OA
ENDBRANCH  64  65
ENDBRANCH  38  59
ENDBRANCH  12  13
ENDBRANCH   5   7
ENDBRANCH   2   3
ENDBRANCH   1   2
BRANCH   1  69
ATOM     69  C   UNL A   1      32.787  29.390  27.479  1.00  0.00     0.023 C 
BRANCH  69  70
ATOM     70  C   UNL A   1      31.498  28.575  27.386  1.00  0.00     0.116 C 
BRANCH  70  71
ATOM     71  N   UNL A   1      31.736  27.146  27.464  1.00  0.00    -0.352 N 
ATOM     72  C   UNL A   1      31.408  26.160  26.574  1.00  0.00     0.252 C 
ATOM     73  H   UNL A   1      32.202  26.841  28.276  1.00  0.00     0.163 HD
ATOM     74  O   UNL A   1      31.525  24.978  26.898  1.00  0.00    -0.269 OA
BRANCH  72  75
ATOM     75  C   UNL A   1      30.784  26.458  25.269  1.00  0.00     0.052 A 
ATOM     76  C   UNL A   1      29.450  25.990  25.197  1.00  0.00     0.014 A 
ATOM     77  C   UNL A   1      31.345  27.137  24.177  1.00  0.00     0.052 A 
ATOM     78  C   UNL A   1      28.633  26.279  24.109  1.00  0.00     0.001 A 
ATOM     79  C   UNL A   1      30.476  27.452  23.101  1.00  0.00     0.014 A 
ATOM     80  C   UNL A   1      29.139  27.043  23.071  1.00  0.00     0.001 A 
BRANCH  77  81
ATOM     81  C   UNL A   1      32.722  27.696  24.015  1.00  0.00     0.256 C 
ATOM     82  O   UNL A   1      32.817  28.927  23.925  1.00  0.00    -0.269 OA
ATOM     83  N   UNL A   1      33.909  27.002  24.046  1.00  0.00    -0.322 N 
ATOM     84  H   UNL A   1      34.708  27.576  24.031  1.00  0.00     0.170 HD
BRANCH  83  85
ATOM     85  C   UNL A   1      34.193  25.640  24.095  1.00  0.00     0.041 A 
ATOM     86  C   UNL A   1      34.607  25.132  25.330  1.00  0.00     0.028 A 
ATOM     87  C   UNL A   1      34.007  24.783  23.017  1.00  0.00     0.028 A 
ATOM     88  C   UNL A   1      34.551  23.762  25.570  1.00  0.00     0.029 A 
ATOM     89  C   UNL A   1      34.096  23.405  23.222  1.00  0.00     0.029 A 
ATOM     90  C   UNL A   1      34.258  22.895  24.521  1.00  0.00     0.052 A 
BRANCH  90  91
ATOM     91  N   UNL A   1      33.954  21.547  24.772  1.00  0.00    -0.250 N 
ATOM     92  C   UNL A   1      34.931  20.562  24.948  1.00  0.00     0.237 C 
ATOM     93  C   UNL A   1      32.670  21.000  24.555  1.00  0.00     0.237 C 
ATOM     94  O   UNL A   1      36.094  20.656  25.288  1.00  0.00    -0.274 OA
ATOM     95  C   UNL A   1      34.265  19.349  24.406  1.00  0.00     0.095 C 
ATOM     96  C   UNL A   1      32.850  19.557  24.921  1.00  0.00     0.095 C 
ATOM     97  O   UNL A   1      31.623  21.537  24.236  1.00  0.00    -0.274 OA
ATOM     98  C   UNL A   1      34.463  17.844  24.570  1.00  0.00     0.002 C 
ATOM     99  C   UNL A   1      32.227  18.214  24.552  1.00  0.00     0.002 C 
ATOM    100  C   UNL A   1      34.048  17.270  23.199  1.00  0.00     0.005 C 
ATOM    101  C   UNL A   1      33.230  17.359  25.369  1.00  0.00     0.009 C 
ATOM    102  C   UNL A   1      32.554  17.704  23.119  1.00  0.00     0.005 C 
ENDBRANCH  90  91
ENDBRANCH  83  85
ENDBRANCH  77  81
ENDBRANCH  72  75
ENDBRANCH  70  71
ENDBRANCH  69  70
ENDBRANCH   1  69
TORSDOF 17
ENDMDL
MODEL 2
REMARK VINA RESULT:     -12.7      4.734      5.603
REMARK SMILES O=C(NCCCCNC(=O)c1ccccc1C(=O)Nc1ccc(N2C(=O)[C@H]3[C@@H]4CC[C@@H](C4)[C@@H]3C2=O)cc1)c1ccc(-c2c3nc(c(-c4ccc(S(=O)(=O)[O-])cc4)c4ccc([nH]4)c(-c4ccc(S(=O)(=O)[O-])cc4)c4nc(c(-c5ccc(S(=O)(=O)[O-])cc5)c5ccc2[nH]5)C=C4)C=C3)cc1
REMARK SMILES IDX 5 1 4 2 3 3 1 4 2 5 38 7 39 8 97 9 40 10 96 11 41 12 42 13
REMARK SMILES IDX 43 14 90 15 44 16 95 17 89 18 91 19 45 20 94 21 88 22 87 23
REMARK SMILES IDX 46 25 76 26 57 27 75 28 58 29 61 30 74 31 92 32 59 33 60 34
REMARK SMILES IDX 73 36 93 37 62 38 47 39 48 40 56 41 49 42 55 43 50 44 51 45
REMARK SMILES IDX 52 46 53 47 54 48 77 49 78 50 86 51 79 52 85 53 80 54 81 55
REMARK SMILES IDX 82 56 83 57 84 58 63 59 64 60 72 61 65 62 71 63 66 64 67 65
REMARK SMILES IDX 68 66 69 67 70 68 6 69 7 70 8 71 9 72 10 74 11 75 12 76
REMARK SMILES IDX 16 77 13 78 15 79 14 80 17 81 18 82 19 83 20 85 21 86 37 87
REMARK SMILES IDX 22 88 36 89 23 90 24 91 25 92 34 93 26 94 27 95 33 96 35 97
REMARK SMILES IDX 28 98 31 99 29 100 32 101 30 102
REMARK H PARENT 3 6 91 24 61 35 8 73 19 84
REMARK Flexibility Score: inf
ROOT
ATOM      1  C   UNL A   1      33.692  28.539  27.258  1.00  0.00     0.023 C 
ENDROOT
BRANCH   1   2
ATOM      2  C   UNL A   1      34.735  29.585  26.871  1.00  0.00     0.116 C 
BRANCH   2   3
ATOM      3  N   UNL A   1      34.461  30.900  27.420  1.00  0.00    -0.352 N 
ATOM      4  O   UNL A   1      34.612  32.656  28.812  1.00  0.00    -0.269 OA
ATOM      5  C   UNL A   1      35.104  31.606  28.407  1.00  0.00     0.251 C 
ATOM      6  H   UNL A   1      33.689  31.361  27.019  1.00  0.00     0.163 HD
BRANCH   5   7
ATOM      7  C   UNL A   1      36.361  31.105  29.008  1.00  0.00     0.039 A 
ATOM      8  C   UNL A   1      37.596  31.702  28.739  1.00  0.00     0.014 A 
ATOM      9  C   UNL A   1      36.286  30.041  29.912  1.00  0.00     0.014 A 
ATOM     10  C   UNL A   1      38.764  31.159  29.276  1.00  0.00     0.010 A 
ATOM     11  C   UNL A   1      37.450  29.544  30.505  1.00  0.00     0.010 A 
ATOM     12  C   UNL A   1      38.705  30.078  30.171  1.00  0.00    -0.014 A 
BRANCH  12  13
ATOM     13  C   UNL A   1      39.943  29.536  30.794  1.00  0.00     0.031 A 
ATOM     14  C   UNL A   1      40.514  30.154  32.042  1.00  0.00     0.074 A 
ATOM     15  C   UNL A   1      40.577  28.498  30.213  1.00  0.00     0.049 A 
ATOM     16  N   UNL A   1      41.614  29.853  32.684  1.00  0.00    -0.248 NA
ATOM     17  C   UNL A   1      39.755  31.263  32.642  1.00  0.00     0.031 C 
ATOM     18  C   UNL A   1      40.130  27.808  29.000  1.00  0.00     0.029 A 
ATOM     19  N   UNL A   1      41.735  27.847  30.556  1.00  0.00    -0.354 N 
ATOM     20  C   UNL A   1      41.693  30.745  33.749  1.00  0.00     0.074 A 
ATOM     21  C   UNL A   1      40.542  31.618  33.647  1.00  0.00     0.031 C 
ATOM     22  C   UNL A   1      40.991  26.820  28.714  1.00  0.00     0.029 A 
ATOM     23  C   UNL A   1      42.083  26.845  29.682  1.00  0.00     0.049 A 
ATOM     24  H   UNL A   1      42.266  28.075  31.354  1.00  0.00     0.167 HD
ATOM     25  C   UNL A   1      42.635  30.828  34.721  1.00  0.00     0.031 A 
ATOM     26  C   UNL A   1      43.171  26.051  29.638  1.00  0.00     0.031 A 
ATOM     27  C   UNL A   1      43.787  29.966  34.807  1.00  0.00     0.049 A 
ATOM     28  C   UNL A   1      44.229  26.194  30.697  1.00  0.00     0.074 A 
ATOM     29  C   UNL A   1      44.779  29.951  35.772  1.00  0.00     0.029 A 
ATOM     30  N   UNL A   1      44.110  28.976  33.890  1.00  0.00    -0.354 N 
ATOM     31  N   UNL A   1      44.265  27.018  31.718  1.00  0.00    -0.248 NA
ATOM     32  C   UNL A   1      45.387  25.296  30.603  1.00  0.00     0.031 C 
ATOM     33  C   UNL A   1      45.736  29.000  35.403  1.00  0.00     0.029 A 
ATOM     34  C   UNL A   1      45.300  28.366  34.251  1.00  0.00     0.049 A 
ATOM     35  H   UNL A   1      43.572  28.742  33.099  1.00  0.00     0.167 HD
ATOM     36  C   UNL A   1      45.435  26.715  32.405  1.00  0.00     0.074 A 
ATOM     37  C   UNL A   1      46.072  25.628  31.689  1.00  0.00     0.031 C 
ATOM     38  C   UNL A   1      45.930  27.284  33.532  1.00  0.00     0.031 A 
BRANCH  25  39
ATOM     39  C   UNL A   1      42.477  31.916  35.753  1.00  0.00    -0.014 A 
ATOM     40  C   UNL A   1      41.787  31.692  36.959  1.00  0.00     0.010 A 
ATOM     41  C   UNL A   1      43.057  33.180  35.528  1.00  0.00     0.010 A 
ATOM     42  C   UNL A   1      41.632  32.722  37.891  1.00  0.00     0.020 A 
ATOM     43  C   UNL A   1      42.931  34.204  36.471  1.00  0.00     0.020 A 
ATOM     44  C   UNL A   1      42.200  33.974  37.637  1.00  0.00     0.054 A 
BRANCH  44  45
ATOM     45  S   UNL A   1      41.976  35.295  38.861  1.00  0.00     0.124 S 
ATOM     46  O   UNL A   1      41.456  34.555  40.009  1.00  0.00    -0.237 OA
ATOM     47  O   UNL A   1      43.331  35.820  39.017  1.00  0.00    -0.237 OA
ATOM     48  O   UNL A   1      41.027  36.204  38.225  1.00  0.00    -0.744 OA
ENDBRANCH  44  45
ENDBRANCH  25  39
BRANCH  26  49
ATOM     49  C   UNL A   1      43.306  25.054  28.541  1.00  0.00    -0.014 A 
ATOM     50  C   UNL A   1      43.997  25.378  27.361  1.00  0.00     0.010 A 
ATOM     51  C   UNL A   1      42.781  23.757  28.693  1.00  0.00     0.010 A 
ATOM     52  C   UNL A   1      44.156  24.423  26.351  1.00  0.00     0.020 A 
ATOM     53  C   UNL A   1      42.966  22.792  27.700  1.00  0.00     0.020 A 
ATOM     54  C   UNL A   1      43.647  23.134  26.532  1.00  0.00     0.054 A 
BRANCH  54  55
ATOM     55  S   UNL A   1      43.932  21.894  25.238  1.00  0.00     0.124 S 
ATOM     56  O   UNL A   1      43.755  22.679  24.020  1.00  0.00    -0.237 OA
ATOM     57  O   UNL A   1      45.298  21.459  25.518  1.00  0.00    -0.237 OA
ATOM     58  O   UNL A   1      42.902  20.890  25.492  1.00  0.00    -0.744 OA
ENDBRANCH  54  55
ENDBRANCH  26  49
BRANCH  38  59
ATOM     59  C   UNL A   1      47.204  26.713  34.101  1.00  0.00    -0.014 A 
ATOM     60  C   UNL A   1      47.192  25.617  34.982  1.00  0.00     0.010 A 
ATOM     61  C   UNL A   1      48.440  27.246  33.689  1.00  0.00     0.010 A 
ATOM     62  C   UNL A   1      48.393  25.083  35.461  1.00  0.00     0.020 A 
ATOM     63  C   UNL A   1      49.642  26.696  34.142  1.00  0.00     0.020 A 
ATOM     64  C   UNL A   1      49.610  25.624  35.035  1.00  0.00     0.054 A 
BRANCH  64  65
ATOM     65  S   UNL A   1      51.153  24.877  35.627  1.00  0.00     0.124 S 
ATOM     66  O   UNL A   1      51.080  23.534  35.060  1.00  0.00    -0.237 OA
ATOM     67  O   UNL A   1      52.173  25.749  35.048  1.00  0.00    -0.237 OA
ATOM     68  O   UNL A   1      51.037  24.946  37.082  1.00  0.00    -0.744 OA
ENDBRANCH  64  65
ENDBRANCH  38  59
ENDBRANCH  12  13
ENDBRANCH   5   7
ENDBRANCH   2   3
ENDBRANCH   1   2
BRANCH   1  69
ATOM     69  C   UNL A   1      32.237  29.026  27.227  1.00  0.00     0.023 C 
BRANCH  69  70
ATOM     70  C   UNL A   1      31.202  27.987  27.654  1.00  0.00     0.116 C 
BRANCH  70  71
ATOM     71  N   UNL A   1      31.633  26.628  27.386  1.00  0.00    -0.352 N 
ATOM     72  C   UNL A   1      31.454  25.865  26.265  1.00  0.00     0.252 C 
ATOM     73  H   UNL A   1      32.126  26.191  28.118  1.00  0.00     0.163 HD
ATOM     74  O   UNL A   1      31.728  24.665  26.290  1.00  0.00    -0.269 OA
BRANCH  72  75
ATOM     75  C   UNL A   1      30.811  26.399  25.047  1.00  0.00     0.052 A 
ATOM     76  C   UNL A   1      29.456  26.001  24.942  1.00  0.00     0.014 A 
ATOM     77  C   UNL A   1      31.373  27.227  24.065  1.00  0.00     0.052 A 
ATOM     78  C   UNL A   1      28.625  26.499  23.943  1.00  0.00     0.001 A 
ATOM     79  C   UNL A   1      30.492  27.749  23.084  1.00  0.00     0.014 A 
ATOM     80  C   UNL A   1      29.137  27.403  23.030  1.00  0.00     0.001 A 
BRANCH  77  81
ATOM     81  C   UNL A   1      32.769  27.750  23.952  1.00  0.00     0.256 C 
ATOM     82  O   UNL A   1      32.902  28.981  23.922  1.00  0.00    -0.269 OA
ATOM     83  N   UNL A   1      33.934  27.020  23.970  1.00  0.00    -0.322 N 
ATOM     84  H   UNL A   1      34.750  27.570  23.995  1.00  0.00     0.170 HD
BRANCH  83  85
ATOM     85  C   UNL A   1      34.177  25.649  23.959  1.00  0.00     0.041 A 
ATOM     86  C   UNL A   1      34.796  25.115  25.093  1.00  0.00     0.028 A 
ATOM     87  C   UNL A   1      33.765  24.810  22.931  1.00  0.00     0.028 A 
ATOM     88  C   UNL A   1      34.741  23.745  25.334  1.00  0.00     0.029 A 
ATOM     89  C   UNL A   1      33.844  23.427  23.110  1.00  0.00     0.029 A 
ATOM     90  C   UNL A   1      34.229  22.899  24.354  1.00  0.00     0.052 A 
BRANCH  90  91
ATOM     91  N   UNL A   1      33.932  21.559  24.652  1.00  0.00    -0.250 N 
ATOM     92  C   UNL A   1      34.914  20.592  24.891  1.00  0.00     0.237 C 
ATOM     93  C   UNL A   1      32.660  20.989  24.426  1.00  0.00     0.237 C 
ATOM     94  O   UNL A   1      36.068  20.713  25.255  1.00  0.00    -0.274 OA
ATOM     95  C   UNL A   1      34.274  19.352  24.383  1.00  0.00     0.095 C 
ATOM     96  C   UNL A   1      32.845  19.564  24.854  1.00  0.00     0.095 C 
ATOM     97  O   UNL A   1      31.616  21.502  24.060  1.00  0.00    -0.274 OA
ATOM     98  C   UNL A   1      34.484  17.856  24.612  1.00  0.00     0.002 C 
ATOM     99  C   UNL A   1      32.245  18.201  24.524  1.00  0.00     0.002 C 
ATOM    100  C   UNL A   1      34.108  17.224  23.255  1.00  0.00     0.005 C 
ATOM    101  C   UNL A   1      33.235  17.391  25.399  1.00  0.00     0.009 C 
ATOM    102  C   UNL A   1      32.612  17.637  23.121  1.00  0.00     0.005 C 
ENDBRANCH  90  91
ENDBRANCH  83  85
ENDBRANCH  77  81
ENDBRANCH  72  75
ENDBRANCH  70  71
ENDBRANCH  69  70
ENDBRANCH   1  69
TORSDOF 17
ENDMDL
MODEL 3
REMARK VINA RESULT:     -11.8      4.298      8.418
REMARK SMILES O=C(NCCCCNC(=O)c1ccccc1C(=O)Nc1ccc(N2C(=O)[C@H]3[C@@H]4CC[C@@H](C4)[C@@H]3C2=O)cc1)c1ccc(-c2c3nc(c(-c4ccc(S(=O)(=O)[O-])cc4)c4ccc([nH]4)c(-c4ccc(S(=O)(=O)[O-])cc4)c4nc(c(-c5ccc(S(=O)(=O)[O-])cc5)c5ccc2[nH]5)C=C4)C=C3)cc1
REMARK SMILES IDX 5 1 4 2 3 3 1 4 2 5 38 7 39 8 97 9 40 10 96 11 41 12 42 13
REMARK SMILES IDX 43 14 90 15 44 16 95 17 89 18 91 19 45 20 94 21 88 22 87 23
REMARK SMILES IDX 46 25 76 26 57 27 75 28 58 29 61 30 74 31 92 32 59 33 60 34
REMARK SMILES IDX 73 36 93 37 62 38 47 39 48 40 56 41 49 42 55 43 50 44 51 45
REMARK SMILES IDX 52 46 53 47 54 48 77 49 78 50 86 51 79 52 85 53 80 54 81 55
REMARK SMILES IDX 82 56 83 57 84 58 63 59 64 60 72 61 65 62 71 63 66 64 67 65
REMARK SMILES IDX 68 66 69 67 70 68 6 69 7 70 8 71 9 72 10 74 11 75 12 76
REMARK SMILES IDX 16 77 13 78 15 79 14 80 17 81 18 82 19 83 20 85 21 86 37 87
REMARK SMILES IDX 22 88 36 89 23 90 24 91 25 92 34 93 26 94 27 95 33 96 35 97
REMARK SMILES IDX 28 98 31 99 29 100 32 101 30 102
REMARK H PARENT 3 6 91 24 61 35 8 73 19 84
REMARK Flexibility Score: inf
ROOT
ATOM      1  C   UNL A   1      34.295  29.855  26.804  1.00  0.00     0.023 C 
ENDROOT
BRANCH   1   2
ATOM      2  C   UNL A   1      35.354  29.207  27.694  1.00  0.00     0.116 C 
BRANCH   2   3
ATOM      3  N   UNL A   1      35.306  29.665  29.070  1.00  0.00    -0.352 N 
ATOM      4  O   UNL A   1      35.990  30.017  31.180  1.00  0.00    -0.269 OA
ATOM      5  C   UNL A   1      36.290  29.718  30.027  1.00  0.00     0.251 C 
ATOM      6  H   UNL A   1      34.425  29.993  29.365  1.00  0.00     0.163 HD
BRANCH   5   7
ATOM      7  C   UNL A   1      37.695  29.390  29.695  1.00  0.00     0.039 A 
ATOM      8  C   UNL A   1      38.270  29.757  28.476  1.00  0.00     0.014 A 
ATOM      9  C   UNL A   1      38.471  28.745  30.663  1.00  0.00     0.014 A 
ATOM     10  C   UNL A   1      39.579  29.373  28.178  1.00  0.00     0.010 A 
ATOM     11  C   UNL A   1      39.804  28.423  30.389  1.00  0.00     0.010 A 
ATOM     12  C   UNL A   1      40.363  28.708  29.134  1.00  0.00    -0.014 A 
BRANCH  12  13
ATOM     13  C   UNL A   1      41.778  28.350  28.843  1.00  0.00     0.031 A 
ATOM     14  C   UNL A   1      42.870  29.383  28.934  1.00  0.00     0.074 A 
ATOM     15  C   UNL A   1      42.079  27.093  28.460  1.00  0.00     0.049 A 
ATOM     16  N   UNL A   1      44.144  29.265  28.657  1.00  0.00    -0.248 NA
ATOM     17  C   UNL A   1      42.477  30.727  29.387  1.00  0.00     0.031 C 
ATOM     18  C   UNL A   1      41.115  25.997  28.329  1.00  0.00     0.029 A 
ATOM     19  N   UNL A   1      43.277  26.525  28.103  1.00  0.00    -0.354 N 
ATOM     20  C   UNL A   1      44.702  30.520  28.880  1.00  0.00     0.074 A 
ATOM     21  C   UNL A   1      43.620  31.391  29.287  1.00  0.00     0.031 C 
ATOM     22  C   UNL A   1      41.762  24.888  27.942  1.00  0.00     0.029 A 
ATOM     23  C   UNL A   1      43.171  25.205  27.735  1.00  0.00     0.049 A 
ATOM     24  H   UNL A   1      44.130  27.017  28.111  1.00  0.00     0.167 HD
ATOM     25  C   UNL A   1      45.995  30.909  28.758  1.00  0.00     0.031 A 
ATOM     26  C   UNL A   1      44.092  24.347  27.255  1.00  0.00     0.031 A 
ATOM     27  C   UNL A   1      47.065  30.041  28.335  1.00  0.00     0.049 A 
ATOM     28  C   UNL A   1      45.511  24.814  27.079  1.00  0.00     0.074 A 
ATOM     29  C   UNL A   1      48.412  30.334  28.212  1.00  0.00     0.029 A 
ATOM     30  N   UNL A   1      46.911  28.715  27.955  1.00  0.00    -0.354 N 
ATOM     31  N   UNL A   1      46.026  25.994  27.332  1.00  0.00    -0.248 NA
ATOM     32  C   UNL A   1      46.472  23.833  26.560  1.00  0.00     0.031 C 
ATOM     33  C   UNL A   1      49.061  29.208  27.695  1.00  0.00     0.029 A 
ATOM     34  C   UNL A   1      48.133  28.187  27.569  1.00  0.00     0.049 A 
ATOM     35  H   UNL A   1      46.058  28.222  27.959  1.00  0.00     0.167 HD
ATOM     36  C   UNL A   1      47.380  25.887  27.033  1.00  0.00     0.074 A 
ATOM     37  C   UNL A   1      47.604  24.525  26.588  1.00  0.00     0.031 C 
ATOM     38  C   UNL A   1      48.348  26.831  27.126  1.00  0.00     0.031 A 
BRANCH  25  39
ATOM     39  C   UNL A   1      46.319  32.353  29.051  1.00  0.00    -0.014 A 
ATOM     40  C   UNL A   1      46.492  32.815  30.369  1.00  0.00     0.010 A 
ATOM     41  C   UNL A   1      46.486  33.260  27.986  1.00  0.00     0.010 A 
ATOM     42  C   UNL A   1      46.767  34.163  30.619  1.00  0.00     0.020 A 
ATOM     43  C   UNL A   1      46.793  34.602  28.230  1.00  0.00     0.020 A 
ATOM     44  C   UNL A   1      46.909  35.049  29.547  1.00  0.00     0.054 A 
BRANCH  44  45
ATOM     45  S   UNL A   1      47.260  36.794  29.902  1.00  0.00     0.124 S 
ATOM     46  O   UNL A   1      47.052  37.412  28.595  1.00  0.00    -0.237 OA
ATOM     47  O   UNL A   1      46.260  37.121  30.915  1.00  0.00    -0.237 OA
ATOM     48  O   UNL A   1      48.642  36.783  30.373  1.00  0.00    -0.744 OA
ENDBRANCH  44  45
ENDBRANCH  25  39
BRANCH  26  49
ATOM     49  C   UNL A   1      43.688  22.959  26.903  1.00  0.00    -0.014 A 
ATOM     50  C   UNL A   1      44.136  22.362  25.712  1.00  0.00     0.010 A 
ATOM     51  C   UNL A   1      42.884  22.209  27.784  1.00  0.00     0.010 A 
ATOM     52  C   UNL A   1      43.785  21.043  25.407  1.00  0.00     0.020 A 
ATOM     53  C   UNL A   1      42.559  20.882  27.497  1.00  0.00     0.020 A 
ATOM     54  C   UNL A   1      43.006  20.309  26.306  1.00  0.00     0.054 A 
BRANCH  54  55
ATOM     55  S   UNL A   1      42.628  18.577  25.921  1.00  0.00     0.124 S 
ATOM     56  O   UNL A   1      43.465  18.336  24.750  1.00  0.00    -0.237 OA
ATOM     57  O   UNL A   1      43.036  17.889  27.143  1.00  0.00    -0.237 OA
ATOM     58  O   UNL A   1      41.189  18.587  25.671  1.00  0.00    -0.744 OA
ENDBRANCH  54  55
ENDBRANCH  26  49
BRANCH  38  59
ATOM     59  C   UNL A   1      49.759  26.419  26.789  1.00  0.00    -0.014 A 
ATOM     60  C   UNL A   1      50.627  25.894  27.763  1.00  0.00     0.010 A 
ATOM     61  C   UNL A   1      50.198  26.501  25.454  1.00  0.00     0.010 A 
ATOM     62  C   UNL A   1      51.917  25.484  27.411  1.00  0.00     0.020 A 
ATOM     63  C   UNL A   1      51.475  26.063  25.094  1.00  0.00     0.020 A 
ATOM     64  C   UNL A   1      52.331  25.567  26.078  1.00  0.00     0.054 A 
BRANCH  64  65
ATOM     65  S   UNL A   1      53.988  24.975  25.639  1.00  0.00     0.124 S 
ATOM     66  O   UNL A   1      54.769  25.356  26.811  1.00  0.00    -0.237 OA
ATOM     67  O   UNL A   1      53.777  23.540  25.462  1.00  0.00    -0.237 OA
ATOM     68  O   UNL A   1      54.305  25.707  24.414  1.00  0.00    -0.744 OA
ENDBRANCH  64  65
ENDBRANCH  38  59
ENDBRANCH  12  13
ENDBRANCH   5   7
ENDBRANCH   2   3
ENDBRANCH   1   2
BRANCH   1  69
ATOM     69  C   UNL A   1      33.265  30.720  27.540  1.00  0.00     0.023 C 
BRANCH  69  70
ATOM     70  C   UNL A   1      33.616  32.205  27.626  1.00  0.00     0.116 C 
BRANCH  70  71
ATOM     71  N   UNL A   1      35.025  32.430  27.884  1.00  0.00    -0.352 N 
ATOM     72  C   UNL A   1      35.625  33.382  28.663  1.00  0.00     0.252 C 
ATOM     73  H   UNL A   1      35.640  31.807  27.434  1.00  0.00     0.163 HD
ATOM     74  O   UNL A   1      36.846  33.534  28.613  1.00  0.00    -0.269 OA
BRANCH  72  75
ATOM     75  C   UNL A   1      34.844  34.337  29.474  1.00  0.00     0.052 A 
ATOM     76  C   UNL A   1      34.434  35.464  28.720  1.00  0.00     0.014 A 
ATOM     77  C   UNL A   1      34.476  34.228  30.823  1.00  0.00     0.052 A 
ATOM     78  C   UNL A   1      33.577  36.424  29.251  1.00  0.00     0.001 A 
ATOM     79  C   UNL A   1      33.571  35.199  31.322  1.00  0.00     0.014 A 
ATOM     80  C   UNL A   1      33.116  36.272  30.547  1.00  0.00     0.001 A 
BRANCH  77  81
ATOM     81  C   UNL A   1      34.807  33.157  31.812  1.00  0.00     0.256 C 
ATOM     82  O   UNL A   1      33.855  32.521  32.283  1.00  0.00    -0.269 OA
ATOM     83  N   UNL A   1      36.059  32.734  32.190  1.00  0.00    -0.322 N 
ATOM     84  H   UNL A   1      36.054  31.940  32.771  1.00  0.00     0.170 HD
BRANCH  83  85
ATOM     85  C   UNL A   1      37.334  33.219  31.907  1.00  0.00     0.041 A 
ATOM     86  C   UNL A   1      38.287  32.276  31.512  1.00  0.00     0.028 A 
ATOM     87  C   UNL A   1      37.656  34.570  31.925  1.00  0.00     0.028 A 
ATOM     88  C   UNL A   1      39.446  32.692  30.863  1.00  0.00     0.029 A 
ATOM     89  C   UNL A   1      38.887  34.981  31.406  1.00  0.00     0.029 A 
ATOM     90  C   UNL A   1      39.731  34.051  30.776  1.00  0.00     0.052 A 
BRANCH  90  91
ATOM     91  N   UNL A   1      40.748  34.515  29.926  1.00  0.00    -0.250 N 
ATOM     92  C   UNL A   1      42.015  34.892  30.384  1.00  0.00     0.237 C 
ATOM     93  C   UNL A   1      40.503  34.948  28.604  1.00  0.00     0.237 C 
ATOM     94  O   UNL A   1      42.613  34.582  31.396  1.00  0.00    -0.274 OA
ATOM     95  C   UNL A   1      42.399  35.959  29.424  1.00  0.00     0.095 C 
ATOM     96  C   UNL A   1      41.859  35.374  28.129  1.00  0.00     0.095 C 
ATOM     97  O   UNL A   1      39.482  34.921  27.938  1.00  0.00    -0.274 OA
ATOM     98  C   UNL A   1      43.718  36.591  28.982  1.00  0.00     0.002 C 
ATOM     99  C   UNL A   1      42.443  36.360  27.122  1.00  0.00     0.002 C 
ATOM    100  C   UNL A   1      43.333  38.052  28.666  1.00  0.00     0.005 C 
ATOM    101  C   UNL A   1      43.921  36.119  27.523  1.00  0.00     0.009 C 
ATOM    102  C   UNL A   1      42.307  37.861  27.510  1.00  0.00     0.005 C 
ENDBRANCH  90  91
ENDBRANCH  83  85
ENDBRANCH  77  81
ENDBRANCH  72  75
ENDBRANCH  70  71
ENDBRANCH  69  70
ENDBRANCH   1  69
TORSDOF 17
ENDMDL
