MODEL 1
REMARK VINA RESULT:      -9.6      0.000      0.000
REMARK SMILES C[C@@H]1CN(C(=O)Nc2ccc(O)c(C(=O)NCCCCNC(=O)c3ccc(-c4c5nc(c(-c6ccc(S(=O)(=O)[O-])cc6)c6ccc([nH]6)c(-c6ccc(S(=O)(=O)[O-])cc6)c6nc(c(-c7ccc(S(=O)(=O)[O-])cc7)c7ccc4[nH]7)C=C6)C=C5)cc3)c2)C[C@H]1C
REMARK SMILES IDX 19 1 18 2 17 3 16 4 14 5 15 6 13 8 8 9 9 10 84 11 10 12
REMARK SMILES IDX 11 13 7 14 1 15 2 16 3 17 86 18 4 19 85 20 87 21 5 22 6 23
REMARK SMILES IDX 12 25 20 27 21 28 22 29 23 31 24 32 25 33 83 34 26 35 82 36
REMARK SMILES IDX 27 37 28 38 29 39 76 40 30 41 81 42 75 43 77 44 31 45 80 46
REMARK SMILES IDX 74 47 73 48 32 50 62 51 43 52 61 53 44 54 47 55 60 56 78 57
REMARK SMILES IDX 45 58 46 59 59 61 79 62 48 63 33 64 34 65 42 66 35 67 41 68
REMARK SMILES IDX 36 69 37 70 38 71 39 72 40 73 63 74 64 75 72 76 65 77 71 78
REMARK SMILES IDX 66 79 67 80 68 81 69 82 70 83 49 84 50 85 58 86 51 87 57 88
REMARK SMILES IDX 52 89 53 90 54 91 55 92 56 93
REMARK H PARENT 16 7 7 24 12 26 21 30 77 49 47 60
REMARK Flexibility Score: inf
ROOT
ATOM      1  C   UNL A   1      34.338  33.886  29.893  1.00  0.00     0.023 C 
ENDROOT
BRANCH   1   2
ATOM      2  C   UNL A   1      34.634  33.498  31.337  1.00  0.00     0.023 C 
BRANCH   2   3
ATOM      3  C   UNL A   1      35.368  34.551  32.171  1.00  0.00     0.116 C 
BRANCH   3   4
ATOM      4  N   UNL A   1      36.690  34.792  31.642  1.00  0.00    -0.352 N 
ATOM      5  C   UNL A   1      37.941  34.513  32.122  1.00  0.00     0.255 C 
ATOM      6  O   UNL A   1      38.885  34.861  31.405  1.00  0.00    -0.269 OA
ATOM      7  H   UNL A   1      36.692  35.243  30.767  1.00  0.00     0.163 HD
BRANCH   5   8
ATOM      8  C   UNL A   1      38.263  33.767  33.381  1.00  0.00     0.083 A 
ATOM      9  C   UNL A   1      38.307  31.522  34.355  1.00  0.00     0.043 A 
ATOM     10  C   UNL A   1      38.908  32.018  35.506  1.00  0.00     0.030 A 
ATOM     11  C   UNL A   1      38.063  32.374  33.278  1.00  0.00     0.044 A 
ATOM     12  C   UNL A   1      39.121  33.382  35.635  1.00  0.00     0.049 A 
ATOM     13  C   UNL A   1      38.769  34.254  34.594  1.00  0.00     0.128 A 
BRANCH   9  14
ATOM     14  N   UNL A   1      37.935  30.180  34.243  1.00  0.00    -0.308 N 
ATOM     15  C   UNL A   1      43.174  29.542  35.495  1.00  0.00     0.010 C 
ATOM     16  C   UNL A   1      42.254  29.282  34.315  1.00  0.00     0.010 C 
ATOM     17  C   UNL A   1      40.869  29.891  34.522  1.00  0.00     0.125 C 
ATOM     18  C   UNL A   1      41.920  27.810  34.059  1.00  0.00     0.010 C 
ATOM     19  N   UNL A   1      39.965  29.091  33.697  1.00  0.00    -0.324 N 
ATOM     20  C   UNL A   1      40.660  27.913  33.194  1.00  0.00     0.125 C 
ATOM     21  C   UNL A   1      43.040  27.040  33.381  1.00  0.00     0.010 C 
ATOM     22  C   UNL A   1      38.589  29.144  33.646  1.00  0.00     0.321 C 
ATOM     23  O   UNL A   1      37.919  28.217  33.189  1.00  0.00    -0.248 OA
ATOM     24  H   UNL A   1      37.073  29.949  34.657  1.00  0.00     0.171 HD
ENDBRANCH   9  14
BRANCH  13  25
ATOM     25  O   UNL A   1      38.980  35.574  34.839  1.00  0.00    -0.507 OA
ATOM     26  H   UNL A   1      39.839  35.877  35.064  1.00  0.00     0.293 HD
ENDBRANCH  13  25
ENDBRANCH   5   8
ENDBRANCH   3   4
ENDBRANCH   2   3
ENDBRANCH   1   2
BRANCH   1  27
ATOM     27  C   UNL A   1      34.984  32.997  28.845  1.00  0.00     0.116 C 
BRANCH  27  28
ATOM     28  N   UNL A   1      34.061  32.058  28.222  1.00  0.00    -0.352 N 
ATOM     29  C   UNL A   1      34.287  30.744  27.885  1.00  0.00     0.251 C 
ATOM     30  H   UNL A   1      33.164  32.409  28.018  1.00  0.00     0.163 HD
ATOM     31  O   UNL A   1      33.437  30.096  27.290  1.00  0.00    -0.269 OA
BRANCH  29  32
ATOM     32  C   UNL A   1      35.600  30.150  28.211  1.00  0.00     0.039 A 
ATOM     33  C   UNL A   1      36.612  30.183  27.250  1.00  0.00     0.014 A 
ATOM     34  C   UNL A   1      35.847  29.640  29.488  1.00  0.00     0.014 A 
ATOM     35  C   UNL A   1      37.900  29.770  27.597  1.00  0.00     0.010 A 
ATOM     36  C   UNL A   1      37.144  29.299  29.852  1.00  0.00     0.010 A 
ATOM     37  C   UNL A   1      38.183  29.363  28.911  1.00  0.00    -0.014 A 
BRANCH  37  38
ATOM     38  C   UNL A   1      39.557  28.988  29.325  1.00  0.00     0.031 A 
ATOM     39  C   UNL A   1      40.401  29.977  30.081  1.00  0.00     0.074 A 
ATOM     40  C   UNL A   1      40.065  27.793  28.962  1.00  0.00     0.049 A 
ATOM     41  N   UNL A   1      41.654  29.885  30.439  1.00  0.00    -0.248 NA
ATOM     42  C   UNL A   1      39.758  31.248  30.459  1.00  0.00     0.031 C 
ATOM     43  C   UNL A   1      39.359  26.764  28.193  1.00  0.00     0.029 A 
ATOM     44  N   UNL A   1      41.305  27.247  29.183  1.00  0.00    -0.354 N 
ATOM     45  C   UNL A   1      41.955  31.085  31.070  1.00  0.00     0.074 A 
ATOM     46  C   UNL A   1      40.768  31.910  31.003  1.00  0.00     0.031 C 
ATOM     47  C   UNL A   1      40.170  25.707  28.023  1.00  0.00     0.029 A 
ATOM     48  C   UNL A   1      41.464  25.994  28.636  1.00  0.00     0.049 A 
ATOM     49  H   UNL A   1      42.014  27.707  29.686  1.00  0.00     0.167 HD
ATOM     50  C   UNL A   1      43.106  31.459  31.676  1.00  0.00     0.031 A 
ATOM     51  C   UNL A   1      42.532  25.175  28.623  1.00  0.00     0.031 A 
ATOM     52  C   UNL A   1      44.276  30.631  31.763  1.00  0.00     0.049 A 
ATOM     53  C   UNL A   1      43.800  25.616  29.307  1.00  0.00     0.074 A 
ATOM     54  C   UNL A   1      45.484  30.908  32.380  1.00  0.00     0.029 A 
ATOM     55  N   UNL A   1      44.382  29.356  31.229  1.00  0.00    -0.354 N 
ATOM     56  N   UNL A   1      44.050  26.742  29.932  1.00  0.00    -0.248 NA
ATOM     57  C   UNL A   1      44.925  24.670  29.294  1.00  0.00     0.031 C 
ATOM     58  C   UNL A   1      46.330  29.810  32.195  1.00  0.00     0.029 A 
ATOM     59  C   UNL A   1      45.633  28.833  31.503  1.00  0.00     0.049 A 
ATOM     60  H   UNL A   1      43.672  28.891  30.730  1.00  0.00     0.167 HD
ATOM     61  C   UNL A   1      45.348  26.624  30.415  1.00  0.00     0.074 A 
ATOM     62  C   UNL A   1      45.827  25.315  30.020  1.00  0.00     0.031 C 
ATOM     63  C   UNL A   1      46.081  27.519  31.120  1.00  0.00     0.031 A 
BRANCH  50  64
ATOM     64  C   UNL A   1      43.145  32.821  32.314  1.00  0.00    -0.014 A 
ATOM     65  C   UNL A   1      43.571  33.943  31.582  1.00  0.00     0.010 A 
ATOM     66  C   UNL A   1      42.701  32.992  33.637  1.00  0.00     0.010 A 
ATOM     67  C   UNL A   1      43.581  35.210  32.170  1.00  0.00     0.020 A 
ATOM     68  C   UNL A   1      42.686  34.262  34.222  1.00  0.00     0.020 A 
ATOM     69  C   UNL A   1      43.138  35.361  33.487  1.00  0.00     0.054 A 
BRANCH  69  70
ATOM     70  S   UNL A   1      43.120  37.024  34.210  1.00  0.00     0.124 S 
ATOM     71  O   UNL A   1      44.178  36.927  35.213  1.00  0.00    -0.237 OA
ATOM     72  O   UNL A   1      43.421  37.877  33.062  1.00  0.00    -0.237 OA
ATOM     73  O   UNL A   1      41.766  37.156  34.743  1.00  0.00    -0.744 OA
ENDBRANCH  69  70
ENDBRANCH  50  64
BRANCH  51  74
ATOM     74  C   UNL A   1      42.461  23.851  27.947  1.00  0.00    -0.014 A 
ATOM     75  C   UNL A   1      42.171  22.689  28.684  1.00  0.00     0.010 A 
ATOM     76  C   UNL A   1      42.714  23.741  26.568  1.00  0.00     0.010 A 
ATOM     77  C   UNL A   1      42.178  21.437  28.064  1.00  0.00     0.020 A 
ATOM     78  C   UNL A   1      42.695  22.493  25.938  1.00  0.00     0.020 A 
ATOM     79  C   UNL A   1      42.448  21.345  26.695  1.00  0.00     0.054 A 
BRANCH  79  80
ATOM     80  S   UNL A   1      42.445  19.713  25.905  1.00  0.00     0.124 S 
ATOM     81  O   UNL A   1      43.554  19.832  24.964  1.00  0.00    -0.237 OA
ATOM     82  O   UNL A   1      42.666  18.811  27.033  1.00  0.00    -0.237 OA
ATOM     83  O   UNL A   1      41.116  19.629  25.303  1.00  0.00    -0.744 OA
ENDBRANCH  79  80
ENDBRANCH  51  74
BRANCH  63  84
ATOM     84  C   UNL A   1      47.455  27.098  31.562  1.00  0.00    -0.014 A 
ATOM     85  C   UNL A   1      47.650  26.387  32.757  1.00  0.00     0.010 A 
ATOM     86  C   UNL A   1      48.559  27.367  30.731  1.00  0.00     0.010 A 
ATOM     87  C   UNL A   1      48.931  25.971  33.128  1.00  0.00     0.020 A 
ATOM     88  C   UNL A   1      49.837  26.933  31.087  1.00  0.00     0.020 A 
ATOM     89  C   UNL A   1      50.017  26.248  32.290  1.00  0.00     0.054 A 
BRANCH  89  90
ATOM     90  S   UNL A   1      51.663  25.652  32.765  1.00  0.00     0.124 S 
ATOM     91  O   UNL A   1      51.345  24.413  33.469  1.00  0.00    -0.237 OA
ATOM     92  O   UNL A   1      52.332  25.489  31.477  1.00  0.00    -0.237 OA
ATOM     93  O   UNL A   1      52.192  26.726  33.602  1.00  0.00    -0.744 OA
ENDBRANCH  89  90
ENDBRANCH  63  84
ENDBRANCH  37  38
ENDBRANCH  29  32
ENDBRANCH  27  28
ENDBRANCH   1  27
TORSDOF 16
ENDMDL
MODEL 2
REMARK VINA RESULT:      -9.6      4.647     11.288
REMARK SMILES C[C@@H]1CN(C(=O)Nc2ccc(O)c(C(=O)NCCCCNC(=O)c3ccc(-c4c5nc(c(-c6ccc(S(=O)(=O)[O-])cc6)c6ccc([nH]6)c(-c6ccc(S(=O)(=O)[O-])cc6)c6nc(c(-c7ccc(S(=O)(=O)[O-])cc7)c7ccc4[nH]7)C=C6)C=C5)cc3)c2)C[C@H]1C
REMARK SMILES IDX 19 1 18 2 17 3 16 4 14 5 15 6 13 8 8 9 9 10 84 11 10 12
REMARK SMILES IDX 11 13 7 14 1 15 2 16 3 17 86 18 4 19 85 20 87 21 5 22 6 23
REMARK SMILES IDX 12 25 20 27 21 28 22 29 23 31 24 32 25 33 83 34 26 35 82 36
REMARK SMILES IDX 27 37 28 38 29 39 76 40 30 41 81 42 75 43 77 44 31 45 80 46
REMARK SMILES IDX 74 47 73 48 32 50 62 51 43 52 61 53 44 54 47 55 60 56 78 57
REMARK SMILES IDX 45 58 46 59 59 61 79 62 48 63 33 64 34 65 42 66 35 67 41 68
REMARK SMILES IDX 36 69 37 70 38 71 39 72 40 73 63 74 64 75 72 76 65 77 71 78
REMARK SMILES IDX 66 79 67 80 68 81 69 82 70 83 49 84 50 85 58 86 51 87 57 88
REMARK SMILES IDX 52 89 53 90 54 91 55 92 56 93
REMARK H PARENT 16 7 7 24 12 26 21 30 77 49 47 60
REMARK Flexibility Score: inf
ROOT
ATOM      1  C   UNL A   1      31.501  32.001  26.843  1.00  0.00     0.023 C 
ENDROOT
BRANCH   1   2
ATOM      2  C   UNL A   1      31.589  30.627  26.188  1.00  0.00     0.023 C 
BRANCH   2   3
ATOM      3  C   UNL A   1      32.979  29.988  26.169  1.00  0.00     0.116 C 
BRANCH   3   4
ATOM      4  N   UNL A   1      33.394  29.703  24.814  1.00  0.00    -0.352 N 
ATOM      5  C   UNL A   1      32.909  28.847  23.862  1.00  0.00     0.255 C 
ATOM      6  O   UNL A   1      33.508  28.847  22.782  1.00  0.00    -0.269 OA
ATOM      7  H   UNL A   1      34.174  30.226  24.519  1.00  0.00     0.163 HD
BRANCH   5   8
ATOM      8  C   UNL A   1      31.693  27.982  23.982  1.00  0.00     0.083 A 
ATOM      9  C   UNL A   1      30.653  26.272  25.393  1.00  0.00     0.043 A 
ATOM     10  C   UNL A   1      29.497  26.319  24.621  1.00  0.00     0.030 A 
ATOM     11  C   UNL A   1      31.703  27.150  25.123  1.00  0.00     0.044 A 
ATOM     12  C   UNL A   1      29.457  27.129  23.496  1.00  0.00     0.049 A 
ATOM     13  C   UNL A   1      30.559  27.927  23.160  1.00  0.00     0.128 A 
BRANCH   9  14
ATOM     14  N   UNL A   1      30.797  25.362  26.443  1.00  0.00    -0.308 N 
ATOM     15  C   UNL A   1      33.947  22.950  22.745  1.00  0.00     0.010 C 
ATOM     16  C   UNL A   1      32.641  22.675  23.470  1.00  0.00     0.010 C 
ATOM     17  C   UNL A   1      32.165  23.883  24.273  1.00  0.00     0.125 C 
ATOM     18  C   UNL A   1      32.706  21.584  24.542  1.00  0.00     0.010 C 
ATOM     19  N   UNL A   1      31.333  23.335  25.343  1.00  0.00    -0.324 N 
ATOM     20  C   UNL A   1      31.459  21.885  25.380  1.00  0.00     0.125 C 
ATOM     21  C   UNL A   1      32.714  20.174  23.978  1.00  0.00     0.010 C 
ATOM     22  C   UNL A   1      30.786  24.000  26.419  1.00  0.00     0.321 C 
ATOM     23  O   UNL A   1      30.400  23.402  27.425  1.00  0.00    -0.248 OA
ATOM     24  H   UNL A   1      30.926  25.765  27.332  1.00  0.00     0.171 HD
ENDBRANCH   9  14
BRANCH  13  25
ATOM     25  O   UNL A   1      30.431  28.651  22.017  1.00  0.00    -0.507 OA
ATOM     26  H   UNL A   1      29.990  29.478  22.033  1.00  0.00     0.293 HD
ENDBRANCH  13  25
ENDBRANCH   5   8
ENDBRANCH   3   4
ENDBRANCH   2   3
ENDBRANCH   1   2
BRANCH   1  27
ATOM     27  C   UNL A   1      32.832  32.588  27.281  1.00  0.00     0.116 C 
BRANCH  27  28
ATOM     28  N   UNL A   1      32.758  33.993  27.658  1.00  0.00    -0.352 N 
ATOM     29  C   UNL A   1      33.554  34.674  28.548  1.00  0.00     0.251 C 
ATOM     30  H   UNL A   1      32.049  34.519  27.222  1.00  0.00     0.163 HD
ATOM     31  O   UNL A   1      33.323  35.843  28.826  1.00  0.00    -0.269 OA
BRANCH  29  32
ATOM     32  C   UNL A   1      34.665  33.948  29.197  1.00  0.00     0.039 A 
ATOM     33  C   UNL A   1      35.972  34.201  28.776  1.00  0.00     0.014 A 
ATOM     34  C   UNL A   1      34.415  33.086  30.268  1.00  0.00     0.014 A 
ATOM     35  C   UNL A   1      37.039  33.644  29.484  1.00  0.00     0.010 A 
ATOM     36  C   UNL A   1      35.479  32.593  31.014  1.00  0.00     0.010 A 
ATOM     37  C   UNL A   1      36.800  32.869  30.631  1.00  0.00    -0.014 A 
BRANCH  37  38
ATOM     38  C   UNL A   1      37.916  32.324  31.442  1.00  0.00     0.031 A 
ATOM     39  C   UNL A   1      38.704  31.150  30.928  1.00  0.00     0.074 A 
ATOM     40  C   UNL A   1      38.171  32.836  32.663  1.00  0.00     0.049 A 
ATOM     41  N   UNL A   1      39.640  30.462  31.526  1.00  0.00    -0.248 NA
ATOM     42  C   UNL A   1      38.375  30.671  29.574  1.00  0.00     0.031 C 
ATOM     43  C   UNL A   1      37.451  33.948  33.289  1.00  0.00     0.029 A 
ATOM     44  N   UNL A   1      39.104  32.476  33.604  1.00  0.00    -0.354 N 
ATOM     45  C   UNL A   1      40.003  29.463  30.631  1.00  0.00     0.074 A 
ATOM     46  C   UNL A   1      39.152  29.602  29.469  1.00  0.00     0.031 C 
ATOM     47  C   UNL A   1      37.981  34.190  34.500  1.00  0.00     0.029 A 
ATOM     48  C   UNL A   1      39.051  33.230  34.753  1.00  0.00     0.049 A 
ATOM     49  H   UNL A   1      39.752  31.748  33.468  1.00  0.00     0.167 HD
ATOM     50  C   UNL A   1      40.975  28.529  30.752  1.00  0.00     0.031 A 
ATOM     51  C   UNL A   1      39.776  33.150  35.885  1.00  0.00     0.031 A 
ATOM     52  C   UNL A   1      41.835  28.406  31.896  1.00  0.00     0.049 A 
ATOM     53  C   UNL A   1      40.853  32.103  35.992  1.00  0.00     0.074 A 
ATOM     54  C   UNL A   1      42.870  27.510  32.103  1.00  0.00     0.029 A 
ATOM     55  N   UNL A   1      41.772  29.213  33.021  1.00  0.00    -0.354 N 
ATOM     56  N   UNL A   1      41.205  31.191  35.117  1.00  0.00    -0.248 NA
ATOM     57  C   UNL A   1      41.638  32.082  37.235  1.00  0.00     0.031 C 
ATOM     58  C   UNL A   1      43.414  27.757  33.367  1.00  0.00     0.029 A 
ATOM     59  C   UNL A   1      42.749  28.836  33.926  1.00  0.00     0.049 A 
ATOM     60  H   UNL A   1      41.129  29.946  33.157  1.00  0.00     0.167 HD
ATOM     61  C   UNL A   1      42.274  30.512  35.690  1.00  0.00     0.074 A 
ATOM     62  C   UNL A   1      42.518  31.124  36.980  1.00  0.00     0.031 C 
ATOM     63  C   UNL A   1      42.989  29.474  35.195  1.00  0.00     0.031 A 
BRANCH  50  64
ATOM     64  C   UNL A   1      41.174  27.580  29.603  1.00  0.00    -0.014 A 
ATOM     65  C   UNL A   1      42.289  27.703  28.756  1.00  0.00     0.010 A 
ATOM     66  C   UNL A   1      40.270  26.521  29.399  1.00  0.00     0.010 A 
ATOM     67  C   UNL A   1      42.483  26.803  27.705  1.00  0.00     0.020 A 
ATOM     68  C   UNL A   1      40.474  25.603  28.365  1.00  0.00     0.020 A 
ATOM     69  C   UNL A   1      41.573  25.758  27.517  1.00  0.00     0.054 A 
BRANCH  69  70
ATOM     70  S   UNL A   1      41.875  24.579  26.173  1.00  0.00     0.124 S 
ATOM     71  O   UNL A   1      40.718  23.694  26.284  1.00  0.00    -0.237 OA
ATOM     72  O   UNL A   1      41.898  25.437  24.990  1.00  0.00    -0.237 OA
ATOM     73  O   UNL A   1      43.158  23.974  26.524  1.00  0.00    -0.744 OA
ENDBRANCH  69  70
ENDBRANCH  50  64
BRANCH  51  74
ATOM     74  C   UNL A   1      39.520  34.087  37.014  1.00  0.00    -0.014 A 
ATOM     75  C   UNL A   1      40.087  35.374  37.014  1.00  0.00     0.010 A 
ATOM     76  C   UNL A   1      38.733  33.685  38.108  1.00  0.00     0.010 A 
ATOM     77  C   UNL A   1      39.909  36.226  38.108  1.00  0.00     0.020 A 
ATOM     78  C   UNL A   1      38.530  34.545  39.191  1.00  0.00     0.020 A 
ATOM     79  C   UNL A   1      39.137  35.803  39.194  1.00  0.00     0.054 A 
BRANCH  79  80
ATOM     80  S   UNL A   1      38.909  36.924  40.601  1.00  0.00     0.124 S 
ATOM     81  O   UNL A   1      38.154  38.017  39.997  1.00  0.00    -0.237 OA
ATOM     82  O   UNL A   1      38.173  36.096  41.553  1.00  0.00    -0.237 OA
ATOM     83  O   UNL A   1      40.277  37.251  41.000  1.00  0.00    -0.744 OA
ENDBRANCH  79  80
ENDBRANCH  51  74
BRANCH  63  84
ATOM     84  C   UNL A   1      44.139  28.966  36.020  1.00  0.00    -0.014 A 
ATOM     85  C   UNL A   1      45.410  29.559  35.940  1.00  0.00     0.010 A 
ATOM     86  C   UNL A   1      43.922  27.918  36.934  1.00  0.00     0.010 A 
ATOM     87  C   UNL A   1      46.454  29.097  36.745  1.00  0.00     0.020 A 
ATOM     88  C   UNL A   1      44.957  27.469  37.756  1.00  0.00     0.020 A 
ATOM     89  C   UNL A   1      46.221  28.054  37.648  1.00  0.00     0.054 A 
BRANCH  89  90
ATOM     90  S   UNL A   1      47.577  27.506  38.721  1.00  0.00     0.124 S 
ATOM     91  O   UNL A   1      48.731  27.625  37.836  1.00  0.00    -0.237 OA
ATOM     92  O   UNL A   1      47.526  28.466  39.821  1.00  0.00    -0.237 OA
ATOM     93  O   UNL A   1      47.204  26.139  39.079  1.00  0.00    -0.744 OA
ENDBRANCH  89  90
ENDBRANCH  63  84
ENDBRANCH  37  38
ENDBRANCH  29  32
ENDBRANCH  27  28
ENDBRANCH   1  27
TORSDOF 16
ENDMDL
MODEL 3
REMARK VINA RESULT:      -9.5      4.873      7.904
REMARK SMILES C[C@@H]1CN(C(=O)Nc2ccc(O)c(C(=O)NCCCCNC(=O)c3ccc(-c4c5nc(c(-c6ccc(S(=O)(=O)[O-])cc6)c6ccc([nH]6)c(-c6ccc(S(=O)(=O)[O-])cc6)c6nc(c(-c7ccc(S(=O)(=O)[O-])cc7)c7ccc4[nH]7)C=C6)C=C5)cc3)c2)C[C@H]1C
REMARK SMILES IDX 19 1 18 2 17 3 16 4 14 5 15 6 13 8 8 9 9 10 84 11 10 12
REMARK SMILES IDX 11 13 7 14 1 15 2 16 3 17 86 18 4 19 85 20 87 21 5 22 6 23
REMARK SMILES IDX 12 25 20 27 21 28 22 29 23 31 24 32 25 33 83 34 26 35 82 36
REMARK SMILES IDX 27 37 28 38 29 39 76 40 30 41 81 42 75 43 77 44 31 45 80 46
REMARK SMILES IDX 74 47 73 48 32 50 62 51 43 52 61 53 44 54 47 55 60 56 78 57
REMARK SMILES IDX 45 58 46 59 59 61 79 62 48 63 33 64 34 65 42 66 35 67 41 68
REMARK SMILES IDX 36 69 37 70 38 71 39 72 40 73 63 74 64 75 72 76 65 77 71 78
REMARK SMILES IDX 66 79 67 80 68 81 69 82 70 83 49 84 50 85 58 86 51 87 57 88
REMARK SMILES IDX 52 89 53 90 54 91 55 92 56 93
REMARK H PARENT 16 7 7 24 12 26 21 30 77 49 47 60
REMARK Flexibility Score: inf
ROOT
ATOM      1  C   UNL A   1      35.017  30.291  27.764  1.00  0.00     0.023 C 
ENDROOT
BRANCH   1   2
ATOM      2  C   UNL A   1      34.411  29.263  26.816  1.00  0.00     0.023 C 
BRANCH   2   3
ATOM      3  C   UNL A   1      33.202  29.738  26.006  1.00  0.00     0.116 C 
BRANCH   3   4
ATOM      4  N   UNL A   1      33.444  29.586  24.589  1.00  0.00    -0.352 N 
ATOM      5  C   UNL A   1      32.814  28.855  23.619  1.00  0.00     0.255 C 
ATOM      6  O   UNL A   1      33.284  28.950  22.480  1.00  0.00    -0.269 OA
ATOM      7  H   UNL A   1      34.210  30.110  24.258  1.00  0.00     0.163 HD
BRANCH   5   8
ATOM      8  C   UNL A   1      31.579  28.025  23.793  1.00  0.00     0.083 A 
ATOM      9  C   UNL A   1      30.535  26.378  25.273  1.00  0.00     0.043 A 
ATOM     10  C   UNL A   1      29.360  26.437  24.532  1.00  0.00     0.030 A 
ATOM     11  C   UNL A   1      31.600  27.221  24.953  1.00  0.00     0.044 A 
ATOM     12  C   UNL A   1      29.309  27.221  23.389  1.00  0.00     0.049 A 
ATOM     13  C   UNL A   1      30.422  27.982  23.003  1.00  0.00     0.128 A 
BRANCH   9  14
ATOM     14  N   UNL A   1      30.684  25.490  26.340  1.00  0.00    -0.308 N 
ATOM     15  C   UNL A   1      33.921  23.073  22.721  1.00  0.00     0.010 C 
ATOM     16  C   UNL A   1      32.612  22.786  23.436  1.00  0.00     0.010 C 
ATOM     17  C   UNL A   1      32.105  23.999  24.213  1.00  0.00     0.125 C 
ATOM     18  C   UNL A   1      32.686  21.716  24.529  1.00  0.00     0.010 C 
ATOM     19  N   UNL A   1      31.271  23.454  25.283  1.00  0.00    -0.324 N 
ATOM     20  C   UNL A   1      31.424  22.007  25.348  1.00  0.00     0.125 C 
ATOM     21  C   UNL A   1      32.727  20.296  23.991  1.00  0.00     0.010 C 
ATOM     22  C   UNL A   1      30.700  24.127  26.341  1.00  0.00     0.321 C 
ATOM     23  O   UNL A   1      30.314  23.540  27.353  1.00  0.00    -0.248 OA
ATOM     24  H   UNL A   1      30.796  25.910  27.223  1.00  0.00     0.171 HD
ENDBRANCH   9  14
BRANCH  13  25
ATOM     25  O   UNL A   1      30.281  28.681  21.847  1.00  0.00    -0.507 OA
ATOM     26  H   UNL A   1      29.831  28.296  21.119  1.00  0.00     0.293 HD
ENDBRANCH  13  25
ENDBRANCH   5   8
ENDBRANCH   3   4
ENDBRANCH   2   3
ENDBRANCH   1   2
BRANCH   1  27
ATOM     27  C   UNL A   1      35.744  29.707  28.963  1.00  0.00     0.116 C 
BRANCH  27  28
ATOM     28  N   UNL A   1      35.641  30.523  30.165  1.00  0.00    -0.352 N 
ATOM     29  C   UNL A   1      36.662  31.004  30.952  1.00  0.00     0.251 C 
ATOM     30  H   UNL A   1      34.729  30.757  30.450  1.00  0.00     0.163 HD
ATOM     31  O   UNL A   1      36.420  31.615  31.985  1.00  0.00    -0.269 OA
BRANCH  29  32
ATOM     32  C   UNL A   1      38.055  30.724  30.547  1.00  0.00     0.039 A 
ATOM     33  C   UNL A   1      38.935  30.189  31.490  1.00  0.00     0.014 A 
ATOM     34  C   UNL A   1      38.458  30.915  29.223  1.00  0.00     0.014 A 
ATOM     35  C   UNL A   1      40.204  29.774  31.083  1.00  0.00     0.010 A 
ATOM     36  C   UNL A   1      39.693  30.433  28.807  1.00  0.00     0.010 A 
ATOM     37  C   UNL A   1      40.576  29.856  29.731  1.00  0.00    -0.014 A 
BRANCH  37  38
ATOM     38  C   UNL A   1      41.891  29.356  29.259  1.00  0.00     0.031 A 
ATOM     39  C   UNL A   1      43.055  30.303  29.163  1.00  0.00     0.074 A 
ATOM     40  C   UNL A   1      42.016  28.077  28.850  1.00  0.00     0.049 A 
ATOM     41  N   UNL A   1      44.250  30.093  28.678  1.00  0.00    -0.248 NA
ATOM     42  C   UNL A   1      42.837  31.676  29.655  1.00  0.00     0.031 C 
ATOM     43  C   UNL A   1      40.949  27.072  28.856  1.00  0.00     0.029 A 
ATOM     44  N   UNL A   1      43.098  27.406  28.339  1.00  0.00    -0.354 N 
ATOM     45  C   UNL A   1      44.921  31.304  28.791  1.00  0.00     0.074 A 
ATOM     46  C   UNL A   1      43.986  32.259  29.345  1.00  0.00     0.031 C 
ATOM     47  C   UNL A   1      41.436  25.911  28.388  1.00  0.00     0.029 A 
ATOM     48  C   UNL A   1      42.835  26.095  28.015  1.00  0.00     0.049 A 
ATOM     49  H   UNL A   1      43.981  27.823  28.215  1.00  0.00     0.167 HD
ATOM     50  C   UNL A   1      46.208  31.591  28.487  1.00  0.00     0.031 A 
ATOM     51  C   UNL A   1      43.628  25.153  27.472  1.00  0.00     0.031 A 
ATOM     52  C   UNL A   1      47.143  30.636  27.958  1.00  0.00     0.049 A 
ATOM     53  C   UNL A   1      45.057  25.499  27.145  1.00  0.00     0.074 A 
ATOM     54  C   UNL A   1      48.478  30.822  27.643  1.00  0.00     0.029 A 
ATOM     55  N   UNL A   1      46.846  29.311  27.681  1.00  0.00    -0.354 N 
ATOM     56  N   UNL A   1      45.683  26.642  27.296  1.00  0.00    -0.248 NA
ATOM     57  C   UNL A   1      45.890  24.424  26.586  1.00  0.00     0.031 C 
ATOM     58  C   UNL A   1      48.981  29.615  27.149  1.00  0.00     0.029 A 
ATOM     59  C   UNL A   1      47.971  28.667  27.199  1.00  0.00     0.049 A 
ATOM     60  H   UNL A   1      45.965  28.890  27.809  1.00  0.00     0.167 HD
ATOM     61  C   UNL A   1      46.990  26.413  26.882  1.00  0.00     0.074 A 
ATOM     62  C   UNL A   1      47.069  25.022  26.487  1.00  0.00     0.031 C 
ATOM     63  C   UNL A   1      48.033  27.276  26.833  1.00  0.00     0.031 A 
BRANCH  50  64
ATOM     64  C   UNL A   1      46.686  32.994  28.741  1.00  0.00    -0.014 A 
ATOM     65  C   UNL A   1      47.300  33.332  29.960  1.00  0.00     0.010 A 
ATOM     66  C   UNL A   1      46.572  33.971  27.735  1.00  0.00     0.010 A 
ATOM     67  C   UNL A   1      47.766  34.630  30.182  1.00  0.00     0.020 A 
ATOM     68  C   UNL A   1      47.059  35.264  27.944  1.00  0.00     0.020 A 
ATOM     69  C   UNL A   1      47.642  35.588  29.171  1.00  0.00     0.054 A 
BRANCH  69  70
ATOM     70  S   UNL A   1      48.296  37.253  29.471  1.00  0.00     0.124 S 
ATOM     71  O   UNL A   1      47.086  38.069  29.397  1.00  0.00    -0.237 OA
ATOM     72  O   UNL A   1      48.891  37.131  30.801  1.00  0.00    -0.237 OA
ATOM     73  O   UNL A   1      49.250  37.452  28.382  1.00  0.00    -0.744 OA
ENDBRANCH  69  70
ENDBRANCH  50  64
BRANCH  51  74
ATOM     74  C   UNL A   1      43.103  23.787  27.201  1.00  0.00    -0.014 A 
ATOM     75  C   UNL A   1      43.074  22.819  28.222  1.00  0.00     0.010 A 
ATOM     76  C   UNL A   1      42.657  23.437  25.914  1.00  0.00     0.010 A 
ATOM     77  C   UNL A   1      42.651  21.515  27.949  1.00  0.00     0.020 A 
ATOM     78  C   UNL A   1      42.207  22.141  25.645  1.00  0.00     0.020 A 
ATOM     79  C   UNL A   1      42.226  21.182  26.660  1.00  0.00     0.054 A 
BRANCH  79  80
ATOM     80  S   UNL A   1      41.673  19.487  26.327  1.00  0.00     0.124 S 
ATOM     81  O   UNL A   1      42.037  18.802  27.563  1.00  0.00    -0.237 OA
ATOM     82  O   UNL A   1      40.240  19.659  26.096  1.00  0.00    -0.237 OA
ATOM     83  O   UNL A   1      42.444  19.104  25.146  1.00  0.00    -0.744 OA
ENDBRANCH  79  80
ENDBRANCH  51  74
BRANCH  63  84
ATOM     84  C   UNL A   1      49.363  26.734  26.387  1.00  0.00    -0.014 A 
ATOM     85  C   UNL A   1      49.814  26.904  25.067  1.00  0.00     0.010 A 
ATOM     86  C   UNL A   1      50.199  26.100  27.326  1.00  0.00     0.010 A 
ATOM     87  C   UNL A   1      51.070  26.427  24.686  1.00  0.00     0.020 A 
ATOM     88  C   UNL A   1      51.464  25.643  26.953  1.00  0.00     0.020 A 
ATOM     89  C   UNL A   1      51.887  25.798  25.632  1.00  0.00     0.054 A 
BRANCH  89  90
ATOM     90  S   UNL A   1      53.536  25.235  25.127  1.00  0.00     0.124 S 
ATOM     91  O   UNL A   1      53.591  25.670  23.735  1.00  0.00    -0.237 OA
ATOM     92  O   UNL A   1      54.417  25.952  26.045  1.00  0.00    -0.237 OA
ATOM     93  O   UNL A   1      53.483  23.789  25.327  1.00  0.00    -0.744 OA
ENDBRANCH  89  90
ENDBRANCH  63  84
ENDBRANCH  37  38
ENDBRANCH  29  32
ENDBRANCH  27  28
ENDBRANCH   1  27
TORSDOF 16
ENDMDL
