MODEL 1
REMARK VINA RESULT:      -9.2      0.000      0.000
REMARK SMILES N#C/C(=C/c1cc(Br)ccc1OCC(=O)NCCCCNC(=O)c1ccc(-c2c3nc(c(-c4ccc(S(=O)(=O)[O-])cc4)c4ccc([nH]4)c(-c4ccc(S(=O)(=O)[O-])cc4)c4nc(c(-c5ccc(S(=O)(=O)[O-])cc5)c5ccc2[nH]5)C=C4)C=C3)cc1)c1ccc(F)cc1
REMARK SMILES IDX 18 1 17 2 16 3 14 4 15 5 13 7 12 8 11 9 5 10 6 11 7 12 10 13
REMARK SMILES IDX 8 14 9 15 4 16 3 17 2 18 1 19 84 20 85 21 90 22 86 23 89 24
REMARK SMILES IDX 87 25 88 26 19 27 20 28 21 29 22 30 23 32 24 33 25 34 83 35
REMARK SMILES IDX 26 36 82 37 27 38 28 39 29 40 76 41 30 42 81 43 75 44 77 45
REMARK SMILES IDX 31 46 80 47 74 48 73 49 32 51 62 52 43 53 61 54 44 55 47 56
REMARK SMILES IDX 60 57 78 58 45 59 46 60 59 62 79 63 48 64 33 65 34 66 42 67
REMARK SMILES IDX 35 68 41 69 36 70 37 71 38 72 39 73 40 74 63 75 64 76 72 77
REMARK SMILES IDX 65 78 71 79 66 80 67 81 68 82 69 83 70 84 49 85 50 86 58 87
REMARK SMILES IDX 51 88 57 89 52 90 53 91 54 92 55 93 56 94
REMARK H PARENT 16 6 21 31 77 50 47 61
REMARK Flexibility Score: inf
ROOT
ATOM      1  C   UNL A   1      33.358  34.744  28.963  1.00  0.00     0.023 C 
ENDROOT
BRANCH   1   2
ATOM      2  C   UNL A   1      34.069  35.038  30.281  1.00  0.00     0.116 C 
BRANCH   2   3
ATOM      3  N   UNL A   1      33.503  34.339  31.412  1.00  0.00    -0.353 N 
ATOM      4  C   UNL A   1      34.145  33.524  32.293  1.00  0.00     0.257 C 
ATOM      5  O   UNL A   1      33.575  33.243  33.350  1.00  0.00    -0.271 OA
ATOM      6  H   UNL A   1      32.539  34.466  31.562  1.00  0.00     0.163 HD
BRANCH   4   7
ATOM      7  C   UNL A   1      35.549  32.988  31.981  1.00  0.00     0.329 C 
BRANCH   7   8
ATOM      8  O   UNL A   1      36.670  33.535  32.644  1.00  0.00    -0.483 OA
BRANCH   8   9
ATOM      9  C   UNL A   1      37.820  33.918  32.014  1.00  0.00     0.127 A 
ATOM     10  C   UNL A   1      39.103  34.174  32.533  1.00  0.00     0.019 A 
ATOM     11  C   UNL A   1      40.144  34.526  31.647  1.00  0.00     0.027 A 
ATOM     12  C   UNL A   1      39.897  34.694  30.285  1.00  0.00     0.018 A 
ATOM     13  C   UNL A   1      37.607  34.073  30.632  1.00  0.00     0.048 A 
ATOM     14  Br  UNL A   1      41.279  35.288  29.142  1.00  0.00    -0.051 Br
ATOM     15  C   UNL A   1      38.628  34.471  29.772  1.00  0.00     0.019 A 
BRANCH  10  16
ATOM     16  C   UNL A   1      39.394  34.207  33.972  1.00  0.00     0.032 C 
ATOM     17  C   UNL A   1      39.896  33.191  34.700  1.00  0.00     0.060 C 
BRANCH  17  18
ATOM     18  C   UNL A   1      40.280  33.430  36.152  1.00  0.00     0.100 C 
ATOM     19  N   UNL A   1      40.598  33.627  37.356  1.00  0.00    -0.192 NA
ENDBRANCH  17  18
BRANCH  17  20
ATOM     20  C   UNL A   1      39.820  31.777  34.250  1.00  0.00    -0.008 A 
ATOM     21  C   UNL A   1      40.950  31.008  33.934  1.00  0.00     0.012 A 
ATOM     22  C   UNL A   1      38.542  31.238  33.992  1.00  0.00     0.012 A 
ATOM     23  C   UNL A   1      40.803  29.763  33.313  1.00  0.00     0.040 A 
ATOM     24  C   UNL A   1      38.399  29.988  33.390  1.00  0.00     0.040 A 
ATOM     25  C   UNL A   1      39.532  29.269  33.040  1.00  0.00     0.123 A 
ATOM     26  F   UNL A   1      39.399  28.092  32.417  1.00  0.00    -0.207 F 
ENDBRANCH  17  20
ENDBRANCH  10  16
ENDBRANCH   8   9
ENDBRANCH   7   8
ENDBRANCH   4   7
ENDBRANCH   2   3
ENDBRANCH   1   2
BRANCH   1  27
ATOM     27  C   UNL A   1      34.117  33.851  27.981  1.00  0.00     0.023 C 
BRANCH  27  28
ATOM     28  C   UNL A   1      34.717  32.581  28.568  1.00  0.00     0.116 C 
BRANCH  28  29
ATOM     29  N   UNL A   1      33.988  31.381  28.196  1.00  0.00    -0.352 N 
ATOM     30  C   UNL A   1      34.449  30.103  28.000  1.00  0.00     0.251 C 
ATOM     31  H   UNL A   1      33.019  31.503  28.065  1.00  0.00     0.163 HD
ATOM     32  O   UNL A   1      33.681  29.248  27.571  1.00  0.00    -0.269 OA
BRANCH  30  33
ATOM     33  C   UNL A   1      35.863  29.765  28.275  1.00  0.00     0.039 A 
ATOM     34  C   UNL A   1      36.790  29.881  27.235  1.00  0.00     0.014 A 
ATOM     35  C   UNL A   1      36.279  29.311  29.530  1.00  0.00     0.014 A 
ATOM     36  C   UNL A   1      38.132  29.573  27.463  1.00  0.00     0.010 A 
ATOM     37  C   UNL A   1      37.631  29.091  29.779  1.00  0.00     0.010 A 
ATOM     38  C   UNL A   1      38.569  29.190  28.742  1.00  0.00    -0.014 A 
BRANCH  38  39
ATOM     39  C   UNL A   1      39.992  28.837  28.987  1.00  0.00     0.031 A 
ATOM     40  C   UNL A   1      40.920  29.846  29.618  1.00  0.00     0.074 A 
ATOM     41  C   UNL A   1      40.457  27.625  28.629  1.00  0.00     0.049 A 
ATOM     42  N   UNL A   1      42.187  29.724  29.921  1.00  0.00    -0.248 NA
ATOM     43  C   UNL A   1      40.358  31.171  29.927  1.00  0.00     0.031 C 
ATOM     44  C   UNL A   1      39.673  26.576  27.971  1.00  0.00     0.029 A 
ATOM     45  N   UNL A   1      41.702  27.064  28.773  1.00  0.00    -0.354 N 
ATOM     46  C   UNL A   1      42.573  30.955  30.440  1.00  0.00     0.074 A 
ATOM     47  C   UNL A   1      41.426  31.829  30.353  1.00  0.00     0.031 C 
ATOM     48  C   UNL A   1      40.443  25.489  27.804  1.00  0.00     0.029 A 
ATOM     49  C   UNL A   1      41.784  25.773  28.308  1.00  0.00     0.049 A 
ATOM     50  H   UNL A   1      42.465  27.544  29.171  1.00  0.00     0.167 HD
ATOM     51  C   UNL A   1      43.766  31.320  30.968  1.00  0.00     0.031 A 
ATOM     52  C   UNL A   1      42.820  24.912  28.294  1.00  0.00     0.031 A 
ATOM     53  C   UNL A   1      44.903  30.445  31.067  1.00  0.00     0.049 A 
ATOM     54  C   UNL A   1      44.134  25.339  28.892  1.00  0.00     0.074 A 
ATOM     55  C   UNL A   1      46.141  30.702  31.628  1.00  0.00     0.029 A 
ATOM     56  N   UNL A   1      44.942  29.142  30.595  1.00  0.00    -0.354 N 
ATOM     57  N   UNL A   1      44.460  26.488  29.436  1.00  0.00    -0.248 NA
ATOM     58  C   UNL A   1      45.213  24.341  28.897  1.00  0.00     0.031 C 
ATOM     59  C   UNL A   1      46.946  29.572  31.448  1.00  0.00     0.029 A 
ATOM     60  C   UNL A   1      46.186  28.587  30.838  1.00  0.00     0.049 A 
ATOM     61  H   UNL A   1      44.193  28.679  30.152  1.00  0.00     0.167 HD
ATOM     62  C   UNL A   1      45.770  26.337  29.883  1.00  0.00     0.074 A 
ATOM     63  C   UNL A   1      46.166  24.982  29.558  1.00  0.00     0.031 C 
ATOM     64  C   UNL A   1      46.568  27.236  30.511  1.00  0.00     0.031 A 
BRANCH  51  65
ATOM     65  C   UNL A   1      43.900  32.733  31.478  1.00  0.00    -0.014 A 
ATOM     66  C   UNL A   1      43.536  33.071  32.795  1.00  0.00     0.010 A 
ATOM     67  C   UNL A   1      44.435  33.730  30.642  1.00  0.00     0.010 A 
ATOM     68  C   UNL A   1      43.665  34.384  33.253  1.00  0.00     0.020 A 
ATOM     69  C   UNL A   1      44.596  35.039  31.107  1.00  0.00     0.020 A 
ATOM     70  C   UNL A   1      44.195  35.361  32.404  1.00  0.00     0.054 A 
BRANCH  70  71
ATOM     71  S   UNL A   1      44.377  37.051  33.036  1.00  0.00     0.124 S 
ATOM     72  O   UNL A   1      45.823  37.148  33.224  1.00  0.00    -0.237 OA
ATOM     73  O   UNL A   1      43.831  37.860  31.949  1.00  0.00    -0.237 OA
ATOM     74  O   UNL A   1      43.590  37.049  34.267  1.00  0.00    -0.744 OA
ENDBRANCH  70  71
ENDBRANCH  51  65
BRANCH  52  75
ATOM     75  C   UNL A   1      42.650  23.546  27.722  1.00  0.00    -0.014 A 
ATOM     76  C   UNL A   1      42.256  22.469  28.536  1.00  0.00     0.010 A 
ATOM     77  C   UNL A   1      42.884  23.316  26.355  1.00  0.00     0.010 A 
ATOM     78  C   UNL A   1      42.130  21.183  28.001  1.00  0.00     0.020 A 
ATOM     79  C   UNL A   1      42.728  22.039  25.809  1.00  0.00     0.020 A 
ATOM     80  C   UNL A   1      42.366  20.977  26.640  1.00  0.00     0.054 A 
BRANCH  80  81
ATOM     81  S   UNL A   1      42.159  19.308  25.959  1.00  0.00     0.124 S 
ATOM     82  O   UNL A   1      42.611  18.470  27.066  1.00  0.00    -0.237 OA
ATOM     83  O   UNL A   1      40.728  19.260  25.671  1.00  0.00    -0.237 OA
ATOM     84  O   UNL A   1      43.024  19.310  24.781  1.00  0.00    -0.744 OA
ENDBRANCH  80  81
ENDBRANCH  52  75
BRANCH  64  85
ATOM     85  C   UNL A   1      47.932  26.764  30.943  1.00  0.00    -0.014 A 
ATOM     86  C   UNL A   1      49.059  26.894  30.112  1.00  0.00     0.010 A 
ATOM     87  C   UNL A   1      48.088  26.198  32.223  1.00  0.00     0.010 A 
ATOM     88  C   UNL A   1      50.303  26.411  30.529  1.00  0.00     0.020 A 
ATOM     89  C   UNL A   1      49.336  25.746  32.656  1.00  0.00     0.020 A 
ATOM     90  C   UNL A   1      50.432  25.834  31.796  1.00  0.00     0.054 A 
BRANCH  90  91
ATOM     91  S   UNL A   1      52.055  25.217  32.316  1.00  0.00     0.124 S 
ATOM     92  O   UNL A   1      52.249  25.908  33.588  1.00  0.00    -0.237 OA
ATOM     93  O   UNL A   1      51.835  23.776  32.411  1.00  0.00    -0.237 OA
ATOM     94  O   UNL A   1      52.948  25.634  31.237  1.00  0.00    -0.744 OA
ENDBRANCH  90  91
ENDBRANCH  64  85
ENDBRANCH  38  39
ENDBRANCH  30  33
ENDBRANCH  28  29
ENDBRANCH  27  28
ENDBRANCH   1  27
TORSDOF 19
ENDMDL
MODEL 2
REMARK VINA RESULT:      -9.0      5.357     12.499
REMARK SMILES N#C/C(=C/c1cc(Br)ccc1OCC(=O)NCCCCNC(=O)c1ccc(-c2c3nc(c(-c4ccc(S(=O)(=O)[O-])cc4)c4ccc([nH]4)c(-c4ccc(S(=O)(=O)[O-])cc4)c4nc(c(-c5ccc(S(=O)(=O)[O-])cc5)c5ccc2[nH]5)C=C4)C=C3)cc1)c1ccc(F)cc1
REMARK SMILES IDX 18 1 17 2 16 3 14 4 15 5 13 7 12 8 11 9 5 10 6 11 7 12 10 13
REMARK SMILES IDX 8 14 9 15 4 16 3 17 2 18 1 19 84 20 85 21 90 22 86 23 89 24
REMARK SMILES IDX 87 25 88 26 19 27 20 28 21 29 22 30 23 32 24 33 25 34 83 35
REMARK SMILES IDX 26 36 82 37 27 38 28 39 29 40 76 41 30 42 81 43 75 44 77 45
REMARK SMILES IDX 31 46 80 47 74 48 73 49 32 51 62 52 43 53 61 54 44 55 47 56
REMARK SMILES IDX 60 57 78 58 45 59 46 60 59 62 79 63 48 64 33 65 34 66 42 67
REMARK SMILES IDX 35 68 41 69 36 70 37 71 38 72 39 73 40 74 63 75 64 76 72 77
REMARK SMILES IDX 65 78 71 79 66 80 67 81 68 82 69 83 70 84 49 85 50 86 58 87
REMARK SMILES IDX 51 88 57 89 52 90 53 91 54 92 55 93 56 94
REMARK H PARENT 16 6 21 31 77 50 47 61
REMARK Flexibility Score: inf
ROOT
ATOM      1  C   UNL A   1      39.430  22.788  26.425  1.00  0.00     0.023 C 
ENDROOT
BRANCH   1   2
ATOM      2  C   UNL A   1      38.503  21.671  25.955  1.00  0.00     0.116 C 
BRANCH   2   3
ATOM      3  N   UNL A   1      37.961  21.886  24.632  1.00  0.00    -0.353 N 
ATOM      4  C   UNL A   1      36.919  22.687  24.280  1.00  0.00     0.257 C 
ATOM      5  O   UNL A   1      36.776  22.968  23.087  1.00  0.00    -0.271 OA
ATOM      6  H   UNL A   1      38.398  21.394  23.900  1.00  0.00     0.163 HD
BRANCH   4   7
ATOM      7  C   UNL A   1      35.961  23.236  25.345  1.00  0.00     0.329 C 
BRANCH   7   8
ATOM      8  O   UNL A   1      34.857  24.026  24.954  1.00  0.00    -0.483 OA
BRANCH   8   9
ATOM      9  C   UNL A   1      33.558  23.726  25.251  1.00  0.00     0.127 A 
ATOM     10  C   UNL A   1      32.434  23.610  24.412  1.00  0.00     0.019 A 
ATOM     11  C   UNL A   1      31.191  23.248  24.976  1.00  0.00     0.027 A 
ATOM     12  C   UNL A   1      31.053  23.081  26.353  1.00  0.00     0.018 A 
ATOM     13  C   UNL A   1      33.392  23.529  26.634  1.00  0.00     0.048 A 
ATOM     14  Br  UNL A   1      29.353  22.721  27.095  1.00  0.00    -0.051 Br
ATOM     15  C   UNL A   1      32.151  23.223  27.188  1.00  0.00     0.019 A 
BRANCH  10  16
ATOM     16  C   UNL A   1      32.457  23.959  22.986  1.00  0.00     0.032 C 
ATOM     17  C   UNL A   1      32.552  25.203  22.478  1.00  0.00     0.060 C 
BRANCH  17  18
ATOM     18  C   UNL A   1      32.712  25.388  20.978  1.00  0.00     0.100 C 
ATOM     19  N   UNL A   1      32.845  25.542  19.733  1.00  0.00    -0.192 NA
ENDBRANCH  17  18
BRANCH  17  20
ATOM     20  C   UNL A   1      32.213  26.413  23.271  1.00  0.00    -0.008 A 
ATOM     21  C   UNL A   1      30.901  26.881  23.437  1.00  0.00     0.012 A 
ATOM     22  C   UNL A   1      33.278  27.202  23.754  1.00  0.00     0.012 A 
ATOM     23  C   UNL A   1      30.668  28.137  24.008  1.00  0.00     0.040 A 
ATOM     24  C   UNL A   1      33.040  28.446  24.341  1.00  0.00     0.040 A 
ATOM     25  C   UNL A   1      31.738  28.909  24.446  1.00  0.00     0.123 A 
ATOM     26  F   UNL A   1      31.510  30.123  24.963  1.00  0.00    -0.207 F 
ENDBRANCH  17  20
ENDBRANCH  10  16
ENDBRANCH   8   9
ENDBRANCH   7   8
ENDBRANCH   4   7
ENDBRANCH   2   3
ENDBRANCH   1   2
BRANCH   1  27
ATOM     27  C   UNL A   1      40.442  22.406  27.505  1.00  0.00     0.023 C 
BRANCH  27  28
ATOM     28  C   UNL A   1      41.706  23.253  27.560  1.00  0.00     0.116 C 
BRANCH  28  29
ATOM     29  N   UNL A   1      41.907  24.053  26.365  1.00  0.00    -0.352 N 
ATOM     30  C   UNL A   1      41.781  25.409  26.189  1.00  0.00     0.251 C 
ATOM     31  H   UNL A   1      42.173  23.548  25.562  1.00  0.00     0.163 HD
ATOM     32  O   UNL A   1      41.884  25.879  25.060  1.00  0.00    -0.269 OA
BRANCH  30  33
ATOM     33  C   UNL A   1      41.498  26.293  27.341  1.00  0.00     0.039 A 
ATOM     34  C   UNL A   1      42.350  27.376  27.574  1.00  0.00     0.014 A 
ATOM     35  C   UNL A   1      40.426  26.053  28.205  1.00  0.00     0.014 A 
ATOM     36  C   UNL A   1      42.108  28.231  28.651  1.00  0.00     0.010 A 
ATOM     37  C   UNL A   1      40.135  26.956  29.224  1.00  0.00     0.010 A 
ATOM     38  C   UNL A   1      40.988  28.039  29.478  1.00  0.00    -0.014 A 
BRANCH  38  39
ATOM     39  C   UNL A   1      40.737  28.930  30.640  1.00  0.00     0.031 A 
ATOM     40  C   UNL A   1      41.575  28.796  31.887  1.00  0.00     0.074 A 
ATOM     41  C   UNL A   1      39.749  29.845  30.586  1.00  0.00     0.049 A 
ATOM     42  N   UNL A   1      41.517  29.485  32.998  1.00  0.00    -0.248 NA
ATOM     43  C   UNL A   1      42.595  27.734  31.897  1.00  0.00     0.031 C 
ATOM     44  C   UNL A   1      38.840  30.045  29.455  1.00  0.00     0.029 A 
ATOM     45  N   UNL A   1      39.347  30.784  31.503  1.00  0.00    -0.354 N 
ATOM     46  C   UNL A   1      42.477  28.933  33.838  1.00  0.00     0.074 A 
ATOM     47  C   UNL A   1      43.060  27.813  33.135  1.00  0.00     0.031 C 
ATOM     48  C   UNL A   1      38.014  31.068  29.730  1.00  0.00     0.029 A 
ATOM     49  C   UNL A   1      38.308  31.573  31.068  1.00  0.00     0.049 A 
ATOM     50  H   UNL A   1      39.764  30.882  32.390  1.00  0.00     0.167 HD
ATOM     51  C   UNL A   1      42.861  29.335  35.073  1.00  0.00     0.031 A 
ATOM     52  C   UNL A   1      37.669  32.591  31.674  1.00  0.00     0.031 A 
ATOM     53  C   UNL A   1      42.290  30.459  35.766  1.00  0.00     0.049 A 
ATOM     54  C   UNL A   1      38.118  33.024  33.045  1.00  0.00     0.074 A 
ATOM     55  C   UNL A   1      42.641  30.979  36.999  1.00  0.00     0.029 A 
ATOM     56  N   UNL A   1      41.248  31.238  35.286  1.00  0.00    -0.354 N 
ATOM     57  N   UNL A   1      39.072  32.528  33.797  1.00  0.00    -0.248 NA
ATOM     58  C   UNL A   1      37.419  34.173  33.636  1.00  0.00     0.031 C 
ATOM     59  C   UNL A   1      41.776  32.040  37.288  1.00  0.00     0.029 A 
ATOM     60  C   UNL A   1      40.934  32.225  36.204  1.00  0.00     0.049 A 
ATOM     61  H   UNL A   1      40.799  31.109  34.419  1.00  0.00     0.167 HD
ATOM     62  C   UNL A   1      39.113  33.330  34.934  1.00  0.00     0.074 A 
ATOM     63  C   UNL A   1      38.099  34.350  34.760  1.00  0.00     0.031 C 
ATOM     64  C   UNL A   1      39.922  33.235  36.019  1.00  0.00     0.031 A 
BRANCH  51  65
ATOM     65  C   UNL A   1      43.954  28.550  35.754  1.00  0.00    -0.014 A 
ATOM     66  C   UNL A   1      45.312  28.837  35.521  1.00  0.00     0.010 A 
ATOM     67  C   UNL A   1      43.619  27.538  36.672  1.00  0.00     0.010 A 
ATOM     68  C   UNL A   1      46.313  28.100  36.159  1.00  0.00     0.020 A 
ATOM     69  C   UNL A   1      44.617  26.820  37.338  1.00  0.00     0.020 A 
ATOM     70  C   UNL A   1      45.958  27.095  37.064  1.00  0.00     0.054 A 
BRANCH  70  71
ATOM     71  S   UNL A   1      47.279  26.175  37.899  1.00  0.00     0.124 S 
ATOM     72  O   UNL A   1      46.688  24.844  38.023  1.00  0.00    -0.237 OA
ATOM     73  O   UNL A   1      48.389  26.282  36.956  1.00  0.00    -0.237 OA
ATOM     74  O   UNL A   1      47.461  26.894  39.158  1.00  0.00    -0.744 OA
ENDBRANCH  70  71
ENDBRANCH  51  65
BRANCH  52  75
ATOM     75  C   UNL A   1      36.554  33.294  30.979  1.00  0.00    -0.014 A 
ATOM     76  C   UNL A   1      36.763  33.925  29.740  1.00  0.00     0.010 A 
ATOM     77  C   UNL A   1      35.273  33.338  31.559  1.00  0.00     0.010 A 
ATOM     78  C   UNL A   1      35.722  34.612  29.108  1.00  0.00     0.020 A 
ATOM     79  C   UNL A   1      34.220  33.996  30.914  1.00  0.00     0.020 A 
ATOM     80  C   UNL A   1      34.456  34.641  29.700  1.00  0.00     0.054 A 
BRANCH  80  81
ATOM     81  S   UNL A   1      33.110  35.505  28.843  1.00  0.00     0.124 S 
ATOM     82  O   UNL A   1      32.502  34.429  28.068  1.00  0.00    -0.237 OA
ATOM     83  O   UNL A   1      32.309  36.018  29.952  1.00  0.00    -0.237 OA
ATOM     84  O   UNL A   1      33.803  36.527  28.061  1.00  0.00    -0.744 OA
ENDBRANCH  80  81
ENDBRANCH  52  75
BRANCH  64  85
ATOM     85  C   UNL A   1      39.784  34.298  37.078  1.00  0.00    -0.014 A 
ATOM     86  C   UNL A   1      38.981  34.110  38.217  1.00  0.00     0.010 A 
ATOM     87  C   UNL A   1      40.496  35.504  36.935  1.00  0.00     0.010 A 
ATOM     88  C   UNL A   1      38.845  35.131  39.161  1.00  0.00     0.020 A 
ATOM     89  C   UNL A   1      40.390  36.513  37.895  1.00  0.00     0.020 A 
ATOM     90  C   UNL A   1      39.545  36.329  38.990  1.00  0.00     0.054 A 
BRANCH  90  91
ATOM     91  S   UNL A   1      39.355  37.639  40.229  1.00  0.00     0.124 S 
ATOM     92  O   UNL A   1      39.009  36.876  41.426  1.00  0.00    -0.237 OA
ATOM     93  O   UNL A   1      40.676  38.263  40.242  1.00  0.00    -0.237 OA
ATOM     94  O   UNL A   1      38.284  38.473  39.691  1.00  0.00    -0.744 OA
ENDBRANCH  90  91
ENDBRANCH  64  85
ENDBRANCH  38  39
ENDBRANCH  30  33
ENDBRANCH  28  29
ENDBRANCH  27  28
ENDBRANCH   1  27
TORSDOF 19
ENDMDL
MODEL 3
REMARK VINA RESULT:      -8.7      4.561     11.143
REMARK SMILES N#C/C(=C/c1cc(Br)ccc1OCC(=O)NCCCCNC(=O)c1ccc(-c2c3nc(c(-c4ccc(S(=O)(=O)[O-])cc4)c4ccc([nH]4)c(-c4ccc(S(=O)(=O)[O-])cc4)c4nc(c(-c5ccc(S(=O)(=O)[O-])cc5)c5ccc2[nH]5)C=C4)C=C3)cc1)c1ccc(F)cc1
REMARK SMILES IDX 18 1 17 2 16 3 14 4 15 5 13 7 12 8 11 9 5 10 6 11 7 12 10 13
REMARK SMILES IDX 8 14 9 15 4 16 3 17 2 18 1 19 84 20 85 21 90 22 86 23 89 24
REMARK SMILES IDX 87 25 88 26 19 27 20 28 21 29 22 30 23 32 24 33 25 34 83 35
REMARK SMILES IDX 26 36 82 37 27 38 28 39 29 40 76 41 30 42 81 43 75 44 77 45
REMARK SMILES IDX 31 46 80 47 74 48 73 49 32 51 62 52 43 53 61 54 44 55 47 56
REMARK SMILES IDX 60 57 78 58 45 59 46 60 59 62 79 63 48 64 33 65 34 66 42 67
REMARK SMILES IDX 35 68 41 69 36 70 37 71 38 72 39 73 40 74 63 75 64 76 72 77
REMARK SMILES IDX 65 78 71 79 66 80 67 81 68 82 69 83 70 84 49 85 50 86 58 87
REMARK SMILES IDX 51 88 57 89 52 90 53 91 54 92 55 93 56 94
REMARK H PARENT 16 6 21 31 77 50 47 61
REMARK Flexibility Score: inf
ROOT
ATOM      1  C   UNL A   1      34.397  22.541  25.609  1.00  0.00     0.023 C 
ENDROOT
BRANCH   1   2
ATOM      2  C   UNL A   1      32.932  22.779  25.256  1.00  0.00     0.116 C 
BRANCH   2   3
ATOM      3  N   UNL A   1      32.066  22.870  26.410  1.00  0.00    -0.353 N 
ATOM      4  C   UNL A   1      30.942  23.625  26.549  1.00  0.00     0.257 C 
ATOM      5  O   UNL A   1      30.178  23.367  27.482  1.00  0.00    -0.271 OA
ATOM      6  H   UNL A   1      32.320  22.322  27.186  1.00  0.00     0.163 HD
BRANCH   4   7
ATOM      7  C   UNL A   1      30.630  24.753  25.556  1.00  0.00     0.329 C 
BRANCH   7   8
ATOM      8  O   UNL A   1      30.554  26.087  26.014  1.00  0.00    -0.483 OA
BRANCH   8   9
ATOM      9  C   UNL A   1      31.630  26.920  26.128  1.00  0.00     0.127 A 
ATOM     10  C   UNL A   1      32.663  27.207  25.217  1.00  0.00     0.019 A 
ATOM     11  C   UNL A   1      33.651  28.149  25.574  1.00  0.00     0.027 A 
ATOM     12  C   UNL A   1      33.656  28.735  26.839  1.00  0.00     0.018 A 
ATOM     13  C   UNL A   1      31.648  27.544  27.389  1.00  0.00     0.048 A 
ATOM     14  Br  UNL A   1      35.061  29.896  27.337  1.00  0.00    -0.051 Br
ATOM     15  C   UNL A   1      32.657  28.434  27.753  1.00  0.00     0.019 A 
BRANCH  10  16
ATOM     16  C   UNL A   1      32.834  26.490  23.947  1.00  0.00     0.032 C 
ATOM     17  C   UNL A   1      32.266  26.818  22.771  1.00  0.00     0.060 C 
BRANCH  17  18
ATOM     18  C   UNL A   1      32.659  26.060  21.513  1.00  0.00     0.100 C 
ATOM     19  N   UNL A   1      32.985  25.432  20.469  1.00  0.00    -0.192 NA
ENDBRANCH  17  18
BRANCH  17  20
ATOM     20  C   UNL A   1      31.059  27.681  22.684  1.00  0.00    -0.008 A 
ATOM     21  C   UNL A   1      31.115  29.059  22.426  1.00  0.00     0.012 A 
ATOM     22  C   UNL A   1      29.816  27.107  23.023  1.00  0.00     0.012 A 
ATOM     23  C   UNL A   1      29.970  29.850  22.572  1.00  0.00     0.040 A 
ATOM     24  C   UNL A   1      28.672  27.896  23.149  1.00  0.00     0.040 A 
ATOM     25  C   UNL A   1      28.764  29.264  22.940  1.00  0.00     0.123 A 
ATOM     26  F   UNL A   1      27.679  30.031  23.108  1.00  0.00    -0.207 F 
ENDBRANCH  17  20
ENDBRANCH  10  16
ENDBRANCH   8   9
ENDBRANCH   7   8
ENDBRANCH   4   7
ENDBRANCH   2   3
ENDBRANCH   1   2
BRANCH   1  27
ATOM     27  C   UNL A   1      35.384  23.597  25.111  1.00  0.00     0.023 C 
BRANCH  27  28
ATOM     28  C   UNL A   1      36.572  23.877  26.022  1.00  0.00     0.116 C 
BRANCH  28  29
ATOM     29  N   UNL A   1      37.548  22.801  26.032  1.00  0.00    -0.352 N 
ATOM     30  C   UNL A   1      38.892  22.843  26.310  1.00  0.00     0.251 C 
ATOM     31  H   UNL A   1      37.193  21.911  25.806  1.00  0.00     0.163 HD
ATOM     32  O   UNL A   1      39.569  21.833  26.148  1.00  0.00    -0.269 OA
BRANCH  30  33
ATOM     33  C   UNL A   1      39.524  24.098  26.774  1.00  0.00     0.039 A 
ATOM     34  C   UNL A   1      39.605  24.334  28.149  1.00  0.00     0.014 A 
ATOM     35  C   UNL A   1      40.010  25.051  25.875  1.00  0.00     0.014 A 
ATOM     36  C   UNL A   1      40.199  25.507  28.619  1.00  0.00     0.010 A 
ATOM     37  C   UNL A   1      40.680  26.177  26.346  1.00  0.00     0.010 A 
ATOM     38  C   UNL A   1      40.757  26.433  27.722  1.00  0.00    -0.014 A 
BRANCH  38  39
ATOM     39  C   UNL A   1      41.370  27.695  28.214  1.00  0.00     0.031 A 
ATOM     40  C   UNL A   1      42.865  27.879  28.152  1.00  0.00     0.074 A 
ATOM     41  C   UNL A   1      40.590  28.664  28.731  1.00  0.00     0.049 A 
ATOM     42  N   UNL A   1      43.585  28.909  28.520  1.00  0.00    -0.248 NA
ATOM     43  C   UNL A   1      43.658  26.753  27.632  1.00  0.00     0.031 C 
ATOM     44  C   UNL A   1      39.136  28.591  28.887  1.00  0.00     0.029 A 
ATOM     45  N   UNL A   1      40.912  29.908  29.217  1.00  0.00    -0.354 N 
ATOM     46  C   UNL A   1      44.908  28.548  28.290  1.00  0.00     0.074 A 
ATOM     47  C   UNL A   1      44.898  27.186  27.810  1.00  0.00     0.031 C 
ATOM     48  C   UNL A   1      38.688  29.752  29.393  1.00  0.00     0.029 A 
ATOM     49  C   UNL A   1      39.824  30.638  29.633  1.00  0.00     0.049 A 
ATOM     50  H   UNL A   1      41.836  30.245  29.263  1.00  0.00     0.167 HD
ATOM     51  C   UNL A   1      46.031  29.292  28.437  1.00  0.00     0.031 A 
ATOM     52  C   UNL A   1      39.747  31.881  30.144  1.00  0.00     0.031 A 
ATOM     53  C   UNL A   1      46.039  30.653  28.901  1.00  0.00     0.049 A 
ATOM     54  C   UNL A   1      41.008  32.690  30.293  1.00  0.00     0.074 A 
ATOM     55  C   UNL A   1      47.117  31.509  29.039  1.00  0.00     0.029 A 
ATOM     56  N   UNL A   1      44.914  31.359  29.301  1.00  0.00    -0.354 N 
ATOM     57  N   UNL A   1      42.244  32.353  30.008  1.00  0.00    -0.248 NA
ATOM     58  C   UNL A   1      40.859  34.058  30.806  1.00  0.00     0.031 C 
ATOM     59  C   UNL A   1      46.651  32.716  29.573  1.00  0.00     0.029 A 
ATOM     60  C   UNL A   1      45.274  32.635  29.701  1.00  0.00     0.049 A 
ATOM     61  H   UNL A   1      43.995  31.005  29.301  1.00  0.00     0.167 HD
ATOM     62  C   UNL A   1      43.015  33.482  30.273  1.00  0.00     0.074 A 
ATOM     63  C   UNL A   1      42.101  34.512  30.724  1.00  0.00     0.031 C 
ATOM     64  C   UNL A   1      44.354  33.651  30.146  1.00  0.00     0.031 A 
BRANCH  51  65
ATOM     65  C   UNL A   1      47.348  28.643  28.091  1.00  0.00    -0.014 A 
ATOM     66  C   UNL A   1      48.095  27.948  29.060  1.00  0.00     0.010 A 
ATOM     67  C   UNL A   1      47.826  28.693  26.769  1.00  0.00     0.010 A 
ATOM     68  C   UNL A   1      49.314  27.353  28.726  1.00  0.00     0.020 A 
ATOM     69  C   UNL A   1      49.029  28.071  26.422  1.00  0.00     0.020 A 
ATOM     70  C   UNL A   1      49.774  27.419  27.407  1.00  0.00     0.054 A 
BRANCH  70  71
ATOM     71  S   UNL A   1      51.345  26.612  26.995  1.00  0.00     0.124 S 
ATOM     72  O   UNL A   1      51.829  26.204  28.312  1.00  0.00    -0.237 OA
ATOM     73  O   UNL A   1      50.925  25.523  26.117  1.00  0.00    -0.237 OA
ATOM     74  O   UNL A   1      52.119  27.669  26.349  1.00  0.00    -0.744 OA
ENDBRANCH  70  71
ENDBRANCH  51  65
BRANCH  52  75
ATOM     75  C   UNL A   1      38.425  32.453  30.526  1.00  0.00    -0.014 A 
ATOM     76  C   UNL A   1      37.901  32.256  31.816  1.00  0.00     0.010 A 
ATOM     77  C   UNL A   1      37.680  33.199  29.595  1.00  0.00     0.010 A 
ATOM     78  C   UNL A   1      36.645  32.767  32.159  1.00  0.00     0.020 A 
ATOM     79  C   UNL A   1      36.438  33.740  29.943  1.00  0.00     0.020 A 
ATOM     80  C   UNL A   1      35.923  33.507  31.219  1.00  0.00     0.054 A 
BRANCH  80  81
ATOM     81  S   UNL A   1      34.313  34.193  31.698  1.00  0.00     0.124 S 
ATOM     82  O   UNL A   1      33.795  33.161  32.591  1.00  0.00    -0.237 OA
ATOM     83  O   UNL A   1      34.684  35.454  32.334  1.00  0.00    -0.237 OA
ATOM     84  O   UNL A   1      33.608  34.330  30.425  1.00  0.00    -0.744 OA
ENDBRANCH  80  81
ENDBRANCH  52  75
BRANCH  64  85
ATOM     85  C   UNL A   1      44.908  35.021  30.443  1.00  0.00    -0.014 A 
ATOM     86  C   UNL A   1      45.331  35.386  31.734  1.00  0.00     0.010 A 
ATOM     87  C   UNL A   1      45.025  35.955  29.397  1.00  0.00     0.010 A 
ATOM     88  C   UNL A   1      45.805  36.677  31.984  1.00  0.00     0.020 A 
ATOM     89  C   UNL A   1      45.530  37.235  29.635  1.00  0.00     0.020 A 
ATOM     90  C   UNL A   1      45.894  37.596  30.934  1.00  0.00     0.054 A 
BRANCH  90  91
ATOM     91  S   UNL A   1      46.512  39.264  31.281  1.00  0.00     0.124 S 
ATOM     92  O   UNL A   1      45.736  40.075  30.346  1.00  0.00    -0.237 OA
ATOM     93  O   UNL A   1      46.181  39.442  32.692  1.00  0.00    -0.237 OA
ATOM     94  O   UNL A   1      47.940  39.173  30.989  1.00  0.00    -0.744 OA
ENDBRANCH  90  91
ENDBRANCH  64  85
ENDBRANCH  38  39
ENDBRANCH  30  33
ENDBRANCH  28  29
ENDBRANCH  27  28
ENDBRANCH   1  27
TORSDOF 19
ENDMDL
