MODEL 1
REMARK VINA RESULT:     -12.5      0.000      0.000
REMARK SMILES Cc1ccccc1OC1(C(=O)NCCCCNC(=O)c2ccc(-c3c4nc(c(-c5ccc(S(=O)(=O)[O-])cc5)c5ccc([nH]5)c(-c5ccc(S(=O)(=O)[O-])cc5)c5nc(c(-c6ccc(S(=O)(=O)[O-])cc6)c6ccc3[nH]6)C=C5)C=C4)cc2)CCN(c2ncc(C#N)c(N)n2)CC1
REMARK SMILES IDX 15 1 14 2 13 3 12 4 10 5 11 6 9 8 80 9 93 10 81 11 92 12
REMARK SMILES IDX 82 13 8 14 7 15 1 16 2 17 3 18 4 19 6 20 5 21 83 22 84 23
REMARK SMILES IDX 91 24 85 25 89 26 86 27 90 28 87 31 88 32 16 33 17 34 18 35
REMARK SMILES IDX 19 37 20 38 21 39 79 40 22 41 78 42 23 43 24 44 25 45 72 46
REMARK SMILES IDX 26 47 77 48 71 49 73 50 27 51 76 52 70 53 69 54 28 56 58 57
REMARK SMILES IDX 39 58 57 59 40 60 43 61 56 62 74 63 41 64 42 65 55 67 75 68
REMARK SMILES IDX 44 69 29 70 30 71 38 72 31 73 37 74 32 75 33 76 34 77 35 78
REMARK SMILES IDX 36 79 59 80 60 81 68 82 61 83 67 84 62 85 63 86 64 87 65 88
REMARK SMILES IDX 66 89 45 90 46 91 54 92 47 93 53 94 48 95 49 96 50 97 51 98
REMARK SMILES IDX 52 99
REMARK H PARENT 12 7 90 29 90 30 17 36 73 55 43 66
REMARK Flexibility Score: inf
ROOT
ATOM      1  C   UNL A   1      33.393  28.788  25.826  1.00  0.00     0.023 C 
ENDROOT
BRANCH   1   2
ATOM      2  C   UNL A   1      32.384  29.048  24.721  1.00  0.00     0.023 C 
BRANCH   2   3
ATOM      3  C   UNL A   1      31.861  27.792  24.012  1.00  0.00     0.116 C 
BRANCH   3   4
ATOM      4  N   UNL A   1      32.633  27.377  22.839  1.00  0.00    -0.353 N 
ATOM      5  C   UNL A   1      33.216  26.168  22.503  1.00  0.00     0.264 C 
ATOM      6  O   UNL A   1      33.712  26.097  21.373  1.00  0.00    -0.270 OA
ATOM      7  H   UNL A   1      32.760  28.087  22.169  1.00  0.00     0.163 HD
BRANCH   5   8
ATOM      8  C   UNL A   1      33.258  24.949  23.525  1.00  0.00     0.190 C 
ATOM      9  C   UNL A   1      33.925  23.834  22.723  1.00  0.00     0.080 C 
ATOM     10  C   UNL A   1      33.889  25.542  24.786  1.00  0.00     0.080 C 
ATOM     11  C   UNL A   1      35.231  23.283  23.257  1.00  0.00     0.124 C 
ATOM     12  C   UNL A   1      35.051  24.779  25.379  1.00  0.00     0.124 C 
ATOM     13  N   UNL A   1      35.773  23.949  24.431  1.00  0.00    -0.340 N 
BRANCH   8  14
ATOM     14  O   UNL A   1      31.874  24.587  23.803  1.00  0.00    -0.477 OA
BRANCH  14  15
ATOM     15  C   UNL A   1      31.272  23.921  24.839  1.00  0.00     0.123 A 
ATOM     16  C   UNL A   1      32.143  21.466  24.828  1.00  0.00     0.048 C 
ATOM     17  C   UNL A   1      31.338  22.606  25.330  1.00  0.00    -0.009 A 
ATOM     18  C   UNL A   1      30.567  22.217  26.458  1.00  0.00     0.007 A 
ATOM     19  C   UNL A   1      29.723  23.098  27.106  1.00  0.00     0.001 A 
ATOM     20  C   UNL A   1      30.400  24.792  25.525  1.00  0.00     0.047 A 
ATOM     21  C   UNL A   1      29.637  24.394  26.634  1.00  0.00     0.004 A 
ENDBRANCH  14  15
ENDBRANCH   8  14
BRANCH  13  22
ATOM     22  C   UNL A   1      36.805  23.202  24.985  1.00  0.00     0.227 A 
ATOM     23  N   UNL A   1      37.731  23.855  25.689  1.00  0.00    -0.220 NA
ATOM     24  N   UNL A   1      36.877  21.888  24.705  1.00  0.00    -0.195 NA
ATOM     25  C   UNL A   1      38.729  23.127  26.217  1.00  0.00     0.138 A 
ATOM     26  C   UNL A   1      37.914  21.193  25.194  1.00  0.00     0.147 A 
ATOM     27  C   UNL A   1      38.871  21.780  25.998  1.00  0.00     0.113 A 
BRANCH  26  28
ATOM     28  N   UNL A   1      37.995  19.884  24.747  1.00  0.00    -0.382 N 
ATOM     29  H   UNL A   1      38.724  19.616  24.142  1.00  0.00     0.158 HD
ATOM     30  H   UNL A   1      37.325  19.223  25.034  1.00  0.00     0.158 HD
ENDBRANCH  26  28
BRANCH  27  31
ATOM     31  C   UNL A   1      39.949  21.049  26.575  1.00  0.00     0.105 C 
ATOM     32  N   UNL A   1      40.845  20.476  27.027  1.00  0.00    -0.192 NA
ENDBRANCH  27  31
ENDBRANCH  13  22
ENDBRANCH   5   8
ENDBRANCH   3   4
ENDBRANCH   2   3
ENDBRANCH   1   2
BRANCH   1  33
ATOM     33  C   UNL A   1      33.320  29.784  26.965  1.00  0.00     0.116 C 
BRANCH  33  34
ATOM     34  N   UNL A   1      34.209  30.926  26.837  1.00  0.00    -0.352 N 
ATOM     35  C   UNL A   1      35.185  31.254  27.773  1.00  0.00     0.251 C 
ATOM     36  H   UNL A   1      34.116  31.501  26.043  1.00  0.00     0.163 HD
ATOM     37  O   UNL A   1      35.344  32.377  28.231  1.00  0.00    -0.269 OA
BRANCH  35  38
ATOM     38  C   UNL A   1      36.126  30.164  28.115  1.00  0.00     0.039 A 
ATOM     39  C   UNL A   1      36.047  29.596  29.394  1.00  0.00     0.014 A 
ATOM     40  C   UNL A   1      37.272  30.045  27.344  1.00  0.00     0.014 A 
ATOM     41  C   UNL A   1      37.208  29.138  29.994  1.00  0.00     0.010 A 
ATOM     42  C   UNL A   1      38.440  29.827  28.002  1.00  0.00     0.010 A 
ATOM     43  C   UNL A   1      38.396  29.395  29.330  1.00  0.00    -0.014 A 
BRANCH  43  44
ATOM     44  C   UNL A   1      39.715  29.092  29.820  1.00  0.00     0.031 A 
ATOM     45  C   UNL A   1      40.213  27.776  29.378  1.00  0.00     0.074 A 
ATOM     46  C   UNL A   1      40.396  30.161  30.290  1.00  0.00     0.049 A 
ATOM     47  N   UNL A   1      41.234  27.177  29.856  1.00  0.00    -0.248 NA
ATOM     48  C   UNL A   1      39.540  26.972  28.341  1.00  0.00     0.031 C 
ATOM     49  C   UNL A   1      41.822  30.394  30.457  1.00  0.00     0.029 A 
ATOM     50  N   UNL A   1      39.814  31.255  30.936  1.00  0.00    -0.354 N 
ATOM     51  C   UNL A   1      41.593  26.220  28.925  1.00  0.00     0.074 A 
ATOM     52  C   UNL A   1      40.430  26.004  28.113  1.00  0.00     0.031 C 
ATOM     53  C   UNL A   1      42.001  31.336  31.407  1.00  0.00     0.029 A 
ATOM     54  C   UNL A   1      40.687  31.652  31.960  1.00  0.00     0.049 A 
ATOM     55  H   UNL A   1      38.949  31.671  30.713  1.00  0.00     0.167 HD
ATOM     56  C   UNL A   1      42.912  25.912  28.819  1.00  0.00     0.031 A 
ATOM     57  C   UNL A   1      40.306  31.386  33.248  1.00  0.00     0.031 A 
ATOM     58  C   UNL A   1      43.651  26.636  29.856  1.00  0.00     0.049 A 
ATOM     59  C   UNL A   1      41.108  30.224  33.809  1.00  0.00     0.074 A 
ATOM     60  C   UNL A   1      44.379  27.814  29.825  1.00  0.00     0.029 A 
ATOM     61  N   UNL A   1      43.302  26.420  31.183  1.00  0.00    -0.354 N 
ATOM     62  N   UNL A   1      41.625  29.264  33.084  1.00  0.00    -0.248 NA
ATOM     63  C   UNL A   1      41.504  30.141  35.211  1.00  0.00     0.031 C 
ATOM     64  C   UNL A   1      44.353  28.365  31.140  1.00  0.00     0.029 A 
ATOM     65  C   UNL A   1      43.612  27.524  31.956  1.00  0.00     0.049 A 
ATOM     66  H   UNL A   1      42.891  25.594  31.526  1.00  0.00     0.167 HD
ATOM     67  C   UNL A   1      42.476  28.516  33.856  1.00  0.00     0.074 A 
ATOM     68  C   UNL A   1      42.343  29.092  35.185  1.00  0.00     0.031 C 
ATOM     69  C   UNL A   1      43.279  27.519  33.375  1.00  0.00     0.031 A 
BRANCH  56  70
ATOM     70  C   UNL A   1      43.580  25.230  27.649  1.00  0.00    -0.014 A 
ATOM     71  C   UNL A   1      43.546  23.821  27.607  1.00  0.00     0.010 A 
ATOM     72  C   UNL A   1      44.280  25.865  26.603  1.00  0.00     0.010 A 
ATOM     73  C   UNL A   1      44.190  23.084  26.607  1.00  0.00     0.020 A 
ATOM     74  C   UNL A   1      44.933  25.137  25.590  1.00  0.00     0.020 A 
ATOM     75  C   UNL A   1      44.885  23.746  25.602  1.00  0.00     0.054 A 
BRANCH  75  76
ATOM     76  S   UNL A   1      45.692  22.760  24.316  1.00  0.00     0.124 S 
ATOM     77  O   UNL A   1      44.570  22.389  23.457  1.00  0.00    -0.237 OA
ATOM     78  O   UNL A   1      46.638  23.711  23.739  1.00  0.00    -0.237 OA
ATOM     79  O   UNL A   1      46.297  21.653  25.053  1.00  0.00    -0.744 OA
ENDBRANCH  75  76
ENDBRANCH  56  70
BRANCH  57  80
ATOM     80  C   UNL A   1      38.846  31.689  33.462  1.00  0.00    -0.014 A 
ATOM     81  C   UNL A   1      38.513  33.053  33.669  1.00  0.00     0.010 A 
ATOM     82  C   UNL A   1      37.840  30.832  32.980  1.00  0.00     0.010 A 
ATOM     83  C   UNL A   1      37.303  33.581  33.204  1.00  0.00     0.020 A 
ATOM     84  C   UNL A   1      36.609  31.358  32.539  1.00  0.00     0.020 A 
ATOM     85  C   UNL A   1      36.384  32.738  32.583  1.00  0.00     0.054 A 
BRANCH  85  86
ATOM     86  S   UNL A   1      35.001  33.503  31.676  1.00  0.00     0.124 S 
ATOM     87  O   UNL A   1      35.698  34.358  30.720  1.00  0.00    -0.237 OA
ATOM     88  O   UNL A   1      34.322  32.337  31.104  1.00  0.00    -0.237 OA
ATOM     89  O   UNL A   1      34.259  34.203  32.717  1.00  0.00    -0.744 OA
ENDBRANCH  85  86
ENDBRANCH  57  80
BRANCH  69  90
ATOM     90  C   UNL A   1      43.906  26.438  34.226  1.00  0.00    -0.014 A 
ATOM     91  C   UNL A   1      43.196  25.676  35.163  1.00  0.00     0.010 A 
ATOM     92  C   UNL A   1      45.247  26.051  33.973  1.00  0.00     0.010 A 
ATOM     93  C   UNL A   1      43.817  24.652  35.882  1.00  0.00     0.020 A 
ATOM     94  C   UNL A   1      45.850  24.974  34.619  1.00  0.00     0.020 A 
ATOM     95  C   UNL A   1      45.140  24.311  35.607  1.00  0.00     0.054 A 
BRANCH  95  96
ATOM     96  S   UNL A   1      45.914  22.979  36.543  1.00  0.00     0.124 S 
ATOM     97  O   UNL A   1      45.416  23.241  37.891  1.00  0.00    -0.237 OA
ATOM     98  O   UNL A   1      45.381  21.782  35.897  1.00  0.00    -0.237 OA
ATOM     99  O   UNL A   1      47.344  23.202  36.349  1.00  0.00    -0.744 OA
ENDBRANCH  95  96
ENDBRANCH  69  90
ENDBRANCH  43  44
ENDBRANCH  35  38
ENDBRANCH  33  34
ENDBRANCH   1  33
TORSDOF 19
ENDMDL
MODEL 2
REMARK VINA RESULT:     -12.2      3.400      9.903
REMARK SMILES Cc1ccccc1OC1(C(=O)NCCCCNC(=O)c2ccc(-c3c4nc(c(-c5ccc(S(=O)(=O)[O-])cc5)c5ccc([nH]5)c(-c5ccc(S(=O)(=O)[O-])cc5)c5nc(c(-c6ccc(S(=O)(=O)[O-])cc6)c6ccc3[nH]6)C=C5)C=C4)cc2)CCN(c2ncc(C#N)c(N)n2)CC1
REMARK SMILES IDX 15 1 14 2 13 3 12 4 10 5 11 6 9 8 80 9 93 10 81 11 92 12
REMARK SMILES IDX 82 13 8 14 7 15 1 16 2 17 3 18 4 19 6 20 5 21 83 22 84 23
REMARK SMILES IDX 91 24 85 25 89 26 86 27 90 28 87 31 88 32 16 33 17 34 18 35
REMARK SMILES IDX 19 37 20 38 21 39 79 40 22 41 78 42 23 43 24 44 25 45 72 46
REMARK SMILES IDX 26 47 77 48 71 49 73 50 27 51 76 52 70 53 69 54 28 56 58 57
REMARK SMILES IDX 39 58 57 59 40 60 43 61 56 62 74 63 41 64 42 65 55 67 75 68
REMARK SMILES IDX 44 69 29 70 30 71 38 72 31 73 37 74 32 75 33 76 34 77 35 78
REMARK SMILES IDX 36 79 59 80 60 81 68 82 61 83 67 84 62 85 63 86 64 87 65 88
REMARK SMILES IDX 66 89 45 90 46 91 54 92 47 93 53 94 48 95 49 96 50 97 51 98
REMARK SMILES IDX 52 99
REMARK H PARENT 12 7 90 29 90 30 17 36 73 55 43 66
REMARK Flexibility Score: inf
ROOT
ATOM      1  C   UNL A   1      36.037  23.339  25.464  1.00  0.00     0.023 C 
ENDROOT
BRANCH   1   2
ATOM      2  C   UNL A   1      34.954  22.901  24.493  1.00  0.00     0.023 C 
BRANCH   2   3
ATOM      3  C   UNL A   1      33.708  23.795  24.465  1.00  0.00     0.116 C 
BRANCH   3   4
ATOM      4  N   UNL A   1      32.906  23.779  25.690  1.00  0.00    -0.353 N 
ATOM      5  C   UNL A   1      32.069  24.724  26.253  1.00  0.00     0.264 C 
ATOM      6  O   UNL A   1      31.435  24.366  27.251  1.00  0.00    -0.270 OA
ATOM      7  H   UNL A   1      32.976  22.943  26.205  1.00  0.00     0.163 HD
BRANCH   5   8
ATOM      8  C   UNL A   1      31.950  26.195  25.656  1.00  0.00     0.190 C 
ATOM      9  C   UNL A   1      31.247  26.975  26.765  1.00  0.00     0.080 C 
ATOM     10  C   UNL A   1      33.370  26.526  25.195  1.00  0.00     0.080 C 
ATOM     11  C   UNL A   1      31.993  28.145  27.369  1.00  0.00     0.124 C 
ATOM     12  C   UNL A   1      33.941  27.843  25.669  1.00  0.00     0.124 C 
ATOM     13  N   UNL A   1      33.356  28.345  26.899  1.00  0.00    -0.340 N 
BRANCH   8  14
ATOM     14  O   UNL A   1      31.074  26.106  24.495  1.00  0.00    -0.477 OA
BRANCH  14  15
ATOM     15  C   UNL A   1      30.210  26.991  23.905  1.00  0.00     0.123 A 
ATOM     16  C   UNL A   1      31.625  28.886  22.811  1.00  0.00     0.048 C 
ATOM     17  C   UNL A   1      30.371  28.184  23.178  1.00  0.00    -0.009 A 
ATOM     18  C   UNL A   1      29.240  28.887  22.685  1.00  0.00     0.007 A 
ATOM     19  C   UNL A   1      27.951  28.443  22.903  1.00  0.00     0.001 A 
ATOM     20  C   UNL A   1      28.879  26.569  24.108  1.00  0.00     0.047 A 
ATOM     21  C   UNL A   1      27.769  27.277  23.622  1.00  0.00     0.004 A 
ENDBRANCH  14  15
ENDBRANCH   8  14
BRANCH  13  22
ATOM     22  C   UNL A   1      33.837  29.584  27.305  1.00  0.00     0.227 A 
ATOM     23  N   UNL A   1      35.021  29.615  27.919  1.00  0.00    -0.220 NA
ATOM     24  N   UNL A   1      33.052  30.666  27.155  1.00  0.00    -0.195 NA
ATOM     25  C   UNL A   1      35.478  30.815  28.314  1.00  0.00     0.138 A 
ATOM     26  C   UNL A   1      33.503  31.843  27.609  1.00  0.00     0.147 A 
ATOM     27  C   UNL A   1      34.752  31.973  28.184  1.00  0.00     0.113 A 
BRANCH  26  28
ATOM     28  N   UNL A   1      32.584  32.878  27.548  1.00  0.00    -0.382 N 
ATOM     29  H   UNL A   1      32.850  33.751  27.177  1.00  0.00     0.158 HD
ATOM     30  H   UNL A   1      31.666  32.741  27.874  1.00  0.00     0.158 HD
ENDBRANCH  26  28
BRANCH  27  31
ATOM     31  C   UNL A   1      35.276  33.224  28.622  1.00  0.00     0.105 C 
ATOM     32  N   UNL A   1      35.689  34.231  29.008  1.00  0.00    -0.192 NA
ENDBRANCH  27  31
ENDBRANCH  13  22
ENDBRANCH   5   8
ENDBRANCH   3   4
ENDBRANCH   2   3
ENDBRANCH   1   2
BRANCH   1  33
ATOM     33  C   UNL A   1      37.407  22.777  25.143  1.00  0.00     0.116 C 
BRANCH  33  34
ATOM     34  N   UNL A   1      38.160  22.310  26.294  1.00  0.00    -0.352 N 
ATOM     35  C   UNL A   1      39.383  22.848  26.688  1.00  0.00     0.251 C 
ATOM     36  H   UNL A   1      37.786  21.571  26.826  1.00  0.00     0.163 HD
ATOM     37  O   UNL A   1      40.370  22.179  26.955  1.00  0.00    -0.269 OA
BRANCH  35  38
ATOM     38  C   UNL A   1      39.395  24.315  26.883  1.00  0.00     0.039 A 
ATOM     39  C   UNL A   1      40.242  25.085  26.073  1.00  0.00     0.014 A 
ATOM     40  C   UNL A   1      38.911  24.803  28.086  1.00  0.00     0.014 A 
ATOM     41  C   UNL A   1      40.805  26.235  26.599  1.00  0.00     0.010 A 
ATOM     42  C   UNL A   1      39.633  25.782  28.692  1.00  0.00     0.010 A 
ATOM     43  C   UNL A   1      40.589  26.474  27.945  1.00  0.00    -0.014 A 
BRANCH  43  44
ATOM     44  C   UNL A   1      41.159  27.553  28.709  1.00  0.00     0.031 A 
ATOM     45  C   UNL A   1      40.300  28.751  28.757  1.00  0.00     0.074 A 
ATOM     46  C   UNL A   1      42.180  27.189  29.516  1.00  0.00     0.049 A 
ATOM     47  N   UNL A   1      40.668  29.906  29.159  1.00  0.00    -0.248 NA
ATOM     48  C   UNL A   1      38.900  28.752  28.290  1.00  0.00     0.031 C 
ATOM     49  C   UNL A   1      42.725  27.808  30.716  1.00  0.00     0.029 A 
ATOM     50  N   UNL A   1      43.104  26.181  29.228  1.00  0.00    -0.354 N 
ATOM     51  C   UNL A   1      39.508  30.607  29.435  1.00  0.00     0.074 A 
ATOM     52  C   UNL A   1      38.462  29.938  28.717  1.00  0.00     0.031 C 
ATOM     53  C   UNL A   1      44.006  27.410  30.867  1.00  0.00     0.029 A 
ATOM     54  C   UNL A   1      44.354  26.609  29.697  1.00  0.00     0.049 A 
ATOM     55  H   UNL A   1      42.912  25.327  28.777  1.00  0.00     0.167 HD
ATOM     56  C   UNL A   1      39.555  31.526  30.435  1.00  0.00     0.031 A 
ATOM     57  C   UNL A   1      45.286  26.973  28.761  1.00  0.00     0.031 A 
ATOM     58  C   UNL A   1      40.932  31.625  30.923  1.00  0.00     0.049 A 
ATOM     59  C   UNL A   1      45.434  28.484  28.721  1.00  0.00     0.074 A 
ATOM     60  C   UNL A   1      41.572  31.061  32.013  1.00  0.00     0.029 A 
ATOM     61  N   UNL A   1      41.925  31.977  30.017  1.00  0.00    -0.354 N 
ATOM     62  N   UNL A   1      44.486  29.329  29.043  1.00  0.00    -0.248 NA
ATOM     63  C   UNL A   1      46.705  29.147  28.452  1.00  0.00     0.031 C 
ATOM     64  C   UNL A   1      42.958  30.967  31.692  1.00  0.00     0.029 A 
ATOM     65  C   UNL A   1      43.150  31.470  30.414  1.00  0.00     0.049 A 
ATOM     66  H   UNL A   1      41.778  32.514  29.206  1.00  0.00     0.167 HD
ATOM     67  C   UNL A   1      45.010  30.593  29.128  1.00  0.00     0.074 A 
ATOM     68  C   UNL A   1      46.398  30.427  28.722  1.00  0.00     0.031 C 
ATOM     69  C   UNL A   1      44.319  31.688  29.572  1.00  0.00     0.031 A 
BRANCH  56  70
ATOM     70  C   UNL A   1      38.372  32.106  31.172  1.00  0.00    -0.014 A 
ATOM     71  C   UNL A   1      38.429  33.469  31.532  1.00  0.00     0.010 A 
ATOM     72  C   UNL A   1      37.219  31.406  31.580  1.00  0.00     0.010 A 
ATOM     73  C   UNL A   1      37.421  34.093  32.275  1.00  0.00     0.020 A 
ATOM     74  C   UNL A   1      36.196  32.019  32.328  1.00  0.00     0.020 A 
ATOM     75  C   UNL A   1      36.307  33.362  32.674  1.00  0.00     0.054 A 
BRANCH  75  76
ATOM     76  S   UNL A   1      35.015  34.207  33.620  1.00  0.00     0.124 S 
ATOM     77  O   UNL A   1      35.340  33.832  34.994  1.00  0.00    -0.237 OA
ATOM     78  O   UNL A   1      35.243  35.609  33.280  1.00  0.00    -0.237 OA
ATOM     79  O   UNL A   1      33.773  33.636  33.102  1.00  0.00    -0.744 OA
ENDBRANCH  75  76
ENDBRANCH  56  70
BRANCH  57  80
ATOM     80  C   UNL A   1      45.302  26.013  27.600  1.00  0.00    -0.014 A 
ATOM     81  C   UNL A   1      46.030  24.810  27.794  1.00  0.00     0.010 A 
ATOM     82  C   UNL A   1      44.284  26.017  26.629  1.00  0.00     0.010 A 
ATOM     83  C   UNL A   1      45.613  23.610  27.207  1.00  0.00     0.020 A 
ATOM     84  C   UNL A   1      43.883  24.814  26.015  1.00  0.00     0.020 A 
ATOM     85  C   UNL A   1      44.501  23.609  26.369  1.00  0.00     0.054 A 
BRANCH  85  86
ATOM     86  S   UNL A   1      43.771  22.001  25.918  1.00  0.00     0.124 S 
ATOM     87  O   UNL A   1      44.942  21.247  25.479  1.00  0.00    -0.237 OA
ATOM     88  O   UNL A   1      43.175  21.565  27.183  1.00  0.00    -0.237 OA
ATOM     89  O   UNL A   1      42.818  22.344  24.869  1.00  0.00    -0.744 OA
ENDBRANCH  85  86
ENDBRANCH  57  80
BRANCH  69  90
ATOM     90  C   UNL A   1      44.721  33.120  29.305  1.00  0.00    -0.014 A 
ATOM     91  C   UNL A   1      45.527  33.875  30.166  1.00  0.00     0.010 A 
ATOM     92  C   UNL A   1      44.404  33.704  28.051  1.00  0.00     0.010 A 
ATOM     93  C   UNL A   1      45.912  35.178  29.840  1.00  0.00     0.020 A 
ATOM     94  C   UNL A   1      44.857  34.967  27.678  1.00  0.00     0.020 A 
ATOM     95  C   UNL A   1      45.571  35.715  28.600  1.00  0.00     0.054 A 
BRANCH  95  96
ATOM     96  S   UNL A   1      46.088  37.396  28.202  1.00  0.00     0.124 S 
ATOM     97  O   UNL A   1      47.122  37.154  27.199  1.00  0.00    -0.237 OA
ATOM     98  O   UNL A   1      44.855  38.000  27.702  1.00  0.00    -0.237 OA
ATOM     99  O   UNL A   1      46.563  37.925  29.477  1.00  0.00    -0.744 OA
ENDBRANCH  95  96
ENDBRANCH  69  90
ENDBRANCH  43  44
ENDBRANCH  35  38
ENDBRANCH  33  34
ENDBRANCH   1  33
TORSDOF 19
ENDMDL
MODEL 3
REMARK VINA RESULT:     -11.8      5.211      9.784
REMARK SMILES Cc1ccccc1OC1(C(=O)NCCCCNC(=O)c2ccc(-c3c4nc(c(-c5ccc(S(=O)(=O)[O-])cc5)c5ccc([nH]5)c(-c5ccc(S(=O)(=O)[O-])cc5)c5nc(c(-c6ccc(S(=O)(=O)[O-])cc6)c6ccc3[nH]6)C=C5)C=C4)cc2)CCN(c2ncc(C#N)c(N)n2)CC1
REMARK SMILES IDX 15 1 14 2 13 3 12 4 10 5 11 6 9 8 80 9 93 10 81 11 92 12
REMARK SMILES IDX 82 13 8 14 7 15 1 16 2 17 3 18 4 19 6 20 5 21 83 22 84 23
REMARK SMILES IDX 91 24 85 25 89 26 86 27 90 28 87 31 88 32 16 33 17 34 18 35
REMARK SMILES IDX 19 37 20 38 21 39 79 40 22 41 78 42 23 43 24 44 25 45 72 46
REMARK SMILES IDX 26 47 77 48 71 49 73 50 27 51 76 52 70 53 69 54 28 56 58 57
REMARK SMILES IDX 39 58 57 59 40 60 43 61 56 62 74 63 41 64 42 65 55 67 75 68
REMARK SMILES IDX 44 69 29 70 30 71 38 72 31 73 37 74 32 75 33 76 34 77 35 78
REMARK SMILES IDX 36 79 59 80 60 81 68 82 61 83 67 84 62 85 63 86 64 87 65 88
REMARK SMILES IDX 66 89 45 90 46 91 54 92 47 93 53 94 48 95 49 96 50 97 51 98
REMARK SMILES IDX 52 99
REMARK H PARENT 12 7 90 29 90 30 17 36 73 55 43 66
REMARK Flexibility Score: inf
ROOT
ATOM      1  C   UNL A   1      39.162  24.796  28.127  1.00  0.00     0.023 C 
ENDROOT
BRANCH   1   2
ATOM      2  C   UNL A   1      38.849  24.796  26.641  1.00  0.00     0.023 C 
BRANCH   2   3
ATOM      3  C   UNL A   1      37.709  23.860  26.218  1.00  0.00     0.116 C 
BRANCH   3   4
ATOM      4  N   UNL A   1      37.666  23.543  24.790  1.00  0.00    -0.353 N 
ATOM      5  C   UNL A   1      36.607  23.380  23.915  1.00  0.00     0.264 C 
ATOM      6  O   UNL A   1      36.900  23.224  22.725  1.00  0.00    -0.270 OA
ATOM      7  H   UNL A   1      38.552  23.423  24.377  1.00  0.00     0.163 HD
BRANCH   5   8
ATOM      8  C   UNL A   1      35.099  23.375  24.423  1.00  0.00     0.190 C 
ATOM      9  C   UNL A   1      35.007  24.634  25.282  1.00  0.00     0.080 C 
ATOM     10  C   UNL A   1      34.276  23.192  23.146  1.00  0.00     0.080 C 
ATOM     11  C   UNL A   1      34.016  25.695  24.852  1.00  0.00     0.124 C 
ATOM     12  C   UNL A   1      33.148  24.173  22.927  1.00  0.00     0.124 C 
ATOM     13  N   UNL A   1      33.321  25.450  23.598  1.00  0.00    -0.340 N 
BRANCH   8  14
ATOM     14  O   UNL A   1      34.944  22.198  25.269  1.00  0.00    -0.477 OA
BRANCH  14  15
ATOM     15  C   UNL A   1      34.313  20.995  25.090  1.00  0.00     0.123 A 
ATOM     16  C   UNL A   1      31.749  21.393  25.323  1.00  0.00     0.048 C 
ATOM     17  C   UNL A   1      32.969  20.581  25.099  1.00  0.00    -0.009 A 
ATOM     18  C   UNL A   1      32.632  19.220  24.872  1.00  0.00     0.007 A 
ATOM     19  C   UNL A   1      33.594  18.256  24.646  1.00  0.00     0.001 A 
ATOM     20  C   UNL A   1      35.268  19.983  24.856  1.00  0.00     0.047 A 
ATOM     21  C   UNL A   1      34.922  18.640  24.641  1.00  0.00     0.004 A 
ENDBRANCH  14  15
ENDBRANCH   8  14
BRANCH  13  22
ATOM     22  C   UNL A   1      32.259  26.332  23.446  1.00  0.00     0.227 A 
ATOM     23  N   UNL A   1      31.046  25.904  23.801  1.00  0.00    -0.220 NA
ATOM     24  N   UNL A   1      32.482  27.522  22.860  1.00  0.00    -0.195 NA
ATOM     25  C   UNL A   1      30.022  26.760  23.646  1.00  0.00     0.138 A 
ATOM     26  C   UNL A   1      31.436  28.336  22.662  1.00  0.00     0.147 A 
ATOM     27  C   UNL A   1      30.162  28.001  23.075  1.00  0.00     0.113 A 
BRANCH  26  28
ATOM     28  N   UNL A   1      31.721  29.477  21.928  1.00  0.00    -0.382 N 
ATOM     29  H   UNL A   1      31.040  30.181  21.829  1.00  0.00     0.158 HD
ATOM     30  H   UNL A   1      32.604  29.583  21.507  1.00  0.00     0.158 HD
ENDBRANCH  26  28
BRANCH  27  31
ATOM     31  C   UNL A   1      29.046  28.874  22.927  1.00  0.00     0.105 C 
ATOM     32  N   UNL A   1      28.155  29.603  22.831  1.00  0.00    -0.192 NA
ENDBRANCH  27  31
ENDBRANCH  13  22
ENDBRANCH   5   8
ENDBRANCH   3   4
ENDBRANCH   2   3
ENDBRANCH   1   2
BRANCH   1  33
ATOM     33  C   UNL A   1      39.454  26.172  28.689  1.00  0.00     0.116 C 
BRANCH  33  34
ATOM     34  N   UNL A   1      38.448  27.178  28.395  1.00  0.00    -0.352 N 
ATOM     35  C   UNL A   1      38.564  28.517  28.761  1.00  0.00     0.251 C 
ATOM     36  H   UNL A   1      37.638  26.898  27.911  1.00  0.00     0.163 HD
ATOM     37  O   UNL A   1      37.680  29.152  29.319  1.00  0.00    -0.269 OA
BRANCH  35  38
ATOM     38  C   UNL A   1      39.809  29.186  28.325  1.00  0.00     0.039 A 
ATOM     39  C   UNL A   1      40.270  28.947  27.022  1.00  0.00     0.014 A 
ATOM     40  C   UNL A   1      40.657  29.662  29.312  1.00  0.00     0.014 A 
ATOM     41  C   UNL A   1      41.635  28.938  26.788  1.00  0.00     0.010 A 
ATOM     42  C   UNL A   1      41.985  29.422  29.155  1.00  0.00     0.010 A 
ATOM     43  C   UNL A   1      42.458  29.042  27.897  1.00  0.00    -0.014 A 
BRANCH  43  44
ATOM     44  C   UNL A   1      43.895  28.958  27.888  1.00  0.00     0.031 A 
ATOM     45  C   UNL A   1      44.541  30.101  27.214  1.00  0.00     0.074 A 
ATOM     46  C   UNL A   1      44.409  28.069  28.765  1.00  0.00     0.049 A 
ATOM     47  N   UNL A   1      45.768  30.152  26.866  1.00  0.00    -0.248 NA
ATOM     48  C   UNL A   1      43.806  31.319  26.822  1.00  0.00     0.031 C 
ATOM     49  C   UNL A   1      45.725  27.976  29.379  1.00  0.00     0.029 A 
ATOM     50  N   UNL A   1      43.798  26.868  29.134  1.00  0.00    -0.354 N 
ATOM     51  C   UNL A   1      46.057  31.489  26.665  1.00  0.00     0.074 A 
ATOM     52  C   UNL A   1      44.795  32.141  26.466  1.00  0.00     0.031 C 
ATOM     53  C   UNL A   1      45.943  26.696  29.749  1.00  0.00     0.029 A 
ATOM     54  C   UNL A   1      44.810  25.907  29.276  1.00  0.00     0.049 A 
ATOM     55  H   UNL A   1      42.833  26.722  29.268  1.00  0.00     0.167 HD
ATOM     56  C   UNL A   1      47.323  31.904  26.935  1.00  0.00     0.031 A 
ATOM     57  C   UNL A   1      44.893  24.935  28.314  1.00  0.00     0.031 A 
ATOM     58  C   UNL A   1      48.137  30.739  27.287  1.00  0.00     0.049 A 
ATOM     59  C   UNL A   1      46.074  25.197  27.396  1.00  0.00     0.074 A 
ATOM     60  C   UNL A   1      48.524  30.212  28.508  1.00  0.00     0.029 A 
ATOM     61  N   UNL A   1      48.249  29.712  26.358  1.00  0.00    -0.354 N 
ATOM     62  N   UNL A   1      46.571  26.384  27.151  1.00  0.00    -0.248 NA
ATOM     63  C   UNL A   1      46.867  24.126  26.802  1.00  0.00     0.031 C 
ATOM     64  C   UNL A   1      48.751  28.817  28.317  1.00  0.00     0.029 A 
ATOM     65  C   UNL A   1      48.499  28.507  26.989  1.00  0.00     0.049 A 
ATOM     66  H   UNL A   1      48.163  29.827  25.385  1.00  0.00     0.167 HD
ATOM     67  C   UNL A   1      47.761  26.253  26.482  1.00  0.00     0.074 A 
ATOM     68  C   UNL A   1      47.887  24.819  26.266  1.00  0.00     0.031 C 
ATOM     69  C   UNL A   1      48.603  27.291  26.192  1.00  0.00     0.031 A 
BRANCH  56  70
ATOM     70  C   UNL A   1      47.765  33.327  27.179  1.00  0.00    -0.014 A 
ATOM     71  C   UNL A   1      48.588  33.932  26.207  1.00  0.00     0.010 A 
ATOM     72  C   UNL A   1      47.470  34.108  28.314  1.00  0.00     0.010 A 
ATOM     73  C   UNL A   1      49.112  35.221  26.362  1.00  0.00     0.020 A 
ATOM     74  C   UNL A   1      47.989  35.407  28.485  1.00  0.00     0.020 A 
ATOM     75  C   UNL A   1      48.811  35.953  27.504  1.00  0.00     0.054 A 
BRANCH  75  76
ATOM     76  S   UNL A   1      49.492  37.623  27.663  1.00  0.00     0.124 S 
ATOM     77  O   UNL A   1      49.896  37.926  26.292  1.00  0.00    -0.237 OA
ATOM     78  O   UNL A   1      48.350  38.381  28.165  1.00  0.00    -0.237 OA
ATOM     79  O   UNL A   1      50.595  37.462  28.610  1.00  0.00    -0.744 OA
ENDBRANCH  75  76
ENDBRANCH  56  70
BRANCH  57  80
ATOM     80  C   UNL A   1      43.529  24.417  27.938  1.00  0.00    -0.014 A 
ATOM     81  C   UNL A   1      43.300  24.204  26.554  1.00  0.00     0.010 A 
ATOM     82  C   UNL A   1      42.739  23.699  28.854  1.00  0.00     0.010 A 
ATOM     83  C   UNL A   1      42.479  23.161  26.109  1.00  0.00     0.020 A 
ATOM     84  C   UNL A   1      41.889  22.669  28.405  1.00  0.00     0.020 A 
ATOM     85  C   UNL A   1      41.827  22.358  27.042  1.00  0.00     0.054 A 
BRANCH  85  86
ATOM     86  S   UNL A   1      41.070  20.808  26.455  1.00  0.00     0.124 S 
ATOM     87  O   UNL A   1      42.106  20.276  25.574  1.00  0.00    -0.237 OA
ATOM     88  O   UNL A   1      40.863  20.071  27.705  1.00  0.00    -0.237 OA
ATOM     89  O   UNL A   1      39.853  21.256  25.791  1.00  0.00    -0.744 OA
ENDBRANCH  85  86
ENDBRANCH  57  80
BRANCH  69  90
ATOM     90  C   UNL A   1      49.687  27.247  25.139  1.00  0.00    -0.014 A 
ATOM     91  C   UNL A   1      51.038  27.015  25.424  1.00  0.00     0.010 A 
ATOM     92  C   UNL A   1      49.321  27.287  23.769  1.00  0.00     0.010 A 
ATOM     93  C   UNL A   1      51.988  26.930  24.403  1.00  0.00     0.020 A 
ATOM     94  C   UNL A   1      50.245  27.114  22.742  1.00  0.00     0.020 A 
ATOM     95  C   UNL A   1      51.585  26.983  23.070  1.00  0.00     0.054 A 
BRANCH  95  96
ATOM     96  S   UNL A   1      52.830  26.862  21.773  1.00  0.00     0.124 S 
ATOM     97  O   UNL A   1      52.973  28.259  21.372  1.00  0.00    -0.237 OA
ATOM     98  O   UNL A   1      53.973  26.289  22.479  1.00  0.00    -0.237 OA
ATOM     99  O   UNL A   1      52.214  25.985  20.780  1.00  0.00    -0.744 OA
ENDBRANCH  95  96
ENDBRANCH  69  90
ENDBRANCH  43  44
ENDBRANCH  35  38
ENDBRANCH  33  34
ENDBRANCH   1  33
TORSDOF 19
ENDMDL
