MODEL 1
REMARK VINA RESULT:     -12.6      0.000      0.000
REMARK SMILES CC(C)c1nc(C(=O)NCCCCNC(=O)c2ccc(-c3c4nc(c(-c5ccc(S(=O)(=O)[O-])cc5)c5ccc([nH]5)c(-c5ccc(S(=O)(=O)[O-])cc5)c5nc(c(-c6ccc(S(=O)(=O)[O-])cc6)c6ccc3[nH]6)C=C5)C=C4)cc2)nn1-c1ccccc1F
REMARK SMILES IDX 12 1 11 2 10 3 9 4 7 5 8 6 6 8 4 9 5 10 78 11 77 12 2 13
REMARK SMILES IDX 1 14 3 15 79 16 80 17 84 18 81 19 83 20 85 21 82 22 13 23
REMARK SMILES IDX 14 24 15 25 16 27 17 28 18 29 76 30 19 31 75 32 20 33 21 34
REMARK SMILES IDX 22 35 69 36 23 37 74 38 68 39 70 40 24 41 73 42 67 43 66 44
REMARK SMILES IDX 25 46 55 47 36 48 54 49 37 50 40 51 53 52 71 53 38 54 39 55
REMARK SMILES IDX 52 57 72 58 41 59 26 60 27 61 35 62 28 63 34 64 29 65 30 66
REMARK SMILES IDX 31 67 32 68 33 69 56 70 57 71 65 72 58 73 64 74 59 75 60 76
REMARK SMILES IDX 61 77 62 78 63 79 42 80 43 81 51 82 44 83 50 84 45 85 46 86
REMARK SMILES IDX 47 87 48 88 49 89
REMARK H PARENT 9 7 14 26 70 45 40 56
REMARK Flexibility Score: inf
ROOT
ATOM      1  C   UNL A   1      32.383  28.165  26.684  1.00  0.00     0.023 C 
ENDROOT
BRANCH   1   2
ATOM      2  C   UNL A   1      32.480  26.659  26.406  1.00  0.00     0.023 C 
BRANCH   2   3
ATOM      3  C   UNL A   1      31.254  26.022  25.746  1.00  0.00     0.116 C 
BRANCH   3   4
ATOM      4  N   UNL A   1      30.578  25.072  26.616  1.00  0.00    -0.349 N 
ATOM      5  C   UNL A   1      30.714  23.695  26.737  1.00  0.00     0.290 C 
ATOM      6  O   UNL A   1      29.917  23.123  27.485  1.00  0.00    -0.266 OA
ATOM      7  H   UNL A   1      29.914  25.472  27.222  1.00  0.00     0.163 HD
BRANCH   5   8
ATOM      8  C   UNL A   1      31.745  22.957  25.970  1.00  0.00     0.239 A 
ATOM      9  C   UNL A   1      33.671  22.286  25.299  1.00  0.00     0.136 A 
ATOM     10  N   UNL A   1      33.107  23.163  26.115  1.00  0.00    -0.207 NA
ATOM     11  N   UNL A   1      32.664  21.463  24.819  1.00  0.00    -0.214 N 
ATOM     12  N   UNL A   1      31.470  22.056  25.014  1.00  0.00    -0.140 NA
BRANCH   9  13
ATOM     13  C   UNL A   1      35.062  22.414  24.710  1.00  0.00     0.051 C 
ATOM     14  C   UNL A   1      35.853  21.110  24.877  1.00  0.00     0.016 C 
ATOM     15  C   UNL A   1      35.149  22.843  23.251  1.00  0.00     0.016 C 
ENDBRANCH   9  13
BRANCH  11  16
ATOM     16  C   UNL A   1      32.674  20.148  24.325  1.00  0.00     0.102 A 
ATOM     17  C   UNL A   1      32.371  19.916  22.977  1.00  0.00     0.031 A 
ATOM     18  C   UNL A   1      32.831  19.071  25.193  1.00  0.00     0.148 A 
ATOM     19  C   UNL A   1      32.336  18.608  22.493  1.00  0.00     0.002 A 
ATOM     20  C   UNL A   1      32.791  17.765  24.713  1.00  0.00     0.041 A 
ATOM     21  F   UNL A   1      32.942  19.257  26.515  1.00  0.00    -0.205 F 
ATOM     22  C   UNL A   1      32.560  17.534  23.358  1.00  0.00     0.003 A 
ENDBRANCH  11  16
ENDBRANCH   5   8
ENDBRANCH   3   4
ENDBRANCH   2   3
ENDBRANCH   1   2
BRANCH   1  23
ATOM     23  C   UNL A   1      33.678  28.944  26.464  1.00  0.00     0.116 C 
BRANCH  23  24
ATOM     24  N   UNL A   1      33.504  30.389  26.579  1.00  0.00    -0.352 N 
ATOM     25  C   UNL A   1      34.148  31.259  27.440  1.00  0.00     0.251 C 
ATOM     26  H   UNL A   1      32.847  30.794  25.968  1.00  0.00     0.163 HD
ATOM     27  O   UNL A   1      33.659  32.348  27.700  1.00  0.00    -0.269 OA
BRANCH  25  28
ATOM     28  C   UNL A   1      35.432  30.853  28.047  1.00  0.00     0.039 A 
ATOM     29  C   UNL A   1      35.783  29.501  28.128  1.00  0.00     0.014 A 
ATOM     30  C   UNL A   1      36.292  31.838  28.528  1.00  0.00     0.014 A 
ATOM     31  C   UNL A   1      37.047  29.154  28.605  1.00  0.00     0.010 A 
ATOM     32  C   UNL A   1      37.574  31.502  28.912  1.00  0.00     0.010 A 
ATOM     33  C   UNL A   1      37.955  30.161  28.967  1.00  0.00    -0.014 A 
BRANCH  33  34
ATOM     34  C   UNL A   1      39.367  29.831  29.195  1.00  0.00     0.031 A 
ATOM     35  C   UNL A   1      39.752  29.778  30.638  1.00  0.00     0.074 A 
ATOM     36  C   UNL A   1      40.180  29.340  28.233  1.00  0.00     0.049 A 
ATOM     37  N   UNL A   1      40.623  30.498  31.264  1.00  0.00    -0.248 NA
ATOM     38  C   UNL A   1      38.963  28.901  31.526  1.00  0.00     0.031 C 
ATOM     39  C   UNL A   1      39.818  29.041  26.842  1.00  0.00     0.029 A 
ATOM     40  N   UNL A   1      41.455  28.854  28.318  1.00  0.00    -0.354 N 
ATOM     41  C   UNL A   1      40.666  29.998  32.565  1.00  0.00     0.074 A 
ATOM     42  C   UNL A   1      39.490  29.181  32.718  1.00  0.00     0.031 C 
ATOM     43  C   UNL A   1      40.731  28.204  26.306  1.00  0.00     0.029 A 
ATOM     44  C   UNL A   1      41.819  28.032  27.251  1.00  0.00     0.049 A 
ATOM     45  H   UNL A   1      42.061  29.065  29.065  1.00  0.00     0.167 HD
ATOM     46  C   UNL A   1      41.806  30.043  33.311  1.00  0.00     0.031 A 
ATOM     47  C   UNL A   1      42.907  27.223  27.160  1.00  0.00     0.031 A 
ATOM     48  C   UNL A   1      42.763  30.967  32.756  1.00  0.00     0.049 A 
ATOM     49  C   UNL A   1      43.885  27.685  28.169  1.00  0.00     0.074 A 
ATOM     50  C   UNL A   1      42.769  32.312  32.452  1.00  0.00     0.029 A 
ATOM     51  N   UNL A   1      43.817  30.409  32.074  1.00  0.00    -0.354 N 
ATOM     52  N   UNL A   1      44.503  28.829  28.104  1.00  0.00    -0.248 NA
ATOM     53  C   UNL A   1      43.889  27.046  29.474  1.00  0.00     0.031 C 
ATOM     54  C   UNL A   1      43.551  32.419  31.265  1.00  0.00     0.029 A 
ATOM     55  C   UNL A   1      44.044  31.151  30.948  1.00  0.00     0.049 A 
ATOM     56  H   UNL A   1      44.324  29.612  32.349  1.00  0.00     0.167 HD
ATOM     57  C   UNL A   1      44.573  29.263  29.419  1.00  0.00     0.074 A 
ATOM     58  C   UNL A   1      44.300  28.073  30.221  1.00  0.00     0.031 C 
ATOM     59  C   UNL A   1      44.558  30.597  29.714  1.00  0.00     0.031 A 
BRANCH  46  60
ATOM     60  C   UNL A   1      42.240  28.922  34.240  1.00  0.00    -0.014 A 
ATOM     61  C   UNL A   1      42.641  27.691  33.674  1.00  0.00     0.010 A 
ATOM     62  C   UNL A   1      41.978  28.922  35.626  1.00  0.00     0.010 A 
ATOM     63  C   UNL A   1      42.677  26.513  34.434  1.00  0.00     0.020 A 
ATOM     64  C   UNL A   1      42.059  27.765  36.402  1.00  0.00     0.020 A 
ATOM     65  C   UNL A   1      42.370  26.558  35.793  1.00  0.00     0.054 A 
BRANCH  65  66
ATOM     66  S   UNL A   1      42.318  25.023  36.747  1.00  0.00     0.124 S 
ATOM     67  O   UNL A   1      43.432  25.208  37.671  1.00  0.00    -0.237 OA
ATOM     68  O   UNL A   1      40.984  25.074  37.339  1.00  0.00    -0.237 OA
ATOM     69  O   UNL A   1      42.506  23.987  35.734  1.00  0.00    -0.744 OA
ENDBRANCH  65  66
ENDBRANCH  46  60
BRANCH  47  70
ATOM     70  C   UNL A   1      43.066  25.930  26.443  1.00  0.00    -0.014 A 
ATOM     71  C   UNL A   1      44.034  25.781  25.429  1.00  0.00     0.010 A 
ATOM     72  C   UNL A   1      42.470  24.757  26.950  1.00  0.00     0.010 A 
ATOM     73  C   UNL A   1      44.444  24.508  24.995  1.00  0.00     0.020 A 
ATOM     74  C   UNL A   1      42.865  23.485  26.514  1.00  0.00     0.020 A 
ATOM     75  C   UNL A   1      43.872  23.366  25.559  1.00  0.00     0.054 A 
BRANCH  75  76
ATOM     76  S   UNL A   1      44.542  21.727  25.140  1.00  0.00     0.124 S 
ATOM     77  O   UNL A   1      45.865  21.765  25.756  1.00  0.00    -0.237 OA
ATOM     78  O   UNL A   1      43.581  20.821  25.762  1.00  0.00    -0.237 OA
ATOM     79  O   UNL A   1      44.539  21.719  23.678  1.00  0.00    -0.744 OA
ENDBRANCH  75  76
ENDBRANCH  47  70
BRANCH  59  80
ATOM     80  C   UNL A   1      44.911  31.581  28.625  1.00  0.00    -0.014 A 
ATOM     81  C   UNL A   1      44.019  32.048  27.641  1.00  0.00     0.010 A 
ATOM     82  C   UNL A   1      46.204  32.135  28.673  1.00  0.00     0.010 A 
ATOM     83  C   UNL A   1      44.430  33.007  26.703  1.00  0.00     0.020 A 
ATOM     84  C   UNL A   1      46.611  33.105  27.759  1.00  0.00     0.020 A 
ATOM     85  C   UNL A   1      45.728  33.524  26.765  1.00  0.00     0.054 A 
BRANCH  85  86
ATOM     86  S   UNL A   1      46.260  34.764  25.552  1.00  0.00     0.124 S 
ATOM     87  O   UNL A   1      45.979  36.021  26.240  1.00  0.00    -0.237 OA
ATOM     88  O   UNL A   1      47.675  34.450  25.368  1.00  0.00    -0.237 OA
ATOM     89  O   UNL A   1      45.418  34.496  24.387  1.00  0.00    -0.744 OA
ENDBRANCH  85  86
ENDBRANCH  59  80
ENDBRANCH  33  34
ENDBRANCH  25  28
ENDBRANCH  23  24
ENDBRANCH   1  23
TORSDOF 16
ENDMDL
MODEL 2
REMARK VINA RESULT:     -12.4      2.647      9.333
REMARK SMILES CC(C)c1nc(C(=O)NCCCCNC(=O)c2ccc(-c3c4nc(c(-c5ccc(S(=O)(=O)[O-])cc5)c5ccc([nH]5)c(-c5ccc(S(=O)(=O)[O-])cc5)c5nc(c(-c6ccc(S(=O)(=O)[O-])cc6)c6ccc3[nH]6)C=C5)C=C4)cc2)nn1-c1ccccc1F
REMARK SMILES IDX 12 1 11 2 10 3 9 4 7 5 8 6 6 8 4 9 5 10 78 11 77 12 2 13
REMARK SMILES IDX 1 14 3 15 79 16 80 17 84 18 81 19 83 20 85 21 82 22 13 23
REMARK SMILES IDX 14 24 15 25 16 27 17 28 18 29 76 30 19 31 75 32 20 33 21 34
REMARK SMILES IDX 22 35 69 36 23 37 74 38 68 39 70 40 24 41 73 42 67 43 66 44
REMARK SMILES IDX 25 46 55 47 36 48 54 49 37 50 40 51 53 52 71 53 38 54 39 55
REMARK SMILES IDX 52 57 72 58 41 59 26 60 27 61 35 62 28 63 34 64 29 65 30 66
REMARK SMILES IDX 31 67 32 68 33 69 56 70 57 71 65 72 58 73 64 74 59 75 60 76
REMARK SMILES IDX 61 77 62 78 63 79 42 80 43 81 51 82 44 83 50 84 45 85 46 86
REMARK SMILES IDX 47 87 48 88 49 89
REMARK H PARENT 9 7 14 26 70 45 40 56
REMARK Flexibility Score: inf
ROOT
ATOM      1  C   UNL A   1      39.188  21.863  25.744  1.00  0.00     0.023 C 
ENDROOT
BRANCH   1   2
ATOM      2  C   UNL A   1      37.978  21.024  25.313  1.00  0.00     0.023 C 
BRANCH   2   3
ATOM      3  C   UNL A   1      36.636  21.762  25.269  1.00  0.00     0.116 C 
BRANCH   3   4
ATOM      4  N   UNL A   1      35.740  21.362  26.343  1.00  0.00    -0.349 N 
ATOM      5  C   UNL A   1      34.499  21.855  26.721  1.00  0.00     0.290 C 
ATOM      6  O   UNL A   1      34.012  21.396  27.759  1.00  0.00    -0.266 OA
ATOM      7  H   UNL A   1      36.069  20.615  26.894  1.00  0.00     0.163 HD
BRANCH   5   8
ATOM      8  C   UNL A   1      33.819  22.908  25.930  1.00  0.00     0.239 A 
ATOM      9  C   UNL A   1      32.457  23.845  24.560  1.00  0.00     0.136 A 
ATOM     10  N   UNL A   1      32.825  22.651  25.000  1.00  0.00    -0.207 NA
ATOM     11  N   UNL A   1      33.098  24.790  25.346  1.00  0.00    -0.214 N 
ATOM     12  N   UNL A   1      34.134  24.212  25.986  1.00  0.00    -0.140 NA
BRANCH   9  13
ATOM     13  C   UNL A   1      31.790  24.112  23.226  1.00  0.00     0.051 C 
ATOM     14  C   UNL A   1      30.424  24.785  23.418  1.00  0.00     0.016 C 
ATOM     15  C   UNL A   1      32.586  24.929  22.215  1.00  0.00     0.016 C 
ENDBRANCH   9  13
BRANCH  11  16
ATOM     16  C   UNL A   1      32.786  26.121  25.667  1.00  0.00     0.102 A 
ATOM     17  C   UNL A   1      31.733  26.387  26.552  1.00  0.00     0.031 A 
ATOM     18  C   UNL A   1      33.410  27.171  25.000  1.00  0.00     0.148 A 
ATOM     19  C   UNL A   1      31.391  27.709  26.839  1.00  0.00     0.002 A 
ATOM     20  C   UNL A   1      33.066  28.490  25.280  1.00  0.00     0.041 A 
ATOM     21  F   UNL A   1      34.292  26.941  24.018  1.00  0.00    -0.205 F 
ATOM     22  C   UNL A   1      32.066  28.760  26.214  1.00  0.00     0.003 A 
ENDBRANCH  11  16
ENDBRANCH   5   8
ENDBRANCH   3   4
ENDBRANCH   2   3
ENDBRANCH   1   2
BRANCH   1  23
ATOM     23  C   UNL A   1      40.095  21.197  26.776  1.00  0.00     0.116 C 
BRANCH  23  24
ATOM     24  N   UNL A   1      41.340  20.692  26.204  1.00  0.00    -0.352 N 
ATOM     25  C   UNL A   1      42.467  21.409  25.848  1.00  0.00     0.251 C 
ATOM     26  H   UNL A   1      41.381  19.720  26.053  1.00  0.00     0.163 HD
ATOM     27  O   UNL A   1      43.270  20.946  25.052  1.00  0.00    -0.269 OA
BRANCH  25  28
ATOM     28  C   UNL A   1      42.687  22.745  26.439  1.00  0.00     0.039 A 
ATOM     29  C   UNL A   1      42.246  23.895  25.776  1.00  0.00     0.014 A 
ATOM     30  C   UNL A   1      43.332  22.841  27.670  1.00  0.00     0.014 A 
ATOM     31  C   UNL A   1      42.367  25.133  26.407  1.00  0.00     0.010 A 
ATOM     32  C   UNL A   1      43.370  24.050  28.333  1.00  0.00     0.010 A 
ATOM     33  C   UNL A   1      42.903  25.205  27.702  1.00  0.00    -0.014 A 
BRANCH  33  34
ATOM     34  C   UNL A   1      42.777  26.441  28.484  1.00  0.00     0.031 A 
ATOM     35  C   UNL A   1      43.900  27.405  28.279  1.00  0.00     0.074 A 
ATOM     36  C   UNL A   1      41.634  26.816  29.103  1.00  0.00     0.049 A 
ATOM     37  N   UNL A   1      44.739  27.857  29.151  1.00  0.00    -0.248 NA
ATOM     38  C   UNL A   1      44.214  27.808  26.894  1.00  0.00     0.031 C 
ATOM     39  C   UNL A   1      40.355  26.096  29.100  1.00  0.00     0.029 A 
ATOM     40  N   UNL A   1      41.316  27.985  29.735  1.00  0.00    -0.354 N 
ATOM     41  C   UNL A   1      45.527  28.787  28.474  1.00  0.00     0.074 A 
ATOM     42  C   UNL A   1      45.304  28.553  27.071  1.00  0.00     0.031 C 
ATOM     43  C   UNL A   1      39.361  26.939  29.454  1.00  0.00     0.029 A 
ATOM     44  C   UNL A   1      39.944  28.205  29.860  1.00  0.00     0.049 A 
ATOM     45  H   UNL A   1      41.994  28.615  30.072  1.00  0.00     0.167 HD
ATOM     46  C   UNL A   1      46.063  29.868  29.110  1.00  0.00     0.031 A 
ATOM     47  C   UNL A   1      39.317  29.355  30.219  1.00  0.00     0.031 A 
ATOM     48  C   UNL A   1      46.034  29.705  30.541  1.00  0.00     0.049 A 
ATOM     49  C   UNL A   1      40.317  30.209  30.896  1.00  0.00     0.074 A 
ATOM     50  C   UNL A   1      46.536  28.782  31.437  1.00  0.00     0.029 A 
ATOM     51  N   UNL A   1      45.064  30.409  31.212  1.00  0.00    -0.354 N 
ATOM     52  N   UNL A   1      40.846  29.923  32.051  1.00  0.00    -0.248 NA
ATOM     53  C   UNL A   1      41.035  31.196  30.107  1.00  0.00     0.031 C 
ATOM     54  C   UNL A   1      45.546  28.682  32.457  1.00  0.00     0.029 A 
ATOM     55  C   UNL A   1      44.531  29.599  32.176  1.00  0.00     0.049 A 
ATOM     56  H   UNL A   1      44.799  31.339  31.030  1.00  0.00     0.167 HD
ATOM     57  C   UNL A   1      42.166  30.333  31.941  1.00  0.00     0.074 A 
ATOM     58  C   UNL A   1      42.186  31.221  30.781  1.00  0.00     0.031 C 
ATOM     59  C   UNL A   1      43.156  29.685  32.623  1.00  0.00     0.031 A 
BRANCH  46  60
ATOM     60  C   UNL A   1      46.162  31.244  28.475  1.00  0.00    -0.014 A 
ATOM     61  C   UNL A   1      44.970  31.960  28.222  1.00  0.00     0.010 A 
ATOM     62  C   UNL A   1      47.329  31.722  27.845  1.00  0.00     0.010 A 
ATOM     63  C   UNL A   1      44.936  33.026  27.312  1.00  0.00     0.020 A 
ATOM     64  C   UNL A   1      47.315  32.814  26.974  1.00  0.00     0.020 A 
ATOM     65  C   UNL A   1      46.110  33.435  26.683  1.00  0.00     0.054 A 
BRANCH  65  66
ATOM     66  S   UNL A   1      46.045  34.742  25.434  1.00  0.00     0.124 S 
ATOM     67  O   UNL A   1      45.074  34.203  24.488  1.00  0.00    -0.237 OA
ATOM     68  O   UNL A   1      45.600  35.892  26.217  1.00  0.00    -0.237 OA
ATOM     69  O   UNL A   1      47.421  34.819  24.950  1.00  0.00    -0.744 OA
ENDBRANCH  65  66
ENDBRANCH  46  60
BRANCH  47  70
ATOM     70  C   UNL A   1      37.988  29.878  29.802  1.00  0.00    -0.014 A 
ATOM     71  C   UNL A   1      37.105  30.439  30.746  1.00  0.00     0.010 A 
ATOM     72  C   UNL A   1      37.704  30.092  28.438  1.00  0.00     0.010 A 
ATOM     73  C   UNL A   1      36.025  31.246  30.343  1.00  0.00     0.020 A 
ATOM     74  C   UNL A   1      36.623  30.885  28.029  1.00  0.00     0.020 A 
ATOM     75  C   UNL A   1      35.807  31.483  28.985  1.00  0.00     0.054 A 
BRANCH  75  76
ATOM     76  S   UNL A   1      34.536  32.682  28.478  1.00  0.00     0.124 S 
ATOM     77  O   UNL A   1      35.287  33.583  27.609  1.00  0.00    -0.237 OA
ATOM     78  O   UNL A   1      33.548  31.838  27.813  1.00  0.00    -0.237 OA
ATOM     79  O   UNL A   1      34.094  33.268  29.742  1.00  0.00    -0.744 OA
ENDBRANCH  75  76
ENDBRANCH  47  70
BRANCH  59  80
ATOM     80  C   UNL A   1      42.778  28.835  33.812  1.00  0.00    -0.014 A 
ATOM     81  C   UNL A   1      42.533  29.328  35.108  1.00  0.00     0.010 A 
ATOM     82  C   UNL A   1      42.564  27.467  33.565  1.00  0.00     0.010 A 
ATOM     83  C   UNL A   1      42.134  28.461  36.137  1.00  0.00     0.020 A 
ATOM     84  C   UNL A   1      42.144  26.605  34.576  1.00  0.00     0.020 A 
ATOM     85  C   UNL A   1      41.948  27.102  35.863  1.00  0.00     0.054 A 
BRANCH  85  86
ATOM     86  S   UNL A   1      41.431  25.981  37.192  1.00  0.00     0.124 S 
ATOM     87  O   UNL A   1      42.547  26.065  38.130  1.00  0.00    -0.237 OA
ATOM     88  O   UNL A   1      40.178  26.576  37.650  1.00  0.00    -0.237 OA
ATOM     89  O   UNL A   1      41.285  24.689  36.522  1.00  0.00    -0.744 OA
ENDBRANCH  85  86
ENDBRANCH  59  80
ENDBRANCH  33  34
ENDBRANCH  25  28
ENDBRANCH  23  24
ENDBRANCH   1  23
TORSDOF 16
ENDMDL
MODEL 3
REMARK VINA RESULT:     -12.4      1.656      2.651
REMARK SMILES CC(C)c1nc(C(=O)NCCCCNC(=O)c2ccc(-c3c4nc(c(-c5ccc(S(=O)(=O)[O-])cc5)c5ccc([nH]5)c(-c5ccc(S(=O)(=O)[O-])cc5)c5nc(c(-c6ccc(S(=O)(=O)[O-])cc6)c6ccc3[nH]6)C=C5)C=C4)cc2)nn1-c1ccccc1F
REMARK SMILES IDX 12 1 11 2 10 3 9 4 7 5 8 6 6 8 4 9 5 10 78 11 77 12 2 13
REMARK SMILES IDX 1 14 3 15 79 16 80 17 84 18 81 19 83 20 85 21 82 22 13 23
REMARK SMILES IDX 14 24 15 25 16 27 17 28 18 29 76 30 19 31 75 32 20 33 21 34
REMARK SMILES IDX 22 35 69 36 23 37 74 38 68 39 70 40 24 41 73 42 67 43 66 44
REMARK SMILES IDX 25 46 55 47 36 48 54 49 37 50 40 51 53 52 71 53 38 54 39 55
REMARK SMILES IDX 52 57 72 58 41 59 26 60 27 61 35 62 28 63 34 64 29 65 30 66
REMARK SMILES IDX 31 67 32 68 33 69 56 70 57 71 65 72 58 73 64 74 59 75 60 76
REMARK SMILES IDX 61 77 62 78 63 79 42 80 43 81 51 82 44 83 50 84 45 85 46 86
REMARK SMILES IDX 47 87 48 88 49 89
REMARK H PARENT 9 7 14 26 70 45 40 56
REMARK Flexibility Score: inf
ROOT
ATOM      1  C   UNL A   1      32.833  28.374  25.441  1.00  0.00     0.023 C 
ENDROOT
BRANCH   1   2
ATOM      2  C   UNL A   1      32.770  28.911  24.005  1.00  0.00     0.023 C 
BRANCH   2   3
ATOM      3  C   UNL A   1      33.975  28.584  23.118  1.00  0.00     0.116 C 
BRANCH   3   4
ATOM      4  N   UNL A   1      33.611  27.811  21.940  1.00  0.00    -0.349 N 
ATOM      5  C   UNL A   1      33.287  26.468  21.799  1.00  0.00     0.290 C 
ATOM      6  O   UNL A   1      33.134  26.051  20.648  1.00  0.00    -0.266 OA
ATOM      7  H   UNL A   1      33.589  28.326  21.102  1.00  0.00     0.163 HD
BRANCH   5   8
ATOM      8  C   UNL A   1      33.173  25.580  22.981  1.00  0.00     0.239 A 
ATOM      9  C   UNL A   1      32.297  24.428  24.567  1.00  0.00     0.136 A 
ATOM     10  N   UNL A   1      31.973  25.274  23.601  1.00  0.00    -0.207 NA
ATOM     11  N   UNL A   1      33.635  24.107  24.402  1.00  0.00    -0.214 N 
ATOM     12  N   UNL A   1      34.222  25.026  23.610  1.00  0.00    -0.140 NA
BRANCH   9  13
ATOM     13  C   UNL A   1      31.477  24.180  25.817  1.00  0.00     0.051 C 
ATOM     14  C   UNL A   1      30.406  25.264  25.998  1.00  0.00     0.016 C 
ATOM     15  C   UNL A   1      30.802  22.818  25.933  1.00  0.00     0.016 C 
ENDBRANCH   9  13
BRANCH  11  16
ATOM     16  C   UNL A   1      34.393  22.988  24.785  1.00  0.00     0.102 A 
ATOM     17  C   UNL A   1      35.616  23.176  25.440  1.00  0.00     0.031 A 
ATOM     18  C   UNL A   1      34.011  21.710  24.386  1.00  0.00     0.148 A 
ATOM     19  C   UNL A   1      36.392  22.067  25.783  1.00  0.00     0.002 A 
ATOM     20  C   UNL A   1      34.787  20.604  24.722  1.00  0.00     0.041 A 
ATOM     21  F   UNL A   1      32.940  21.520  23.604  1.00  0.00    -0.205 F 
ATOM     22  C   UNL A   1      35.971  20.781  25.436  1.00  0.00     0.003 A 
ENDBRANCH  11  16
ENDBRANCH   5   8
ENDBRANCH   3   4
ENDBRANCH   2   3
ENDBRANCH   1   2
BRANCH   1  23
ATOM     23  C   UNL A   1      33.935  28.982  26.306  1.00  0.00     0.116 C 
BRANCH  23  24
ATOM     24  N   UNL A   1      33.750  30.409  26.549  1.00  0.00    -0.352 N 
ATOM     25  C   UNL A   1      34.367  31.198  27.503  1.00  0.00     0.251 C 
ATOM     26  H   UNL A   1      33.106  30.867  25.962  1.00  0.00     0.163 HD
ATOM     27  O   UNL A   1      33.867  32.257  27.850  1.00  0.00    -0.269 OA
BRANCH  25  28
ATOM     28  C   UNL A   1      35.639  30.742  28.102  1.00  0.00     0.039 A 
ATOM     29  C   UNL A   1      35.995  29.390  28.069  1.00  0.00     0.014 A 
ATOM     30  C   UNL A   1      36.482  31.682  28.692  1.00  0.00     0.014 A 
ATOM     31  C   UNL A   1      37.249  29.004  28.542  1.00  0.00     0.010 A 
ATOM     32  C   UNL A   1      37.755  31.316  29.076  1.00  0.00     0.010 A 
ATOM     33  C   UNL A   1      38.142  29.976  29.018  1.00  0.00    -0.014 A 
BRANCH  33  34
ATOM     34  C   UNL A   1      39.550  29.631  29.249  1.00  0.00     0.031 A 
ATOM     35  C   UNL A   1      39.901  29.455  30.691  1.00  0.00     0.074 A 
ATOM     36  C   UNL A   1      40.387  29.226  28.268  1.00  0.00     0.049 A 
ATOM     37  N   UNL A   1      40.755  30.121  31.396  1.00  0.00    -0.248 NA
ATOM     38  C   UNL A   1      39.096  28.503  31.482  1.00  0.00     0.031 C 
ATOM     39  C   UNL A   1      40.058  29.047  26.848  1.00  0.00     0.029 A 
ATOM     40  N   UNL A   1      41.661  28.737  28.341  1.00  0.00    -0.354 N 
ATOM     41  C   UNL A   1      40.770  29.511  32.650  1.00  0.00     0.074 A 
ATOM     42  C   UNL A   1      39.594  28.681  32.705  1.00  0.00     0.031 C 
ATOM     43  C   UNL A   1      40.986  28.261  26.264  1.00  0.00     0.029 A 
ATOM     44  C   UNL A   1      42.053  28.010  27.216  1.00  0.00     0.049 A 
ATOM     45  H   UNL A   1      42.249  28.885  29.117  1.00  0.00     0.167 HD
ATOM     46  C   UNL A   1      41.892  29.494  33.424  1.00  0.00     0.031 A 
ATOM     47  C   UNL A   1      43.146  27.215  27.081  1.00  0.00     0.031 A 
ATOM     48  C   UNL A   1      42.857  30.464  32.973  1.00  0.00     0.049 A 
ATOM     49  C   UNL A   1      44.099  27.590  28.148  1.00  0.00     0.074 A 
ATOM     50  C   UNL A   1      42.866  31.831  32.785  1.00  0.00     0.029 A 
ATOM     51  N   UNL A   1      43.930  29.969  32.270  1.00  0.00    -0.354 N 
ATOM     52  N   UNL A   1      44.714  28.737  28.197  1.00  0.00    -0.248 NA
ATOM     53  C   UNL A   1      44.075  26.842  29.394  1.00  0.00     0.031 C 
ATOM     54  C   UNL A   1      43.674  32.041  31.630  1.00  0.00     0.029 A 
ATOM     55  C   UNL A   1      44.179  30.806  31.218  1.00  0.00     0.049 A 
ATOM     56  H   UNL A   1      44.433  29.153  32.488  1.00  0.00     0.167 HD
ATOM     57  C   UNL A   1      44.751  29.057  29.545  1.00  0.00     0.074 A 
ATOM     58  C   UNL A   1      44.465  27.801  30.236  1.00  0.00     0.031 C 
ATOM     59  C   UNL A   1      44.724  30.360  29.953  1.00  0.00     0.031 A 
BRANCH  46  60
ATOM     60  C   UNL A   1      42.309  28.299  34.263  1.00  0.00    -0.014 A 
ATOM     61  C   UNL A   1      42.507  28.481  35.650  1.00  0.00     0.010 A 
ATOM     62  C   UNL A   1      42.805  27.101  33.709  1.00  0.00     0.010 A 
ATOM     63  C   UNL A   1      43.249  27.565  36.411  1.00  0.00     0.020 A 
ATOM     64  C   UNL A   1      43.502  26.158  34.468  1.00  0.00     0.020 A 
ATOM     65  C   UNL A   1      43.753  26.415  35.807  1.00  0.00     0.054 A 
BRANCH  65  66
ATOM     66  S   UNL A   1      44.793  25.288  36.765  1.00  0.00     0.124 S 
ATOM     67  O   UNL A   1      44.331  23.986  36.299  1.00  0.00    -0.237 OA
ATOM     68  O   UNL A   1      46.137  25.676  36.343  1.00  0.00    -0.237 OA
ATOM     69  O   UNL A   1      44.463  25.615  38.150  1.00  0.00    -0.744 OA
ENDBRANCH  65  66
ENDBRANCH  46  60
BRANCH  47  70
ATOM     70  C   UNL A   1      43.327  25.988  26.260  1.00  0.00    -0.014 A 
ATOM     71  C   UNL A   1      44.497  25.796  25.498  1.00  0.00     0.010 A 
ATOM     72  C   UNL A   1      42.485  24.874  26.450  1.00  0.00     0.010 A 
ATOM     73  C   UNL A   1      44.848  24.524  25.011  1.00  0.00     0.020 A 
ATOM     74  C   UNL A   1      42.822  23.606  25.958  1.00  0.00     0.020 A 
ATOM     75  C   UNL A   1      44.018  23.431  25.266  1.00  0.00     0.054 A 
BRANCH  75  76
ATOM     76  S   UNL A   1      44.572  21.759  24.809  1.00  0.00     0.124 S 
ATOM     77  O   UNL A   1      44.639  21.840  23.353  1.00  0.00    -0.237 OA
ATOM     78  O   UNL A   1      45.855  21.650  25.497  1.00  0.00    -0.237 OA
ATOM     79  O   UNL A   1      43.517  20.893  25.333  1.00  0.00    -0.744 OA
ENDBRANCH  75  76
ENDBRANCH  47  70
BRANCH  59  80
ATOM     80  C   UNL A   1      45.098  31.435  28.961  1.00  0.00    -0.014 A 
ATOM     81  C   UNL A   1      46.381  32.004  28.836  1.00  0.00     0.010 A 
ATOM     82  C   UNL A   1      44.105  31.814  28.040  1.00  0.00     0.010 A 
ATOM     83  C   UNL A   1      46.642  32.962  27.844  1.00  0.00     0.020 A 
ATOM     84  C   UNL A   1      44.365  32.747  27.037  1.00  0.00     0.020 A 
ATOM     85  C   UNL A   1      45.628  33.331  26.954  1.00  0.00     0.054 A 
BRANCH  85  86
ATOM     86  S   UNL A   1      45.965  34.569  25.672  1.00  0.00     0.124 S 
ATOM     87  O   UNL A   1      45.594  35.818  26.332  1.00  0.00    -0.237 OA
ATOM     88  O   UNL A   1      47.392  34.392  25.417  1.00  0.00    -0.237 OA
ATOM     89  O   UNL A   1      45.093  34.173  24.567  1.00  0.00    -0.744 OA
ENDBRANCH  85  86
ENDBRANCH  59  80
ENDBRANCH  33  34
ENDBRANCH  25  28
ENDBRANCH  23  24
ENDBRANCH   1  23
TORSDOF 16
ENDMDL
