MODEL 1
REMARK VINA RESULT:     -13.3      0.000      0.000
REMARK SMILES Cc1cccc(-c2ccc(Cl)c(C(=O)NCCCCNC(=O)c3ccc(-c4c5nc(c(-c6ccc(S(=O)(=O)[O-])cc6)c6ccc([nH]6)c(-c6ccc(S(=O)(=O)[O-])cc6)c6nc(c(-c7ccc(S(=O)(=O)[O-])cc7)c7ccc4[nH]7)C=C6)C=C5)cc3)c2)c1
REMARK SMILES IDX 18 1 17 2 16 3 15 4 13 5 14 6 12 8 7 9 8 10 83 11 9 12 10 13
REMARK SMILES IDX 11 14 6 15 1 16 2 17 3 18 84 19 4 20 5 21 19 22 20 23 21 24
REMARK SMILES IDX 22 26 23 27 24 28 82 29 25 30 81 31 26 32 27 33 28 34 75 35
REMARK SMILES IDX 29 36 80 37 74 38 76 39 30 40 79 41 73 42 72 43 31 45 61 46
REMARK SMILES IDX 42 47 60 48 43 49 46 50 59 51 77 52 44 53 45 54 58 56 78 57
REMARK SMILES IDX 47 58 32 59 33 60 41 61 34 62 40 63 35 64 36 65 37 66 38 67
REMARK SMILES IDX 39 68 62 69 63 70 71 71 64 72 70 73 65 74 66 75 67 76 68 77
REMARK SMILES IDX 69 78 48 79 49 80 57 81 50 82 56 83 51 84 52 85 53 86 54 87
REMARK SMILES IDX 55 88
REMARK H PARENT 15 7 20 25 76 44 46 55
REMARK Flexibility Score: inf
ROOT
ATOM      1  C   UNL A   1      33.235  29.525  26.089  1.00  0.00     0.023 C 
ENDROOT
BRANCH   1   2
ATOM      2  C   UNL A   1      33.579  29.137  24.656  1.00  0.00     0.023 C 
BRANCH   2   3
ATOM      3  C   UNL A   1      32.403  28.962  23.693  1.00  0.00     0.116 C 
BRANCH   3   4
ATOM      4  N   UNL A   1      32.640  28.035  22.592  1.00  0.00    -0.352 N 
ATOM      5  C   UNL A   1      32.822  26.670  22.576  1.00  0.00     0.252 C 
ATOM      6  O   UNL A   1      32.982  26.109  21.492  1.00  0.00    -0.269 OA
ATOM      7  H   UNL A   1      32.676  28.460  21.704  1.00  0.00     0.163 HD
BRANCH   5   8
ATOM      8  C   UNL A   1      32.946  25.860  23.815  1.00  0.00     0.059 A 
ATOM      9  C   UNL A   1      34.433  24.452  25.179  1.00  0.00    -0.017 A 
ATOM     10  C   UNL A   1      33.421  24.394  26.149  1.00  0.00     0.010 A 
ATOM     11  C   UNL A   1      34.202  25.249  24.044  1.00  0.00     0.024 A 
ATOM     12  C   UNL A   1      32.159  24.929  25.900  1.00  0.00     0.022 A 
ATOM     13  C   UNL A   1      31.896  25.581  24.695  1.00  0.00     0.053 A 
ATOM     14  Cl  UNL A   1      30.230  25.833  24.314  1.00  0.00    -0.083 Cl
BRANCH   9  15
ATOM     15  C   UNL A   1      35.617  23.581  25.315  1.00  0.00    -0.018 A 
ATOM     16  C   UNL A   1      36.359  19.851  24.851  1.00  0.00     0.044 C 
ATOM     17  C   UNL A   1      36.554  21.309  25.142  1.00  0.00    -0.051 A 
ATOM     18  C   UNL A   1      37.800  21.802  25.529  1.00  0.00     0.003 A 
ATOM     19  C   UNL A   1      35.481  22.203  25.038  1.00  0.00     0.012 A 
ATOM     20  C   UNL A   1      37.965  23.165  25.793  1.00  0.00     0.001 A 
ATOM     21  C   UNL A   1      36.883  24.049  25.683  1.00  0.00     0.009 A 
ENDBRANCH   9  15
ENDBRANCH   5   8
ENDBRANCH   3   4
ENDBRANCH   2   3
ENDBRANCH   1   2
BRANCH   1  22
ATOM     22  C   UNL A   1      34.389  29.473  27.086  1.00  0.00     0.116 C 
BRANCH  22  23
ATOM     23  N   UNL A   1      35.140  30.712  27.199  1.00  0.00    -0.352 N 
ATOM     24  C   UNL A   1      36.338  30.911  27.875  1.00  0.00     0.251 C 
ATOM     25  H   UNL A   1      34.757  31.499  26.748  1.00  0.00     0.163 HD
ATOM     26  O   UNL A   1      36.676  32.003  28.291  1.00  0.00    -0.269 OA
BRANCH  24  27
ATOM     27  C   UNL A   1      37.277  29.765  27.923  1.00  0.00     0.039 A 
ATOM     28  C   UNL A   1      37.264  28.968  29.076  1.00  0.00     0.014 A 
ATOM     29  C   UNL A   1      38.300  29.646  26.992  1.00  0.00     0.014 A 
ATOM     30  C   UNL A   1      38.378  28.192  29.388  1.00  0.00     0.010 A 
ATOM     31  C   UNL A   1      39.446  28.972  27.358  1.00  0.00     0.010 A 
ATOM     32  C   UNL A   1      39.504  28.280  28.576  1.00  0.00    -0.014 A 
BRANCH  32  33
ATOM     33  C   UNL A   1      40.817  27.739  28.909  1.00  0.00     0.031 A 
ATOM     34  C   UNL A   1      41.135  26.329  28.587  1.00  0.00     0.074 A 
ATOM     35  C   UNL A   1      41.802  28.574  29.310  1.00  0.00     0.049 A 
ATOM     36  N   UNL A   1      42.157  25.680  29.036  1.00  0.00    -0.248 NA
ATOM     37  C   UNL A   1      40.273  25.510  27.739  1.00  0.00     0.031 C 
ATOM     38  C   UNL A   1      43.239  28.305  29.286  1.00  0.00     0.029 A 
ATOM     39  N   UNL A   1      41.707  29.775  30.015  1.00  0.00    -0.354 N 
ATOM     40  C   UNL A   1      42.284  24.538  28.277  1.00  0.00     0.074 A 
ATOM     41  C   UNL A   1      41.029  24.422  27.573  1.00  0.00     0.031 C 
ATOM     42  C   UNL A   1      43.839  29.109  30.176  1.00  0.00     0.029 A 
ATOM     43  C   UNL A   1      42.785  29.775  30.919  1.00  0.00     0.049 A 
ATOM     44  H   UNL A   1      41.026  30.477  29.903  1.00  0.00     0.167 HD
ATOM     45  C   UNL A   1      43.492  23.904  28.211  1.00  0.00     0.031 A 
ATOM     46  C   UNL A   1      42.624  29.711  32.276  1.00  0.00     0.031 A 
ATOM     47  C   UNL A   1      44.460  24.470  29.157  1.00  0.00     0.049 A 
ATOM     48  C   UNL A   1      43.263  28.486  32.916  1.00  0.00     0.074 A 
ATOM     49  C   UNL A   1      45.606  25.240  29.042  1.00  0.00     0.029 A 
ATOM     50  N   UNL A   1      44.139  24.474  30.506  1.00  0.00    -0.354 N 
ATOM     51  N   UNL A   1      43.916  27.563  32.262  1.00  0.00    -0.248 NA
ATOM     52  C   UNL A   1      43.129  28.156  34.337  1.00  0.00     0.031 C 
ATOM     53  C   UNL A   1      45.953  25.723  30.340  1.00  0.00     0.029 A 
ATOM     54  C   UNL A   1      45.027  25.232  31.243  1.00  0.00     0.049 A 
ATOM     55  H   UNL A   1      43.370  23.993  30.892  1.00  0.00     0.167 HD
ATOM     56  C   UNL A   1      44.218  26.526  33.102  1.00  0.00     0.074 A 
ATOM     57  C   UNL A   1      43.724  26.952  34.399  1.00  0.00     0.031 C 
ATOM     58  C   UNL A   1      44.803  25.371  32.673  1.00  0.00     0.031 A 
BRANCH  45  59
ATOM     59  C   UNL A   1      43.870  22.921  27.116  1.00  0.00    -0.014 A 
ATOM     60  C   UNL A   1      42.948  21.931  26.711  1.00  0.00     0.010 A 
ATOM     61  C   UNL A   1      45.129  22.867  26.488  1.00  0.00     0.010 A 
ATOM     62  C   UNL A   1      43.295  20.899  25.822  1.00  0.00     0.020 A 
ATOM     63  C   UNL A   1      45.504  21.828  25.622  1.00  0.00     0.020 A 
ATOM     64  C   UNL A   1      44.586  20.837  25.304  1.00  0.00     0.054 A 
BRANCH  64  65
ATOM     65  S   UNL A   1      45.056  19.459  24.226  1.00  0.00     0.124 S 
ATOM     66  O   UNL A   1      46.514  19.520  24.254  1.00  0.00    -0.237 OA
ATOM     67  O   UNL A   1      44.458  18.312  24.903  1.00  0.00    -0.237 OA
ATOM     68  O   UNL A   1      44.450  19.803  22.940  1.00  0.00    -0.744 OA
ENDBRANCH  64  65
ENDBRANCH  45  59
BRANCH  46  69
ATOM     69  C   UNL A   1      41.385  30.383  32.764  1.00  0.00    -0.014 A 
ATOM     70  C   UNL A   1      40.297  29.552  33.107  1.00  0.00     0.010 A 
ATOM     71  C   UNL A   1      41.447  31.681  33.301  1.00  0.00     0.010 A 
ATOM     72  C   UNL A   1      39.412  29.926  34.119  1.00  0.00     0.020 A 
ATOM     73  C   UNL A   1      40.549  32.063  34.308  1.00  0.00     0.020 A 
ATOM     74  C   UNL A   1      39.596  31.148  34.765  1.00  0.00     0.054 A 
BRANCH  74  75
ATOM     75  S   UNL A   1      38.729  31.421  36.341  1.00  0.00     0.124 S 
ATOM     76  O   UNL A   1      37.688  32.374  35.967  1.00  0.00    -0.237 OA
ATOM     77  O   UNL A   1      38.262  30.073  36.663  1.00  0.00    -0.237 OA
ATOM     78  O   UNL A   1      39.776  31.943  37.213  1.00  0.00    -0.744 OA
ENDBRANCH  74  75
ENDBRANCH  46  69
BRANCH  58  79
ATOM     79  C   UNL A   1      45.175  24.236  33.589  1.00  0.00    -0.014 A 
ATOM     80  C   UNL A   1      46.449  24.133  34.171  1.00  0.00     0.010 A 
ATOM     81  C   UNL A   1      44.281  23.162  33.786  1.00  0.00     0.010 A 
ATOM     82  C   UNL A   1      46.792  23.031  34.969  1.00  0.00     0.020 A 
ATOM     83  C   UNL A   1      44.620  22.050  34.563  1.00  0.00     0.020 A 
ATOM     84  C   UNL A   1      45.869  22.001  35.167  1.00  0.00     0.054 A 
BRANCH  84  85
ATOM     85  S   UNL A   1      46.340  20.570  36.173  1.00  0.00     0.124 S 
ATOM     86  O   UNL A   1      47.800  20.642  36.175  1.00  0.00    -0.237 OA
ATOM     87  O   UNL A   1      45.697  20.873  37.449  1.00  0.00    -0.237 OA
ATOM     88  O   UNL A   1      45.779  19.433  35.446  1.00  0.00    -0.744 OA
ENDBRANCH  84  85
ENDBRANCH  58  79
ENDBRANCH  32  33
ENDBRANCH  24  27
ENDBRANCH  22  23
ENDBRANCH   1  22
TORSDOF 15
ENDMDL
MODEL 2
REMARK VINA RESULT:     -13.1      2.067      4.388
REMARK SMILES Cc1cccc(-c2ccc(Cl)c(C(=O)NCCCCNC(=O)c3ccc(-c4c5nc(c(-c6ccc(S(=O)(=O)[O-])cc6)c6ccc([nH]6)c(-c6ccc(S(=O)(=O)[O-])cc6)c6nc(c(-c7ccc(S(=O)(=O)[O-])cc7)c7ccc4[nH]7)C=C6)C=C5)cc3)c2)c1
REMARK SMILES IDX 18 1 17 2 16 3 15 4 13 5 14 6 12 8 7 9 8 10 83 11 9 12 10 13
REMARK SMILES IDX 11 14 6 15 1 16 2 17 3 18 84 19 4 20 5 21 19 22 20 23 21 24
REMARK SMILES IDX 22 26 23 27 24 28 82 29 25 30 81 31 26 32 27 33 28 34 75 35
REMARK SMILES IDX 29 36 80 37 74 38 76 39 30 40 79 41 73 42 72 43 31 45 61 46
REMARK SMILES IDX 42 47 60 48 43 49 46 50 59 51 77 52 44 53 45 54 58 56 78 57
REMARK SMILES IDX 47 58 32 59 33 60 41 61 34 62 40 63 35 64 36 65 37 66 38 67
REMARK SMILES IDX 39 68 62 69 63 70 71 71 64 72 70 73 65 74 66 75 67 76 68 77
REMARK SMILES IDX 69 78 48 79 49 80 57 81 50 82 56 83 51 84 52 85 53 86 54 87
REMARK SMILES IDX 55 88
REMARK H PARENT 15 7 20 25 76 44 46 55
REMARK Flexibility Score: inf
ROOT
ATOM      1  C   UNL A   1      33.296  29.808  26.147  1.00  0.00     0.023 C 
ENDROOT
BRANCH   1   2
ATOM      2  C   UNL A   1      32.112  28.871  26.350  1.00  0.00     0.023 C 
BRANCH   2   3
ATOM      3  C   UNL A   1      32.408  27.371  26.290  1.00  0.00     0.116 C 
BRANCH   3   4
ATOM      4  N   UNL A   1      32.821  26.876  24.980  1.00  0.00    -0.352 N 
ATOM      5  C   UNL A   1      32.150  26.815  23.780  1.00  0.00     0.252 C 
ATOM      6  O   UNL A   1      32.741  26.368  22.796  1.00  0.00    -0.269 OA
ATOM      7  H   UNL A   1      33.740  26.525  24.951  1.00  0.00     0.163 HD
BRANCH   5   8
ATOM      8  C   UNL A   1      30.711  27.159  23.643  1.00  0.00     0.059 A 
ATOM      9  C   UNL A   1      29.087  28.768  22.733  1.00  0.00    -0.017 A 
ATOM     10  C   UNL A   1      28.061  27.916  23.171  1.00  0.00     0.010 A 
ATOM     11  C   UNL A   1      30.412  28.339  22.920  1.00  0.00     0.024 A 
ATOM     12  C   UNL A   1      28.343  26.793  23.946  1.00  0.00     0.022 A 
ATOM     13  C   UNL A   1      29.664  26.468  24.258  1.00  0.00     0.053 A 
ATOM     14  Cl  UNL A   1      29.884  25.332  25.541  1.00  0.00    -0.083 Cl
BRANCH   9  15
ATOM     15  C   UNL A   1      28.746  30.116  22.237  1.00  0.00    -0.018 A 
ATOM     16  C   UNL A   1      29.284  33.712  23.445  1.00  0.00     0.044 C 
ATOM     17  C   UNL A   1      28.857  32.550  22.597  1.00  0.00    -0.051 A 
ATOM     18  C   UNL A   1      28.165  32.750  21.403  1.00  0.00     0.003 A 
ATOM     19  C   UNL A   1      29.140  31.238  22.997  1.00  0.00     0.012 A 
ATOM     20  C   UNL A   1      27.778  31.656  20.624  1.00  0.00     0.001 A 
ATOM     21  C   UNL A   1      28.070  30.348  21.035  1.00  0.00     0.009 A 
ENDBRANCH   9  15
ENDBRANCH   5   8
ENDBRANCH   3   4
ENDBRANCH   2   3
ENDBRANCH   1   2
BRANCH   1  22
ATOM     22  C   UNL A   1      34.387  29.739  27.210  1.00  0.00     0.116 C 
BRANCH  22  23
ATOM     23  N   UNL A   1      35.192  30.944  27.323  1.00  0.00    -0.352 N 
ATOM     24  C   UNL A   1      36.390  31.094  28.010  1.00  0.00     0.251 C 
ATOM     25  H   UNL A   1      34.850  31.743  26.861  1.00  0.00     0.163 HD
ATOM     26  O   UNL A   1      36.773  32.173  28.422  1.00  0.00    -0.269 OA
BRANCH  24  27
ATOM     27  C   UNL A   1      37.275  29.908  28.078  1.00  0.00     0.039 A 
ATOM     28  C   UNL A   1      37.280  29.173  29.272  1.00  0.00     0.014 A 
ATOM     29  C   UNL A   1      38.247  29.690  27.110  1.00  0.00     0.014 A 
ATOM     30  C   UNL A   1      38.370  28.360  29.576  1.00  0.00     0.010 A 
ATOM     31  C   UNL A   1      39.375  28.980  27.459  1.00  0.00     0.010 A 
ATOM     32  C   UNL A   1      39.459  28.350  28.710  1.00  0.00    -0.014 A 
BRANCH  32  33
ATOM     33  C   UNL A   1      40.760  27.763  29.012  1.00  0.00     0.031 A 
ATOM     34  C   UNL A   1      41.025  26.346  28.671  1.00  0.00     0.074 A 
ATOM     35  C   UNL A   1      41.780  28.561  29.400  1.00  0.00     0.049 A 
ATOM     36  N   UNL A   1      42.034  25.660  29.095  1.00  0.00    -0.248 NA
ATOM     37  C   UNL A   1      40.120  25.564  27.834  1.00  0.00     0.031 C 
ATOM     38  C   UNL A   1      43.206  28.245  29.345  1.00  0.00     0.029 A 
ATOM     39  N   UNL A   1      41.738  29.759  30.117  1.00  0.00    -0.354 N 
ATOM     40  C   UNL A   1      42.108  24.521  28.324  1.00  0.00     0.074 A 
ATOM     41  C   UNL A   1      40.836  24.453  27.643  1.00  0.00     0.031 C 
ATOM     42  C   UNL A   1      43.850  29.021  30.230  1.00  0.00     0.029 A 
ATOM     43  C   UNL A   1      42.834  29.715  31.000  1.00  0.00     0.049 A 
ATOM     44  H   UNL A   1      41.079  30.484  30.025  1.00  0.00     0.167 HD
ATOM     45  C   UNL A   1      43.292  23.849  28.228  1.00  0.00     0.031 A 
ATOM     46  C   UNL A   1      42.698  29.644  32.359  1.00  0.00     0.031 A 
ATOM     47  C   UNL A   1      44.297  24.373  29.159  1.00  0.00     0.049 A 
ATOM     48  C   UNL A   1      43.308  28.392  32.975  1.00  0.00     0.074 A 
ATOM     49  C   UNL A   1      45.465  25.107  29.028  1.00  0.00     0.029 A 
ATOM     50  N   UNL A   1      44.003  24.375  30.514  1.00  0.00    -0.354 N 
ATOM     51  N   UNL A   1      43.916  27.454  32.301  1.00  0.00    -0.248 NA
ATOM     52  C   UNL A   1      43.190  28.054  34.396  1.00  0.00     0.031 C 
ATOM     53  C   UNL A   1      45.853  25.565  30.323  1.00  0.00     0.029 A 
ATOM     54  C   UNL A   1      44.929  25.097  31.240  1.00  0.00     0.049 A 
ATOM     55  H   UNL A   1      43.226  23.917  30.912  1.00  0.00     0.167 HD
ATOM     56  C   UNL A   1      44.201  26.400  33.126  1.00  0.00     0.074 A 
ATOM     57  C   UNL A   1      43.747  26.830  34.436  1.00  0.00     0.031 C 
ATOM     58  C   UNL A   1      44.739  25.230  32.675  1.00  0.00     0.031 A 
BRANCH  45  59
ATOM     59  C   UNL A   1      43.616  22.864  27.117  1.00  0.00    -0.014 A 
ATOM     60  C   UNL A   1      42.911  21.643  27.033  1.00  0.00     0.010 A 
ATOM     61  C   UNL A   1      44.639  23.038  26.165  1.00  0.00     0.010 A 
ATOM     62  C   UNL A   1      43.272  20.628  26.130  1.00  0.00     0.020 A 
ATOM     63  C   UNL A   1      45.033  22.025  25.277  1.00  0.00     0.020 A 
ATOM     64  C   UNL A   1      44.355  20.814  25.275  1.00  0.00     0.054 A 
BRANCH  64  65
ATOM     65  S   UNL A   1      44.871  19.472  24.173  1.00  0.00     0.124 S 
ATOM     66  O   UNL A   1      44.098  18.339  24.673  1.00  0.00    -0.237 OA
ATOM     67  O   UNL A   1      44.477  19.975  22.860  1.00  0.00    -0.237 OA
ATOM     68  O   UNL A   1      46.313  19.379  24.392  1.00  0.00    -0.744 OA
ENDBRANCH  64  65
ENDBRANCH  45  59
BRANCH  46  69
ATOM     69  C   UNL A   1      41.491  30.351  32.877  1.00  0.00    -0.014 A 
ATOM     70  C   UNL A   1      41.654  31.700  33.261  1.00  0.00     0.010 A 
ATOM     71  C   UNL A   1      40.204  29.883  32.561  1.00  0.00     0.010 A 
ATOM     72  C   UNL A   1      40.600  32.606  33.126  1.00  0.00     0.020 A 
ATOM     73  C   UNL A   1      39.141  30.789  32.439  1.00  0.00     0.020 A 
ATOM     74  C   UNL A   1      39.374  32.154  32.640  1.00  0.00     0.054 A 
BRANCH  74  75
ATOM     75  S   UNL A   1      38.173  33.393  32.064  1.00  0.00     0.124 S 
ATOM     76  O   UNL A   1      36.898  32.710  32.256  1.00  0.00    -0.237 OA
ATOM     77  O   UNL A   1      38.434  34.508  32.975  1.00  0.00    -0.237 OA
ATOM     78  O   UNL A   1      38.565  33.618  30.676  1.00  0.00    -0.744 OA
ENDBRANCH  74  75
ENDBRANCH  46  69
BRANCH  58  79
ATOM     79  C   UNL A   1      45.091  24.076  33.574  1.00  0.00    -0.014 A 
ATOM     80  C   UNL A   1      46.398  23.861  34.037  1.00  0.00     0.010 A 
ATOM     81  C   UNL A   1      44.125  23.090  33.874  1.00  0.00     0.010 A 
ATOM     82  C   UNL A   1      46.714  22.741  34.820  1.00  0.00     0.020 A 
ATOM     83  C   UNL A   1      44.433  21.960  34.637  1.00  0.00     0.020 A 
ATOM     84  C   UNL A   1      45.724  21.802  35.123  1.00  0.00     0.054 A 
BRANCH  84  85
ATOM     85  S   UNL A   1      46.156  20.344  36.107  1.00  0.00     0.124 S 
ATOM     86  O   UNL A   1      45.391  19.279  35.462  1.00  0.00    -0.237 OA
ATOM     87  O   UNL A   1      47.603  20.275  35.924  1.00  0.00    -0.237 OA
ATOM     88  O   UNL A   1      45.714  20.691  37.456  1.00  0.00    -0.744 OA
ENDBRANCH  84  85
ENDBRANCH  58  79
ENDBRANCH  32  33
ENDBRANCH  24  27
ENDBRANCH  22  23
ENDBRANCH   1  22
TORSDOF 15
ENDMDL
MODEL 3
REMARK VINA RESULT:     -13.1      1.566      2.110
REMARK SMILES Cc1cccc(-c2ccc(Cl)c(C(=O)NCCCCNC(=O)c3ccc(-c4c5nc(c(-c6ccc(S(=O)(=O)[O-])cc6)c6ccc([nH]6)c(-c6ccc(S(=O)(=O)[O-])cc6)c6nc(c(-c7ccc(S(=O)(=O)[O-])cc7)c7ccc4[nH]7)C=C6)C=C5)cc3)c2)c1
REMARK SMILES IDX 18 1 17 2 16 3 15 4 13 5 14 6 12 8 7 9 8 10 83 11 9 12 10 13
REMARK SMILES IDX 11 14 6 15 1 16 2 17 3 18 84 19 4 20 5 21 19 22 20 23 21 24
REMARK SMILES IDX 22 26 23 27 24 28 82 29 25 30 81 31 26 32 27 33 28 34 75 35
REMARK SMILES IDX 29 36 80 37 74 38 76 39 30 40 79 41 73 42 72 43 31 45 61 46
REMARK SMILES IDX 42 47 60 48 43 49 46 50 59 51 77 52 44 53 45 54 58 56 78 57
REMARK SMILES IDX 47 58 32 59 33 60 41 61 34 62 40 63 35 64 36 65 37 66 38 67
REMARK SMILES IDX 39 68 62 69 63 70 71 71 64 72 70 73 65 74 66 75 67 76 68 77
REMARK SMILES IDX 69 78 48 79 49 80 57 81 50 82 56 83 51 84 52 85 53 86 54 87
REMARK SMILES IDX 55 88
REMARK H PARENT 15 7 20 25 76 44 46 55
REMARK Flexibility Score: inf
ROOT
ATOM      1  C   UNL A   1      34.075  28.695  26.319  1.00  0.00     0.023 C 
ENDROOT
BRANCH   1   2
ATOM      2  C   UNL A   1      33.248  27.421  26.446  1.00  0.00     0.023 C 
BRANCH   2   3
ATOM      3  C   UNL A   1      31.820  27.474  25.899  1.00  0.00     0.116 C 
BRANCH   3   4
ATOM      4  N   UNL A   1      30.893  26.523  26.502  1.00  0.00    -0.352 N 
ATOM      5  C   UNL A   1      30.682  25.183  26.264  1.00  0.00     0.252 C 
ATOM      6  O   UNL A   1      29.842  24.589  26.939  1.00  0.00    -0.269 OA
ATOM      7  H   UNL A   1      30.317  26.906  27.202  1.00  0.00     0.163 HD
BRANCH   5   8
ATOM      8  C   UNL A   1      31.343  24.450  25.154  1.00  0.00     0.059 A 
ATOM      9  C   UNL A   1      33.196  22.957  24.526  1.00  0.00    -0.017 A 
ATOM     10  C   UNL A   1      32.658  22.901  23.231  1.00  0.00     0.010 A 
ATOM     11  C   UNL A   1      32.485  23.685  25.495  1.00  0.00     0.024 A 
ATOM     12  C   UNL A   1      31.581  23.706  22.868  1.00  0.00     0.022 A 
ATOM     13  C   UNL A   1      30.983  24.548  23.807  1.00  0.00     0.053 A 
ATOM     14  Cl  UNL A   1      29.956  25.785  23.174  1.00  0.00    -0.083 Cl
BRANCH   9  15
ATOM     15  C   UNL A   1      34.532  22.382  24.781  1.00  0.00    -0.018 A 
ATOM     16  C   UNL A   1      37.981  23.750  25.736  1.00  0.00     0.044 C 
ATOM     17  C   UNL A   1      36.885  22.788  25.385  1.00  0.00    -0.051 A 
ATOM     18  C   UNL A   1      37.135  21.418  25.299  1.00  0.00     0.003 A 
ATOM     19  C   UNL A   1      35.589  23.251  25.127  1.00  0.00     0.012 A 
ATOM     20  C   UNL A   1      36.101  20.535  24.975  1.00  0.00     0.001 A 
ATOM     21  C   UNL A   1      34.808  21.012  24.721  1.00  0.00     0.009 A 
ENDBRANCH   9  15
ENDBRANCH   5   8
ENDBRANCH   3   4
ENDBRANCH   2   3
ENDBRANCH   1   2
BRANCH   1  22
ATOM     22  C   UNL A   1      34.349  29.440  27.622  1.00  0.00     0.116 C 
BRANCH  22  23
ATOM     23  N   UNL A   1      35.137  30.651  27.465  1.00  0.00    -0.352 N 
ATOM     24  C   UNL A   1      36.412  30.896  27.959  1.00  0.00     0.251 C 
ATOM     25  H   UNL A   1      34.719  31.381  26.953  1.00  0.00     0.163 HD
ATOM     26  O   UNL A   1      36.824  32.021  28.170  1.00  0.00    -0.269 OA
BRANCH  24  27
ATOM     27  C   UNL A   1      37.324  29.732  28.061  1.00  0.00     0.039 A 
ATOM     28  C   UNL A   1      37.315  29.008  29.261  1.00  0.00     0.014 A 
ATOM     29  C   UNL A   1      38.325  29.529  27.121  1.00  0.00     0.014 A 
ATOM     30  C   UNL A   1      38.415  28.224  29.601  1.00  0.00     0.010 A 
ATOM     31  C   UNL A   1      39.461  28.849  27.506  1.00  0.00     0.010 A 
ATOM     32  C   UNL A   1      39.527  28.233  28.764  1.00  0.00    -0.014 A 
BRANCH  32  33
ATOM     33  C   UNL A   1      40.833  27.681  29.107  1.00  0.00     0.031 A 
ATOM     34  C   UNL A   1      41.156  26.280  28.748  1.00  0.00     0.074 A 
ATOM     35  C   UNL A   1      41.811  28.502  29.551  1.00  0.00     0.049 A 
ATOM     36  N   UNL A   1      42.169  25.617  29.197  1.00  0.00    -0.248 NA
ATOM     37  C   UNL A   1      40.310  25.489  27.860  1.00  0.00     0.031 C 
ATOM     38  C   UNL A   1      43.247  28.232  29.547  1.00  0.00     0.029 A 
ATOM     39  N   UNL A   1      41.703  29.682  30.290  1.00  0.00    -0.354 N 
ATOM     40  C   UNL A   1      42.310  24.498  28.407  1.00  0.00     0.074 A 
ATOM     41  C   UNL A   1      41.068  24.405  27.675  1.00  0.00     0.031 C 
ATOM     42  C   UNL A   1      43.831  29.008  30.472  1.00  0.00     0.029 A 
ATOM     43  C   UNL A   1      42.763  29.653  31.215  1.00  0.00     0.049 A 
ATOM     44  H   UNL A   1      41.025  30.388  30.186  1.00  0.00     0.167 HD
ATOM     45  C   UNL A   1      43.518  23.865  28.345  1.00  0.00     0.031 A 
ATOM     46  C   UNL A   1      42.576  29.548  32.566  1.00  0.00     0.031 A 
ATOM     47  C   UNL A   1      44.468  24.401  29.326  1.00  0.00     0.049 A 
ATOM     48  C   UNL A   1      43.202  28.303  33.180  1.00  0.00     0.074 A 
ATOM     49  C   UNL A   1      45.616  25.173  29.256  1.00  0.00     0.029 A 
ATOM     50  N   UNL A   1      44.121  24.364  30.668  1.00  0.00    -0.354 N 
ATOM     51  N   UNL A   1      43.866  27.400  32.512  1.00  0.00    -0.248 NA
ATOM     52  C   UNL A   1      43.040  27.931  34.588  1.00  0.00     0.031 C 
ATOM     53  C   UNL A   1      45.938  25.615  30.575  1.00  0.00     0.029 A 
ATOM     54  C   UNL A   1      44.995  25.099  31.444  1.00  0.00     0.049 A 
ATOM     55  H   UNL A   1      43.345  23.874  31.024  1.00  0.00     0.167 HD
ATOM     56  C   UNL A   1      44.152  26.337  33.326  1.00  0.00     0.074 A 
ATOM     57  C   UNL A   1      43.633  26.725  34.625  1.00  0.00     0.031 C 
ATOM     58  C   UNL A   1      44.744  25.195  32.873  1.00  0.00     0.031 A 
BRANCH  45  59
ATOM     59  C   UNL A   1      43.916  22.915  27.228  1.00  0.00    -0.014 A 
ATOM     60  C   UNL A   1      42.988  21.965  26.749  1.00  0.00     0.010 A 
ATOM     61  C   UNL A   1      45.199  22.852  26.649  1.00  0.00     0.010 A 
ATOM     62  C   UNL A   1      43.346  20.959  25.834  1.00  0.00     0.020 A 
ATOM     63  C   UNL A   1      45.583  21.838  25.759  1.00  0.00     0.020 A 
ATOM     64  C   UNL A   1      44.655  20.883  25.366  1.00  0.00     0.054 A 
BRANCH  64  65
ATOM     65  S   UNL A   1      45.135  19.536  24.254  1.00  0.00     0.124 S 
ATOM     66  O   UNL A   1      44.515  19.933  22.993  1.00  0.00    -0.237 OA
ATOM     67  O   UNL A   1      46.593  19.602  24.291  1.00  0.00    -0.237 OA
ATOM     68  O   UNL A   1      44.554  18.348  24.878  1.00  0.00    -0.744 OA
ENDBRANCH  64  65
ENDBRANCH  45  59
BRANCH  46  69
ATOM     69  C   UNL A   1      41.329  30.207  33.050  1.00  0.00    -0.014 A 
ATOM     70  C   UNL A   1      41.352  31.613  33.175  1.00  0.00     0.010 A 
ATOM     71  C   UNL A   1      40.089  29.554  32.929  1.00  0.00     0.010 A 
ATOM     72  C   UNL A   1      40.191  32.360  32.971  1.00  0.00     0.020 A 
ATOM     73  C   UNL A   1      38.920  30.304  32.738  1.00  0.00     0.020 A 
ATOM     74  C   UNL A   1      39.000  31.698  32.675  1.00  0.00     0.054 A 
BRANCH  74  75
ATOM     75  S   UNL A   1      37.626  32.676  31.992  1.00  0.00     0.124 S 
ATOM     76  O   UNL A   1      38.242  33.324  30.840  1.00  0.00    -0.237 OA
ATOM     77  O   UNL A   1      36.645  31.636  31.681  1.00  0.00    -0.237 OA
ATOM     78  O   UNL A   1      37.266  33.561  33.095  1.00  0.00    -0.744 OA
ENDBRANCH  74  75
ENDBRANCH  46  69
BRANCH  58  79
ATOM     79  C   UNL A   1      45.097  24.033  33.762  1.00  0.00    -0.014 A 
ATOM     80  C   UNL A   1      46.326  23.955  34.436  1.00  0.00     0.010 A 
ATOM     81  C   UNL A   1      44.241  22.913  33.839  1.00  0.00     0.010 A 
ATOM     82  C   UNL A   1      46.658  22.830  35.206  1.00  0.00     0.020 A 
ATOM     83  C   UNL A   1      44.571  21.779  34.587  1.00  0.00     0.020 A 
ATOM     84  C   UNL A   1      45.772  21.753  35.284  1.00  0.00     0.054 A 
BRANCH  84  85
ATOM     85  S   UNL A   1      46.231  20.295  36.255  1.00  0.00     0.124 S 
ATOM     86  O   UNL A   1      45.329  19.266  35.741  1.00  0.00    -0.237 OA
ATOM     87  O   UNL A   1      47.638  20.127  35.901  1.00  0.00    -0.237 OA
ATOM     88  O   UNL A   1      45.979  20.703  37.636  1.00  0.00    -0.744 OA
ENDBRANCH  84  85
ENDBRANCH  58  79
ENDBRANCH  32  33
ENDBRANCH  24  27
ENDBRANCH  22  23
ENDBRANCH   1  22
TORSDOF 15
ENDMDL
