MODEL 1
REMARK VINA RESULT:     -11.7      0.000      0.000
REMARK SMILES Cc1cc(OC(F)(F)F)cc2c1O[C@H](C(F)(F)F)C(C(=O)NCCCCNC(=O)c1ccc(-c3c4nc(c(-c5ccc(S(=O)(=O)[O-])cc5)c5ccc([nH]5)c(-c5ccc(S(=O)(=O)[O-])cc5)c5nc(c(-c6ccc(S(=O)(=O)[O-])cc6)c6ccc3[nH]6)C=C5)C=C4)cc1)=C2
REMARK SMILES IDX 25 1 24 2 23 3 22 4 20 5 21 6 19 8 1 9 2 10 3 11 12 12 4 13
REMARK SMILES IDX 11 14 13 15 10 16 90 17 14 18 5 19 6 20 7 21 8 22 9 23 15 24
REMARK SMILES IDX 16 25 17 26 18 27 26 28 27 29 28 30 29 32 30 33 31 34 89 35
REMARK SMILES IDX 32 36 88 37 33 38 34 39 35 40 82 41 36 42 87 43 81 44 83 45
REMARK SMILES IDX 37 46 86 47 80 48 79 49 38 51 68 52 49 53 67 54 50 55 53 56
REMARK SMILES IDX 66 57 84 58 51 59 52 60 65 62 85 63 54 64 39 65 40 66 48 67
REMARK SMILES IDX 41 68 47 69 42 70 43 71 44 72 45 73 46 74 69 75 70 76 78 77
REMARK SMILES IDX 71 78 77 79 72 80 73 81 74 82 75 83 76 84 55 85 56 86 64 87
REMARK SMILES IDX 57 88 63 89 58 90 59 91 60 92 61 93 62 94
REMARK H PARENT 22 7 27 31 83 50 53 61
REMARK Flexibility Score: inf
ROOT
ATOM      1  C   UNL A   1      34.002  28.271  25.730  1.00  0.00     0.023 C 
ENDROOT
BRANCH   1   2
ATOM      2  C   UNL A   1      32.976  28.630  24.653  1.00  0.00     0.023 C 
BRANCH   2   3
ATOM      3  C   UNL A   1      32.105  27.458  24.210  1.00  0.00     0.116 C 
BRANCH   3   4
ATOM      4  N   UNL A   1      31.188  27.036  25.253  1.00  0.00    -0.352 N 
ATOM      5  C   UNL A   1      30.899  25.885  25.902  1.00  0.00     0.251 C 
ATOM      6  O   UNL A   1      30.007  25.968  26.751  1.00  0.00    -0.270 OA
ATOM      7  H   UNL A   1      30.630  27.783  25.570  1.00  0.00     0.163 HD
BRANCH   5   8
ATOM      8  C   UNL A   1      31.568  24.572  25.667  1.00  0.00     0.067 C 
ATOM      9  C   UNL A   1      32.833  19.650  24.798  1.00  0.00     0.048 C 
ATOM     10  C   UNL A   1      33.551  20.886  25.263  1.00  0.00    -0.005 A 
ATOM     11  C   UNL A   1      34.926  20.817  25.550  1.00  0.00     0.054 A 
ATOM     12  C   UNL A   1      32.878  22.096  25.464  1.00  0.00     0.131 A 
ATOM     13  C   UNL A   1      35.616  21.939  26.017  1.00  0.00     0.130 A 
ATOM     14  C   UNL A   1      33.556  23.224  25.931  1.00  0.00     0.021 A 
ATOM     15  O   UNL A   1      31.529  22.124  25.232  1.00  0.00    -0.475 OA
ATOM     16  C   UNL A   1      34.923  23.140  26.203  1.00  0.00     0.058 A 
ATOM     17  C   UNL A   1      32.818  24.461  26.158  1.00  0.00     0.025 C 
ATOM     18  C   UNL A   1      30.969  23.427  24.904  1.00  0.00     0.314 C 
BRANCH  13  19
ATOM     19  O   UNL A   1      36.945  22.001  26.327  1.00  0.00    -0.406 OA
BRANCH  19  20
ATOM     20  C   UNL A   1      37.821  22.574  25.373  1.00  0.00     0.573 C 
ATOM     21  F   UNL A   1      37.443  22.269  24.114  1.00  0.00    -0.132 F 
ATOM     22  F   UNL A   1      37.883  23.917  25.511  1.00  0.00    -0.132 F 
ATOM     23  F   UNL A   1      39.063  22.077  25.569  1.00  0.00    -0.132 F 
ENDBRANCH  19  20
ENDBRANCH  13  19
BRANCH  18  24
ATOM     24  C   UNL A   1      31.021  23.636  23.378  1.00  0.00     0.429 C 
ATOM     25  F   UNL A   1      32.114  24.364  23.038  1.00  0.00    -0.167 F 
ATOM     26  F   UNL A   1      31.108  22.471  22.695  1.00  0.00    -0.167 F 
ATOM     27  F   UNL A   1      29.939  24.292  22.900  1.00  0.00    -0.167 F 
ENDBRANCH  18  24
ENDBRANCH   5   8
ENDBRANCH   3   4
ENDBRANCH   2   3
ENDBRANCH   1   2
BRANCH   1  28
ATOM     28  C   UNL A   1      33.574  28.572  27.166  1.00  0.00     0.116 C 
BRANCH  28  29
ATOM     29  N   UNL A   1      33.525  29.993  27.478  1.00  0.00    -0.352 N 
ATOM     30  C   UNL A   1      34.538  30.764  27.998  1.00  0.00     0.251 C 
ATOM     31  H   UNL A   1      32.673  30.453  27.297  1.00  0.00     0.163 HD
ATOM     32  O   UNL A   1      34.365  31.946  28.268  1.00  0.00    -0.269 OA
BRANCH  30  33
ATOM     33  C   UNL A   1      35.828  30.106  28.260  1.00  0.00     0.039 A 
ATOM     34  C   UNL A   1      36.802  30.122  27.260  1.00  0.00     0.014 A 
ATOM     35  C   UNL A   1      36.102  29.602  29.534  1.00  0.00     0.014 A 
ATOM     36  C   UNL A   1      38.088  29.682  27.562  1.00  0.00     0.010 A 
ATOM     37  C   UNL A   1      37.397  29.203  29.843  1.00  0.00     0.010 A 
ATOM     38  C   UNL A   1      38.399  29.249  28.861  1.00  0.00    -0.014 A 
BRANCH  38  39
ATOM     39  C   UNL A   1      39.779  28.835  29.202  1.00  0.00     0.031 A 
ATOM     40  C   UNL A   1      40.665  29.771  29.967  1.00  0.00     0.074 A 
ATOM     41  C   UNL A   1      40.234  27.634  28.799  1.00  0.00     0.049 A 
ATOM     42  N   UNL A   1      41.894  29.587  30.370  1.00  0.00    -0.248 NA
ATOM     43  C   UNL A   1      40.104  31.087  30.314  1.00  0.00     0.031 C 
ATOM     44  C   UNL A   1      39.471  26.656  28.020  1.00  0.00     0.029 A 
ATOM     45  N   UNL A   1      41.448  27.028  28.997  1.00  0.00    -0.354 N 
ATOM     46  C   UNL A   1      42.254  30.762  31.016  1.00  0.00     0.074 A 
ATOM     47  C   UNL A   1      41.132  31.668  30.913  1.00  0.00     0.031 C 
ATOM     48  C   UNL A   1      40.225  25.559  27.834  1.00  0.00     0.029 A 
ATOM     49  C   UNL A   1      41.527  25.763  28.464  1.00  0.00     0.049 A 
ATOM     50  H   UNL A   1      42.194  27.458  29.474  1.00  0.00     0.167 HD
ATOM     51  C   UNL A   1      43.407  31.049  31.662  1.00  0.00     0.031 A 
ATOM     52  C   UNL A   1      42.530  24.864  28.491  1.00  0.00     0.031 A 
ATOM     53  C   UNL A   1      44.512  30.142  31.779  1.00  0.00     0.049 A 
ATOM     54  C   UNL A   1      43.807  25.209  29.204  1.00  0.00     0.074 A 
ATOM     55  C   UNL A   1      45.705  30.325  32.454  1.00  0.00     0.029 A 
ATOM     56  N   UNL A   1      44.557  28.879  31.212  1.00  0.00    -0.354 N 
ATOM     57  N   UNL A   1      44.111  26.308  29.851  1.00  0.00    -0.248 NA
ATOM     58  C   UNL A   1      44.872  24.195  29.198  1.00  0.00     0.031 C 
ATOM     59  C   UNL A   1      46.484  29.178  32.274  1.00  0.00     0.029 A 
ATOM     60  C   UNL A   1      45.763  28.274  31.509  1.00  0.00     0.049 A 
ATOM     61  H   UNL A   1      43.838  28.474  30.676  1.00  0.00     0.167 HD
ATOM     62  C   UNL A   1      45.397  26.114  30.341  1.00  0.00     0.074 A 
ATOM     63  C   UNL A   1      45.814  24.793  29.919  1.00  0.00     0.031 C 
ATOM     64  C   UNL A   1      46.158  26.956  31.079  1.00  0.00     0.031 A 
BRANCH  51  65
ATOM     65  C   UNL A   1      43.514  32.401  32.303  1.00  0.00    -0.014 A 
ATOM     66  C   UNL A   1      43.107  32.592  33.636  1.00  0.00     0.010 A 
ATOM     67  C   UNL A   1      44.039  33.486  31.579  1.00  0.00     0.010 A 
ATOM     68  C   UNL A   1      43.192  33.854  34.224  1.00  0.00     0.020 A 
ATOM     69  C   UNL A   1      44.141  34.748  32.171  1.00  0.00     0.020 A 
ATOM     70  C   UNL A   1      43.705  34.926  33.487  1.00  0.00     0.054 A 
BRANCH  70  71
ATOM     71  S   UNL A   1      43.797  36.552  34.281  1.00  0.00     0.124 S 
ATOM     72  O   UNL A   1      44.721  37.266  33.402  1.00  0.00    -0.237 OA
ATOM     73  O   UNL A   1      42.411  37.006  34.235  1.00  0.00    -0.237 OA
ATOM     74  O   UNL A   1      44.314  36.260  35.616  1.00  0.00    -0.744 OA
ENDBRANCH  70  71
ENDBRANCH  51  65
BRANCH  52  75
ATOM     75  C   UNL A   1      42.338  23.536  27.857  1.00  0.00    -0.014 A 
ATOM     76  C   UNL A   1      42.746  23.325  26.529  1.00  0.00     0.010 A 
ATOM     77  C   UNL A   1      41.804  22.463  28.593  1.00  0.00     0.010 A 
ATOM     78  C   UNL A   1      42.632  22.059  25.949  1.00  0.00     0.020 A 
ATOM     79  C   UNL A   1      41.700  21.193  28.018  1.00  0.00     0.020 A 
ATOM     80  C   UNL A   1      42.119  20.998  26.700  1.00  0.00     0.054 A 
BRANCH  80  81
ATOM     81  S   UNL A   1      42.051  19.351  25.940  1.00  0.00     0.124 S 
ATOM     82  O   UNL A   1      40.625  19.195  25.672  1.00  0.00    -0.237 OA
ATOM     83  O   UNL A   1      42.902  19.520  24.764  1.00  0.00    -0.237 OA
ATOM     84  O   UNL A   1      42.593  18.473  26.974  1.00  0.00    -0.744 OA
ENDBRANCH  80  81
ENDBRANCH  52  75
BRANCH  64  85
ATOM     85  C   UNL A   1      47.524  26.495  31.493  1.00  0.00    -0.014 A 
ATOM     86  C   UNL A   1      47.708  25.835  32.719  1.00  0.00     0.010 A 
ATOM     87  C   UNL A   1      48.594  26.582  30.583  1.00  0.00     0.010 A 
ATOM     88  C   UNL A   1      48.938  25.247  33.021  1.00  0.00     0.020 A 
ATOM     89  C   UNL A   1      49.822  25.985  30.878  1.00  0.00     0.020 A 
ATOM     90  C   UNL A   1      49.982  25.313  32.092  1.00  0.00     0.054 A 
BRANCH  90  91
ATOM     91  S   UNL A   1      51.530  24.444  32.467  1.00  0.00     0.124 S 
ATOM     92  O   UNL A   1      52.497  25.173  31.651  1.00  0.00    -0.237 OA
ATOM     93  O   UNL A   1      51.655  24.635  33.911  1.00  0.00    -0.237 OA
ATOM     94  O   UNL A   1      51.270  23.071  32.044  1.00  0.00    -0.744 OA
ENDBRANCH  90  91
ENDBRANCH  64  85
ENDBRANCH  38  39
ENDBRANCH  30  33
ENDBRANCH  28  29
ENDBRANCH   1  28
TORSDOF 17
ENDMDL
MODEL 2
REMARK VINA RESULT:     -11.3      2.923      9.242
REMARK SMILES Cc1cc(OC(F)(F)F)cc2c1O[C@H](C(F)(F)F)C(C(=O)NCCCCNC(=O)c1ccc(-c3c4nc(c(-c5ccc(S(=O)(=O)[O-])cc5)c5ccc([nH]5)c(-c5ccc(S(=O)(=O)[O-])cc5)c5nc(c(-c6ccc(S(=O)(=O)[O-])cc6)c6ccc3[nH]6)C=C5)C=C4)cc1)=C2
REMARK SMILES IDX 25 1 24 2 23 3 22 4 20 5 21 6 19 8 1 9 2 10 3 11 12 12 4 13
REMARK SMILES IDX 11 14 13 15 10 16 90 17 14 18 5 19 6 20 7 21 8 22 9 23 15 24
REMARK SMILES IDX 16 25 17 26 18 27 26 28 27 29 28 30 29 32 30 33 31 34 89 35
REMARK SMILES IDX 32 36 88 37 33 38 34 39 35 40 82 41 36 42 87 43 81 44 83 45
REMARK SMILES IDX 37 46 86 47 80 48 79 49 38 51 68 52 49 53 67 54 50 55 53 56
REMARK SMILES IDX 66 57 84 58 51 59 52 60 65 62 85 63 54 64 39 65 40 66 48 67
REMARK SMILES IDX 41 68 47 69 42 70 43 71 44 72 45 73 46 74 69 75 70 76 78 77
REMARK SMILES IDX 71 78 77 79 72 80 73 81 74 82 75 83 76 84 55 85 56 86 64 87
REMARK SMILES IDX 57 88 63 89 58 90 59 91 60 92 61 93 62 94
REMARK H PARENT 22 7 27 31 83 50 53 61
REMARK Flexibility Score: inf
ROOT
ATOM      1  C   UNL A   1      35.568  23.315  26.101  1.00  0.00     0.023 C 
ENDROOT
BRANCH   1   2
ATOM      2  C   UNL A   1      35.142  21.849  26.212  1.00  0.00     0.023 C 
BRANCH   2   3
ATOM      3  C   UNL A   1      33.973  21.472  25.306  1.00  0.00     0.116 C 
BRANCH   3   4
ATOM      4  N   UNL A   1      32.694  21.825  25.893  1.00  0.00    -0.352 N 
ATOM      5  C   UNL A   1      31.922  22.933  25.979  1.00  0.00     0.251 C 
ATOM      6  O   UNL A   1      30.866  22.794  26.601  1.00  0.00    -0.270 OA
ATOM      7  H   UNL A   1      32.279  21.057  26.349  1.00  0.00     0.163 HD
BRANCH   5   8
ATOM      8  C   UNL A   1      32.256  24.262  25.386  1.00  0.00     0.067 C 
ATOM      9  C   UNL A   1      33.797  28.238  22.488  1.00  0.00     0.048 C 
ATOM     10  C   UNL A   1      33.382  28.038  23.919  1.00  0.00    -0.005 A 
ATOM     11  C   UNL A   1      33.347  29.144  24.786  1.00  0.00     0.054 A 
ATOM     12  C   UNL A   1      33.074  26.771  24.425  1.00  0.00     0.131 A 
ATOM     13  C   UNL A   1      32.998  28.988  26.130  1.00  0.00     0.130 A 
ATOM     14  C   UNL A   1      32.725  26.601  25.767  1.00  0.00     0.021 A 
ATOM     15  O   UNL A   1      33.170  25.702  23.576  1.00  0.00    -0.475 OA
ATOM     16  C   UNL A   1      32.687  27.712  26.613  1.00  0.00     0.058 A 
ATOM     17  C   UNL A   1      32.440  25.262  26.269  1.00  0.00     0.025 C 
ATOM     18  C   UNL A   1      32.351  24.546  23.915  1.00  0.00     0.314 C 
BRANCH  13  19
ATOM     19  O   UNL A   1      32.924  29.978  27.068  1.00  0.00    -0.406 OA
BRANCH  19  20
ATOM     20  C   UNL A   1      34.127  30.391  27.691  1.00  0.00     0.573 C 
ATOM     21  F   UNL A   1      34.960  30.981  26.806  1.00  0.00    -0.132 F 
ATOM     22  F   UNL A   1      33.883  31.241  28.712  1.00  0.00    -0.132 F 
ATOM     23  F   UNL A   1      34.754  29.304  28.193  1.00  0.00    -0.132 F 
ENDBRANCH  19  20
ENDBRANCH  13  19
BRANCH  18  24
ATOM     24  C   UNL A   1      30.971  24.684  23.244  1.00  0.00     0.429 C 
ATOM     25  F   UNL A   1      30.096  25.291  24.085  1.00  0.00    -0.167 F 
ATOM     26  F   UNL A   1      31.010  25.438  22.121  1.00  0.00    -0.167 F 
ATOM     27  F   UNL A   1      30.433  23.492  22.900  1.00  0.00    -0.167 F 
ENDBRANCH  18  24
ENDBRANCH   5   8
ENDBRANCH   3   4
ENDBRANCH   2   3
ENDBRANCH   1   2
BRANCH   1  28
ATOM     28  C   UNL A   1      36.856  23.563  25.317  1.00  0.00     0.116 C 
BRANCH  28  29
ATOM     29  N   UNL A   1      37.903  22.587  25.586  1.00  0.00    -0.352 N 
ATOM     30  C   UNL A   1      39.080  22.798  26.266  1.00  0.00     0.251 C 
ATOM     31  H   UNL A   1      37.752  21.677  25.243  1.00  0.00     0.163 HD
ATOM     32  O   UNL A   1      39.913  21.908  26.388  1.00  0.00    -0.269 OA
BRANCH  30  33
ATOM     33  C   UNL A   1      39.322  24.145  26.806  1.00  0.00     0.039 A 
ATOM     34  C   UNL A   1      38.929  24.421  28.117  1.00  0.00     0.014 A 
ATOM     35  C   UNL A   1      40.051  25.071  26.055  1.00  0.00     0.014 A 
ATOM     36  C   UNL A   1      39.328  25.619  28.705  1.00  0.00     0.010 A 
ATOM     37  C   UNL A   1      40.482  26.247  26.659  1.00  0.00     0.010 A 
ATOM     38  C   UNL A   1      40.131  26.523  27.989  1.00  0.00    -0.014 A 
BRANCH  38  39
ATOM     39  C   UNL A   1      40.604  27.771  28.628  1.00  0.00     0.031 A 
ATOM     40  C   UNL A   1      42.028  27.873  29.086  1.00  0.00     0.074 A 
ATOM     41  C   UNL A   1      39.747  28.791  28.818  1.00  0.00     0.049 A 
ATOM     42  N   UNL A   1      42.634  28.882  29.653  1.00  0.00    -0.248 NA
ATOM     43  C   UNL A   1      42.878  26.687  28.892  1.00  0.00     0.031 C 
ATOM     44  C   UNL A   1      38.331  28.789  28.444  1.00  0.00     0.029 A 
ATOM     45  N   UNL A   1      39.945  30.032  29.368  1.00  0.00    -0.354 N 
ATOM     46  C   UNL A   1      43.933  28.454  29.886  1.00  0.00     0.074 A 
ATOM     47  C   UNL A   1      44.018  27.080  29.440  1.00  0.00     0.031 C 
ATOM     48  C   UNL A   1      37.796  29.985  28.746  1.00  0.00     0.029 A 
ATOM     49  C   UNL A   1      38.825  30.829  29.349  1.00  0.00     0.049 A 
ATOM     50  H   UNL A   1      40.808  30.325  29.741  1.00  0.00     0.167 HD
ATOM     51  C   UNL A   1      44.972  29.152  30.400  1.00  0.00     0.031 A 
ATOM     52  C   UNL A   1      38.649  32.100  29.759  1.00  0.00     0.031 A 
ATOM     53  C   UNL A   1      44.892  30.520  30.824  1.00  0.00     0.049 A 
ATOM     54  C   UNL A   1      39.814  32.853  30.337  1.00  0.00     0.074 A 
ATOM     55  C   UNL A   1      45.901  31.327  31.314  1.00  0.00     0.029 A 
ATOM     56  N   UNL A   1      43.736  31.283  30.803  1.00  0.00    -0.354 N 
ATOM     57  N   UNL A   1      41.048  32.446  30.505  1.00  0.00    -0.248 NA
ATOM     58  C   UNL A   1      39.566  34.234  30.775  1.00  0.00     0.031 C 
ATOM     59  C   UNL A   1      45.350  32.577  31.613  1.00  0.00     0.029 A 
ATOM     60  C   UNL A   1      44.002  32.551  31.284  1.00  0.00     0.049 A 
ATOM     61  H   UNL A   1      42.856  30.970  30.492  1.00  0.00     0.167 HD
ATOM     62  C   UNL A   1      41.730  33.525  31.055  1.00  0.00     0.074 A 
ATOM     63  C   UNL A   1      40.773  34.603  31.191  1.00  0.00     0.031 C 
ATOM     64  C   UNL A   1      43.034  33.611  31.410  1.00  0.00     0.031 A 
BRANCH  51  65
ATOM     65  C   UNL A   1      46.287  28.439  30.511  1.00  0.00    -0.014 A 
ATOM     66  C   UNL A   1      46.620  27.737  31.684  1.00  0.00     0.010 A 
ATOM     67  C   UNL A   1      47.190  28.453  29.434  1.00  0.00     0.010 A 
ATOM     68  C   UNL A   1      47.851  27.089  31.791  1.00  0.00     0.020 A 
ATOM     69  C   UNL A   1      48.417  27.790  29.531  1.00  0.00     0.020 A 
ATOM     70  C   UNL A   1      48.744  27.122  30.714  1.00  0.00     0.054 A 
BRANCH  70  71
ATOM     71  S   UNL A   1      50.335  26.273  30.889  1.00  0.00     0.124 S 
ATOM     72  O   UNL A   1      50.193  25.167  29.944  1.00  0.00    -0.237 OA
ATOM     73  O   UNL A   1      51.291  27.307  30.505  1.00  0.00    -0.237 OA
ATOM     74  O   UNL A   1      50.370  25.883  32.297  1.00  0.00    -0.744 OA
ENDBRANCH  70  71
ENDBRANCH  51  65
BRANCH  52  75
ATOM     75  C   UNL A   1      37.324  32.746  29.589  1.00  0.00    -0.014 A 
ATOM     76  C   UNL A   1      36.441  32.837  30.679  1.00  0.00     0.010 A 
ATOM     77  C   UNL A   1      36.963  33.324  28.360  1.00  0.00     0.010 A 
ATOM     78  C   UNL A   1      35.221  33.504  30.545  1.00  0.00     0.020 A 
ATOM     79  C   UNL A   1      35.747  34.003  28.226  1.00  0.00     0.020 A 
ATOM     80  C   UNL A   1      34.885  34.092  29.322  1.00  0.00     0.054 A 
BRANCH  80  81
ATOM     81  S   UNL A   1      33.326  35.013  29.202  1.00  0.00     0.124 S 
ATOM     82  O   UNL A   1      32.841  34.977  30.578  1.00  0.00    -0.237 OA
ATOM     83  O   UNL A   1      33.777  36.318  28.723  1.00  0.00    -0.237 OA
ATOM     84  O   UNL A   1      32.543  34.240  28.242  1.00  0.00    -0.744 OA
ENDBRANCH  80  81
ENDBRANCH  52  75
BRANCH  64  85
ATOM     85  C   UNL A   1      43.527  34.909  31.979  1.00  0.00    -0.014 A 
ATOM     86  C   UNL A   1      43.762  36.007  31.138  1.00  0.00     0.010 A 
ATOM     87  C   UNL A   1      43.603  35.073  33.374  1.00  0.00     0.010 A 
ATOM     88  C   UNL A   1      44.045  37.261  31.684  1.00  0.00     0.020 A 
ATOM     89  C   UNL A   1      43.874  36.328  33.924  1.00  0.00     0.020 A 
ATOM     90  C   UNL A   1      44.083  37.416  33.074  1.00  0.00     0.054 A 
BRANCH  90  91
ATOM     91  S   UNL A   1      44.342  39.079  33.752  1.00  0.00     0.124 S 
ATOM     92  O   UNL A   1      43.614  39.012  35.017  1.00  0.00    -0.237 OA
ATOM     93  O   UNL A   1      45.797  39.149  33.867  1.00  0.00    -0.237 OA
ATOM     94  O   UNL A   1      43.757  39.960  32.745  1.00  0.00    -0.744 OA
ENDBRANCH  90  91
ENDBRANCH  64  85
ENDBRANCH  38  39
ENDBRANCH  30  33
ENDBRANCH  28  29
ENDBRANCH   1  28
TORSDOF 17
ENDMDL
MODEL 3
REMARK VINA RESULT:     -11.1      2.903      9.500
REMARK SMILES Cc1cc(OC(F)(F)F)cc2c1O[C@H](C(F)(F)F)C(C(=O)NCCCCNC(=O)c1ccc(-c3c4nc(c(-c5ccc(S(=O)(=O)[O-])cc5)c5ccc([nH]5)c(-c5ccc(S(=O)(=O)[O-])cc5)c5nc(c(-c6ccc(S(=O)(=O)[O-])cc6)c6ccc3[nH]6)C=C5)C=C4)cc1)=C2
REMARK SMILES IDX 25 1 24 2 23 3 22 4 20 5 21 6 19 8 1 9 2 10 3 11 12 12 4 13
REMARK SMILES IDX 11 14 13 15 10 16 90 17 14 18 5 19 6 20 7 21 8 22 9 23 15 24
REMARK SMILES IDX 16 25 17 26 18 27 26 28 27 29 28 30 29 32 30 33 31 34 89 35
REMARK SMILES IDX 32 36 88 37 33 38 34 39 35 40 82 41 36 42 87 43 81 44 83 45
REMARK SMILES IDX 37 46 86 47 80 48 79 49 38 51 68 52 49 53 67 54 50 55 53 56
REMARK SMILES IDX 66 57 84 58 51 59 52 60 65 62 85 63 54 64 39 65 40 66 48 67
REMARK SMILES IDX 41 68 47 69 42 70 43 71 44 72 45 73 46 74 69 75 70 76 78 77
REMARK SMILES IDX 71 78 77 79 72 80 73 81 74 82 75 83 76 84 55 85 56 86 64 87
REMARK SMILES IDX 57 88 63 89 58 90 59 91 60 92 61 93 62 94
REMARK H PARENT 22 7 27 31 83 50 53 61
REMARK Flexibility Score: inf
ROOT
ATOM      1  C   UNL A   1      35.747  23.509  26.114  1.00  0.00     0.023 C 
ENDROOT
BRANCH   1   2
ATOM      2  C   UNL A   1      35.196  22.104  26.370  1.00  0.00     0.023 C 
BRANCH   2   3
ATOM      3  C   UNL A   1      33.825  21.852  25.751  1.00  0.00     0.116 C 
BRANCH   3   4
ATOM      4  N   UNL A   1      32.759  22.467  26.520  1.00  0.00    -0.352 N 
ATOM      5  C   UNL A   1      32.067  23.629  26.488  1.00  0.00     0.251 C 
ATOM      6  O   UNL A   1      31.212  23.759  27.369  1.00  0.00    -0.270 OA
ATOM      7  H   UNL A   1      32.462  21.887  27.258  1.00  0.00     0.163 HD
BRANCH   5   8
ATOM      8  C   UNL A   1      32.263  24.721  25.490  1.00  0.00     0.067 C 
ATOM      9  C   UNL A   1      33.926  27.989  21.864  1.00  0.00     0.048 C 
ATOM     10  C   UNL A   1      32.825  27.976  22.887  1.00  0.00    -0.005 A 
ATOM     11  C   UNL A   1      31.945  29.069  22.965  1.00  0.00     0.054 A 
ATOM     12  C   UNL A   1      32.680  26.925  23.799  1.00  0.00     0.131 A 
ATOM     13  C   UNL A   1      30.931  29.105  23.926  1.00  0.00     0.130 A 
ATOM     14  C   UNL A   1      31.672  26.949  24.766  1.00  0.00     0.021 A 
ATOM     15  O   UNL A   1      33.584  25.898  23.741  1.00  0.00    -0.475 OA
ATOM     16  C   UNL A   1      30.801  28.039  24.822  1.00  0.00     0.058 A 
ATOM     17  C   UNL A   1      31.568  25.851  25.720  1.00  0.00     0.025 C 
ATOM     18  C   UNL A   1      33.126  24.619  24.264  1.00  0.00     0.314 C 
BRANCH  13  19
ATOM     19  O   UNL A   1      30.015  30.104  24.100  1.00  0.00    -0.406 OA
BRANCH  19  20
ATOM     20  C   UNL A   1      29.012  30.262  23.114  1.00  0.00     0.573 C 
ATOM     21  F   UNL A   1      28.715  29.084  22.523  1.00  0.00    -0.132 F 
ATOM     22  F   UNL A   1      27.888  30.795  23.640  1.00  0.00    -0.132 F 
ATOM     23  F   UNL A   1      29.467  31.105  22.160  1.00  0.00    -0.132 F 
ENDBRANCH  19  20
ENDBRANCH  13  19
BRANCH  18  24
ATOM     24  C   UNL A   1      32.458  23.813  23.132  1.00  0.00     0.429 C 
ATOM     25  F   UNL A   1      31.293  23.268  23.565  1.00  0.00    -0.167 F 
ATOM     26  F   UNL A   1      32.150  24.580  22.060  1.00  0.00    -0.167 F 
ATOM     27  F   UNL A   1      33.232  22.800  22.682  1.00  0.00    -0.167 F 
ENDBRANCH  18  24
ENDBRANCH   5   8
ENDBRANCH   3   4
ENDBRANCH   2   3
ENDBRANCH   1   2
BRANCH   1  28
ATOM     28  C   UNL A   1      36.952  23.577  25.177  1.00  0.00     0.116 C 
BRANCH  28  29
ATOM     29  N   UNL A   1      37.993  22.609  25.491  1.00  0.00    -0.352 N 
ATOM     30  C   UNL A   1      39.138  22.827  26.220  1.00  0.00     0.251 C 
ATOM     31  H   UNL A   1      37.864  21.697  25.141  1.00  0.00     0.163 HD
ATOM     32  O   UNL A   1      39.971  21.943  26.378  1.00  0.00    -0.269 OA
BRANCH  30  33
ATOM     33  C   UNL A   1      39.347  24.175  26.771  1.00  0.00     0.039 A 
ATOM     34  C   UNL A   1      38.946  24.432  28.083  1.00  0.00     0.014 A 
ATOM     35  C   UNL A   1      40.054  25.125  26.028  1.00  0.00     0.014 A 
ATOM     36  C   UNL A   1      39.316  25.635  28.681  1.00  0.00     0.010 A 
ATOM     37  C   UNL A   1      40.455  26.306  26.641  1.00  0.00     0.010 A 
ATOM     38  C   UNL A   1      40.097  26.563  27.973  1.00  0.00    -0.014 A 
BRANCH  38  39
ATOM     39  C   UNL A   1      40.539  27.817  28.622  1.00  0.00     0.031 A 
ATOM     40  C   UNL A   1      41.952  27.941  29.106  1.00  0.00     0.074 A 
ATOM     41  C   UNL A   1      39.664  28.824  28.797  1.00  0.00     0.049 A 
ATOM     42  N   UNL A   1      42.532  28.959  29.686  1.00  0.00    -0.248 NA
ATOM     43  C   UNL A   1      42.823  26.768  28.927  1.00  0.00     0.031 C 
ATOM     44  C   UNL A   1      38.255  28.802  28.396  1.00  0.00     0.029 A 
ATOM     45  N   UNL A   1      39.832  30.067  29.351  1.00  0.00    -0.354 N 
ATOM     46  C   UNL A   1      43.834  28.549  29.942  1.00  0.00     0.074 A 
ATOM     47  C   UNL A   1      43.947  27.178  29.497  1.00  0.00     0.031 C 
ATOM     48  C   UNL A   1      37.696  29.989  28.689  1.00  0.00     0.029 A 
ATOM     49  C   UNL A   1      38.700  30.847  29.312  1.00  0.00     0.049 A 
ATOM     50  H   UNL A   1      40.683  30.373  29.741  1.00  0.00     0.167 HD
ATOM     51  C   UNL A   1      44.852  29.262  30.476  1.00  0.00     0.031 A 
ATOM     52  C   UNL A   1      38.498  32.115  29.720  1.00  0.00     0.031 A 
ATOM     53  C   UNL A   1      44.743  30.629  30.900  1.00  0.00     0.049 A 
ATOM     54  C   UNL A   1      39.640  32.885  30.321  1.00  0.00     0.074 A 
ATOM     55  C   UNL A   1      45.731  31.450  31.409  1.00  0.00     0.029 A 
ATOM     56  N   UNL A   1      43.576  31.374  30.858  1.00  0.00    -0.354 N 
ATOM     57  N   UNL A   1      40.877  32.497  30.511  1.00  0.00    -0.248 NA
ATOM     58  C   UNL A   1      39.363  34.262  30.756  1.00  0.00     0.031 C 
ATOM     59  C   UNL A   1      45.155  32.691  31.700  1.00  0.00     0.029 A 
ATOM     60  C   UNL A   1      43.814  32.646  31.345  1.00  0.00     0.049 A 
ATOM     61  H   UNL A   1      42.707  31.048  30.531  1.00  0.00     0.167 HD
ATOM     62  C   UNL A   1      41.532  33.585  31.075  1.00  0.00     0.074 A 
ATOM     63  C   UNL A   1      40.556  34.648  31.194  1.00  0.00     0.031 C 
ATOM     64  C   UNL A   1      42.827  33.690  31.454  1.00  0.00     0.031 A 
BRANCH  51  65
ATOM     65  C   UNL A   1      46.175  28.569  30.611  1.00  0.00    -0.014 A 
ATOM     66  C   UNL A   1      47.120  28.629  29.571  1.00  0.00     0.010 A 
ATOM     67  C   UNL A   1      46.487  27.869  31.789  1.00  0.00     0.010 A 
ATOM     68  C   UNL A   1      48.344  27.970  29.692  1.00  0.00     0.020 A 
ATOM     69  C   UNL A   1      47.720  27.222  31.921  1.00  0.00     0.020 A 
ATOM     70  C   UNL A   1      48.635  27.267  30.866  1.00  0.00     0.054 A 
BRANCH  70  71
ATOM     71  S   UNL A   1      50.232  26.419  30.989  1.00  0.00     0.124 S 
ATOM     72  O   UNL A   1      50.650  26.358  29.590  1.00  0.00    -0.237 OA
ATOM     73  O   UNL A   1      51.005  27.321  31.837  1.00  0.00    -0.237 OA
ATOM     74  O   UNL A   1      49.897  25.130  31.592  1.00  0.00    -0.744 OA
ENDBRANCH  70  71
ENDBRANCH  51  65
BRANCH  52  75
ATOM     75  C   UNL A   1      37.166  32.741  29.527  1.00  0.00    -0.014 A 
ATOM     76  C   UNL A   1      36.335  32.983  30.633  1.00  0.00     0.010 A 
ATOM     77  C   UNL A   1      36.749  33.151  28.248  1.00  0.00     0.010 A 
ATOM     78  C   UNL A   1      35.111  33.635  30.468  1.00  0.00     0.020 A 
ATOM     79  C   UNL A   1      35.528  33.814  28.081  1.00  0.00     0.020 A 
ATOM     80  C   UNL A   1      34.719  34.055  29.193  1.00  0.00     0.054 A 
BRANCH  80  81
ATOM     81  S   UNL A   1      33.156  34.962  29.022  1.00  0.00     0.124 S 
ATOM     82  O   UNL A   1      33.613  36.291  28.629  1.00  0.00    -0.237 OA
ATOM     83  O   UNL A   1      32.469  34.195  27.985  1.00  0.00    -0.237 OA
ATOM     84  O   UNL A   1      32.559  34.873  30.353  1.00  0.00    -0.744 OA
ENDBRANCH  80  81
ENDBRANCH  52  75
BRANCH  64  85
ATOM     85  C   UNL A   1      43.290  34.995  32.034  1.00  0.00    -0.014 A 
ATOM     86  C   UNL A   1      43.838  35.984  31.203  1.00  0.00     0.010 A 
ATOM     87  C   UNL A   1      43.030  35.287  33.385  1.00  0.00     0.010 A 
ATOM     88  C   UNL A   1      44.099  37.260  31.709  1.00  0.00     0.020 A 
ATOM     89  C   UNL A   1      43.279  36.565  33.892  1.00  0.00     0.020 A 
ATOM     90  C   UNL A   1      43.803  37.545  33.046  1.00  0.00     0.054 A 
BRANCH  90  91
ATOM     91  S   UNL A   1      44.050  39.241  33.643  1.00  0.00     0.124 S 
ATOM     92  O   UNL A   1      42.690  39.773  33.627  1.00  0.00    -0.237 OA
ATOM     93  O   UNL A   1      44.625  39.028  34.969  1.00  0.00    -0.237 OA
ATOM     94  O   UNL A   1      44.958  39.827  32.660  1.00  0.00    -0.744 OA
ENDBRANCH  90  91
ENDBRANCH  64  85
ENDBRANCH  38  39
ENDBRANCH  30  33
ENDBRANCH  28  29
ENDBRANCH   1  28
TORSDOF 17
ENDMDL
