MODEL 1
REMARK VINA RESULT:      -9.5      0.000      0.000
REMARK SMILES CC(=O)/C=C(/C)NCC(=O)NCCCCNC(=O)c1ccc(-c2c3nc(c(-c4ccc(S(=O)(=O)[O-])cc4)c4ccc([nH]4)c(-c4ccc(S(=O)(=O)[O-])cc4)c4nc(c(-c5ccc(S(=O)(=O)[O-])cc5)c5ccc2[nH]5)C=C4)C=C3)cc1
REMARK SMILES IDX 13 1 12 2 11 3 9 4 10 5 8 7 7 8 5 10 4 11 6 12 2 13 1 14
REMARK SMILES IDX 3 15 14 16 15 17 16 18 17 19 18 21 19 22 20 23 78 24 21 25
REMARK SMILES IDX 77 26 22 27 23 28 24 29 71 30 25 31 76 32 70 33 72 34 26 35
REMARK SMILES IDX 75 36 69 37 68 38 27 40 57 41 38 42 56 43 39 44 42 45 55 46
REMARK SMILES IDX 73 47 40 48 41 49 54 51 74 52 43 53 28 54 29 55 37 56 30 57
REMARK SMILES IDX 36 58 31 59 32 60 33 61 34 62 35 63 58 64 59 65 67 66 60 67
REMARK SMILES IDX 66 68 61 69 62 70 63 71 64 72 65 73 44 74 45 75 53 76 46 77
REMARK SMILES IDX 52 78 47 79 48 80 49 81 50 82 51 83
REMARK H PARENT 11 6 7 9 16 20 72 39 42 50
REMARK Flexibility Score: inf
ROOT
ATOM      1  C   UNL A   1      33.377  29.221  24.799  1.00  0.00     0.023 C 
ENDROOT
BRANCH   1   2
ATOM      2  C   UNL A   1      33.206  28.781  23.346  1.00  0.00     0.116 C 
BRANCH   2   3
ATOM      3  N   UNL A   1      31.870  29.039  22.849  1.00  0.00    -0.355 N 
ATOM      4  C   UNL A   1      30.940  28.188  22.332  1.00  0.00     0.239 C 
ATOM      5  O   UNL A   1      29.857  28.680  21.993  1.00  0.00    -0.273 OA
ATOM      6  H   UNL A   1      31.589  29.982  22.893  1.00  0.00     0.163 HD
BRANCH   4   7
ATOM      7  C   UNL A   1      31.149  26.669  22.234  1.00  0.00     0.213 C 
BRANCH   7   8
ATOM      8  N   UNL A   1      31.281  25.979  23.503  1.00  0.00    -0.380 N 
ATOM      9  H   UNL A   1      30.554  26.187  24.133  1.00  0.00     0.160 HD
BRANCH   8  10
ATOM     10  C   UNL A   1      32.208  25.093  24.017  1.00  0.00     0.011 C 
ATOM     11  C   UNL A   1      32.211  24.256  25.076  1.00  0.00     0.067 C 
ATOM     12  C   UNL A   1      33.529  25.165  23.246  1.00  0.00     0.064 C 
BRANCH  11  13
ATOM     13  C   UNL A   1      31.329  23.845  26.209  1.00  0.00     0.154 C 
ATOM     14  C   UNL A   1      30.528  22.582  26.213  1.00  0.00     0.093 C 
ATOM     15  O   UNL A   1      31.294  24.592  27.192  1.00  0.00    -0.295 OA
ENDBRANCH  11  13
ENDBRANCH   8  10
ENDBRANCH   7   8
ENDBRANCH   4   7
ENDBRANCH   2   3
ENDBRANCH   1   2
BRANCH   1  16
ATOM     16  C   UNL A   1      33.313  28.075  25.810  1.00  0.00     0.023 C 
BRANCH  16  17
ATOM     17  C   UNL A   1      33.403  28.496  27.273  1.00  0.00     0.116 C 
BRANCH  17  18
ATOM     18  N   UNL A   1      33.401  29.939  27.454  1.00  0.00    -0.352 N 
ATOM     19  C   UNL A   1      34.404  30.741  27.955  1.00  0.00     0.251 C 
ATOM     20  H   UNL A   1      32.577  30.403  27.183  1.00  0.00     0.163 HD
ATOM     21  O   UNL A   1      34.202  31.926  28.163  1.00  0.00    -0.269 OA
BRANCH  19  22
ATOM     22  C   UNL A   1      35.717  30.136  28.273  1.00  0.00     0.039 A 
ATOM     23  C   UNL A   1      36.699  30.095  27.280  1.00  0.00     0.014 A 
ATOM     24  C   UNL A   1      35.987  29.647  29.553  1.00  0.00     0.014 A 
ATOM     25  C   UNL A   1      37.977  29.628  27.594  1.00  0.00     0.010 A 
ATOM     26  C   UNL A   1      37.279  29.246  29.882  1.00  0.00     0.010 A 
ATOM     27  C   UNL A   1      38.287  29.235  28.906  1.00  0.00    -0.014 A 
BRANCH  27  28
ATOM     28  C   UNL A   1      39.664  28.827  29.284  1.00  0.00     0.031 A 
ATOM     29  C   UNL A   1      40.580  29.797  29.977  1.00  0.00     0.074 A 
ATOM     30  C   UNL A   1      40.120  27.610  28.926  1.00  0.00     0.049 A 
ATOM     31  N   UNL A   1      41.830  29.641  30.331  1.00  0.00    -0.248 NA
ATOM     32  C   UNL A   1      40.030  31.127  30.281  1.00  0.00     0.031 C 
ATOM     33  C   UNL A   1      39.353  26.601  28.193  1.00  0.00     0.029 A 
ATOM     34  N   UNL A   1      41.346  27.024  29.114  1.00  0.00    -0.354 N 
ATOM     35  C   UNL A   1      42.223  30.858  30.875  1.00  0.00     0.074 A 
ATOM     36  C   UNL A   1      41.093  31.754  30.761  1.00  0.00     0.031 C 
ATOM     37  C   UNL A   1      40.120  25.515  28.007  1.00  0.00     0.029 A 
ATOM     38  C   UNL A   1      41.442  25.763  28.576  1.00  0.00     0.049 A 
ATOM     39  H   UNL A   1      42.087  27.464  29.589  1.00  0.00     0.167 HD
ATOM     40  C   UNL A   1      43.412  31.196  31.430  1.00  0.00     0.031 A 
ATOM     41  C   UNL A   1      42.477  24.900  28.537  1.00  0.00     0.031 A 
ATOM     42  C   UNL A   1      44.530  30.299  31.551  1.00  0.00     0.049 A 
ATOM     43  C   UNL A   1      43.777  25.280  29.186  1.00  0.00     0.074 A 
ATOM     44  C   UNL A   1      45.748  30.519  32.173  1.00  0.00     0.029 A 
ATOM     45  N   UNL A   1      44.573  29.015  31.031  1.00  0.00    -0.354 N 
ATOM     46  N   UNL A   1      44.099  26.403  29.781  1.00  0.00    -0.248 NA
ATOM     47  C   UNL A   1      44.844  24.273  29.175  1.00  0.00     0.031 C 
ATOM     48  C   UNL A   1      46.545  29.384  31.985  1.00  0.00     0.029 A 
ATOM     49  C   UNL A   1      45.805  28.438  31.293  1.00  0.00     0.049 A 
ATOM     50  H   UNL A   1      43.837  28.576  30.547  1.00  0.00     0.167 HD
ATOM     51  C   UNL A   1      45.404  26.232  30.230  1.00  0.00     0.074 A 
ATOM     52  C   UNL A   1      45.804  24.892  29.850  1.00  0.00     0.031 C 
ATOM     53  C   UNL A   1      46.196  27.107  30.898  1.00  0.00     0.031 A 
BRANCH  40  54
ATOM     54  C   UNL A   1      43.560  32.611  31.927  1.00  0.00    -0.014 A 
ATOM     55  C   UNL A   1      43.977  33.647  31.071  1.00  0.00     0.010 A 
ATOM     56  C   UNL A   1      43.285  32.907  33.275  1.00  0.00     0.010 A 
ATOM     57  C   UNL A   1      44.182  34.936  31.568  1.00  0.00     0.020 A 
ATOM     58  C   UNL A   1      43.461  34.203  33.768  1.00  0.00     0.020 A 
ATOM     59  C   UNL A   1      43.935  35.204  32.917  1.00  0.00     0.054 A 
BRANCH  59  60
ATOM     60  S   UNL A   1      44.233  36.879  33.544  1.00  0.00     0.124 S 
ATOM     61  O   UNL A   1      42.890  37.290  33.946  1.00  0.00    -0.237 OA
ATOM     62  O   UNL A   1      45.173  36.652  34.638  1.00  0.00    -0.237 OA
ATOM     63  O   UNL A   1      44.783  37.588  32.391  1.00  0.00    -0.744 OA
ENDBRANCH  59  60
ENDBRANCH  40  54
BRANCH  41  64
ATOM     64  C   UNL A   1      42.298  23.583  27.872  1.00  0.00    -0.014 A 
ATOM     65  C   UNL A   1      42.887  23.329  26.621  1.00  0.00     0.010 A 
ATOM     66  C   UNL A   1      41.596  22.549  28.522  1.00  0.00     0.010 A 
ATOM     67  C   UNL A   1      42.787  22.063  26.036  1.00  0.00     0.020 A 
ATOM     68  C   UNL A   1      41.513  21.277  27.950  1.00  0.00     0.020 A 
ATOM     69  C   UNL A   1      42.109  21.043  26.709  1.00  0.00     0.054 A 
BRANCH  69  70
ATOM     70  S   UNL A   1      42.085  19.380  25.980  1.00  0.00     0.124 S 
ATOM     71  O   UNL A   1      42.953  19.544  24.819  1.00  0.00    -0.237 OA
ATOM     72  O   UNL A   1      42.620  18.554  27.059  1.00  0.00    -0.237 OA
ATOM     73  O   UNL A   1      40.671  19.160  25.681  1.00  0.00    -0.744 OA
ENDBRANCH  69  70
ENDBRANCH  41  64
BRANCH  53  74
ATOM     74  C   UNL A   1      47.576  26.641  31.278  1.00  0.00    -0.014 A 
ATOM     75  C   UNL A   1      48.674  26.844  30.425  1.00  0.00     0.010 A 
ATOM     76  C   UNL A   1      47.785  26.041  32.534  1.00  0.00     0.010 A 
ATOM     77  C   UNL A   1      49.953  26.433  30.809  1.00  0.00     0.020 A 
ATOM     78  C   UNL A   1      49.066  25.652  32.932  1.00  0.00     0.020 A 
ATOM     79  C   UNL A   1      50.142  25.838  32.061  1.00  0.00     0.054 A 
BRANCH  79  80
ATOM     80  S   UNL A   1      51.818  25.355  32.557  1.00  0.00     0.124 S 
ATOM     81  O   UNL A   1      51.882  23.970  32.099  1.00  0.00    -0.237 OA
ATOM     82  O   UNL A   1      52.656  26.300  31.824  1.00  0.00    -0.237 OA
ATOM     83  O   UNL A   1      51.813  25.532  34.008  1.00  0.00    -0.744 OA
ENDBRANCH  79  80
ENDBRANCH  53  74
ENDBRANCH  27  28
ENDBRANCH  19  22
ENDBRANCH  17  18
ENDBRANCH  16  17
ENDBRANCH   1  16
TORSDOF 17
ENDMDL
MODEL 2
REMARK VINA RESULT:      -9.4      1.415      2.294
REMARK SMILES CC(=O)/C=C(/C)NCC(=O)NCCCCNC(=O)c1ccc(-c2c3nc(c(-c4ccc(S(=O)(=O)[O-])cc4)c4ccc([nH]4)c(-c4ccc(S(=O)(=O)[O-])cc4)c4nc(c(-c5ccc(S(=O)(=O)[O-])cc5)c5ccc2[nH]5)C=C4)C=C3)cc1
REMARK SMILES IDX 13 1 12 2 11 3 9 4 10 5 8 7 7 8 5 10 4 11 6 12 2 13 1 14
REMARK SMILES IDX 3 15 14 16 15 17 16 18 17 19 18 21 19 22 20 23 78 24 21 25
REMARK SMILES IDX 77 26 22 27 23 28 24 29 71 30 25 31 76 32 70 33 72 34 26 35
REMARK SMILES IDX 75 36 69 37 68 38 27 40 57 41 38 42 56 43 39 44 42 45 55 46
REMARK SMILES IDX 73 47 40 48 41 49 54 51 74 52 43 53 28 54 29 55 37 56 30 57
REMARK SMILES IDX 36 58 31 59 32 60 33 61 34 62 35 63 58 64 59 65 67 66 60 67
REMARK SMILES IDX 66 68 61 69 62 70 63 71 64 72 65 73 44 74 45 75 53 76 46 77
REMARK SMILES IDX 52 78 47 79 48 80 49 81 50 82 51 83
REMARK H PARENT 11 6 7 9 16 20 72 39 42 50
REMARK Flexibility Score: inf
ROOT
ATOM      1  C   UNL A   1      33.075  25.943  25.268  1.00  0.00     0.023 C 
ENDROOT
BRANCH   1   2
ATOM      2  C   UNL A   1      33.673  24.931  24.291  1.00  0.00     0.116 C 
BRANCH   2   3
ATOM      3  N   UNL A   1      35.039  24.588  24.625  1.00  0.00    -0.355 N 
ATOM      4  C   UNL A   1      35.537  23.825  25.638  1.00  0.00     0.239 C 
ATOM      5  O   UNL A   1      36.765  23.682  25.682  1.00  0.00    -0.273 OA
ATOM      6  H   UNL A   1      35.719  24.968  24.022  1.00  0.00     0.163 HD
BRANCH   4   7
ATOM      7  C   UNL A   1      34.649  23.087  26.652  1.00  0.00     0.213 C 
BRANCH   7   8
ATOM      8  N   UNL A   1      33.895  21.971  26.117  1.00  0.00    -0.380 N 
ATOM      9  H   UNL A   1      34.338  21.103  26.254  1.00  0.00     0.160 HD
BRANCH   8  10
ATOM     10  C   UNL A   1      32.686  21.864  25.456  1.00  0.00     0.011 C 
ATOM     11  C   UNL A   1      31.430  22.269  25.739  1.00  0.00     0.067 C 
ATOM     12  C   UNL A   1      32.824  21.033  24.177  1.00  0.00     0.064 C 
BRANCH  11  13
ATOM     13  C   UNL A   1      30.672  22.973  26.817  1.00  0.00     0.154 C 
ATOM     14  C   UNL A   1      29.255  22.651  27.172  1.00  0.00     0.093 C 
ATOM     15  O   UNL A   1      31.276  23.845  27.449  1.00  0.00    -0.295 OA
ENDBRANCH  11  13
ENDBRANCH   8  10
ENDBRANCH   7   8
ENDBRANCH   4   7
ENDBRANCH   2   3
ENDBRANCH   1   2
BRANCH   1  16
ATOM     16  C   UNL A   1      33.814  27.282  25.309  1.00  0.00     0.023 C 
BRANCH  16  17
ATOM     17  C   UNL A   1      34.127  27.805  26.707  1.00  0.00     0.116 C 
BRANCH  17  18
ATOM     18  N   UNL A   1      33.710  29.184  26.908  1.00  0.00    -0.352 N 
ATOM     19  C   UNL A   1      34.392  30.203  27.538  1.00  0.00     0.251 C 
ATOM     20  H   UNL A   1      32.825  29.421  26.547  1.00  0.00     0.163 HD
ATOM     21  O   UNL A   1      33.850  31.278  27.738  1.00  0.00    -0.269 OA
BRANCH  19  22
ATOM     22  C   UNL A   1      35.776  29.960  28.004  1.00  0.00     0.039 A 
ATOM     23  C   UNL A   1      35.981  29.552  29.324  1.00  0.00     0.014 A 
ATOM     24  C   UNL A   1      36.858  30.099  27.132  1.00  0.00     0.014 A 
ATOM     25  C   UNL A   1      37.267  29.214  29.749  1.00  0.00     0.010 A 
ATOM     26  C   UNL A   1      38.128  29.696  27.537  1.00  0.00     0.010 A 
ATOM     27  C   UNL A   1      38.344  29.247  28.849  1.00  0.00    -0.014 A 
BRANCH  27  28
ATOM     28  C   UNL A   1      39.702  28.799  29.252  1.00  0.00     0.031 A 
ATOM     29  C   UNL A   1      40.633  29.740  29.965  1.00  0.00     0.074 A 
ATOM     30  C   UNL A   1      40.128  27.570  28.898  1.00  0.00     0.049 A 
ATOM     31  N   UNL A   1      41.870  29.545  30.341  1.00  0.00    -0.248 NA
ATOM     32  C   UNL A   1      40.116  31.084  30.262  1.00  0.00     0.031 C 
ATOM     33  C   UNL A   1      39.345  26.586  28.147  1.00  0.00     0.029 A 
ATOM     34  N   UNL A   1      41.333  26.948  29.106  1.00  0.00    -0.354 N 
ATOM     35  C   UNL A   1      42.289  30.749  30.896  1.00  0.00     0.074 A 
ATOM     36  C   UNL A   1      41.187  31.678  30.765  1.00  0.00     0.031 C 
ATOM     37  C   UNL A   1      40.084  25.479  27.971  1.00  0.00     0.029 A 
ATOM     38  C   UNL A   1      41.401  25.685  28.566  1.00  0.00     0.049 A 
ATOM     39  H   UNL A   1      42.078  27.364  29.596  1.00  0.00     0.167 HD
ATOM     40  C   UNL A   1      43.476  31.051  31.474  1.00  0.00     0.031 A 
ATOM     41  C   UNL A   1      42.411  24.793  28.543  1.00  0.00     0.031 A 
ATOM     42  C   UNL A   1      44.565  30.121  31.613  1.00  0.00     0.049 A 
ATOM     43  C   UNL A   1      43.709  25.133  29.218  1.00  0.00     0.074 A 
ATOM     44  C   UNL A   1      45.777  30.303  32.258  1.00  0.00     0.029 A 
ATOM     45  N   UNL A   1      44.580  28.837  31.090  1.00  0.00    -0.354 N 
ATOM     46  N   UNL A   1      44.054  26.244  29.822  1.00  0.00    -0.248 NA
ATOM     47  C   UNL A   1      44.747  24.094  29.222  1.00  0.00     0.031 C 
ATOM     48  C   UNL A   1      46.544  29.146  32.082  1.00  0.00     0.029 A 
ATOM     49  C   UNL A   1      45.790  28.224  31.373  1.00  0.00     0.049 A 
ATOM     50  H   UNL A   1      43.841  28.421  30.591  1.00  0.00     0.167 HD
ATOM     51  C   UNL A   1      45.345  26.033  30.294  1.00  0.00     0.074 A 
ATOM     52  C   UNL A   1      45.711  24.683  29.918  1.00  0.00     0.031 C 
ATOM     53  C   UNL A   1      46.149  26.883  30.980  1.00  0.00     0.031 A 
BRANCH  40  54
ATOM     54  C   UNL A   1      43.656  32.459  31.979  1.00  0.00    -0.014 A 
ATOM     55  C   UNL A   1      44.257  33.450  31.181  1.00  0.00     0.010 A 
ATOM     56  C   UNL A   1      43.225  32.793  33.275  1.00  0.00     0.010 A 
ATOM     57  C   UNL A   1      44.485  34.729  31.694  1.00  0.00     0.020 A 
ATOM     58  C   UNL A   1      43.424  34.082  33.781  1.00  0.00     0.020 A 
ATOM     59  C   UNL A   1      44.078  35.034  32.996  1.00  0.00     0.054 A 
BRANCH  59  60
ATOM     60  S   UNL A   1      44.407  36.694  33.648  1.00  0.00     0.124 S 
ATOM     61  O   UNL A   1      43.496  36.752  34.788  1.00  0.00    -0.237 OA
ATOM     62  O   UNL A   1      45.828  36.634  33.982  1.00  0.00    -0.237 OA
ATOM     63  O   UNL A   1      44.070  37.576  32.534  1.00  0.00    -0.744 OA
ENDBRANCH  59  60
ENDBRANCH  40  54
BRANCH  41  64
ATOM     64  C   UNL A   1      42.206  23.483  27.870  1.00  0.00    -0.014 A 
ATOM     65  C   UNL A   1      42.762  23.238  26.603  1.00  0.00     0.010 A 
ATOM     66  C   UNL A   1      41.514  22.448  28.528  1.00  0.00     0.010 A 
ATOM     67  C   UNL A   1      42.638  21.978  26.008  1.00  0.00     0.020 A 
ATOM     68  C   UNL A   1      41.408  21.182  27.946  1.00  0.00     0.020 A 
ATOM     69  C   UNL A   1      41.970  20.956  26.688  1.00  0.00     0.054 A 
BRANCH  69  70
ATOM     70  S   UNL A   1      41.915  19.301  25.945  1.00  0.00     0.124 S 
ATOM     71  O   UNL A   1      40.490  19.134  25.678  1.00  0.00    -0.237 OA
ATOM     72  O   UNL A   1      42.766  19.455  24.767  1.00  0.00    -0.237 OA
ATOM     73  O   UNL A   1      42.464  18.439  26.989  1.00  0.00    -0.744 OA
ENDBRANCH  69  70
ENDBRANCH  41  64
BRANCH  53  74
ATOM     74  C   UNL A   1      47.507  26.375  31.384  1.00  0.00    -0.014 A 
ATOM     75  C   UNL A   1      47.704  25.723  32.614  1.00  0.00     0.010 A 
ATOM     76  C   UNL A   1      48.590  26.502  30.494  1.00  0.00     0.010 A 
ATOM     77  C   UNL A   1      48.966  25.229  32.957  1.00  0.00     0.020 A 
ATOM     78  C   UNL A   1      49.846  25.988  30.823  1.00  0.00     0.020 A 
ATOM     79  C   UNL A   1      50.030  25.366  32.060  1.00  0.00     0.054 A 
BRANCH  79  80
ATOM     80  S   UNL A   1      51.647  24.677  32.508  1.00  0.00     0.124 S 
ATOM     81  O   UNL A   1      51.774  25.085  33.904  1.00  0.00    -0.237 OA
ATOM     82  O   UNL A   1      51.460  23.246  32.285  1.00  0.00    -0.237 OA
ATOM     83  O   UNL A   1      52.570  25.330  31.581  1.00  0.00    -0.744 OA
ENDBRANCH  79  80
ENDBRANCH  53  74
ENDBRANCH  27  28
ENDBRANCH  19  22
ENDBRANCH  17  18
ENDBRANCH  16  17
ENDBRANCH   1  16
TORSDOF 17
ENDMDL
MODEL 3
REMARK VINA RESULT:      -9.3      2.779      9.475
REMARK SMILES CC(=O)/C=C(/C)NCC(=O)NCCCCNC(=O)c1ccc(-c2c3nc(c(-c4ccc(S(=O)(=O)[O-])cc4)c4ccc([nH]4)c(-c4ccc(S(=O)(=O)[O-])cc4)c4nc(c(-c5ccc(S(=O)(=O)[O-])cc5)c5ccc2[nH]5)C=C4)C=C3)cc1
REMARK SMILES IDX 13 1 12 2 11 3 9 4 10 5 8 7 7 8 5 10 4 11 6 12 2 13 1 14
REMARK SMILES IDX 3 15 14 16 15 17 16 18 17 19 18 21 19 22 20 23 78 24 21 25
REMARK SMILES IDX 77 26 22 27 23 28 24 29 71 30 25 31 76 32 70 33 72 34 26 35
REMARK SMILES IDX 75 36 69 37 68 38 27 40 57 41 38 42 56 43 39 44 42 45 55 46
REMARK SMILES IDX 73 47 40 48 41 49 54 51 74 52 43 53 28 54 29 55 37 56 30 57
REMARK SMILES IDX 36 58 31 59 32 60 33 61 34 62 35 63 58 64 59 65 67 66 60 67
REMARK SMILES IDX 66 68 61 69 62 70 63 71 64 72 65 73 44 74 45 75 53 76 46 77
REMARK SMILES IDX 52 78 47 79 48 80 49 81 50 82 51 83
REMARK H PARENT 11 6 7 9 16 20 72 39 42 50
REMARK Flexibility Score: inf
ROOT
ATOM      1  C   UNL A   1      34.897  22.312  24.458  1.00  0.00     0.023 C 
ENDROOT
BRANCH   1   2
ATOM      2  C   UNL A   1      33.480  22.876  24.374  1.00  0.00     0.116 C 
BRANCH   2   3
ATOM      3  N   UNL A   1      32.943  23.207  25.678  1.00  0.00    -0.355 N 
ATOM      4  C   UNL A   1      31.754  23.773  26.027  1.00  0.00     0.239 C 
ATOM      5  O   UNL A   1      31.543  23.934  27.235  1.00  0.00    -0.273 OA
ATOM      6  H   UNL A   1      33.534  22.987  26.435  1.00  0.00     0.163 HD
BRANCH   4   7
ATOM      7  C   UNL A   1      30.662  24.135  25.009  1.00  0.00     0.213 C 
BRANCH   7   8
ATOM      8  N   UNL A   1      30.912  25.333  24.232  1.00  0.00    -0.380 N 
ATOM      9  H   UNL A   1      31.405  25.158  23.399  1.00  0.00     0.160 HD
BRANCH   8  10
ATOM     10  C   UNL A   1      30.606  26.669  24.412  1.00  0.00     0.011 C 
ATOM     11  C   UNL A   1      31.025  27.612  25.281  1.00  0.00     0.067 C 
ATOM     12  C   UNL A   1      29.493  27.116  23.461  1.00  0.00     0.064 C 
BRANCH  11  13
ATOM     13  C   UNL A   1      31.946  27.762  26.448  1.00  0.00     0.154 C 
ATOM     14  C   UNL A   1      31.722  28.746  27.552  1.00  0.00     0.093 C 
ATOM     15  O   UNL A   1      32.922  27.006  26.493  1.00  0.00    -0.295 OA
ENDBRANCH  11  13
ENDBRANCH   8  10
ENDBRANCH   7   8
ENDBRANCH   4   7
ENDBRANCH   2   3
ENDBRANCH   1   2
BRANCH   1  16
ATOM     16  C   UNL A   1      35.978  23.371  24.678  1.00  0.00     0.023 C 
BRANCH  16  17
ATOM     17  C   UNL A   1      36.660  23.327  26.042  1.00  0.00     0.116 C 
BRANCH  17  18
ATOM     18  N   UNL A   1      37.853  22.496  26.058  1.00  0.00    -0.352 N 
ATOM     19  C   UNL A   1      39.138  22.846  26.414  1.00  0.00     0.251 C 
ATOM     20  H   UNL A   1      37.726  21.560  25.779  1.00  0.00     0.163 HD
ATOM     21  O   UNL A   1      40.059  22.063  26.253  1.00  0.00    -0.269 OA
BRANCH  19  22
ATOM     22  C   UNL A   1      39.388  24.201  26.958  1.00  0.00     0.039 A 
ATOM     23  C   UNL A   1      39.017  24.476  28.277  1.00  0.00     0.014 A 
ATOM     24  C   UNL A   1      40.017  25.177  26.183  1.00  0.00     0.014 A 
ATOM     25  C   UNL A   1      39.344  25.711  28.840  1.00  0.00     0.010 A 
ATOM     26  C   UNL A   1      40.403  26.380  26.767  1.00  0.00     0.010 A 
ATOM     27  C   UNL A   1      40.072  26.658  28.102  1.00  0.00    -0.014 A 
BRANCH  27  28
ATOM     28  C   UNL A   1      40.515  27.938  28.712  1.00  0.00     0.031 A 
ATOM     29  C   UNL A   1      41.894  28.063  29.299  1.00  0.00     0.074 A 
ATOM     30  C   UNL A   1      39.644  28.962  28.815  1.00  0.00     0.049 A 
ATOM     31  N   UNL A   1      42.434  29.078  29.922  1.00  0.00    -0.248 NA
ATOM     32  C   UNL A   1      42.765  26.882  29.200  1.00  0.00     0.031 C 
ATOM     33  C   UNL A   1      38.258  28.945  28.345  1.00  0.00     0.029 A 
ATOM     34  N   UNL A   1      39.793  30.209  29.368  1.00  0.00    -0.354 N 
ATOM     35  C   UNL A   1      43.698  28.650  30.314  1.00  0.00     0.074 A 
ATOM     36  C   UNL A   1      43.823  27.271  29.896  1.00  0.00     0.031 C 
ATOM     37  C   UNL A   1      37.687  30.130  28.615  1.00  0.00     0.029 A 
ATOM     38  C   UNL A   1      38.655  30.978  29.306  1.00  0.00     0.049 A 
ATOM     39  H   UNL A   1      40.634  30.524  29.770  1.00  0.00     0.167 HD
ATOM     40  C   UNL A   1      44.670  29.346  30.951  1.00  0.00     0.031 A 
ATOM     41  C   UNL A   1      38.410  32.223  29.759  1.00  0.00     0.031 A 
ATOM     42  C   UNL A   1      44.546  30.722  31.355  1.00  0.00     0.049 A 
ATOM     43  C   UNL A   1      39.511  32.990  30.434  1.00  0.00     0.074 A 
ATOM     44  C   UNL A   1      45.503  31.540  31.930  1.00  0.00     0.029 A 
ATOM     45  N   UNL A   1      43.391  31.479  31.236  1.00  0.00    -0.354 N 
ATOM     46  N   UNL A   1      40.732  32.601  30.711  1.00  0.00    -0.248 NA
ATOM     47  C   UNL A   1      39.207  34.368  30.842  1.00  0.00     0.031 C 
ATOM     48  C   UNL A   1      44.911  32.778  32.204  1.00  0.00     0.029 A 
ATOM     49  C   UNL A   1      43.601  32.748  31.751  1.00  0.00     0.049 A 
ATOM     50  H   UNL A   1      42.546  31.163  30.843  1.00  0.00     0.167 HD
ATOM     51  C   UNL A   1      41.349  33.693  31.312  1.00  0.00     0.074 A 
ATOM     52  C   UNL A   1      40.370  34.761  31.343  1.00  0.00     0.031 C 
ATOM     53  C   UNL A   1      42.614  33.799  31.790  1.00  0.00     0.031 A 
BRANCH  40  54
ATOM     54  C   UNL A   1      45.946  28.610  31.266  1.00  0.00    -0.014 A 
ATOM     55  C   UNL A   1      47.077  28.720  30.436  1.00  0.00     0.010 A 
ATOM     56  C   UNL A   1      46.012  27.789  32.406  1.00  0.00     0.010 A 
ATOM     57  C   UNL A   1      48.226  27.970  30.702  1.00  0.00     0.020 A 
ATOM     58  C   UNL A   1      47.171  27.061  32.692  1.00  0.00     0.020 A 
ATOM     59  C   UNL A   1      48.261  27.135  31.822  1.00  0.00     0.054 A 
BRANCH  59  60
ATOM     60  S   UNL A   1      49.754  26.153  32.133  1.00  0.00     0.124 S 
ATOM     61  O   UNL A   1      50.553  27.072  32.939  1.00  0.00    -0.237 OA
ATOM     62  O   UNL A   1      49.232  24.988  32.841  1.00  0.00    -0.237 OA
ATOM     63  O   UNL A   1      50.275  25.883  30.795  1.00  0.00    -0.744 OA
ENDBRANCH  59  60
ENDBRANCH  40  54
BRANCH  41  64
ATOM     64  C   UNL A   1      37.062  32.816  29.557  1.00  0.00    -0.014 A 
ATOM     65  C   UNL A   1      36.134  32.854  30.613  1.00  0.00     0.010 A 
ATOM     66  C   UNL A   1      36.725  33.412  28.327  1.00  0.00     0.010 A 
ATOM     67  C   UNL A   1      34.898  33.486  30.446  1.00  0.00     0.020 A 
ATOM     68  C   UNL A   1      35.500  34.063  28.164  1.00  0.00     0.020 A 
ATOM     69  C   UNL A   1      34.593  34.095  29.225  1.00  0.00     0.054 A 
BRANCH  69  70
ATOM     70  S   UNL A   1      33.028  35.001  29.067  1.00  0.00     0.124 S 
ATOM     71  O   UNL A   1      32.306  34.193  28.089  1.00  0.00    -0.237 OA
ATOM     72  O   UNL A   1      32.502  34.965  30.429  1.00  0.00    -0.237 OA
ATOM     73  O   UNL A   1      33.444  36.323  28.604  1.00  0.00    -0.744 OA
ENDBRANCH  69  70
ENDBRANCH  41  64
BRANCH  53  74
ATOM     74  C   UNL A   1      43.023  35.122  32.380  1.00  0.00    -0.014 A 
ATOM     75  C   UNL A   1      43.660  36.101  31.598  1.00  0.00     0.010 A 
ATOM     76  C   UNL A   1      42.711  35.410  33.722  1.00  0.00     0.010 A 
ATOM     77  C   UNL A   1      44.002  37.336  32.155  1.00  0.00     0.020 A 
ATOM     78  C   UNL A   1      43.030  36.653  34.275  1.00  0.00     0.020 A 
ATOM     79  C   UNL A   1      43.687  37.605  33.491  1.00  0.00     0.054 A 
BRANCH  79  80
ATOM     80  S   UNL A   1      44.099  39.231  34.179  1.00  0.00     0.124 S 
ATOM     81  O   UNL A   1      45.415  39.481  33.597  1.00  0.00    -0.237 OA
ATOM     82  O   UNL A   1      43.019  40.077  33.678  1.00  0.00    -0.237 OA
ATOM     83  O   UNL A   1      44.088  39.009  35.624  1.00  0.00    -0.744 OA
ENDBRANCH  79  80
ENDBRANCH  53  74
ENDBRANCH  27  28
ENDBRANCH  19  22
ENDBRANCH  17  18
ENDBRANCH  16  17
ENDBRANCH   1  16
TORSDOF 17
ENDMDL
