MODEL 1
REMARK VINA RESULT:     -10.8      0.000      0.000
REMARK SMILES CC1(CNC(=O)N[C@H]2C=C[C@H](C(=O)NCCCCNC(=O)c3ccc(-c4c5nc(c(-c6ccc(S(=O)(=O)[O-])cc6)c6ccc([nH]6)c(-c6ccc(S(=O)(=O)[O-])cc6)c6nc(c(-c7ccc(S(=O)(=O)[O-])cc7)c7ccc4[nH]7)C=C6)C=C5)cc3)C2)CCCC1
REMARK SMILES IDX 16 1 15 2 14 3 12 4 13 5 11 7 8 8 9 9 82 10 10 11 7 12 4 13
REMARK SMILES IDX 5 14 6 16 3 18 2 19 1 20 83 21 86 22 84 23 85 24 17 25 18 26
REMARK SMILES IDX 19 27 20 28 21 30 22 31 23 32 81 33 24 34 80 35 25 36 26 37
REMARK SMILES IDX 27 38 74 39 28 40 79 41 73 42 75 43 29 44 78 45 72 46 71 47
REMARK SMILES IDX 30 49 60 50 41 51 59 52 42 53 45 54 58 55 76 56 43 57 44 58
REMARK SMILES IDX 57 60 77 61 46 62 31 63 32 64 40 65 33 66 39 67 34 68 35 69
REMARK SMILES IDX 36 70 37 71 38 72 61 73 62 74 70 75 63 76 69 77 64 78 65 79
REMARK SMILES IDX 66 80 67 81 68 82 47 83 48 84 56 85 49 86 55 87 50 88 51 89
REMARK SMILES IDX 52 90 53 91 54 92
REMARK H PARENT 14 6 4 15 7 17 19 29 75 48 45 59
REMARK Flexibility Score: inf
ROOT
ATOM      1  C   UNL A   1      35.522  21.424  24.615  1.00  0.00     0.023 C 
ENDROOT
BRANCH   1   2
ATOM      2  C   UNL A   1      34.372  20.930  25.483  1.00  0.00     0.116 C 
BRANCH   2   3
ATOM      3  N   UNL A   1      34.054  21.813  26.584  1.00  0.00    -0.356 N 
ATOM      4  C   UNL A   1      32.872  22.363  26.977  1.00  0.00     0.227 C 
ATOM      5  O   UNL A   1      32.869  22.927  28.077  1.00  0.00    -0.274 OA
ATOM      6  H   UNL A   1      34.825  22.059  27.146  1.00  0.00     0.163 HD
BRANCH   4   7
ATOM      7  C   UNL A   1      31.625  22.381  26.066  1.00  0.00     0.103 C 
ATOM      8  C   UNL A   1      31.552  24.644  25.187  1.00  0.00     0.107 C 
ATOM      9  C   UNL A   1      30.373  24.368  26.066  1.00  0.00    -0.006 C 
ATOM     10  C   UNL A   1      31.906  23.205  24.780  1.00  0.00     0.047 C 
ATOM     11  C   UNL A   1      30.430  23.135  26.576  1.00  0.00    -0.016 C 
BRANCH   8  12
ATOM     12  N   UNL A   1      31.158  25.512  24.111  1.00  0.00    -0.332 N 
ATOM     13  N   UNL A   1      32.539  27.429  24.362  1.00  0.00    -0.338 N 
ATOM     14  C   UNL A   1      31.620  26.705  23.701  1.00  0.00     0.315 C 
ATOM     15  H   UNL A   1      32.847  28.212  23.851  1.00  0.00     0.165 HD
ATOM     16  O   UNL A   1      31.164  27.172  22.654  1.00  0.00    -0.249 OA
ATOM     17  H   UNL A   1      30.408  25.168  23.574  1.00  0.00     0.165 HD
BRANCH  13  18
ATOM     18  C   UNL A   1      33.180  27.314  25.662  1.00  0.00     0.124 C 
BRANCH  18  19
ATOM     19  C   UNL A   1      32.947  28.506  26.606  1.00  0.00    -0.015 C 
ATOM     20  C   UNL A   1      31.909  28.131  27.677  1.00  0.00     0.013 C 
ATOM     21  C   UNL A   1      32.560  29.794  25.865  1.00  0.00     0.008 C 
ATOM     22  C   UNL A   1      34.280  28.923  27.264  1.00  0.00     0.008 C 
ATOM     23  C   UNL A   1      32.965  30.928  26.802  1.00  0.00     0.001 C 
ATOM     24  C   UNL A   1      34.109  30.387  27.656  1.00  0.00     0.001 C 
ENDBRANCH  18  19
ENDBRANCH  13  18
ENDBRANCH   8  12
ENDBRANCH   4   7
ENDBRANCH   2   3
ENDBRANCH   1   2
BRANCH   1  25
ATOM     25  C   UNL A   1      35.622  22.939  24.443  1.00  0.00     0.023 C 
BRANCH  25  26
ATOM     26  C   UNL A   1      36.900  23.588  24.963  1.00  0.00     0.116 C 
BRANCH  26  27
ATOM     27  N   UNL A   1      37.913  22.624  25.364  1.00  0.00    -0.352 N 
ATOM     28  C   UNL A   1      39.056  22.801  26.105  1.00  0.00     0.251 C 
ATOM     29  H   UNL A   1      37.755  21.702  25.056  1.00  0.00     0.163 HD
ATOM     30  O   UNL A   1      39.847  21.866  26.218  1.00  0.00    -0.269 OA
BRANCH  28  31
ATOM     31  C   UNL A   1      39.359  24.105  26.738  1.00  0.00     0.039 A 
ATOM     32  C   UNL A   1      38.914  24.337  28.043  1.00  0.00     0.014 A 
ATOM     33  C   UNL A   1      40.062  25.106  26.060  1.00  0.00     0.014 A 
ATOM     34  C   UNL A   1      39.233  25.537  28.685  1.00  0.00     0.010 A 
ATOM     35  C   UNL A   1      40.453  26.265  26.731  1.00  0.00     0.010 A 
ATOM     36  C   UNL A   1      40.040  26.497  28.051  1.00  0.00    -0.014 A 
BRANCH  36  37
ATOM     37  C   UNL A   1      40.455  27.733  28.768  1.00  0.00     0.031 A 
ATOM     38  C   UNL A   1      41.831  27.847  29.373  1.00  0.00     0.074 A 
ATOM     39  C   UNL A   1      39.582  28.755  28.888  1.00  0.00     0.049 A 
ATOM     40  N   UNL A   1      42.367  28.856  30.013  1.00  0.00    -0.248 NA
ATOM     41  C   UNL A   1      42.714  26.674  29.262  1.00  0.00     0.031 C 
ATOM     42  C   UNL A   1      38.202  28.755  28.393  1.00  0.00     0.029 A 
ATOM     43  N   UNL A   1      39.725  29.998  29.456  1.00  0.00    -0.354 N 
ATOM     44  C   UNL A   1      43.647  28.445  30.369  1.00  0.00     0.074 A 
ATOM     45  C   UNL A   1      43.781  27.071  29.939  1.00  0.00     0.031 C 
ATOM     46  C   UNL A   1      37.643  29.951  28.639  1.00  0.00     0.029 A 
ATOM     47  C   UNL A   1      38.606  30.791  29.345  1.00  0.00     0.049 A 
ATOM     48  H   UNL A   1      40.552  30.293  29.902  1.00  0.00     0.167 HD
ATOM     49  C   UNL A   1      44.634  29.153  30.968  1.00  0.00     0.031 A 
ATOM     50  C   UNL A   1      38.378  32.051  29.762  1.00  0.00     0.031 A 
ATOM     51  C   UNL A   1      44.502  30.520  31.400  1.00  0.00     0.049 A 
ATOM     52  C   UNL A   1      39.484  32.804  30.454  1.00  0.00     0.074 A 
ATOM     53  C   UNL A   1      45.452  31.329  31.998  1.00  0.00     0.029 A 
ATOM     54  N   UNL A   1      43.351  31.283  31.275  1.00  0.00    -0.354 N 
ATOM     55  N   UNL A   1      40.706  32.412  30.725  1.00  0.00    -0.248 NA
ATOM     56  C   UNL A   1      39.183  34.178  30.881  1.00  0.00     0.031 C 
ATOM     57  C   UNL A   1      44.862  32.565  32.280  1.00  0.00     0.029 A 
ATOM     58  C   UNL A   1      43.564  32.548  31.798  1.00  0.00     0.049 A 
ATOM     59  H   UNL A   1      42.507  30.971  30.874  1.00  0.00     0.167 HD
ATOM     60  C   UNL A   1      41.328  33.504  31.324  1.00  0.00     0.074 A 
ATOM     61  C   UNL A   1      40.357  34.577  31.348  1.00  0.00     0.031 C 
ATOM     62  C   UNL A   1      42.589  33.608  31.813  1.00  0.00     0.031 A 
BRANCH  49  63
ATOM     63  C   UNL A   1      45.962  28.467  31.171  1.00  0.00    -0.014 A 
ATOM     64  C   UNL A   1      46.941  28.490  30.161  1.00  0.00     0.010 A 
ATOM     65  C   UNL A   1      46.264  27.856  32.401  1.00  0.00     0.010 A 
ATOM     66  C   UNL A   1      48.186  27.890  30.365  1.00  0.00     0.020 A 
ATOM     67  C   UNL A   1      47.520  27.281  32.621  1.00  0.00     0.020 A 
ATOM     68  C   UNL A   1      48.469  27.292  31.597  1.00  0.00     0.054 A 
BRANCH  68  69
ATOM     69  S   UNL A   1      50.113  26.567  31.848  1.00  0.00     0.124 S 
ATOM     70  O   UNL A   1      50.975  27.533  31.171  1.00  0.00    -0.237 OA
ATOM     71  O   UNL A   1      50.227  26.536  33.304  1.00  0.00    -0.237 OA
ATOM     72  O   UNL A   1      50.018  25.259  31.204  1.00  0.00    -0.744 OA
ENDBRANCH  68  69
ENDBRANCH  49  63
BRANCH  50  73
ATOM     73  C   UNL A   1      37.050  32.693  29.540  1.00  0.00    -0.014 A 
ATOM     74  C   UNL A   1      36.765  33.361  28.335  1.00  0.00     0.010 A 
ATOM     75  C   UNL A   1      36.078  32.679  30.557  1.00  0.00     0.010 A 
ATOM     76  C   UNL A   1      35.555  34.043  28.170  1.00  0.00     0.020 A 
ATOM     77  C   UNL A   1      34.853  33.327  30.382  1.00  0.00     0.020 A 
ATOM     78  C   UNL A   1      34.609  34.026  29.198  1.00  0.00     0.054 A 
BRANCH  78  79
ATOM     79  S   UNL A   1      33.046  34.920  28.967  1.00  0.00     0.124 S 
ATOM     80  O   UNL A   1      33.509  36.216  28.482  1.00  0.00    -0.237 OA
ATOM     81  O   UNL A   1      32.349  34.088  27.991  1.00  0.00    -0.237 OA
ATOM     82  O   UNL A   1      32.456  34.926  30.305  1.00  0.00    -0.744 OA
ENDBRANCH  78  79
ENDBRANCH  50  73
BRANCH  62  83
ATOM     83  C   UNL A   1      43.001  34.945  32.375  1.00  0.00    -0.014 A 
ATOM     84  C   UNL A   1      42.723  35.297  33.708  1.00  0.00     0.010 A 
ATOM     85  C   UNL A   1      43.692  35.857  31.556  1.00  0.00     0.010 A 
ATOM     86  C   UNL A   1      43.080  36.557  34.194  1.00  0.00     0.020 A 
ATOM     87  C   UNL A   1      44.083  37.104  32.049  1.00  0.00     0.020 A 
ATOM     88  C   UNL A   1      43.754  37.455  33.361  1.00  0.00     0.054 A 
BRANCH  88  89
ATOM     89  S   UNL A   1      44.216  39.079  34.019  1.00  0.00     0.124 S 
ATOM     90  O   UNL A   1      42.985  39.843  33.837  1.00  0.00    -0.237 OA
ATOM     91  O   UNL A   1      44.568  38.775  35.404  1.00  0.00    -0.237 OA
ATOM     92  O   UNL A   1      45.336  39.492  33.175  1.00  0.00    -0.744 OA
ENDBRANCH  88  89
ENDBRANCH  62  83
ENDBRANCH  36  37
ENDBRANCH  28  31
ENDBRANCH  26  27
ENDBRANCH  25  26
ENDBRANCH   1  25
TORSDOF 17
ENDMDL
MODEL 2
REMARK VINA RESULT:     -10.4      4.097     10.260
REMARK SMILES CC1(CNC(=O)N[C@H]2C=C[C@H](C(=O)NCCCCNC(=O)c3ccc(-c4c5nc(c(-c6ccc(S(=O)(=O)[O-])cc6)c6ccc([nH]6)c(-c6ccc(S(=O)(=O)[O-])cc6)c6nc(c(-c7ccc(S(=O)(=O)[O-])cc7)c7ccc4[nH]7)C=C6)C=C5)cc3)C2)CCCC1
REMARK SMILES IDX 16 1 15 2 14 3 12 4 13 5 11 7 8 8 9 9 82 10 10 11 7 12 4 13
REMARK SMILES IDX 5 14 6 16 3 18 2 19 1 20 83 21 86 22 84 23 85 24 17 25 18 26
REMARK SMILES IDX 19 27 20 28 21 30 22 31 23 32 81 33 24 34 80 35 25 36 26 37
REMARK SMILES IDX 27 38 74 39 28 40 79 41 73 42 75 43 29 44 78 45 72 46 71 47
REMARK SMILES IDX 30 49 60 50 41 51 59 52 42 53 45 54 58 55 76 56 43 57 44 58
REMARK SMILES IDX 57 60 77 61 46 62 31 63 32 64 40 65 33 66 39 67 34 68 35 69
REMARK SMILES IDX 36 70 37 71 38 72 61 73 62 74 70 75 63 76 69 77 64 78 65 79
REMARK SMILES IDX 66 80 67 81 68 82 47 83 48 84 56 85 49 86 55 87 50 88 51 89
REMARK SMILES IDX 52 90 53 91 54 92
REMARK H PARENT 14 6 4 15 7 17 19 29 75 48 45 59
REMARK Flexibility Score: inf
ROOT
ATOM      1  C   UNL A   1      33.295  30.078  26.928  1.00  0.00     0.023 C 
ENDROOT
BRANCH   1   2
ATOM      2  C   UNL A   1      33.914  28.687  26.872  1.00  0.00     0.116 C 
BRANCH   2   3
ATOM      3  N   UNL A   1      33.832  28.066  25.567  1.00  0.00    -0.356 N 
ATOM      4  C   UNL A   1      32.760  27.790  24.774  1.00  0.00     0.227 C 
ATOM      5  O   UNL A   1      33.011  27.428  23.620  1.00  0.00    -0.274 OA
ATOM      6  H   UNL A   1      34.700  27.796  25.188  1.00  0.00     0.163 HD
BRANCH   4   7
ATOM      7  C   UNL A   1      31.309  27.823  25.304  1.00  0.00     0.103 C 
ATOM      8  C   UNL A   1      30.780  25.495  25.755  1.00  0.00     0.107 C 
ATOM      9  C   UNL A   1      29.930  26.038  24.650  1.00  0.00    -0.006 C 
ATOM     10  C   UNL A   1      31.137  26.809  26.468  1.00  0.00     0.047 C 
ATOM     11  C   UNL A   1      30.243  27.307  24.379  1.00  0.00    -0.016 C 
BRANCH   8  12
ATOM     12  N   UNL A   1      30.018  24.556  26.533  1.00  0.00    -0.332 N 
ATOM     13  N   UNL A   1      31.103  22.473  26.173  1.00  0.00    -0.338 N 
ATOM     14  C   UNL A   1      30.181  23.244  26.773  1.00  0.00     0.315 C 
ATOM     15  H   UNL A   1      31.159  21.571  26.564  1.00  0.00     0.165 HD
ATOM     16  O   UNL A   1      29.428  22.710  27.592  1.00  0.00    -0.249 OA
ATOM     17  H   UNL A   1      29.228  24.947  26.970  1.00  0.00     0.165 HD
BRANCH  13  18
ATOM     18  C   UNL A   1      32.036  22.672  25.076  1.00  0.00     0.124 C 
BRANCH  18  19
ATOM     19  C   UNL A   1      33.277  21.764  25.107  1.00  0.00    -0.015 C 
ATOM     20  C   UNL A   1      32.873  20.314  24.793  1.00  0.00     0.013 C 
ATOM     21  C   UNL A   1      34.062  21.863  26.424  1.00  0.00     0.008 C 
ATOM     22  C   UNL A   1      34.323  22.269  24.092  1.00  0.00     0.008 C 
ATOM     23  C   UNL A   1      35.483  21.435  26.072  1.00  0.00     0.001 C 
ATOM     24  C   UNL A   1      35.669  21.752  24.590  1.00  0.00     0.001 C 
ENDBRANCH  18  19
ENDBRANCH  13  18
ENDBRANCH   8  12
ENDBRANCH   4   7
ENDBRANCH   2   3
ENDBRANCH   1   2
BRANCH   1  25
ATOM     25  C   UNL A   1      34.156  31.163  27.573  1.00  0.00     0.023 C 
BRANCH  25  26
ATOM     26  C   UNL A   1      35.501  30.707  28.129  1.00  0.00     0.116 C 
BRANCH  26  27
ATOM     27  N   UNL A   1      35.494  30.522  29.572  1.00  0.00    -0.352 N 
ATOM     28  C   UNL A   1      36.493  30.093  30.412  1.00  0.00     0.251 C 
ATOM     29  H   UNL A   1      34.641  30.737  30.015  1.00  0.00     0.163 HD
ATOM     30  O   UNL A   1      36.231  29.883  31.595  1.00  0.00    -0.269 OA
BRANCH  28  31
ATOM     31  C   UNL A   1      37.863  29.852  29.905  1.00  0.00     0.039 A 
ATOM     32  C   UNL A   1      38.877  29.564  30.824  1.00  0.00     0.014 A 
ATOM     33  C   UNL A   1      38.166  29.919  28.541  1.00  0.00     0.014 A 
ATOM     34  C   UNL A   1      40.168  29.278  30.371  1.00  0.00     0.010 A 
ATOM     35  C   UNL A   1      39.431  29.549  28.086  1.00  0.00     0.010 A 
ATOM     36  C   UNL A   1      40.449  29.227  28.995  1.00  0.00    -0.014 A 
BRANCH  36  37
ATOM     37  C   UNL A   1      41.801  28.833  28.510  1.00  0.00     0.031 A 
ATOM     38  C   UNL A   1      42.914  29.845  28.430  1.00  0.00     0.074 A 
ATOM     39  C   UNL A   1      42.023  27.558  28.127  1.00  0.00     0.049 A 
ATOM     40  N   UNL A   1      44.157  29.673  28.052  1.00  0.00    -0.248 NA
ATOM     41  C   UNL A   1      42.592  31.233  28.803  1.00  0.00     0.031 C 
ATOM     42  C   UNL A   1      41.018  26.491  28.108  1.00  0.00     0.029 A 
ATOM     43  N   UNL A   1      43.167  26.938  27.688  1.00  0.00    -0.354 N 
ATOM     44  C   UNL A   1      44.762  30.921  28.153  1.00  0.00     0.074 A 
ATOM     45  C   UNL A   1      43.734  31.856  28.556  1.00  0.00     0.031 C 
ATOM     46  C   UNL A   1      41.599  25.343  27.723  1.00  0.00     0.029 A 
ATOM     47  C   UNL A   1      43.005  25.597  27.427  1.00  0.00     0.049 A 
ATOM     48  H   UNL A   1      44.023  27.410  27.570  1.00  0.00     0.167 HD
ATOM     49  C   UNL A   1      46.061  31.257  27.961  1.00  0.00     0.031 A 
ATOM     50  C   UNL A   1      43.888  24.673  27.000  1.00  0.00     0.031 A 
ATOM     51  C   UNL A   1      47.085  30.329  27.557  1.00  0.00     0.049 A 
ATOM     52  C   UNL A   1      45.318  25.081  26.765  1.00  0.00     0.074 A 
ATOM     53  C   UNL A   1      48.433  30.570  27.357  1.00  0.00     0.029 A 
ATOM     54  N   UNL A   1      46.878  28.983  27.297  1.00  0.00    -0.354 N 
ATOM     55  N   UNL A   1      45.879  26.256  26.925  1.00  0.00    -0.248 NA
ATOM     56  C   UNL A   1      46.239  24.032  26.307  1.00  0.00     0.031 C 
ATOM     57  C   UNL A   1      49.033  29.381  26.929  1.00  0.00     0.029 A 
ATOM     58  C   UNL A   1      48.070  28.385  26.925  1.00  0.00     0.049 A 
ATOM     59  H   UNL A   1      46.011  28.521  27.367  1.00  0.00     0.167 HD
ATOM     60  C   UNL A   1      47.224  26.077  26.620  1.00  0.00     0.074 A 
ATOM     61  C   UNL A   1      47.396  24.677  26.293  1.00  0.00     0.031 C 
ATOM     62  C   UNL A   1      48.228  26.989  26.606  1.00  0.00     0.031 A 
BRANCH  49  63
ATOM     63  C   UNL A   1      46.456  32.690  28.212  1.00  0.00    -0.014 A 
ATOM     64  C   UNL A   1      46.387  33.643  27.179  1.00  0.00     0.010 A 
ATOM     65  C   UNL A   1      46.832  33.107  29.502  1.00  0.00     0.010 A 
ATOM     66  C   UNL A   1      46.713  34.979  27.423  1.00  0.00     0.020 A 
ATOM     67  C   UNL A   1      47.130  34.450  29.757  1.00  0.00     0.020 A 
ATOM     68  C   UNL A   1      47.080  35.375  28.712  1.00  0.00     0.054 A 
BRANCH  68  69
ATOM     69  S   UNL A   1      47.449  37.127  29.007  1.00  0.00     0.124 S 
ATOM     70  O   UNL A   1      48.893  37.098  29.225  1.00  0.00    -0.237 OA
ATOM     71  O   UNL A   1      47.015  37.757  27.762  1.00  0.00    -0.237 OA
ATOM     72  O   UNL A   1      46.648  37.458  30.183  1.00  0.00    -0.744 OA
ENDBRANCH  68  69
ENDBRANCH  49  63
BRANCH  50  73
ATOM     73  C   UNL A   1      43.455  23.265  26.765  1.00  0.00    -0.014 A 
ATOM     74  C   UNL A   1      42.946  22.482  27.818  1.00  0.00     0.010 A 
ATOM     75  C   UNL A   1      43.595  22.685  25.491  1.00  0.00     0.010 A 
ATOM     76  C   UNL A   1      42.632  21.134  27.613  1.00  0.00     0.020 A 
ATOM     77  C   UNL A   1      43.248  21.348  25.273  1.00  0.00     0.020 A 
ATOM     78  C   UNL A   1      42.791  20.575  26.343  1.00  0.00     0.054 A 
BRANCH  78  79
ATOM     79  S   UNL A   1      42.383  18.824  26.098  1.00  0.00     0.124 S 
ATOM     80  O   UNL A   1      42.628  18.268  27.424  1.00  0.00    -0.237 OA
ATOM     81  O   UNL A   1      40.984  18.882  25.683  1.00  0.00    -0.237 OA
ATOM     82  O   UNL A   1      43.317  18.399  25.057  1.00  0.00    -0.744 OA
ENDBRANCH  78  79
ENDBRANCH  50  73
BRANCH  62  83
ATOM     83  C   UNL A   1      49.609  26.489  26.269  1.00  0.00    -0.014 A 
ATOM     84  C   UNL A   1      50.435  25.901  27.245  1.00  0.00     0.010 A 
ATOM     85  C   UNL A   1      50.081  26.594  24.948  1.00  0.00     0.010 A 
ATOM     86  C   UNL A   1      51.726  25.481  26.918  1.00  0.00     0.020 A 
ATOM     87  C   UNL A   1      51.359  26.143  24.608  1.00  0.00     0.020 A 
ATOM     88  C   UNL A   1      52.182  25.608  25.602  1.00  0.00     0.054 A 
BRANCH  88  89
ATOM     89  S   UNL A   1      53.858  25.045  25.200  1.00  0.00     0.124 S 
ATOM     90  O   UNL A   1      54.154  25.807  23.991  1.00  0.00    -0.237 OA
ATOM     91  O   UNL A   1      54.617  25.429  26.387  1.00  0.00    -0.237 OA
ATOM     92  O   UNL A   1      53.704  23.604  25.007  1.00  0.00    -0.744 OA
ENDBRANCH  88  89
ENDBRANCH  62  83
ENDBRANCH  36  37
ENDBRANCH  28  31
ENDBRANCH  26  27
ENDBRANCH  25  26
ENDBRANCH   1  25
TORSDOF 17
ENDMDL
MODEL 3
REMARK VINA RESULT:     -10.2      3.450      4.393
REMARK SMILES CC1(CNC(=O)N[C@H]2C=C[C@H](C(=O)NCCCCNC(=O)c3ccc(-c4c5nc(c(-c6ccc(S(=O)(=O)[O-])cc6)c6ccc([nH]6)c(-c6ccc(S(=O)(=O)[O-])cc6)c6nc(c(-c7ccc(S(=O)(=O)[O-])cc7)c7ccc4[nH]7)C=C6)C=C5)cc3)C2)CCCC1
REMARK SMILES IDX 16 1 15 2 14 3 12 4 13 5 11 7 8 8 9 9 82 10 10 11 7 12 4 13
REMARK SMILES IDX 5 14 6 16 3 18 2 19 1 20 83 21 86 22 84 23 85 24 17 25 18 26
REMARK SMILES IDX 19 27 20 28 21 30 22 31 23 32 81 33 24 34 80 35 25 36 26 37
REMARK SMILES IDX 27 38 74 39 28 40 79 41 73 42 75 43 29 44 78 45 72 46 71 47
REMARK SMILES IDX 30 49 60 50 41 51 59 52 42 53 45 54 58 55 76 56 43 57 44 58
REMARK SMILES IDX 57 60 77 61 46 62 31 63 32 64 40 65 33 66 39 67 34 68 35 69
REMARK SMILES IDX 36 70 37 71 38 72 61 73 62 74 70 75 63 76 69 77 64 78 65 79
REMARK SMILES IDX 66 80 67 81 68 82 47 83 48 84 56 85 49 86 55 87 50 88 51 89
REMARK SMILES IDX 52 90 53 91 54 92
REMARK H PARENT 14 6 4 15 7 17 19 29 75 48 45 59
REMARK Flexibility Score: inf
ROOT
ATOM      1  C   UNL A   1      40.551  21.206  26.571  1.00  0.00     0.023 C 
ENDROOT
BRANCH   1   2
ATOM      2  C   UNL A   1      39.187  21.218  25.893  1.00  0.00     0.116 C 
BRANCH   2   3
ATOM      3  N   UNL A   1      38.385  22.377  26.222  1.00  0.00    -0.356 N 
ATOM      4  C   UNL A   1      37.113  22.713  25.871  1.00  0.00     0.227 C 
ATOM      5  O   UNL A   1      36.618  23.677  26.463  1.00  0.00    -0.274 OA
ATOM      6  H   UNL A   1      38.836  23.035  26.800  1.00  0.00     0.163 HD
BRANCH   4   7
ATOM      7  C   UNL A   1      36.357  22.004  24.725  1.00  0.00     0.103 C 
ATOM      8  C   UNL A   1      34.989  23.751  23.735  1.00  0.00     0.107 C 
ATOM      9  C   UNL A   1      34.140  22.693  24.368  1.00  0.00    -0.006 C 
ATOM     10  C   UNL A   1      36.266  22.932  23.483  1.00  0.00     0.047 C 
ATOM     11  C   UNL A   1      34.892  21.750  24.941  1.00  0.00    -0.016 C 
BRANCH   8  12
ATOM     12  N   UNL A   1      34.334  24.253  22.558  1.00  0.00    -0.332 N 
ATOM     13  N   UNL A   1      33.236  26.229  23.291  1.00  0.00    -0.338 N 
ATOM     14  C   UNL A   1      33.615  25.366  22.334  1.00  0.00     0.315 C 
ATOM     15  H   UNL A   1      32.825  27.047  22.927  1.00  0.00     0.165 HD
ATOM     16  O   UNL A   1      33.269  25.605  21.173  1.00  0.00    -0.249 OA
ATOM     17  H   UNL A   1      34.430  23.673  21.769  1.00  0.00     0.165 HD
BRANCH  13  18
ATOM     18  C   UNL A   1      33.297  26.225  24.744  1.00  0.00     0.124 C 
BRANCH  18  19
ATOM     19  C   UNL A   1      32.556  27.388  25.426  1.00  0.00    -0.015 C 
ATOM     20  C   UNL A   1      31.464  27.934  24.492  1.00  0.00     0.013 C 
ATOM     21  C   UNL A   1      33.499  28.500  25.910  1.00  0.00     0.008 C 
ATOM     22  C   UNL A   1      31.942  26.910  26.759  1.00  0.00     0.008 C 
ATOM     23  C   UNL A   1      32.743  29.200  27.035  1.00  0.00     0.001 C 
ATOM     24  C   UNL A   1      31.788  28.161  27.617  1.00  0.00     0.001 C 
ENDBRANCH  18  19
ENDBRANCH  13  18
ENDBRANCH   8  12
ENDBRANCH   4   7
ENDBRANCH   2   3
ENDBRANCH   1   2
BRANCH   1  25
ATOM     25  C   UNL A   1      40.708  22.148  27.764  1.00  0.00     0.023 C 
BRANCH  25  26
ATOM     26  C   UNL A   1      41.922  23.070  27.733  1.00  0.00     0.116 C 
BRANCH  26  27
ATOM     27  N   UNL A   1      42.081  23.769  26.467  1.00  0.00    -0.352 N 
ATOM     28  C   UNL A   1      41.899  25.096  26.162  1.00  0.00     0.251 C 
ATOM     29  H   UNL A   1      42.362  23.203  25.712  1.00  0.00     0.163 HD
ATOM     30  O   UNL A   1      41.962  25.454  24.987  1.00  0.00    -0.269 OA
BRANCH  28  31
ATOM     31  C   UNL A   1      41.597  26.086  27.222  1.00  0.00     0.039 A 
ATOM     32  C   UNL A   1      40.513  25.849  28.072  1.00  0.00     0.014 A 
ATOM     33  C   UNL A   1      42.357  27.249  27.379  1.00  0.00     0.014 A 
ATOM     34  C   UNL A   1      40.238  26.737  29.115  1.00  0.00     0.010 A 
ATOM     35  C   UNL A   1      42.135  28.088  28.471  1.00  0.00     0.010 A 
ATOM     36  C   UNL A   1      41.070  27.845  29.351  1.00  0.00    -0.014 A 
BRANCH  36  37
ATOM     37  C   UNL A   1      40.831  28.740  30.516  1.00  0.00     0.031 A 
ATOM     38  C   UNL A   1      41.674  28.626  31.760  1.00  0.00     0.074 A 
ATOM     39  C   UNL A   1      39.838  29.653  30.459  1.00  0.00     0.049 A 
ATOM     40  N   UNL A   1      41.619  29.336  32.859  1.00  0.00    -0.248 NA
ATOM     41  C   UNL A   1      42.699  27.570  31.783  1.00  0.00     0.031 C 
ATOM     42  C   UNL A   1      38.915  29.834  29.334  1.00  0.00     0.029 A 
ATOM     43  N   UNL A   1      39.441  30.607  31.363  1.00  0.00    -0.354 N 
ATOM     44  C   UNL A   1      42.604  28.822  33.695  1.00  0.00     0.074 A 
ATOM     45  C   UNL A   1      43.192  27.694  33.007  1.00  0.00     0.031 C 
ATOM     46  C   UNL A   1      38.093  30.862  29.597  1.00  0.00     0.029 A 
ATOM     47  C   UNL A   1      38.398  31.389  30.923  1.00  0.00     0.049 A 
ATOM     48  H   UNL A   1      39.864  30.721  32.245  1.00  0.00     0.167 HD
ATOM     49  C   UNL A   1      43.008  29.265  34.910  1.00  0.00     0.031 A 
ATOM     50  C   UNL A   1      37.759  32.416  31.516  1.00  0.00     0.031 A 
ATOM     51  C   UNL A   1      42.422  30.385  35.598  1.00  0.00     0.049 A 
ATOM     52  C   UNL A   1      38.209  32.867  32.881  1.00  0.00     0.074 A 
ATOM     53  C   UNL A   1      42.776  30.923  36.824  1.00  0.00     0.029 A 
ATOM     54  N   UNL A   1      41.365  31.145  35.121  1.00  0.00    -0.354 N 
ATOM     55  N   UNL A   1      39.184  32.402  33.625  1.00  0.00    -0.248 NA
ATOM     56  C   UNL A   1      37.482  33.997  33.478  1.00  0.00     0.031 C 
ATOM     57  C   UNL A   1      41.902  31.977  37.110  1.00  0.00     0.029 A 
ATOM     58  C   UNL A   1      41.045  32.136  36.033  1.00  0.00     0.049 A 
ATOM     59  H   UNL A   1      40.909  31.000  34.260  1.00  0.00     0.167 HD
ATOM     60  C   UNL A   1      39.207  33.204  34.762  1.00  0.00     0.074 A 
ATOM     61  C   UNL A   1      38.168  34.198  34.593  1.00  0.00     0.031 C 
ATOM     62  C   UNL A   1      40.011  33.123  35.851  1.00  0.00     0.031 A 
BRANCH  49  63
ATOM     63  C   UNL A   1      44.161  28.549  35.566  1.00  0.00    -0.014 A 
ATOM     64  C   UNL A   1      43.932  27.448  36.413  1.00  0.00     0.010 A 
ATOM     65  C   UNL A   1      45.486  28.930  35.284  1.00  0.00     0.010 A 
ATOM     66  C   UNL A   1      45.003  26.760  36.987  1.00  0.00     0.020 A 
ATOM     67  C   UNL A   1      46.562  28.223  35.834  1.00  0.00     0.020 A 
ATOM     68  C   UNL A   1      46.312  27.150  36.691  1.00  0.00     0.054 A 
BRANCH  68  69
ATOM     69  S   UNL A   1      47.681  26.203  37.413  1.00  0.00     0.124 S 
ATOM     70  O   UNL A   1      48.846  26.936  36.923  1.00  0.00    -0.237 OA
ATOM     71  O   UNL A   1      47.425  26.318  38.847  1.00  0.00    -0.237 OA
ATOM     72  O   UNL A   1      47.509  24.864  36.857  1.00  0.00    -0.744 OA
ENDBRANCH  68  69
ENDBRANCH  49  63
BRANCH  50  73
ATOM     73  C   UNL A   1      36.623  33.098  30.831  1.00  0.00    -0.014 A 
ATOM     74  C   UNL A   1      36.840  33.879  29.681  1.00  0.00     0.010 A 
ATOM     75  C   UNL A   1      35.322  33.005  31.356  1.00  0.00     0.010 A 
ATOM     76  C   UNL A   1      35.787  34.594  29.099  1.00  0.00     0.020 A 
ATOM     77  C   UNL A   1      34.260  33.687  30.756  1.00  0.00     0.020 A 
ATOM     78  C   UNL A   1      34.505  34.497  29.645  1.00  0.00     0.054 A 
BRANCH  78  79
ATOM     79  S   UNL A   1      33.152  35.434  28.879  1.00  0.00     0.124 S 
ATOM     80  O   UNL A   1      32.406  35.895  30.045  1.00  0.00    -0.237 OA
ATOM     81  O   UNL A   1      33.867  36.467  28.134  1.00  0.00    -0.237 OA
ATOM     82  O   UNL A   1      32.472  34.437  28.053  1.00  0.00    -0.744 OA
ENDBRANCH  78  79
ENDBRANCH  50  73
BRANCH  62  83
ATOM     83  C   UNL A   1      39.828  34.167  36.922  1.00  0.00    -0.014 A 
ATOM     84  C   UNL A   1      40.495  35.404  36.864  1.00  0.00     0.010 A 
ATOM     85  C   UNL A   1      38.958  33.909  37.998  1.00  0.00     0.010 A 
ATOM     86  C   UNL A   1      40.340  36.339  37.889  1.00  0.00     0.020 A 
ATOM     87  C   UNL A   1      38.772  34.857  39.007  1.00  0.00     0.020 A 
ATOM     88  C   UNL A   1      39.482  36.059  38.957  1.00  0.00     0.054 A 
BRANCH  88  89
ATOM     89  S   UNL A   1      39.289  37.294  40.269  1.00  0.00     0.124 S 
ATOM     90  O   UNL A   1      38.594  36.534  41.304  1.00  0.00    -0.237 OA
ATOM     91  O   UNL A   1      40.671  37.655  40.575  1.00  0.00    -0.237 OA
ATOM     92  O   UNL A   1      38.502  38.352  39.639  1.00  0.00    -0.744 OA
ENDBRANCH  88  89
ENDBRANCH  62  83
ENDBRANCH  36  37
ENDBRANCH  28  31
ENDBRANCH  26  27
ENDBRANCH  25  26
ENDBRANCH   1  25
TORSDOF 17
ENDMDL
