MODEL 1
REMARK VINA RESULT:     -11.7      0.000      0.000
REMARK SMILES COc1cc2c(cc1OC)[C@@H](CC(=O)NCCCCNC(=O)c1ccc(-c3c4nc(c(-c5ccc(S(=O)(=O)[O-])cc5)c5ccc([nH]5)c(-c5ccc(S(=O)(=O)[O-])cc5)c5nc(c(-c6ccc(S(=O)(=O)[O-])cc6)c6ccc3[nH]6)C=C5)C=C4)cc1)N(C(=O)Nc1ccc(Cl)cc1)CC2
REMARK SMILES IDX 17 1 16 2 15 3 13 4 14 5 12 7 11 8 3 9 4 10 8 11 5 12 7 13
REMARK SMILES IDX 6 14 95 15 94 16 83 17 2 18 1 19 9 20 10 21 84 22 85 23
REMARK SMILES IDX 86 24 87 26 88 27 93 28 89 29 92 30 90 31 91 32 18 33 19 34
REMARK SMILES IDX 20 35 21 36 22 38 23 39 24 40 82 41 25 42 81 43 26 44 27 45
REMARK SMILES IDX 28 46 75 47 29 48 80 49 74 50 76 51 30 52 79 53 73 54 72 55
REMARK SMILES IDX 31 57 61 58 42 59 60 60 43 61 46 62 59 63 77 64 44 65 45 66
REMARK SMILES IDX 58 68 78 69 47 70 32 71 33 72 41 73 34 74 40 75 35 76 36 77
REMARK SMILES IDX 37 78 38 79 39 80 62 81 63 82 71 83 64 84 70 85 65 86 66 87
REMARK SMILES IDX 67 88 68 89 69 90 48 91 49 92 57 93 50 94 56 95 51 96 52 97
REMARK SMILES IDX 53 98 54 99 55 100
REMARK H PARENT 15 6 86 25 20 37 76 56 46 67
REMARK Flexibility Score: inf
ROOT
ATOM      1  C   UNL A   1      38.504  22.326  25.941  1.00  0.00     0.023 C 
ENDROOT
BRANCH   1   2
ATOM      2  C   UNL A   1      37.345  21.506  25.369  1.00  0.00     0.116 C 
BRANCH   2   3
ATOM      3  N   UNL A   1      36.838  22.116  24.146  1.00  0.00    -0.356 N 
ATOM      4  C   UNL A   1      35.843  23.014  23.914  1.00  0.00     0.222 C 
ATOM      5  O   UNL A   1      35.544  23.264  22.743  1.00  0.00    -0.275 OA
ATOM      6  H   UNL A   1      37.306  21.821  23.331  1.00  0.00     0.163 HD
BRANCH   4   7
ATOM      7  C   UNL A   1      35.154  23.750  25.044  1.00  0.00     0.130 C 
BRANCH   7   8
ATOM      8  C   UNL A   1      33.621  23.517  25.020  1.00  0.00     0.127 C 
ATOM      9  C   UNL A   1      30.965  26.783  23.851  1.00  0.00     0.161 A 
ATOM     10  C   UNL A   1      30.479  25.676  24.524  1.00  0.00     0.054 A 
ATOM     11  C   UNL A   1      32.308  26.849  23.449  1.00  0.00     0.161 A 
ATOM     12  C   UNL A   1      31.355  24.646  24.857  1.00  0.00    -0.037 A 
ATOM     13  C   UNL A   1      33.172  25.773  23.737  1.00  0.00     0.056 A 
ATOM     14  C   UNL A   1      32.730  24.677  24.498  1.00  0.00    -0.018 A 
ATOM     15  C   UNL A   1      30.896  23.588  25.818  1.00  0.00     0.057 C 
ATOM     16  C   UNL A   1      31.935  23.660  26.922  1.00  0.00     0.127 C 
ATOM     17  N   UNL A   1      33.206  23.141  26.411  1.00  0.00    -0.317 N 
BRANCH   9  18
ATOM     18  O   UNL A   1      30.112  27.852  23.747  1.00  0.00    -0.493 OA
ATOM     19  C   UNL A   1      28.802  27.420  23.399  1.00  0.00     0.278 C 
ENDBRANCH   9  18
BRANCH  11  20
ATOM     20  O   UNL A   1      32.670  28.011  22.820  1.00  0.00    -0.493 OA
ATOM     21  C   UNL A   1      33.982  28.500  23.046  1.00  0.00     0.278 C 
ENDBRANCH  11  20
BRANCH  17  22
ATOM     22  C   UNL A   1      33.487  21.877  26.912  1.00  0.00     0.322 C 
ATOM     23  O   UNL A   1      34.453  21.649  27.624  1.00  0.00    -0.248 OA
ATOM     24  N   UNL A   1      32.604  20.960  26.373  1.00  0.00    -0.308 N 
ATOM     25  H   UNL A   1      31.644  21.134  26.497  1.00  0.00     0.171 HD
BRANCH  24  26
ATOM     26  C   UNL A   1      32.958  19.802  25.665  1.00  0.00     0.042 A 
ATOM     27  C   UNL A   1      34.062  19.897  24.811  1.00  0.00     0.028 A 
ATOM     28  C   UNL A   1      32.383  18.557  25.922  1.00  0.00     0.028 A 
ATOM     29  C   UNL A   1      34.635  18.744  24.273  1.00  0.00     0.022 A 
ATOM     30  C   UNL A   1      32.960  17.402  25.387  1.00  0.00     0.022 A 
ATOM     31  C   UNL A   1      34.094  17.500  24.582  1.00  0.00     0.041 A 
ATOM     32  Cl  UNL A   1      34.855  16.071  24.001  1.00  0.00    -0.084 Cl
ENDBRANCH  24  26
ENDBRANCH  17  22
ENDBRANCH   7   8
ENDBRANCH   4   7
ENDBRANCH   2   3
ENDBRANCH   1   2
BRANCH   1  33
ATOM     33  C   UNL A   1      39.720  21.530  26.382  1.00  0.00     0.023 C 
BRANCH  33  34
ATOM     34  C   UNL A   1      40.897  22.364  26.862  1.00  0.00     0.116 C 
BRANCH  34  35
ATOM     35  N   UNL A   1      41.790  22.858  25.814  1.00  0.00    -0.352 N 
ATOM     36  C   UNL A   1      42.191  24.162  25.575  1.00  0.00     0.251 C 
ATOM     37  H   UNL A   1      42.152  22.177  25.202  1.00  0.00     0.163 HD
ATOM     38  O   UNL A   1      43.007  24.437  24.709  1.00  0.00    -0.269 OA
BRANCH  36  39
ATOM     39  C   UNL A   1      41.541  25.230  26.361  1.00  0.00     0.039 A 
ATOM     40  C   UNL A   1      40.814  24.872  27.500  1.00  0.00     0.014 A 
ATOM     41  C   UNL A   1      41.873  26.559  26.108  1.00  0.00     0.014 A 
ATOM     42  C   UNL A   1      40.559  25.839  28.475  1.00  0.00     0.010 A 
ATOM     43  C   UNL A   1      41.723  27.483  27.131  1.00  0.00     0.010 A 
ATOM     44  C   UNL A   1      41.098  27.128  28.342  1.00  0.00    -0.014 A 
BRANCH  44  45
ATOM     45  C   UNL A   1      41.079  28.128  29.446  1.00  0.00     0.031 A 
ATOM     46  C   UNL A   1      42.079  27.995  30.563  1.00  0.00     0.074 A 
ATOM     47  C   UNL A   1      40.096  29.050  29.530  1.00  0.00     0.049 A 
ATOM     48  N   UNL A   1      42.065  28.531  31.754  1.00  0.00    -0.248 NA
ATOM     49  C   UNL A   1      43.209  27.080  30.325  1.00  0.00     0.031 C 
ATOM     50  C   UNL A   1      39.039  29.276  28.540  1.00  0.00     0.029 A 
ATOM     51  N   UNL A   1      39.816  29.966  30.517  1.00  0.00    -0.354 N 
ATOM     52  C   UNL A   1      43.142  27.967  32.428  1.00  0.00     0.074 A 
ATOM     53  C   UNL A   1      43.760  27.019  31.527  1.00  0.00     0.031 C 
ATOM     54  C   UNL A   1      38.253  30.287  28.951  1.00  0.00     0.029 A 
ATOM     55  C   UNL A   1      38.705  30.738  30.262  1.00  0.00     0.049 A 
ATOM     56  H   UNL A   1      40.359  30.060  31.332  1.00  0.00     0.167 HD
ATOM     57  C   UNL A   1      43.588  28.225  33.679  1.00  0.00     0.031 A 
ATOM     58  C   UNL A   1      38.107  31.690  31.006  1.00  0.00     0.031 A 
ATOM     59  C   UNL A   1      43.018  29.222  34.542  1.00  0.00     0.049 A 
ATOM     60  C   UNL A   1      38.659  32.008  32.370  1.00  0.00     0.074 A 
ATOM     61  C   UNL A   1      43.422  29.595  35.812  1.00  0.00     0.029 A 
ATOM     62  N   UNL A   1      41.946  30.033  34.205  1.00  0.00    -0.354 N 
ATOM     63  N   UNL A   1      39.671  31.454  32.996  1.00  0.00    -0.248 NA
ATOM     64  C   UNL A   1      37.993  33.077  33.129  1.00  0.00     0.031 C 
ATOM     65  C   UNL A   1      42.588  30.630  36.245  1.00  0.00     0.029 A 
ATOM     66  C   UNL A   1      41.688  30.920  35.232  1.00  0.00     0.049 A 
ATOM     67  H   UNL A   1      41.443  29.983  33.360  1.00  0.00     0.167 HD
ATOM     68  C   UNL A   1      39.784  32.133  34.205  1.00  0.00     0.074 A 
ATOM     69  C   UNL A   1      38.741  33.137  34.224  1.00  0.00     0.031 C 
ATOM     70  C   UNL A   1      40.673  31.941  35.208  1.00  0.00     0.031 A 
BRANCH  57  71
ATOM     71  C   UNL A   1      44.762  27.425  34.171  1.00  0.00    -0.014 A 
ATOM     72  C   UNL A   1      44.574  26.199  34.833  1.00  0.00     0.010 A 
ATOM     73  C   UNL A   1      46.070  27.902  33.967  1.00  0.00     0.010 A 
ATOM     74  C   UNL A   1      45.667  25.493  35.337  1.00  0.00     0.020 A 
ATOM     75  C   UNL A   1      47.170  27.181  34.442  1.00  0.00     0.020 A 
ATOM     76  C   UNL A   1      46.958  25.993  35.145  1.00  0.00     0.054 A 
BRANCH  76  77
ATOM     77  S   UNL A   1      48.362  25.056  35.808  1.00  0.00     0.124 S 
ATOM     78  O   UNL A   1      47.687  23.998  36.556  1.00  0.00    -0.237 OA
ATOM     79  O   UNL A   1      49.061  24.622  34.601  1.00  0.00    -0.237 OA
ATOM     80  O   UNL A   1      49.078  26.036  36.621  1.00  0.00    -0.744 OA
ENDBRANCH  76  77
ENDBRANCH  57  71
BRANCH  58  81
ATOM     81  C   UNL A   1      36.931  32.437  30.479  1.00  0.00    -0.014 A 
ATOM     82  C   UNL A   1      37.124  33.559  29.653  1.00  0.00     0.010 A 
ATOM     83  C   UNL A   1      35.620  32.052  30.809  1.00  0.00     0.010 A 
ATOM     84  C   UNL A   1      36.033  34.301  29.193  1.00  0.00     0.020 A 
ATOM     85  C   UNL A   1      34.523  32.777  30.330  1.00  0.00     0.020 A 
ATOM     86  C   UNL A   1      34.738  33.908  29.539  1.00  0.00     0.054 A 
BRANCH  86  87
ATOM     87  S   UNL A   1      33.332  34.871  28.912  1.00  0.00     0.124 S 
ATOM     88  O   UNL A   1      33.994  36.061  28.386  1.00  0.00    -0.237 OA
ATOM     89  O   UNL A   1      32.753  33.976  27.913  1.00  0.00    -0.237 OA
ATOM     90  O   UNL A   1      32.509  35.082  30.100  1.00  0.00    -0.744 OA
ENDBRANCH  86  87
ENDBRANCH  58  81
BRANCH  70  91
ATOM     91  C   UNL A   1      40.620  32.876  36.381  1.00  0.00    -0.014 A 
ATOM     92  C   UNL A   1      41.433  34.020  36.436  1.00  0.00     0.010 A 
ATOM     93  C   UNL A   1      39.655  32.664  37.383  1.00  0.00     0.010 A 
ATOM     94  C   UNL A   1      41.279  34.941  37.476  1.00  0.00     0.020 A 
ATOM     95  C   UNL A   1      39.487  33.590  38.413  1.00  0.00     0.020 A 
ATOM     96  C   UNL A   1      40.302  34.724  38.453  1.00  0.00     0.054 A 
BRANCH  96  97
ATOM     97  S   UNL A   1      40.050  35.984  39.735  1.00  0.00     0.124 S 
ATOM     98  O   UNL A   1      38.723  35.644  40.238  1.00  0.00    -0.237 OA
ATOM     99  O   UNL A   1      41.156  35.732  40.656  1.00  0.00    -0.237 OA
ATOM    100  O   UNL A   1      40.135  37.244  39.000  1.00  0.00    -0.744 OA
ENDBRANCH  96  97
ENDBRANCH  70  91
ENDBRANCH  44  45
ENDBRANCH  36  39
ENDBRANCH  34  35
ENDBRANCH  33  34
ENDBRANCH   1  33
TORSDOF 19
ENDMDL
MODEL 2
REMARK VINA RESULT:     -11.5      1.632      2.310
REMARK SMILES COc1cc2c(cc1OC)[C@@H](CC(=O)NCCCCNC(=O)c1ccc(-c3c4nc(c(-c5ccc(S(=O)(=O)[O-])cc5)c5ccc([nH]5)c(-c5ccc(S(=O)(=O)[O-])cc5)c5nc(c(-c6ccc(S(=O)(=O)[O-])cc6)c6ccc3[nH]6)C=C5)C=C4)cc1)N(C(=O)Nc1ccc(Cl)cc1)CC2
REMARK SMILES IDX 17 1 16 2 15 3 13 4 14 5 12 7 11 8 3 9 4 10 8 11 5 12 7 13
REMARK SMILES IDX 6 14 95 15 94 16 83 17 2 18 1 19 9 20 10 21 84 22 85 23
REMARK SMILES IDX 86 24 87 26 88 27 93 28 89 29 92 30 90 31 91 32 18 33 19 34
REMARK SMILES IDX 20 35 21 36 22 38 23 39 24 40 82 41 25 42 81 43 26 44 27 45
REMARK SMILES IDX 28 46 75 47 29 48 80 49 74 50 76 51 30 52 79 53 73 54 72 55
REMARK SMILES IDX 31 57 61 58 42 59 60 60 43 61 46 62 59 63 77 64 44 65 45 66
REMARK SMILES IDX 58 68 78 69 47 70 32 71 33 72 41 73 34 74 40 75 35 76 36 77
REMARK SMILES IDX 37 78 38 79 39 80 62 81 63 82 71 83 64 84 70 85 65 86 66 87
REMARK SMILES IDX 67 88 68 89 69 90 48 91 49 92 57 93 50 94 56 95 51 96 52 97
REMARK SMILES IDX 53 98 54 99 55 100
REMARK H PARENT 15 6 86 25 20 37 76 56 46 67
REMARK Flexibility Score: inf
ROOT
ATOM      1  C   UNL A   1      37.896  23.183  25.864  1.00  0.00     0.023 C 
ENDROOT
BRANCH   1   2
ATOM      2  C   UNL A   1      37.386  21.899  25.205  1.00  0.00     0.116 C 
BRANCH   2   3
ATOM      3  N   UNL A   1      36.611  22.209  24.010  1.00  0.00    -0.356 N 
ATOM      4  C   UNL A   1      35.495  22.961  23.811  1.00  0.00     0.222 C 
ATOM      5  O   UNL A   1      34.972  22.946  22.694  1.00  0.00    -0.275 OA
ATOM      6  H   UNL A   1      36.961  21.793  23.189  1.00  0.00     0.163 HD
BRANCH   4   7
ATOM      7  C   UNL A   1      34.932  23.854  24.897  1.00  0.00     0.130 C 
BRANCH   7   8
ATOM      8  C   UNL A   1      33.381  23.856  24.881  1.00  0.00     0.127 C 
ATOM      9  C   UNL A   1      31.244  27.529  23.862  1.00  0.00     0.161 A 
ATOM     10  C   UNL A   1      30.600  26.483  24.498  1.00  0.00     0.054 A 
ATOM     11  C   UNL A   1      32.580  27.407  23.449  1.00  0.00     0.161 A 
ATOM     12  C   UNL A   1      31.311  25.320  24.783  1.00  0.00    -0.037 A 
ATOM     13  C   UNL A   1      33.273  26.202  23.687  1.00  0.00     0.056 A 
ATOM     14  C   UNL A   1      32.673  25.157  24.412  1.00  0.00    -0.018 A 
ATOM     15  C   UNL A   1      30.701  24.308  25.709  1.00  0.00     0.057 C 
ATOM     16  C   UNL A   1      31.744  24.179  26.804  1.00  0.00     0.127 C 
ATOM     17  N   UNL A   1      32.919  23.494  26.260  1.00  0.00    -0.317 N 
BRANCH   9  18
ATOM     18  O   UNL A   1      30.562  28.718  23.807  1.00  0.00    -0.493 OA
ATOM     19  C   UNL A   1      31.007  29.602  24.829  1.00  0.00     0.278 C 
ENDBRANCH   9  18
BRANCH  11  20
ATOM     20  O   UNL A   1      33.111  28.524  22.860  1.00  0.00    -0.493 OA
ATOM     21  C   UNL A   1      34.236  28.350  22.014  1.00  0.00     0.278 C 
ENDBRANCH  11  20
BRANCH  17  22
ATOM     22  C   UNL A   1      33.009  22.183  26.711  1.00  0.00     0.322 C 
ATOM     23  O   UNL A   1      33.885  21.806  27.473  1.00  0.00    -0.248 OA
ATOM     24  N   UNL A   1      32.063  21.409  26.065  1.00  0.00    -0.308 N 
ATOM     25  H   UNL A   1      31.124  21.695  26.134  1.00  0.00     0.171 HD
BRANCH  24  26
ATOM     26  C   UNL A   1      32.324  20.249  25.323  1.00  0.00     0.042 A 
ATOM     27  C   UNL A   1      32.275  20.367  23.930  1.00  0.00     0.028 A 
ATOM     28  C   UNL A   1      32.801  19.073  25.904  1.00  0.00     0.028 A 
ATOM     29  C   UNL A   1      32.769  19.344  23.120  1.00  0.00     0.022 A 
ATOM     30  C   UNL A   1      33.298  18.050  25.092  1.00  0.00     0.022 A 
ATOM     31  C   UNL A   1      33.298  18.199  23.706  1.00  0.00     0.041 A 
ATOM     32  Cl  UNL A   1      33.996  16.978  22.715  1.00  0.00    -0.084 Cl
ENDBRANCH  24  26
ENDBRANCH  17  22
ENDBRANCH   7   8
ENDBRANCH   4   7
ENDBRANCH   2   3
ENDBRANCH   1   2
BRANCH   1  33
ATOM     33  C   UNL A   1      39.158  23.041  26.697  1.00  0.00     0.023 C 
BRANCH  33  34
ATOM     34  C   UNL A   1      39.748  24.347  27.201  1.00  0.00     0.116 C 
BRANCH  34  35
ATOM     35  N   UNL A   1      40.467  25.141  26.205  1.00  0.00    -0.352 N 
ATOM     36  C   UNL A   1      40.770  26.492  26.243  1.00  0.00     0.251 C 
ATOM     37  H   UNL A   1      40.775  24.653  25.407  1.00  0.00     0.163 HD
ATOM     38  O   UNL A   1      41.447  27.025  25.378  1.00  0.00    -0.269 OA
BRANCH  36  39
ATOM     39  C   UNL A   1      40.184  27.292  27.337  1.00  0.00     0.039 A 
ATOM     40  C   UNL A   1      39.925  26.664  28.558  1.00  0.00     0.014 A 
ATOM     41  C   UNL A   1      40.144  28.679  27.220  1.00  0.00     0.014 A 
ATOM     42  C   UNL A   1      39.784  27.444  29.708  1.00  0.00     0.010 A 
ATOM     43  C   UNL A   1      40.124  29.440  28.379  1.00  0.00     0.010 A 
ATOM     44  C   UNL A   1      39.982  28.831  29.642  1.00  0.00    -0.014 A 
BRANCH  44  45
ATOM     45  C   UNL A   1      40.092  29.690  30.854  1.00  0.00     0.031 A 
ATOM     46  C   UNL A   1      41.249  29.474  31.792  1.00  0.00     0.074 A 
ATOM     47  C   UNL A   1      39.102  30.544  31.193  1.00  0.00     0.049 A 
ATOM     48  N   UNL A   1      41.394  29.862  33.031  1.00  0.00    -0.248 NA
ATOM     49  C   UNL A   1      42.362  28.654  31.282  1.00  0.00     0.031 C 
ATOM     50  C   UNL A   1      37.904  30.833  30.400  1.00  0.00     0.029 A 
ATOM     51  N   UNL A   1      38.940  31.319  32.317  1.00  0.00    -0.354 N 
ATOM     52  C   UNL A   1      42.576  29.277  33.469  1.00  0.00     0.074 A 
ATOM     53  C   UNL A   1      43.086  28.477  32.377  1.00  0.00     0.031 C 
ATOM     54  C   UNL A   1      37.154  31.745  31.043  1.00  0.00     0.029 A 
ATOM     55  C   UNL A   1      37.779  32.058  32.322  1.00  0.00     0.049 A 
ATOM     56  H   UNL A   1      39.594  31.342  33.052  1.00  0.00     0.167 HD
ATOM     57  C   UNL A   1      43.193  29.406  34.666  1.00  0.00     0.031 A 
ATOM     58  C   UNL A   1      37.267  32.882  33.258  1.00  0.00     0.031 A 
ATOM     59  C   UNL A   1      42.724  30.261  35.720  1.00  0.00     0.049 A 
ATOM     60  C   UNL A   1      38.003  33.061  34.559  1.00  0.00     0.074 A 
ATOM     61  C   UNL A   1      43.297  30.499  36.957  1.00  0.00     0.029 A 
ATOM     62  N   UNL A   1      41.587  31.051  35.644  1.00  0.00    -0.354 N 
ATOM     63  N   UNL A   1      39.113  32.489  34.960  1.00  0.00    -0.248 NA
ATOM     64  C   UNL A   1      37.420  33.996  35.534  1.00  0.00     0.031 C 
ATOM     65  C   UNL A   1      42.502  31.430  37.631  1.00  0.00     0.029 A 
ATOM     66  C   UNL A   1      41.454  31.794  36.801  1.00  0.00     0.049 A 
ATOM     67  H   UNL A   1      40.967  31.077  34.880  1.00  0.00     0.167 HD
ATOM     68  C   UNL A   1      39.381  33.022  36.216  1.00  0.00     0.074 A 
ATOM     69  C   UNL A   1      38.319  33.962  36.510  1.00  0.00     0.031 C 
ATOM     70  C   UNL A   1      40.413  32.757  37.051  1.00  0.00     0.031 A 
BRANCH  57  71
ATOM     71  C   UNL A   1      44.452  28.613  34.881  1.00  0.00    -0.014 A 
ATOM     72  C   UNL A   1      45.708  29.145  34.539  1.00  0.00     0.010 A 
ATOM     73  C   UNL A   1      44.381  27.322  35.435  1.00  0.00     0.010 A 
ATOM     74  C   UNL A   1      46.865  28.379  34.688  1.00  0.00     0.020 A 
ATOM     75  C   UNL A   1      45.542  26.563  35.616  1.00  0.00     0.020 A 
ATOM     76  C   UNL A   1      46.773  27.089  35.218  1.00  0.00     0.054 A 
BRANCH  76  77
ATOM     77  S   UNL A   1      48.291  26.114  35.404  1.00  0.00     0.124 S 
ATOM     78  O   UNL A   1      49.194  26.791  34.477  1.00  0.00    -0.237 OA
ATOM     79  O   UNL A   1      48.608  26.275  36.821  1.00  0.00    -0.237 OA
ATOM     80  O   UNL A   1      47.886  24.767  35.009  1.00  0.00    -0.744 OA
ENDBRANCH  76  77
ENDBRANCH  57  71
BRANCH  58  81
ATOM     81  C   UNL A   1      36.001  33.626  33.002  1.00  0.00    -0.014 A 
ATOM     82  C   UNL A   1      36.048  34.974  32.603  1.00  0.00     0.010 A 
ATOM     83  C   UNL A   1      34.750  33.009  33.172  1.00  0.00     0.010 A 
ATOM     84  C   UNL A   1      34.870  35.700  32.409  1.00  0.00     0.020 A 
ATOM     85  C   UNL A   1      33.568  33.725  32.954  1.00  0.00     0.020 A 
ATOM     86  C   UNL A   1      33.635  35.072  32.592  1.00  0.00     0.054 A 
BRANCH  86  87
ATOM     87  S   UNL A   1      32.116  36.025  32.312  1.00  0.00     0.124 S 
ATOM     88  O   UNL A   1      31.084  35.062  32.680  1.00  0.00    -0.237 OA
ATOM     89  O   UNL A   1      32.278  37.158  33.220  1.00  0.00    -0.237 OA
ATOM     90  O   UNL A   1      32.184  36.362  30.891  1.00  0.00    -0.744 OA
ENDBRANCH  86  87
ENDBRANCH  58  81
BRANCH  70  91
ATOM     91  C   UNL A   1      40.503  33.541  38.328  1.00  0.00    -0.014 A 
ATOM     92  C   UNL A   1      41.176  34.773  38.380  1.00  0.00     0.010 A 
ATOM     93  C   UNL A   1      39.800  33.087  39.460  1.00  0.00     0.010 A 
ATOM     94  C   UNL A   1      41.141  35.543  39.545  1.00  0.00     0.020 A 
ATOM     95  C   UNL A   1      39.749  33.862  40.619  1.00  0.00     0.020 A 
ATOM     96  C   UNL A   1      40.421  35.086  40.655  1.00  0.00     0.054 A 
BRANCH  96  97
ATOM     97  S   UNL A   1      40.304  36.150  42.120  1.00  0.00     0.124 S 
ATOM     98  O   UNL A   1      41.708  36.404  42.425  1.00  0.00    -0.237 OA
ATOM     99  O   UNL A   1      39.550  37.300  41.622  1.00  0.00    -0.237 OA
ATOM    100  O   UNL A   1      39.593  35.322  43.091  1.00  0.00    -0.744 OA
ENDBRANCH  96  97
ENDBRANCH  70  91
ENDBRANCH  44  45
ENDBRANCH  36  39
ENDBRANCH  34  35
ENDBRANCH  33  34
ENDBRANCH   1  33
TORSDOF 19
ENDMDL
MODEL 3
REMARK VINA RESULT:     -10.7      5.956     10.619
REMARK SMILES COc1cc2c(cc1OC)[C@@H](CC(=O)NCCCCNC(=O)c1ccc(-c3c4nc(c(-c5ccc(S(=O)(=O)[O-])cc5)c5ccc([nH]5)c(-c5ccc(S(=O)(=O)[O-])cc5)c5nc(c(-c6ccc(S(=O)(=O)[O-])cc6)c6ccc3[nH]6)C=C5)C=C4)cc1)N(C(=O)Nc1ccc(Cl)cc1)CC2
REMARK SMILES IDX 17 1 16 2 15 3 13 4 14 5 12 7 11 8 3 9 4 10 8 11 5 12 7 13
REMARK SMILES IDX 6 14 95 15 94 16 83 17 2 18 1 19 9 20 10 21 84 22 85 23
REMARK SMILES IDX 86 24 87 26 88 27 93 28 89 29 92 30 90 31 91 32 18 33 19 34
REMARK SMILES IDX 20 35 21 36 22 38 23 39 24 40 82 41 25 42 81 43 26 44 27 45
REMARK SMILES IDX 28 46 75 47 29 48 80 49 74 50 76 51 30 52 79 53 73 54 72 55
REMARK SMILES IDX 31 57 61 58 42 59 60 60 43 61 46 62 59 63 77 64 44 65 45 66
REMARK SMILES IDX 58 68 78 69 47 70 32 71 33 72 41 73 34 74 40 75 35 76 36 77
REMARK SMILES IDX 37 78 38 79 39 80 62 81 63 82 71 83 64 84 70 85 65 86 66 87
REMARK SMILES IDX 67 88 68 89 69 90 48 91 49 92 57 93 50 94 56 95 51 96 52 97
REMARK SMILES IDX 53 98 54 99 55 100
REMARK H PARENT 15 6 86 25 20 37 76 56 46 67
REMARK Flexibility Score: inf
ROOT
ATOM      1  C   UNL A   1      38.527  24.081  26.796  1.00  0.00     0.023 C 
ENDROOT
BRANCH   1   2
ATOM      2  C   UNL A   1      37.280  23.354  26.287  1.00  0.00     0.116 C 
BRANCH   2   3
ATOM      3  N   UNL A   1      36.957  23.777  24.930  1.00  0.00    -0.356 N 
ATOM      4  C   UNL A   1      36.578  23.086  23.821  1.00  0.00     0.222 C 
ATOM      5  O   UNL A   1      36.490  23.698  22.754  1.00  0.00    -0.275 OA
ATOM      6  H   UNL A   1      37.028  24.749  24.788  1.00  0.00     0.163 HD
BRANCH   4   7
ATOM      7  C   UNL A   1      36.202  21.620  23.885  1.00  0.00     0.130 C 
BRANCH   7   8
ATOM      8  C   UNL A   1      34.883  21.408  24.673  1.00  0.00     0.127 C 
ATOM      9  C   UNL A   1      33.156  17.403  24.939  1.00  0.00     0.161 A 
ATOM     10  C   UNL A   1      32.401  18.525  25.230  1.00  0.00     0.054 A 
ATOM     11  C   UNL A   1      34.522  17.513  24.634  1.00  0.00     0.161 A 
ATOM     12  C   UNL A   1      32.996  19.782  25.157  1.00  0.00    -0.037 A 
ATOM     13  C   UNL A   1      35.130  18.786  24.623  1.00  0.00     0.056 A 
ATOM     14  C   UNL A   1      34.368  19.950  24.824  1.00  0.00    -0.018 A 
ATOM     15  C   UNL A   1      32.121  21.000  25.198  1.00  0.00     0.057 C 
ATOM     16  C   UNL A   1      32.474  21.715  23.906  1.00  0.00     0.127 C 
ATOM     17  N   UNL A   1      33.832  22.254  24.020  1.00  0.00    -0.317 N 
BRANCH   9  18
ATOM     18  O   UNL A   1      32.467  16.223  24.814  1.00  0.00    -0.493 OA
ATOM     19  C   UNL A   1      32.303  15.599  26.082  1.00  0.00     0.278 C 
ENDBRANCH   9  18
BRANCH  11  20
ATOM     20  O   UNL A   1      35.148  16.332  24.334  1.00  0.00    -0.493 OA
ATOM     21  C   UNL A   1      35.854  15.679  25.376  1.00  0.00     0.278 C 
ENDBRANCH  11  20
BRANCH  17  22
ATOM     22  C   UNL A   1      33.828  23.632  24.196  1.00  0.00     0.322 C 
ATOM     23  O   UNL A   1      33.995  24.158  25.286  1.00  0.00    -0.248 OA
ATOM     24  N   UNL A   1      33.483  24.248  23.008  1.00  0.00    -0.308 N 
ATOM     25  H   UNL A   1      34.032  24.040  22.218  1.00  0.00     0.171 HD
BRANCH  24  26
ATOM     26  C   UNL A   1      32.422  25.146  22.830  1.00  0.00     0.042 A 
ATOM     27  C   UNL A   1      31.196  24.795  23.406  1.00  0.00     0.028 A 
ATOM     28  C   UNL A   1      32.593  26.417  22.282  1.00  0.00     0.028 A 
ATOM     29  C   UNL A   1      30.169  25.735  23.500  1.00  0.00     0.022 A 
ATOM     30  C   UNL A   1      31.567  27.360  22.380  1.00  0.00     0.022 A 
ATOM     31  C   UNL A   1      30.368  27.021  23.006  1.00  0.00     0.041 A 
ATOM     32  Cl  UNL A   1      29.142  28.211  23.207  1.00  0.00    -0.084 Cl
ENDBRANCH  24  26
ENDBRANCH  17  22
ENDBRANCH   7   8
ENDBRANCH   4   7
ENDBRANCH   2   3
ENDBRANCH   1   2
BRANCH   1  33
ATOM     33  C   UNL A   1      39.851  23.390  26.523  1.00  0.00     0.023 C 
BRANCH  33  34
ATOM     34  C   UNL A   1      40.078  22.102  27.297  1.00  0.00     0.116 C 
BRANCH  34  35
ATOM     35  N   UNL A   1      40.398  20.927  26.487  1.00  0.00    -0.352 N 
ATOM     36  C   UNL A   1      41.629  20.547  25.977  1.00  0.00     0.251 C 
ATOM     37  H   UNL A   1      39.643  20.330  26.279  1.00  0.00     0.163 HD
ATOM     38  O   UNL A   1      41.780  19.495  25.376  1.00  0.00    -0.269 OA
BRANCH  36  39
ATOM     39  C   UNL A   1      42.749  21.498  26.122  1.00  0.00     0.039 A 
ATOM     40  C   UNL A   1      43.008  22.389  25.078  1.00  0.00     0.014 A 
ATOM     41  C   UNL A   1      43.346  21.660  27.371  1.00  0.00     0.014 A 
ATOM     42  C   UNL A   1      43.747  23.545  25.338  1.00  0.00     0.010 A 
ATOM     43  C   UNL A   1      43.973  22.865  27.651  1.00  0.00     0.010 A 
ATOM     44  C   UNL A   1      44.149  23.840  26.650  1.00  0.00    -0.014 A 
BRANCH  44  45
ATOM     45  C   UNL A   1      44.717  25.159  27.043  1.00  0.00     0.031 A 
ATOM     46  C   UNL A   1      43.792  26.213  27.589  1.00  0.00     0.074 A 
ATOM     47  C   UNL A   1      46.006  25.467  26.780  1.00  0.00     0.049 A 
ATOM     48  N   UNL A   1      43.980  27.501  27.704  1.00  0.00    -0.248 NA
ATOM     49  C   UNL A   1      42.451  25.760  27.998  1.00  0.00     0.031 C 
ATOM     50  C   UNL A   1      47.012  24.559  26.221  1.00  0.00     0.029 A 
ATOM     51  N   UNL A   1      46.688  26.651  26.933  1.00  0.00    -0.354 N 
ATOM     52  C   UNL A   1      42.763  28.018  28.131  1.00  0.00     0.074 A 
ATOM     53  C   UNL A   1      41.835  26.911  28.215  1.00  0.00     0.031 C 
ATOM     54  C   UNL A   1      48.186  25.206  26.116  1.00  0.00     0.029 A 
ATOM     55  C   UNL A   1      48.004  26.591  26.534  1.00  0.00     0.049 A 
ATOM     56  H   UNL A   1      46.273  27.467  27.294  1.00  0.00     0.167 HD
ATOM     57  C   UNL A   1      42.447  29.297  28.442  1.00  0.00     0.031 A 
ATOM     58  C   UNL A   1      48.954  27.548  26.493  1.00  0.00     0.031 A 
ATOM     59  C   UNL A   1      43.391  30.379  28.430  1.00  0.00     0.049 A 
ATOM     60  C   UNL A   1      48.598  28.951  26.906  1.00  0.00     0.074 A 
ATOM     61  C   UNL A   1      43.186  31.704  28.771  1.00  0.00     0.029 A 
ATOM     62  N   UNL A   1      44.730  30.250  28.097  1.00  0.00    -0.354 N 
ATOM     63  N   UNL A   1      47.437  29.424  27.294  1.00  0.00    -0.248 NA
ATOM     64  C   UNL A   1      49.677  29.950  26.875  1.00  0.00     0.031 C 
ATOM     65  C   UNL A   1      44.403  32.379  28.638  1.00  0.00     0.029 A 
ATOM     66  C   UNL A   1      45.369  31.466  28.246  1.00  0.00     0.049 A 
ATOM     67  H   UNL A   1      45.161  29.417  27.799  1.00  0.00     0.167 HD
ATOM     68  C   UNL A   1      47.656  30.765  27.590  1.00  0.00     0.074 A 
ATOM     69  C   UNL A   1      49.057  31.030  27.336  1.00  0.00     0.031 C 
ATOM     70  C   UNL A   1      46.775  31.694  28.031  1.00  0.00     0.031 A 
BRANCH  57  71
ATOM     71  C   UNL A   1      41.024  29.578  28.838  1.00  0.00    -0.014 A 
ATOM     72  C   UNL A   1      39.967  29.355  27.939  1.00  0.00     0.010 A 
ATOM     73  C   UNL A   1      40.740  30.070  30.125  1.00  0.00     0.010 A 
ATOM     74  C   UNL A   1      38.656  29.675  28.297  1.00  0.00     0.020 A 
ATOM     75  C   UNL A   1      39.424  30.361  30.498  1.00  0.00     0.020 A 
ATOM     76  C   UNL A   1      38.394  30.184  29.571  1.00  0.00     0.054 A 
BRANCH  76  77
ATOM     77  S   UNL A   1      36.683  30.590  30.013  1.00  0.00     0.124 S 
ATOM     78  O   UNL A   1      36.216  29.330  30.585  1.00  0.00    -0.237 OA
ATOM     79  O   UNL A   1      36.846  31.688  30.962  1.00  0.00    -0.237 OA
ATOM     80  O   UNL A   1      36.075  30.959  28.737  1.00  0.00    -0.744 OA
ENDBRANCH  76  77
ENDBRANCH  57  71
BRANCH  58  81
ATOM     81  C   UNL A   1      50.344  27.218  26.069  1.00  0.00    -0.014 A 
ATOM     82  C   UNL A   1      50.699  27.290  24.710  1.00  0.00     0.010 A 
ATOM     83  C   UNL A   1      51.310  26.814  27.006  1.00  0.00     0.010 A 
ATOM     84  C   UNL A   1      51.983  26.934  24.290  1.00  0.00     0.020 A 
ATOM     85  C   UNL A   1      52.605  26.481  26.593  1.00  0.00     0.020 A 
ATOM     86  C   UNL A   1      52.928  26.525  25.235  1.00  0.00     0.054 A 
BRANCH  86  87
ATOM     87  S   UNL A   1      54.598  26.090  24.672  1.00  0.00     0.124 S 
ATOM     88  O   UNL A   1      54.526  26.401  23.248  1.00  0.00    -0.237 OA
ATOM     89  O   UNL A   1      55.444  26.973  25.471  1.00  0.00    -0.237 OA
ATOM     90  O   UNL A   1      54.707  24.670  25.001  1.00  0.00    -0.744 OA
ENDBRANCH  86  87
ENDBRANCH  58  81
BRANCH  70  91
ATOM     91  C   UNL A   1      47.299  33.064  28.349  1.00  0.00    -0.014 A 
ATOM     92  C   UNL A   1      47.279  34.091  27.391  1.00  0.00     0.010 A 
ATOM     93  C   UNL A   1      47.706  33.352  29.665  1.00  0.00     0.010 A 
ATOM     94  C   UNL A   1      47.655  35.389  27.746  1.00  0.00     0.020 A 
ATOM     95  C   UNL A   1      48.067  34.651  30.027  1.00  0.00     0.020 A 
ATOM     96  C   UNL A   1      48.040  35.662  29.064  1.00  0.00     0.054 A 
BRANCH  96  97
ATOM     97  S   UNL A   1      48.424  37.374  29.527  1.00  0.00     0.124 S 
ATOM     98  O   UNL A   1      49.882  37.351  29.594  1.00  0.00    -0.237 OA
ATOM     99  O   UNL A   1      47.858  38.141  28.418  1.00  0.00    -0.237 OA
ATOM    100  O   UNL A   1      47.742  37.547  30.806  1.00  0.00    -0.744 OA
ENDBRANCH  96  97
ENDBRANCH  70  91
ENDBRANCH  44  45
ENDBRANCH  36  39
ENDBRANCH  34  35
ENDBRANCH  33  34
ENDBRANCH   1  33
TORSDOF 19
ENDMDL
