MODEL 1
REMARK VINA RESULT:     -10.4      0.000      0.000
REMARK SMILES C[C@@H](C(=O)NCCCCNC(=O)c1ccc(-c2c3nc(c(-c4ccc(S(=O)(=O)[O-])cc4)c4ccc([nH]4)c(-c4ccc(S(=O)(=O)[O-])cc4)c4nc(c(-c5ccc(S(=O)(=O)[O-])cc5)c5ccc2[nH]5)C=C4)C=C3)cc1)[C@@H](C)C(=O)c1cccc(Cl)c1
REMARK SMILES IDX 7 1 6 2 5 3 3 4 4 5 2 7 1 8 73 9 74 10 75 11 76 12 77 13
REMARK SMILES IDX 78 14 83 15 79 16 81 17 80 18 82 19 8 20 9 21 10 22 11 23
REMARK SMILES IDX 12 25 13 26 14 27 72 28 15 29 71 30 16 31 17 32 18 33 65 34
REMARK SMILES IDX 19 35 70 36 64 37 66 38 20 39 69 40 63 41 62 42 21 44 51 45
REMARK SMILES IDX 32 46 50 47 33 48 36 49 49 50 67 51 34 52 35 53 48 55 68 56
REMARK SMILES IDX 37 57 22 58 23 59 31 60 24 61 30 62 25 63 26 64 27 65 28 66
REMARK SMILES IDX 29 67 52 68 53 69 61 70 54 71 60 72 55 73 56 74 57 75 58 76
REMARK SMILES IDX 59 77 38 78 39 79 47 80 40 81 46 82 41 83 42 84 43 85 44 86
REMARK SMILES IDX 45 87
REMARK H PARENT 5 6 10 24 66 43 36 54
REMARK Flexibility Score: inf
ROOT
ATOM      1  C   UNL A   1      34.635  34.490  28.006  1.00  0.00     0.023 C 
ENDROOT
BRANCH   1   2
ATOM      2  C   UNL A   1      33.272  34.795  28.627  1.00  0.00     0.116 C 
BRANCH   2   3
ATOM      3  N   UNL A   1      33.218  36.133  29.187  1.00  0.00    -0.356 N 
ATOM      4  C   UNL A   1      33.023  36.551  30.470  1.00  0.00     0.223 C 
ATOM      5  O   UNL A   1      32.970  37.761  30.677  1.00  0.00    -0.275 OA
ATOM      6  H   UNL A   1      33.343  36.858  28.534  1.00  0.00     0.163 HD
BRANCH   4   7
ATOM      7  C   UNL A   1      32.890  35.526  31.594  1.00  0.00     0.086 C 
ATOM      8  C   UNL A   1      31.669  35.895  32.447  1.00  0.00     0.019 C 
BRANCH   7   9
ATOM      9  C   UNL A   1      34.175  35.457  32.453  1.00  0.00     0.070 C 
ATOM     10  C   UNL A   1      34.155  36.451  33.620  1.00  0.00     0.017 C 
BRANCH   9  11
ATOM     11  C   UNL A   1      34.588  34.083  33.007  1.00  0.00     0.166 C 
ATOM     12  O   UNL A   1      33.741  33.216  33.233  1.00  0.00    -0.294 OA
BRANCH  11  13
ATOM     13  C   UNL A   1      36.014  33.657  33.047  1.00  0.00     0.019 A 
ATOM     14  C   UNL A   1      36.981  34.630  32.747  1.00  0.00     0.012 A 
ATOM     15  C   UNL A   1      36.422  32.354  33.330  1.00  0.00     0.032 A 
ATOM     16  C   UNL A   1      38.340  34.314  32.766  1.00  0.00     0.002 A 
ATOM     17  C   UNL A   1      37.783  32.046  33.357  1.00  0.00     0.041 A 
ATOM     18  C   UNL A   1      38.743  33.018  33.083  1.00  0.00     0.020 A 
ATOM     19  Cl  UNL A   1      38.280  30.441  33.733  1.00  0.00    -0.084 Cl
ENDBRANCH  11  13
ENDBRANCH   9  11
ENDBRANCH   7   9
ENDBRANCH   4   7
ENDBRANCH   2   3
ENDBRANCH   1   2
BRANCH   1  20
ATOM     20  C   UNL A   1      35.587  33.682  28.893  1.00  0.00     0.023 C 
BRANCH  20  21
ATOM     21  C   UNL A   1      34.945  32.546  29.685  1.00  0.00     0.116 C 
BRANCH  21  22
ATOM     22  N   UNL A   1      34.108  31.684  28.862  1.00  0.00    -0.352 N 
ATOM     23  C   UNL A   1      34.445  30.540  28.177  1.00  0.00     0.251 C 
ATOM     24  H   UNL A   1      33.166  31.958  28.786  1.00  0.00     0.163 HD
ATOM     25  O   UNL A   1      33.632  30.015  27.422  1.00  0.00    -0.269 OA
BRANCH  23  26
ATOM     26  C   UNL A   1      35.801  29.969  28.321  1.00  0.00     0.039 A 
ATOM     27  C   UNL A   1      36.695  30.071  27.251  1.00  0.00     0.014 A 
ATOM     28  C   UNL A   1      36.201  29.369  29.518  1.00  0.00     0.014 A 
ATOM     29  C   UNL A   1      38.021  29.662  27.416  1.00  0.00     0.010 A 
ATOM     30  C   UNL A   1      37.536  29.012  29.699  1.00  0.00     0.010 A 
ATOM     31  C   UNL A   1      38.464  29.180  28.658  1.00  0.00    -0.014 A 
BRANCH  31  32
ATOM     32  C   UNL A   1      39.903  28.918  28.921  1.00  0.00     0.031 A 
ATOM     33  C   UNL A   1      40.517  27.594  28.560  1.00  0.00     0.074 A 
ATOM     34  C   UNL A   1      40.624  29.837  29.594  1.00  0.00     0.049 A 
ATOM     35  N   UNL A   1      41.714  27.143  28.833  1.00  0.00    -0.248 NA
ATOM     36  C   UNL A   1      39.672  26.646  27.815  1.00  0.00     0.031 C 
ATOM     37  C   UNL A   1      40.129  31.142  30.044  1.00  0.00     0.029 A 
ATOM     38  N   UNL A   1      41.921  29.804  30.045  1.00  0.00    -0.354 N 
ATOM     39  C   UNL A   1      41.759  25.853  28.320  1.00  0.00     0.074 A 
ATOM     40  C   UNL A   1      40.463  25.584  27.736  1.00  0.00     0.031 C 
ATOM     41  C   UNL A   1      41.106  31.780  30.709  1.00  0.00     0.029 A 
ATOM     42  C   UNL A   1      42.282  30.918  30.769  1.00  0.00     0.049 A 
ATOM     43  H   UNL A   1      42.535  29.056  29.866  1.00  0.00     0.167 HD
ATOM     44  C   UNL A   1      42.790  24.975  28.331  1.00  0.00     0.031 A 
ATOM     45  C   UNL A   1      43.417  31.203  31.436  1.00  0.00     0.031 A 
ATOM     46  C   UNL A   1      44.087  25.255  28.888  1.00  0.00     0.049 A 
ATOM     47  C   UNL A   1      44.542  30.205  31.437  1.00  0.00     0.074 A 
ATOM     48  C   UNL A   1      45.223  24.464  28.853  1.00  0.00     0.029 A 
ATOM     49  N   UNL A   1      44.419  26.403  29.590  1.00  0.00    -0.354 N 
ATOM     50  N   UNL A   1      44.597  29.030  30.859  1.00  0.00    -0.248 NA
ATOM     51  C   UNL A   1      45.757  30.572  32.179  1.00  0.00     0.031 C 
ATOM     52  C   UNL A   1      46.228  25.111  29.579  1.00  0.00     0.029 A 
ATOM     53  C   UNL A   1      45.730  26.324  30.026  1.00  0.00     0.049 A 
ATOM     54  H   UNL A   1      43.813  27.161  29.752  1.00  0.00     0.167 HD
ATOM     55  C   UNL A   1      45.857  28.522  31.159  1.00  0.00     0.074 A 
ATOM     56  C   UNL A   1      46.539  29.526  31.949  1.00  0.00     0.031 C 
ATOM     57  C   UNL A   1      46.397  27.328  30.814  1.00  0.00     0.031 A 
BRANCH  44  58
ATOM     58  C   UNL A   1      42.570  23.617  27.725  1.00  0.00    -0.014 A 
ATOM     59  C   UNL A   1      43.183  23.257  26.512  1.00  0.00     0.010 A 
ATOM     60  C   UNL A   1      41.819  22.657  28.428  1.00  0.00     0.010 A 
ATOM     61  C   UNL A   1      43.035  21.963  26.005  1.00  0.00     0.020 A 
ATOM     62  C   UNL A   1      41.686  21.356  27.933  1.00  0.00     0.020 A 
ATOM     63  C   UNL A   1      42.289  21.020  26.720  1.00  0.00     0.054 A 
BRANCH  63  64
ATOM     64  S   UNL A   1      42.167  19.332  26.067  1.00  0.00     0.124 S 
ATOM     65  O   UNL A   1      43.006  19.409  24.875  1.00  0.00    -0.237 OA
ATOM     66  O   UNL A   1      42.702  18.526  27.162  1.00  0.00    -0.237 OA
ATOM     67  O   UNL A   1      40.738  19.160  25.814  1.00  0.00    -0.744 OA
ENDBRANCH  63  64
ENDBRANCH  44  58
BRANCH  45  68
ATOM     68  C   UNL A   1      43.541  32.479  32.191  1.00  0.00    -0.014 A 
ATOM     69  C   UNL A   1      43.082  32.574  33.516  1.00  0.00     0.010 A 
ATOM     70  C   UNL A   1      44.103  33.614  31.577  1.00  0.00     0.010 A 
ATOM     71  C   UNL A   1      43.156  33.788  34.205  1.00  0.00     0.020 A 
ATOM     72  C   UNL A   1      44.202  34.823  32.271  1.00  0.00     0.020 A 
ATOM     73  C   UNL A   1      43.711  34.906  33.576  1.00  0.00     0.054 A 
BRANCH  73  74
ATOM     74  S   UNL A   1      43.823  36.467  34.494  1.00  0.00     0.124 S 
ATOM     75  O   UNL A   1      42.515  37.062  34.239  1.00  0.00    -0.237 OA
ATOM     76  O   UNL A   1      44.058  36.016  35.864  1.00  0.00    -0.237 OA
ATOM     77  O   UNL A   1      44.956  37.147  33.869  1.00  0.00    -0.744 OA
ENDBRANCH  73  74
ENDBRANCH  45  68
BRANCH  57  78
ATOM     78  C   UNL A   1      47.798  27.042  31.277  1.00  0.00    -0.014 A 
ATOM     79  C   UNL A   1      48.032  26.337  32.470  1.00  0.00     0.010 A 
ATOM     80  C   UNL A   1      48.890  27.423  30.475  1.00  0.00     0.010 A 
ATOM     81  C   UNL A   1      49.338  26.033  32.864  1.00  0.00     0.020 A 
ATOM     82  C   UNL A   1      50.195  27.100  30.854  1.00  0.00     0.020 A 
ATOM     83  C   UNL A   1      50.411  26.415  32.052  1.00  0.00     0.054 A 
BRANCH  83  84
ATOM     84  S   UNL A   1      52.093  25.955  32.553  1.00  0.00     0.124 S 
ATOM     85  O   UNL A   1      52.891  26.460  31.440  1.00  0.00    -0.237 OA
ATOM     86  O   UNL A   1      52.259  26.664  33.819  1.00  0.00    -0.237 OA
ATOM     87  O   UNL A   1      52.033  24.499  32.666  1.00  0.00    -0.744 OA
ENDBRANCH  83  84
ENDBRANCH  57  78
ENDBRANCH  31  32
ENDBRANCH  23  26
ENDBRANCH  21  22
ENDBRANCH  20  21
ENDBRANCH   1  20
TORSDOF 17
ENDMDL
MODEL 2
REMARK VINA RESULT:     -10.4      0.823      8.362
REMARK SMILES C[C@@H](C(=O)NCCCCNC(=O)c1ccc(-c2c3nc(c(-c4ccc(S(=O)(=O)[O-])cc4)c4ccc([nH]4)c(-c4ccc(S(=O)(=O)[O-])cc4)c4nc(c(-c5ccc(S(=O)(=O)[O-])cc5)c5ccc2[nH]5)C=C4)C=C3)cc1)[C@@H](C)C(=O)c1cccc(Cl)c1
REMARK SMILES IDX 7 1 6 2 5 3 3 4 4 5 2 7 1 8 73 9 74 10 75 11 76 12 77 13
REMARK SMILES IDX 78 14 83 15 79 16 81 17 80 18 82 19 8 20 9 21 10 22 11 23
REMARK SMILES IDX 12 25 13 26 14 27 72 28 15 29 71 30 16 31 17 32 18 33 65 34
REMARK SMILES IDX 19 35 70 36 64 37 66 38 20 39 69 40 63 41 62 42 21 44 51 45
REMARK SMILES IDX 32 46 50 47 33 48 36 49 49 50 67 51 34 52 35 53 48 55 68 56
REMARK SMILES IDX 37 57 22 58 23 59 31 60 24 61 30 62 25 63 26 64 27 65 28 66
REMARK SMILES IDX 29 67 52 68 53 69 61 70 54 71 60 72 55 73 56 74 57 75 58 76
REMARK SMILES IDX 59 77 38 78 39 79 47 80 40 81 46 82 41 83 42 84 43 85 44 86
REMARK SMILES IDX 45 87
REMARK H PARENT 5 6 10 24 66 43 36 54
REMARK Flexibility Score: inf
ROOT
ATOM      1  C   UNL A   1      34.706  34.755  28.024  1.00  0.00     0.023 C 
ENDROOT
BRANCH   1   2
ATOM      2  C   UNL A   1      33.363  35.021  28.703  1.00  0.00     0.116 C 
BRANCH   2   3
ATOM      3  N   UNL A   1      33.317  36.335  29.319  1.00  0.00    -0.356 N 
ATOM      4  C   UNL A   1      33.086  36.702  30.611  1.00  0.00     0.223 C 
ATOM      5  O   UNL A   1      33.050  37.903  30.868  1.00  0.00    -0.275 OA
ATOM      6  H   UNL A   1      33.478  37.084  28.702  1.00  0.00     0.163 HD
BRANCH   4   7
ATOM      7  C   UNL A   1      32.895  35.634  31.685  1.00  0.00     0.086 C 
ATOM      8  C   UNL A   1      31.664  36.002  32.524  1.00  0.00     0.019 C 
BRANCH   7   9
ATOM      9  C   UNL A   1      34.155  35.487  32.570  1.00  0.00     0.070 C 
ATOM     10  C   UNL A   1      34.092  36.360  33.830  1.00  0.00     0.017 C 
BRANCH   9  11
ATOM     11  C   UNL A   1      34.564  34.068  32.996  1.00  0.00     0.166 C 
ATOM     12  O   UNL A   1      33.718  33.180  33.121  1.00  0.00    -0.294 OA
BRANCH  11  13
ATOM     13  C   UNL A   1      35.992  33.645  33.023  1.00  0.00     0.019 A 
ATOM     14  C   UNL A   1      36.928  34.515  32.441  1.00  0.00     0.012 A 
ATOM     15  C   UNL A   1      36.428  32.433  33.558  1.00  0.00     0.032 A 
ATOM     16  C   UNL A   1      38.286  34.196  32.427  1.00  0.00     0.002 A 
ATOM     17  C   UNL A   1      37.788  32.123  33.550  1.00  0.00     0.041 A 
ATOM     18  C   UNL A   1      38.719  32.998  32.994  1.00  0.00     0.020 A 
ATOM     19  Cl  UNL A   1      38.321  30.636  34.237  1.00  0.00    -0.084 Cl
ENDBRANCH  11  13
ENDBRANCH   9  11
ENDBRANCH   7   9
ENDBRANCH   4   7
ENDBRANCH   2   3
ENDBRANCH   1   2
BRANCH   1  20
ATOM     20  C   UNL A   1      35.638  33.801  28.777  1.00  0.00     0.023 C 
BRANCH  20  21
ATOM     21  C   UNL A   1      34.947  32.703  29.581  1.00  0.00     0.116 C 
BRANCH  21  22
ATOM     22  N   UNL A   1      34.114  31.838  28.757  1.00  0.00    -0.352 N 
ATOM     23  C   UNL A   1      34.433  30.652  28.139  1.00  0.00     0.251 C 
ATOM     24  H   UNL A   1      33.187  32.146  28.626  1.00  0.00     0.163 HD
ATOM     25  O   UNL A   1      33.633  30.125  27.372  1.00  0.00    -0.269 OA
BRANCH  23  26
ATOM     26  C   UNL A   1      35.756  30.034  28.373  1.00  0.00     0.039 A 
ATOM     27  C   UNL A   1      36.692  30.031  27.334  1.00  0.00     0.014 A 
ATOM     28  C   UNL A   1      36.084  29.495  29.619  1.00  0.00     0.014 A 
ATOM     29  C   UNL A   1      37.992  29.578  27.577  1.00  0.00     0.010 A 
ATOM     30  C   UNL A   1      37.395  29.094  29.874  1.00  0.00     0.010 A 
ATOM     31  C   UNL A   1      38.367  29.156  28.862  1.00  0.00    -0.014 A 
BRANCH  31  32
ATOM     32  C   UNL A   1      39.782  28.851  29.198  1.00  0.00     0.031 A 
ATOM     33  C   UNL A   1      40.694  29.929  29.712  1.00  0.00     0.074 A 
ATOM     34  C   UNL A   1      40.271  27.625  28.924  1.00  0.00     0.049 A 
ATOM     35  N   UNL A   1      41.983  29.878  29.931  1.00  0.00    -0.248 NA
ATOM     36  C   UNL A   1      40.087  31.239  29.999  1.00  0.00     0.031 C 
ATOM     37  C   UNL A   1      39.498  26.506  28.375  1.00  0.00     0.029 A 
ATOM     38  N   UNL A   1      41.543  27.120  29.042  1.00  0.00    -0.354 N 
ATOM     39  C   UNL A   1      42.347  31.151  30.353  1.00  0.00     0.074 A 
ATOM     40  C   UNL A   1      41.146  31.960  30.343  1.00  0.00     0.031 C 
ATOM     41  C   UNL A   1      40.311  25.451  28.201  1.00  0.00     0.029 A 
ATOM     42  C   UNL A   1      41.668  25.828  28.584  1.00  0.00     0.049 A 
ATOM     43  H   UNL A   1      42.293  27.633  29.419  1.00  0.00     0.167 HD
ATOM     44  C   UNL A   1      43.569  31.601  30.722  1.00  0.00     0.031 A 
ATOM     45  C   UNL A   1      42.755  25.042  28.455  1.00  0.00     0.031 A 
ATOM     46  C   UNL A   1      44.755  30.788  30.758  1.00  0.00     0.049 A 
ATOM     47  C   UNL A   1      44.101  25.574  28.865  1.00  0.00     0.074 A 
ATOM     48  C   UNL A   1      46.016  31.132  31.216  1.00  0.00     0.029 A 
ATOM     49  N   UNL A   1      44.835  29.479  30.311  1.00  0.00    -0.354 N 
ATOM     50  N   UNL A   1      44.405  26.750  29.356  1.00  0.00    -0.248 NA
ATOM     51  C   UNL A   1      45.250  24.671  28.703  1.00  0.00     0.031 C 
ATOM     52  C   UNL A   1      46.872  30.048  30.997  1.00  0.00     0.029 A 
ATOM     53  C   UNL A   1      46.132  29.014  30.445  1.00  0.00     0.049 A 
ATOM     54  H   UNL A   1      44.082  28.957  29.952  1.00  0.00     0.167 HD
ATOM     55  C   UNL A   1      45.778  26.724  29.572  1.00  0.00     0.074 A 
ATOM     56  C   UNL A   1      46.242  25.410  29.181  1.00  0.00     0.031 C 
ATOM     57  C   UNL A   1      46.582  27.705  30.049  1.00  0.00     0.031 A 
BRANCH  44  58
ATOM     58  C   UNL A   1      43.702  33.045  31.117  1.00  0.00    -0.014 A 
ATOM     59  C   UNL A   1      43.507  33.453  32.449  1.00  0.00     0.010 A 
ATOM     60  C   UNL A   1      44.122  33.990  30.164  1.00  0.00     0.010 A 
ATOM     61  C   UNL A   1      43.715  34.786  32.815  1.00  0.00     0.020 A 
ATOM     62  C   UNL A   1      44.351  35.320  30.531  1.00  0.00     0.020 A 
ATOM     63  C   UNL A   1      44.138  35.710  31.855  1.00  0.00     0.054 A 
BRANCH  63  64
ATOM     64  S   UNL A   1      44.461  37.418  32.374  1.00  0.00     0.124 S 
ATOM     65  O   UNL A   1      43.523  37.578  33.482  1.00  0.00    -0.237 OA
ATOM     66  O   UNL A   1      45.873  37.379  32.746  1.00  0.00    -0.237 OA
ATOM     67  O   UNL A   1      44.156  38.207  31.182  1.00  0.00    -0.744 OA
ENDBRANCH  63  64
ENDBRANCH  44  58
BRANCH  45  68
ATOM     68  C   UNL A   1      42.627  23.676  27.880  1.00  0.00    -0.014 A 
ATOM     69  C   UNL A   1      43.193  23.370  26.631  1.00  0.00     0.010 A 
ATOM     70  C   UNL A   1      41.917  22.679  28.574  1.00  0.00     0.010 A 
ATOM     71  C   UNL A   1      43.029  22.098  26.072  1.00  0.00     0.020 A 
ATOM     72  C   UNL A   1      41.772  21.400  28.031  1.00  0.00     0.020 A 
ATOM     73  C   UNL A   1      42.314  21.123  26.774  1.00  0.00     0.054 A 
BRANCH  73  74
ATOM     74  S   UNL A   1      42.132  19.471  26.046  1.00  0.00     0.124 S 
ATOM     75  O   UNL A   1      42.882  19.605  24.802  1.00  0.00    -0.237 OA
ATOM     76  O   UNL A   1      42.736  18.608  27.059  1.00  0.00    -0.237 OA
ATOM     77  O   UNL A   1      40.686  19.323  25.897  1.00  0.00    -0.744 OA
ENDBRANCH  73  74
ENDBRANCH  45  68
BRANCH  57  78
ATOM     78  C   UNL A   1      48.047  27.394  30.186  1.00  0.00    -0.014 A 
ATOM     79  C   UNL A   1      48.953  27.733  29.167  1.00  0.00     0.010 A 
ATOM     80  C   UNL A   1      48.531  26.821  31.377  1.00  0.00     0.010 A 
ATOM     81  C   UNL A   1      50.319  27.484  29.327  1.00  0.00     0.020 A 
ATOM     82  C   UNL A   1      49.898  26.593  31.550  1.00  0.00     0.020 A 
ATOM     83  C   UNL A   1      50.782  26.918  30.518  1.00  0.00     0.054 A 
BRANCH  83  84
ATOM     84  S   UNL A   1      52.567  26.663  30.728  1.00  0.00     0.124 S 
ATOM     85  O   UNL A   1      52.972  26.243  29.390  1.00  0.00    -0.237 OA
ATOM     86  O   UNL A   1      53.035  27.982  31.143  1.00  0.00    -0.237 OA
ATOM     87  O   UNL A   1      52.649  25.628  31.757  1.00  0.00    -0.744 OA
ENDBRANCH  83  84
ENDBRANCH  57  78
ENDBRANCH  31  32
ENDBRANCH  23  26
ENDBRANCH  21  22
ENDBRANCH  20  21
ENDBRANCH   1  20
TORSDOF 17
ENDMDL
MODEL 3
REMARK VINA RESULT:     -10.3      3.633      9.409
REMARK SMILES C[C@@H](C(=O)NCCCCNC(=O)c1ccc(-c2c3nc(c(-c4ccc(S(=O)(=O)[O-])cc4)c4ccc([nH]4)c(-c4ccc(S(=O)(=O)[O-])cc4)c4nc(c(-c5ccc(S(=O)(=O)[O-])cc5)c5ccc2[nH]5)C=C4)C=C3)cc1)[C@@H](C)C(=O)c1cccc(Cl)c1
REMARK SMILES IDX 7 1 6 2 5 3 3 4 4 5 2 7 1 8 73 9 74 10 75 11 76 12 77 13
REMARK SMILES IDX 78 14 83 15 79 16 81 17 80 18 82 19 8 20 9 21 10 22 11 23
REMARK SMILES IDX 12 25 13 26 14 27 72 28 15 29 71 30 16 31 17 32 18 33 65 34
REMARK SMILES IDX 19 35 70 36 64 37 66 38 20 39 69 40 63 41 62 42 21 44 51 45
REMARK SMILES IDX 32 46 50 47 33 48 36 49 49 50 67 51 34 52 35 53 48 55 68 56
REMARK SMILES IDX 37 57 22 58 23 59 31 60 24 61 30 62 25 63 26 64 27 65 28 66
REMARK SMILES IDX 29 67 52 68 53 69 61 70 54 71 60 72 55 73 56 74 57 75 58 76
REMARK SMILES IDX 59 77 38 78 39 79 47 80 40 81 46 82 41 83 42 84 43 85 44 86
REMARK SMILES IDX 45 87
REMARK H PARENT 5 6 10 24 66 43 36 54
REMARK Flexibility Score: inf
ROOT
ATOM      1  C   UNL A   1      35.333  22.829  23.761  1.00  0.00     0.023 C 
ENDROOT
BRANCH   1   2
ATOM      2  C   UNL A   1      34.021  23.608  23.670  1.00  0.00     0.116 C 
BRANCH   2   3
ATOM      3  N   UNL A   1      33.883  24.293  22.398  1.00  0.00    -0.356 N 
ATOM      4  C   UNL A   1      33.257  25.462  22.082  1.00  0.00     0.223 C 
ATOM      5  O   UNL A   1      33.241  25.804  20.903  1.00  0.00    -0.275 OA
ATOM      6  H   UNL A   1      34.312  23.839  21.638  1.00  0.00     0.163 HD
BRANCH   4   7
ATOM      7  C   UNL A   1      32.615  26.304  23.182  1.00  0.00     0.086 C 
ATOM      8  C   UNL A   1      31.632  27.287  22.532  1.00  0.00     0.019 C 
BRANCH   7   9
ATOM      9  C   UNL A   1      33.681  27.049  24.021  1.00  0.00     0.070 C 
ATOM     10  C   UNL A   1      34.031  28.424  23.439  1.00  0.00     0.017 C 
BRANCH   9  11
ATOM     11  C   UNL A   1      33.409  27.225  25.524  1.00  0.00     0.166 C 
ATOM     12  O   UNL A   1      33.394  26.250  26.279  1.00  0.00    -0.294 OA
BRANCH  11  13
ATOM     13  C   UNL A   1      33.410  28.570  26.162  1.00  0.00     0.019 A 
ATOM     14  C   UNL A   1      34.530  28.907  26.940  1.00  0.00     0.012 A 
ATOM     15  C   UNL A   1      32.357  29.478  26.053  1.00  0.00     0.032 A 
ATOM     16  C   UNL A   1      34.612  30.150  27.570  1.00  0.00     0.002 A 
ATOM     17  C   UNL A   1      32.449  30.723  26.677  1.00  0.00     0.041 A 
ATOM     18  C   UNL A   1      33.570  31.066  27.429  1.00  0.00     0.020 A 
ATOM     19  Cl  UNL A   1      31.155  31.848  26.515  1.00  0.00    -0.084 Cl
ENDBRANCH  11  13
ENDBRANCH   9  11
ENDBRANCH   7   9
ENDBRANCH   4   7
ENDBRANCH   2   3
ENDBRANCH   1   2
BRANCH   1  20
ATOM     20  C   UNL A   1      36.504  23.598  24.378  1.00  0.00     0.023 C 
BRANCH  20  21
ATOM     21  C   UNL A   1      36.798  23.287  25.843  1.00  0.00     0.116 C 
BRANCH  21  22
ATOM     22  N   UNL A   1      37.996  22.478  26.021  1.00  0.00    -0.352 N 
ATOM     23  C   UNL A   1      39.236  22.848  26.485  1.00  0.00     0.251 C 
ATOM     24  H   UNL A   1      37.904  21.529  25.776  1.00  0.00     0.163 HD
ATOM     25  O   UNL A   1      40.170  22.052  26.442  1.00  0.00    -0.269 OA
BRANCH  23  26
ATOM     26  C   UNL A   1      39.450  24.218  26.999  1.00  0.00     0.039 A 
ATOM     27  C   UNL A   1      39.022  24.528  28.294  1.00  0.00     0.014 A 
ATOM     28  C   UNL A   1      40.102  25.179  26.224  1.00  0.00     0.014 A 
ATOM     29  C   UNL A   1      39.338  25.772  28.847  1.00  0.00     0.010 A 
ATOM     30  C   UNL A   1      40.463  26.398  26.795  1.00  0.00     0.010 A 
ATOM     31  C   UNL A   1      40.107  26.695  28.121  1.00  0.00    -0.014 A 
BRANCH  31  32
ATOM     32  C   UNL A   1      40.619  27.941  28.747  1.00  0.00     0.031 A 
ATOM     33  C   UNL A   1      41.984  27.975  29.376  1.00  0.00     0.074 A 
ATOM     34  C   UNL A   1      39.801  29.008  28.849  1.00  0.00     0.049 A 
ATOM     35  N   UNL A   1      42.540  28.928  30.078  1.00  0.00    -0.248 NA
ATOM     36  C   UNL A   1      42.825  26.779  29.213  1.00  0.00     0.031 C 
ATOM     37  C   UNL A   1      38.434  29.083  28.323  1.00  0.00     0.029 A 
ATOM     38  N   UNL A   1      39.986  30.226  29.457  1.00  0.00    -0.354 N 
ATOM     39  C   UNL A   1      43.782  28.439  30.465  1.00  0.00     0.074 A 
ATOM     40  C   UNL A   1      43.892  27.097  29.935  1.00  0.00     0.031 C 
ATOM     41  C   UNL A   1      37.905  30.278  28.635  1.00  0.00     0.029 A 
ATOM     42  C   UNL A   1      38.876  31.038  29.416  1.00  0.00     0.049 A 
ATOM     43  H   UNL A   1      40.833  30.493  29.881  1.00  0.00     0.167 HD
ATOM     44  C   UNL A   1      44.744  29.056  31.191  1.00  0.00     0.031 A 
ATOM     45  C   UNL A   1      38.648  32.245  29.970  1.00  0.00     0.031 A 
ATOM     46  C   UNL A   1      44.644  30.401  31.692  1.00  0.00     0.049 A 
ATOM     47  C   UNL A   1      39.733  32.901  30.778  1.00  0.00     0.074 A 
ATOM     48  C   UNL A   1      45.610  31.144  32.349  1.00  0.00     0.029 A 
ATOM     49  N   UNL A   1      43.514  31.198  31.608  1.00  0.00    -0.354 N 
ATOM     50  N   UNL A   1      40.938  32.460  31.047  1.00  0.00    -0.248 NA
ATOM     51  C   UNL A   1      39.428  34.218  31.357  1.00  0.00     0.031 C 
ATOM     52  C   UNL A   1      45.047  32.372  32.709  1.00  0.00     0.029 A 
ATOM     53  C   UNL A   1      43.745  32.410  32.235  1.00  0.00     0.049 A 
ATOM     54  H   UNL A   1      42.672  30.941  31.167  1.00  0.00     0.167 HD
ATOM     55  C   UNL A   1      41.538  33.451  31.816  1.00  0.00     0.074 A 
ATOM     56  C   UNL A   1      40.574  34.522  31.951  1.00  0.00     0.031 C 
ATOM     57  C   UNL A   1      42.777  33.467  32.365  1.00  0.00     0.031 A 
BRANCH  44  58
ATOM     58  C   UNL A   1      46.000  28.290  31.496  1.00  0.00    -0.014 A 
ATOM     59  C   UNL A   1      46.080  27.445  32.617  1.00  0.00     0.010 A 
ATOM     60  C   UNL A   1      47.081  28.341  30.596  1.00  0.00     0.010 A 
ATOM     61  C   UNL A   1      47.226  26.676  32.841  1.00  0.00     0.020 A 
ATOM     62  C   UNL A   1      48.220  27.558  30.806  1.00  0.00     0.020 A 
ATOM     63  C   UNL A   1      48.287  26.735  31.932  1.00  0.00     0.054 A 
BRANCH  63  64
ATOM     64  S   UNL A   1      49.734  25.679  32.215  1.00  0.00     0.124 S 
ATOM     65  O   UNL A   1      49.257  24.791  33.271  1.00  0.00    -0.237 OA
ATOM     66  O   UNL A   1      49.935  25.053  30.911  1.00  0.00    -0.237 OA
ATOM     67  O   UNL A   1      50.778  26.620  32.617  1.00  0.00    -0.744 OA
ENDBRANCH  63  64
ENDBRANCH  44  58
BRANCH  45  68
ATOM     68  C   UNL A   1      37.323  32.903  29.812  1.00  0.00    -0.014 A 
ATOM     69  C   UNL A   1      37.023  33.640  28.654  1.00  0.00     0.010 A 
ATOM     70  C   UNL A   1      36.360  32.810  30.835  1.00  0.00     0.010 A 
ATOM     71  C   UNL A   1      35.794  34.297  28.532  1.00  0.00     0.020 A 
ATOM     72  C   UNL A   1      35.122  33.444  30.706  1.00  0.00     0.020 A 
ATOM     73  C   UNL A   1      34.854  34.199  29.561  1.00  0.00     0.054 A 
BRANCH  73  74
ATOM     74  S   UNL A   1      33.255  35.036  29.375  1.00  0.00     0.124 S 
ATOM     75  O   UNL A   1      32.615  34.236  28.335  1.00  0.00    -0.237 OA
ATOM     76  O   UNL A   1      32.674  34.917  30.711  1.00  0.00    -0.237 OA
ATOM     77  O   UNL A   1      33.626  36.395  28.986  1.00  0.00    -0.744 OA
ENDBRANCH  73  74
ENDBRANCH  45  68
BRANCH  57  78
ATOM     78  C   UNL A   1      43.169  34.686  33.154  1.00  0.00    -0.014 A 
ATOM     79  C   UNL A   1      42.923  34.758  34.536  1.00  0.00     0.010 A 
ATOM     80  C   UNL A   1      43.851  35.740  32.518  1.00  0.00     0.010 A 
ATOM     81  C   UNL A   1      43.337  35.874  35.268  1.00  0.00     0.020 A 
ATOM     82  C   UNL A   1      44.287  36.846  33.251  1.00  0.00     0.020 A 
ATOM     83  C   UNL A   1      44.018  36.911  34.620  1.00  0.00     0.054 A 
BRANCH  83  84
ATOM     84  S   UNL A   1      44.601  38.321  35.603  1.00  0.00     0.124 S 
ATOM     85  O   UNL A   1      46.044  38.264  35.388  1.00  0.00    -0.237 OA
ATOM     86  O   UNL A   1      43.916  39.451  34.983  1.00  0.00    -0.237 OA
ATOM     87  O   UNL A   1      44.159  38.002  36.959  1.00  0.00    -0.744 OA
ENDBRANCH  83  84
ENDBRANCH  57  78
ENDBRANCH  31  32
ENDBRANCH  23  26
ENDBRANCH  21  22
ENDBRANCH  20  21
ENDBRANCH   1  20
TORSDOF 17
ENDMDL
