MODEL 1
REMARK VINA RESULT:     -11.4      0.000      0.000
REMARK SMILES CC(C)(C)OC(=O)N1C[C@H](c2ccc(C(F)(F)F)cc2)[C@H](C(=O)NCCCCNC(=O)c2ccc(-c3c4nc(c(-c5ccc(S(=O)(=O)[O-])cc5)c5ccc([nH]5)c(-c5ccc(S(=O)(=O)[O-])cc5)c5nc(c(-c6ccc(S(=O)(=O)[O-])cc6)c6ccc3[nH]6)C=C5)C=C4)cc2)C1
REMARK SMILES IDX 26 1 25 2 24 3 22 4 23 5 21 7 8 8 9 9 92 10 10 11 6 12 7 13
REMARK SMILES IDX 5 14 2 15 1 16 3 17 4 18 11 19 12 20 20 21 13 22 19 23 14 24
REMARK SMILES IDX 15 25 16 26 17 27 18 28 27 29 28 30 29 31 30 32 31 34 32 35
REMARK SMILES IDX 33 36 91 37 34 38 90 39 35 40 36 41 37 42 84 43 38 44 89 45
REMARK SMILES IDX 83 46 85 47 39 48 88 49 82 50 81 51 40 53 70 54 51 55 69 56
REMARK SMILES IDX 52 57 55 58 68 59 86 60 53 61 54 62 67 64 87 65 56 66 41 67
REMARK SMILES IDX 42 68 50 69 43 70 49 71 44 72 45 73 46 74 47 75 48 76 71 77
REMARK SMILES IDX 72 78 80 79 73 80 79 81 74 82 75 83 76 84 77 85 78 86 57 87
REMARK SMILES IDX 58 88 66 89 59 90 65 91 60 92 61 93 62 94 63 95 64 96
REMARK H PARENT 24 6 29 33 85 52 55 63
REMARK Flexibility Score: inf
ROOT
ATOM      1  C   UNL A   1      34.830  30.422  27.912  1.00  0.00     0.023 C 
ENDROOT
BRANCH   1   2
ATOM      2  C   UNL A   1      34.149  29.191  27.337  1.00  0.00     0.116 C 
BRANCH   2   3
ATOM      3  N   UNL A   1      34.259  29.111  25.892  1.00  0.00    -0.356 N 
ATOM      4  C   UNL A   1      33.755  28.249  24.977  1.00  0.00     0.225 C 
ATOM      5  O   UNL A   1      34.072  28.453  23.799  1.00  0.00    -0.275 OA
ATOM      6  H   UNL A   1      34.811  29.825  25.498  1.00  0.00     0.163 HD
BRANCH   4   7
ATOM      7  C   UNL A   1      32.837  27.080  25.296  1.00  0.00     0.107 C 
ATOM      8  N   UNL A   1      32.452  25.249  23.869  1.00  0.00    -0.307 N 
ATOM      9  C   UNL A   1      31.132  25.741  24.178  1.00  0.00     0.132 C 
ATOM     10  C   UNL A   1      33.425  25.758  24.800  1.00  0.00     0.137 C 
ATOM     11  C   UNL A   1      31.315  27.094  24.922  1.00  0.00     0.053 C 
BRANCH   8  12
ATOM     12  C   UNL A   1      32.796  24.385  22.853  1.00  0.00     0.410 C 
ATOM     13  O   UNL A   1      33.573  24.689  21.963  1.00  0.00    -0.224 OA
BRANCH  12  14
ATOM     14  O   UNL A   1      32.124  23.204  22.931  1.00  0.00    -0.444 OA
BRANCH  14  15
ATOM     15  C   UNL A   1      32.592  22.135  23.798  1.00  0.00     0.106 C 
ATOM     16  C   UNL A   1      32.252  20.830  23.060  1.00  0.00     0.056 C 
ATOM     17  C   UNL A   1      31.819  22.175  25.119  1.00  0.00     0.056 C 
ATOM     18  C   UNL A   1      34.111  22.154  24.026  1.00  0.00     0.056 C 
ENDBRANCH  14  15
ENDBRANCH  12  14
ENDBRANCH   8  12
BRANCH  11  19
ATOM     19  C   UNL A   1      30.667  28.301  24.243  1.00  0.00    -0.042 A 
ATOM     20  C   UNL A   1      29.753  28.166  23.185  1.00  0.00     0.005 A 
ATOM     21  C   UNL A   1      30.970  29.615  24.646  1.00  0.00     0.005 A 
ATOM     22  C   UNL A   1      28.982  29.259  22.751  1.00  0.00     0.013 A 
ATOM     23  C   UNL A   1      30.207  30.706  24.219  1.00  0.00     0.013 A 
ATOM     24  C   UNL A   1      29.151  30.525  23.323  1.00  0.00     0.056 A 
BRANCH  24  25
ATOM     25  C   UNL A   1      28.170  31.649  23.092  1.00  0.00     0.416 C 
ATOM     26  F   UNL A   1      27.802  31.801  21.793  1.00  0.00    -0.166 F 
ATOM     27  F   UNL A   1      27.012  31.450  23.786  1.00  0.00    -0.166 F 
ATOM     28  F   UNL A   1      28.641  32.857  23.506  1.00  0.00    -0.166 F 
ENDBRANCH  24  25
ENDBRANCH  11  19
ENDBRANCH   4   7
ENDBRANCH   2   3
ENDBRANCH   1   2
BRANCH   1  29
ATOM     29  C   UNL A   1      34.425  31.735  27.250  1.00  0.00     0.023 C 
BRANCH  29  30
ATOM     30  C   UNL A   1      33.041  32.195  27.662  1.00  0.00     0.116 C 
BRANCH  30  31
ATOM     31  N   UNL A   1      32.970  33.649  27.761  1.00  0.00    -0.352 N 
ATOM     32  C   UNL A   1      33.578  34.498  28.650  1.00  0.00     0.251 C 
ATOM     33  H   UNL A   1      32.399  34.086  27.089  1.00  0.00     0.163 HD
ATOM     34  O   UNL A   1      33.201  35.661  28.744  1.00  0.00    -0.269 OA
BRANCH  32  35
ATOM     35  C   UNL A   1      34.682  33.994  29.487  1.00  0.00     0.039 A 
ATOM     36  C   UNL A   1      34.392  33.247  30.629  1.00  0.00     0.014 A 
ATOM     37  C   UNL A   1      36.007  34.251  29.127  1.00  0.00     0.014 A 
ATOM     38  C   UNL A   1      35.439  32.705  31.373  1.00  0.00     0.010 A 
ATOM     39  C   UNL A   1      37.037  33.608  29.792  1.00  0.00     0.010 A 
ATOM     40  C   UNL A   1      36.766  32.845  30.934  1.00  0.00    -0.014 A 
BRANCH  40  41
ATOM     41  C   UNL A   1      37.894  32.211  31.655  1.00  0.00     0.031 A 
ATOM     42  C   UNL A   1      38.331  32.757  32.987  1.00  0.00     0.074 A 
ATOM     43  C   UNL A   1      38.563  31.198  31.071  1.00  0.00     0.049 A 
ATOM     44  N   UNL A   1      39.333  32.385  33.740  1.00  0.00    -0.248 NA
ATOM     45  C   UNL A   1      37.565  33.894  33.530  1.00  0.00     0.031 C 
ATOM     46  C   UNL A   1      38.262  30.629  29.754  1.00  0.00     0.029 A 
ATOM     47  N   UNL A   1      39.639  30.469  31.507  1.00  0.00    -0.354 N 
ATOM     48  C   UNL A   1      39.329  33.251  34.827  1.00  0.00     0.074 A 
ATOM     49  C   UNL A   1      38.269  34.208  34.607  1.00  0.00     0.031 C 
ATOM     50  C   UNL A   1      39.104  29.612  29.511  1.00  0.00     0.029 A 
ATOM     51  C   UNL A   1      40.037  29.492  30.625  1.00  0.00     0.049 A 
ATOM     52  H   UNL A   1      40.086  30.630  32.370  1.00  0.00     0.167 HD
ATOM     53  C   UNL A   1      40.120  33.234  35.925  1.00  0.00     0.031 A 
ATOM     54  C   UNL A   1      41.046  28.603  30.704  1.00  0.00     0.031 A 
ATOM     55  C   UNL A   1      41.161  32.265  36.137  1.00  0.00     0.049 A 
ATOM     56  C   UNL A   1      41.918  28.610  31.929  1.00  0.00     0.074 A 
ATOM     57  C   UNL A   1      41.980  32.111  37.241  1.00  0.00     0.029 A 
ATOM     58  N   UNL A   1      41.529  31.286  35.225  1.00  0.00    -0.354 N 
ATOM     59  N   UNL A   1      41.845  29.382  32.987  1.00  0.00    -0.248 NA
ATOM     60  C   UNL A   1      43.001  27.621  31.974  1.00  0.00     0.031 C 
ATOM     61  C   UNL A   1      42.887  31.082  36.969  1.00  0.00     0.029 A 
ATOM     62  C   UNL A   1      42.587  30.549  35.725  1.00  0.00     0.049 A 
ATOM     63  H   UNL A   1      41.100  31.140  34.351  1.00  0.00     0.167 HD
ATOM     64  C   UNL A   1      42.863  28.961  33.834  1.00  0.00     0.074 A 
ATOM     65  C   UNL A   1      43.518  27.848  33.174  1.00  0.00     0.031 C 
ATOM     66  C   UNL A   1      43.229  29.451  35.044  1.00  0.00     0.031 A 
BRANCH  53  67
ATOM     67  C   UNL A   1      39.891  34.293  36.971  1.00  0.00    -0.014 A 
ATOM     68  C   UNL A   1      39.060  34.054  38.082  1.00  0.00     0.010 A 
ATOM     69  C   UNL A   1      40.545  35.535  36.864  1.00  0.00     0.010 A 
ATOM     70  C   UNL A   1      38.854  35.049  39.041  1.00  0.00     0.020 A 
ATOM     71  C   UNL A   1      40.367  36.521  37.839  1.00  0.00     0.020 A 
ATOM     72  C   UNL A   1      39.511  36.276  38.914  1.00  0.00     0.054 A 
BRANCH  72  73
ATOM     73  S   UNL A   1      39.250  37.535  40.194  1.00  0.00     0.124 S 
ATOM     74  O   UNL A   1      38.159  38.323  39.623  1.00  0.00    -0.237 OA
ATOM     75  O   UNL A   1      38.900  36.734  41.363  1.00  0.00    -0.237 OA
ATOM     76  O   UNL A   1      40.537  38.223  40.274  1.00  0.00    -0.744 OA
ENDBRANCH  72  73
ENDBRANCH  53  67
BRANCH  54  77
ATOM     77  C   UNL A   1      41.274  27.636  29.595  1.00  0.00    -0.014 A 
ATOM     78  C   UNL A   1      42.345  27.810  28.702  1.00  0.00     0.010 A 
ATOM     79  C   UNL A   1      40.430  26.520  29.437  1.00  0.00     0.010 A 
ATOM     80  C   UNL A   1      42.557  26.901  27.662  1.00  0.00     0.020 A 
ATOM     81  C   UNL A   1      40.657  25.591  28.418  1.00  0.00     0.020 A 
ATOM     82  C   UNL A   1      41.713  25.794  27.529  1.00  0.00     0.054 A 
BRANCH  82  83
ATOM     83  S   UNL A   1      42.036  24.604  26.199  1.00  0.00     0.124 S 
ATOM     84  O   UNL A   1      43.316  24.031  26.606  1.00  0.00    -0.237 OA
ATOM     85  O   UNL A   1      40.885  23.709  26.290  1.00  0.00    -0.237 OA
ATOM     86  O   UNL A   1      42.075  25.434  24.997  1.00  0.00    -0.744 OA
ENDBRANCH  82  83
ENDBRANCH  54  77
BRANCH  66  87
ATOM     87  C   UNL A   1      44.380  28.777  35.740  1.00  0.00    -0.014 A 
ATOM     88  C   UNL A   1      44.175  27.651  36.557  1.00  0.00     0.010 A 
ATOM     89  C   UNL A   1      45.690  29.242  35.527  1.00  0.00     0.010 A 
ATOM     90  C   UNL A   1      45.259  27.021  37.173  1.00  0.00     0.020 A 
ATOM     91  C   UNL A   1      46.779  28.594  36.114  1.00  0.00     0.020 A 
ATOM     92  C   UNL A   1      46.554  27.495  36.945  1.00  0.00     0.054 A 
BRANCH  92  93
ATOM     93  S   UNL A   1      47.946  26.628  37.718  1.00  0.00     0.124 S 
ATOM     94  O   UNL A   1      47.336  25.357  38.103  1.00  0.00    -0.237 OA
ATOM     95  O   UNL A   1      48.919  26.555  36.632  1.00  0.00    -0.237 OA
ATOM     96  O   UNL A   1      48.323  27.499  38.828  1.00  0.00    -0.744 OA
ENDBRANCH  92  93
ENDBRANCH  66  87
ENDBRANCH  40  41
ENDBRANCH  32  35
ENDBRANCH  30  31
ENDBRANCH  29  30
ENDBRANCH   1  29
TORSDOF 19
ENDMDL
MODEL 2
REMARK VINA RESULT:     -11.2      6.380     10.074
REMARK SMILES CC(C)(C)OC(=O)N1C[C@H](c2ccc(C(F)(F)F)cc2)[C@H](C(=O)NCCCCNC(=O)c2ccc(-c3c4nc(c(-c5ccc(S(=O)(=O)[O-])cc5)c5ccc([nH]5)c(-c5ccc(S(=O)(=O)[O-])cc5)c5nc(c(-c6ccc(S(=O)(=O)[O-])cc6)c6ccc3[nH]6)C=C5)C=C4)cc2)C1
REMARK SMILES IDX 26 1 25 2 24 3 22 4 23 5 21 7 8 8 9 9 92 10 10 11 6 12 7 13
REMARK SMILES IDX 5 14 2 15 1 16 3 17 4 18 11 19 12 20 20 21 13 22 19 23 14 24
REMARK SMILES IDX 15 25 16 26 17 27 18 28 27 29 28 30 29 31 30 32 31 34 32 35
REMARK SMILES IDX 33 36 91 37 34 38 90 39 35 40 36 41 37 42 84 43 38 44 89 45
REMARK SMILES IDX 83 46 85 47 39 48 88 49 82 50 81 51 40 53 70 54 51 55 69 56
REMARK SMILES IDX 52 57 55 58 68 59 86 60 53 61 54 62 67 64 87 65 56 66 41 67
REMARK SMILES IDX 42 68 50 69 43 70 49 71 44 72 45 73 46 74 47 75 48 76 71 77
REMARK SMILES IDX 72 78 80 79 73 80 79 81 74 82 75 83 76 84 77 85 78 86 57 87
REMARK SMILES IDX 58 88 66 89 59 90 65 91 60 92 61 93 62 94 63 95 64 96
REMARK H PARENT 24 6 29 33 85 52 55 63
REMARK Flexibility Score: inf
ROOT
ATOM      1  C   UNL A   1      39.661  23.103  26.444  1.00  0.00     0.023 C 
ENDROOT
BRANCH   1   2
ATOM      2  C   UNL A   1      38.404  23.944  26.300  1.00  0.00     0.116 C 
BRANCH   2   3
ATOM      3  N   UNL A   1      37.666  23.650  25.086  1.00  0.00    -0.356 N 
ATOM      4  C   UNL A   1      36.436  23.132  24.859  1.00  0.00     0.225 C 
ATOM      5  O   UNL A   1      36.115  22.981  23.673  1.00  0.00    -0.275 OA
ATOM      6  H   UNL A   1      38.159  23.870  24.262  1.00  0.00     0.163 HD
BRANCH   4   7
ATOM      7  C   UNL A   1      35.442  22.742  25.942  1.00  0.00     0.107 C 
ATOM      8  N   UNL A   1      33.660  21.234  25.647  1.00  0.00    -0.307 N 
ATOM      9  C   UNL A   1      33.036  22.421  26.180  1.00  0.00     0.132 C 
ATOM     10  C   UNL A   1      35.083  21.257  25.861  1.00  0.00     0.137 C 
ATOM     11  C   UNL A   1      34.115  23.541  26.176  1.00  0.00     0.053 C 
BRANCH   8  12
ATOM     12  C   UNL A   1      33.031  20.176  25.030  1.00  0.00     0.410 C 
ATOM     13  O   UNL A   1      31.817  20.093  24.936  1.00  0.00    -0.224 OA
BRANCH  12  14
ATOM     14  O   UNL A   1      33.912  19.227  24.609  1.00  0.00    -0.444 OA
BRANCH  14  15
ATOM     15  C   UNL A   1      33.491  17.846  24.429  1.00  0.00     0.106 C 
ATOM     16  C   UNL A   1      34.779  17.010  24.522  1.00  0.00     0.056 C 
ATOM     17  C   UNL A   1      32.888  17.675  23.033  1.00  0.00     0.056 C 
ATOM     18  C   UNL A   1      32.538  17.350  25.527  1.00  0.00     0.056 C 
ENDBRANCH  14  15
ENDBRANCH  12  14
ENDBRANCH   8  12
BRANCH  11  19
ATOM     19  C   UNL A   1      33.764  24.776  25.345  1.00  0.00    -0.042 A 
ATOM     20  C   UNL A   1      33.958  26.083  25.823  1.00  0.00     0.005 A 
ATOM     21  C   UNL A   1      33.214  24.656  24.055  1.00  0.00     0.005 A 
ATOM     22  C   UNL A   1      33.873  27.189  24.960  1.00  0.00     0.013 A 
ATOM     23  C   UNL A   1      33.128  25.751  23.191  1.00  0.00     0.013 A 
ATOM     24  C   UNL A   1      33.531  27.020  23.613  1.00  0.00     0.056 A 
BRANCH  24  25
ATOM     25  C   UNL A   1      33.697  28.124  22.597  1.00  0.00     0.416 C 
ATOM     26  F   UNL A   1      32.613  28.935  22.482  1.00  0.00    -0.166 F 
ATOM     27  F   UNL A   1      34.742  28.943  22.916  1.00  0.00    -0.166 F 
ATOM     28  F   UNL A   1      33.968  27.658  21.347  1.00  0.00    -0.166 F 
ENDBRANCH  24  25
ENDBRANCH  11  19
ENDBRANCH   4   7
ENDBRANCH   2   3
ENDBRANCH   1   2
BRANCH   1  29
ATOM     29  C   UNL A   1      39.487  21.635  26.069  1.00  0.00     0.023 C 
BRANCH  29  30
ATOM     30  C   UNL A   1      40.169  20.697  27.045  1.00  0.00     0.116 C 
BRANCH  30  31
ATOM     31  N   UNL A   1      41.092  19.796  26.362  1.00  0.00    -0.352 N 
ATOM     32  C   UNL A   1      42.285  20.067  25.743  1.00  0.00     0.251 C 
ATOM     33  H   UNL A   1      40.815  18.852  26.343  1.00  0.00     0.163 HD
ATOM     34  O   UNL A   1      42.794  19.234  25.002  1.00  0.00    -0.269 OA
BRANCH  32  35
ATOM     35  C   UNL A   1      42.939  21.366  25.978  1.00  0.00     0.039 A 
ATOM     36  C   UNL A   1      43.069  22.271  24.923  1.00  0.00     0.014 A 
ATOM     37  C   UNL A   1      43.410  21.693  27.252  1.00  0.00     0.014 A 
ATOM     38  C   UNL A   1      43.615  23.530  25.168  1.00  0.00     0.010 A 
ATOM     39  C   UNL A   1      43.835  22.984  27.518  1.00  0.00     0.010 A 
ATOM     40  C   UNL A   1      43.960  23.910  26.476  1.00  0.00    -0.014 A 
BRANCH  40  41
ATOM     41  C   UNL A   1      44.466  25.268  26.782  1.00  0.00     0.031 A 
ATOM     42  C   UNL A   1      43.534  26.299  27.358  1.00  0.00     0.074 A 
ATOM     43  C   UNL A   1      45.737  25.584  26.470  1.00  0.00     0.049 A 
ATOM     44  N   UNL A   1      43.768  27.557  27.632  1.00  0.00    -0.248 NA
ATOM     45  C   UNL A   1      42.148  25.876  27.629  1.00  0.00     0.031 C 
ATOM     46  C   UNL A   1      46.711  24.678  25.853  1.00  0.00     0.029 A 
ATOM     47  N   UNL A   1      46.431  26.756  26.624  1.00  0.00    -0.354 N 
ATOM     48  C   UNL A   1      42.559  28.074  28.084  1.00  0.00     0.074 A 
ATOM     49  C   UNL A   1      41.579  27.017  27.987  1.00  0.00     0.031 C 
ATOM     50  C   UNL A   1      47.885  25.315  25.723  1.00  0.00     0.029 A 
ATOM     51  C   UNL A   1      47.735  26.685  26.194  1.00  0.00     0.049 A 
ATOM     52  H   UNL A   1      46.033  27.572  27.006  1.00  0.00     0.167 HD
ATOM     53  C   UNL A   1      42.296  29.312  28.564  1.00  0.00     0.031 A 
ATOM     54  C   UNL A   1      48.700  27.625  26.176  1.00  0.00     0.031 A 
ATOM     55  C   UNL A   1      43.286  30.349  28.669  1.00  0.00     0.049 A 
ATOM     56  C   UNL A   1      48.381  28.996  26.706  1.00  0.00     0.074 A 
ATOM     57  C   UNL A   1      43.148  31.618  29.201  1.00  0.00     0.029 A 
ATOM     58  N   UNL A   1      44.598  30.238  28.230  1.00  0.00    -0.354 N 
ATOM     59  N   UNL A   1      47.254  29.442  27.209  1.00  0.00    -0.248 NA
ATOM     60  C   UNL A   1      49.463  29.986  26.671  1.00  0.00     0.031 C 
ATOM     61  C   UNL A   1      44.358  32.297  29.024  1.00  0.00     0.029 A 
ATOM     62  C   UNL A   1      45.270  31.427  28.445  1.00  0.00     0.049 A 
ATOM     63  H   UNL A   1      44.991  29.431  27.825  1.00  0.00     0.167 HD
ATOM     64  C   UNL A   1      47.497  30.762  27.569  1.00  0.00     0.074 A 
ATOM     65  C   UNL A   1      48.886  31.031  27.250  1.00  0.00     0.031 C 
ATOM     66  C   UNL A   1      46.650  31.673  28.109  1.00  0.00     0.031 A 
BRANCH  53  67
ATOM     67  C   UNL A   1      40.886  29.607  29.005  1.00  0.00    -0.014 A 
ATOM     68  C   UNL A   1      39.835  29.706  28.073  1.00  0.00     0.010 A 
ATOM     69  C   UNL A   1      40.597  29.750  30.375  1.00  0.00     0.010 A 
ATOM     70  C   UNL A   1      38.534  29.985  28.499  1.00  0.00     0.020 A 
ATOM     71  C   UNL A   1      39.290  29.996  30.807  1.00  0.00     0.020 A 
ATOM     72  C   UNL A   1      38.270  30.127  29.864  1.00  0.00     0.054 A 
BRANCH  72  73
ATOM     73  S   UNL A   1      36.564  30.455  30.387  1.00  0.00     0.124 S 
ATOM     74  O   UNL A   1      35.850  30.441  29.112  1.00  0.00    -0.237 OA
ATOM     75  O   UNL A   1      36.282  29.332  31.276  1.00  0.00    -0.237 OA
ATOM     76  O   UNL A   1      36.645  31.759  31.040  1.00  0.00    -0.744 OA
ENDBRANCH  72  73
ENDBRANCH  53  67
BRANCH  54  77
ATOM     77  C   UNL A   1      50.052  27.294  25.648  1.00  0.00    -0.014 A 
ATOM     78  C   UNL A   1      50.398  27.604  24.321  1.00  0.00     0.010 A 
ATOM     79  C   UNL A   1      51.011  26.681  26.476  1.00  0.00     0.010 A 
ATOM     80  C   UNL A   1      51.668  27.292  23.827  1.00  0.00     0.020 A 
ATOM     81  C   UNL A   1      52.292  26.396  25.996  1.00  0.00     0.020 A 
ATOM     82  C   UNL A   1      52.609  26.693  24.670  1.00  0.00     0.054 A 
BRANCH  82  83
ATOM     83  S   UNL A   1      54.264  26.339  24.018  1.00  0.00     0.124 S 
ATOM     84  O   UNL A   1      54.559  25.043  24.623  1.00  0.00    -0.237 OA
ATOM     85  O   UNL A   1      54.039  26.327  22.575  1.00  0.00    -0.237 OA
ATOM     86  O   UNL A   1      55.071  27.455  24.505  1.00  0.00    -0.744 OA
ENDBRANCH  82  83
ENDBRANCH  54  77
BRANCH  66  87
ATOM     87  C   UNL A   1      47.206  33.040  28.403  1.00  0.00    -0.014 A 
ATOM     88  C   UNL A   1      47.121  34.077  27.457  1.00  0.00     0.010 A 
ATOM     89  C   UNL A   1      47.768  33.306  29.665  1.00  0.00     0.010 A 
ATOM     90  C   UNL A   1      47.617  35.348  27.757  1.00  0.00     0.020 A 
ATOM     91  C   UNL A   1      48.234  34.584  29.981  1.00  0.00     0.020 A 
ATOM     92  C   UNL A   1      48.168  35.593  29.019  1.00  0.00     0.054 A 
BRANCH  92  93
ATOM     93  S   UNL A   1      48.759  37.265  29.398  1.00  0.00     0.124 S 
ATOM     94  O   UNL A   1      49.315  37.689  28.115  1.00  0.00    -0.237 OA
ATOM     95  O   UNL A   1      47.537  37.949  29.811  1.00  0.00    -0.237 OA
ATOM     96  O   UNL A   1      49.738  37.053  30.461  1.00  0.00    -0.744 OA
ENDBRANCH  92  93
ENDBRANCH  66  87
ENDBRANCH  40  41
ENDBRANCH  32  35
ENDBRANCH  30  31
ENDBRANCH  29  30
ENDBRANCH   1  29
TORSDOF 19
ENDMDL
MODEL 3
REMARK VINA RESULT:     -10.9      6.331     11.493
REMARK SMILES CC(C)(C)OC(=O)N1C[C@H](c2ccc(C(F)(F)F)cc2)[C@H](C(=O)NCCCCNC(=O)c2ccc(-c3c4nc(c(-c5ccc(S(=O)(=O)[O-])cc5)c5ccc([nH]5)c(-c5ccc(S(=O)(=O)[O-])cc5)c5nc(c(-c6ccc(S(=O)(=O)[O-])cc6)c6ccc3[nH]6)C=C5)C=C4)cc2)C1
REMARK SMILES IDX 26 1 25 2 24 3 22 4 23 5 21 7 8 8 9 9 92 10 10 11 6 12 7 13
REMARK SMILES IDX 5 14 2 15 1 16 3 17 4 18 11 19 12 20 20 21 13 22 19 23 14 24
REMARK SMILES IDX 15 25 16 26 17 27 18 28 27 29 28 30 29 31 30 32 31 34 32 35
REMARK SMILES IDX 33 36 91 37 34 38 90 39 35 40 36 41 37 42 84 43 38 44 89 45
REMARK SMILES IDX 83 46 85 47 39 48 88 49 82 50 81 51 40 53 70 54 51 55 69 56
REMARK SMILES IDX 52 57 55 58 68 59 86 60 53 61 54 62 67 64 87 65 56 66 41 67
REMARK SMILES IDX 42 68 50 69 43 70 49 71 44 72 45 73 46 74 47 75 48 76 71 77
REMARK SMILES IDX 72 78 80 79 73 80 79 81 74 82 75 83 76 84 77 85 78 86 57 87
REMARK SMILES IDX 58 88 66 89 59 90 65 91 60 92 61 93 62 94 63 95 64 96
REMARK H PARENT 24 6 29 33 85 52 55 63
REMARK Flexibility Score: inf
ROOT
ATOM      1  C   UNL A   1      39.632  22.585  26.298  1.00  0.00     0.023 C 
ENDROOT
BRANCH   1   2
ATOM      2  C   UNL A   1      38.362  23.410  26.172  1.00  0.00     0.116 C 
BRANCH   2   3
ATOM      3  N   UNL A   1      37.690  23.219  24.900  1.00  0.00    -0.356 N 
ATOM      4  C   UNL A   1      36.451  22.783  24.571  1.00  0.00     0.225 C 
ATOM      5  O   UNL A   1      36.200  22.709  23.361  1.00  0.00    -0.275 OA
ATOM      6  H   UNL A   1      38.246  23.452  24.122  1.00  0.00     0.163 HD
BRANCH   4   7
ATOM      7  C   UNL A   1      35.371  22.395  25.568  1.00  0.00     0.107 C 
ATOM      8  N   UNL A   1      33.466  21.114  25.051  1.00  0.00    -0.307 N 
ATOM      9  C   UNL A   1      32.936  22.302  25.675  1.00  0.00     0.132 C 
ATOM     10  C   UNL A   1      34.872  20.970  25.324  1.00  0.00     0.137 C 
ATOM     11  C   UNL A   1      34.118  23.301  25.827  1.00  0.00     0.053 C 
BRANCH   8  12
ATOM     12  C   UNL A   1      32.768  20.190  24.306  1.00  0.00     0.410 C 
ATOM     13  O   UNL A   1      32.200  20.474  23.265  1.00  0.00    -0.224 OA
BRANCH  12  14
ATOM     14  O   UNL A   1      32.739  18.965  24.900  1.00  0.00    -0.444 OA
BRANCH  14  15
ATOM     15  C   UNL A   1      33.213  17.784  24.197  1.00  0.00     0.106 C 
ATOM     16  C   UNL A   1      32.650  16.587  24.981  1.00  0.00     0.056 C 
ATOM     17  C   UNL A   1      34.743  17.738  24.251  1.00  0.00     0.056 C 
ATOM     18  C   UNL A   1      32.690  17.679  22.757  1.00  0.00     0.056 C 
ENDBRANCH  14  15
ENDBRANCH  12  14
ENDBRANCH   8  12
BRANCH  11  19
ATOM     19  C   UNL A   1      33.933  24.639  25.110  1.00  0.00    -0.042 A 
ATOM     20  C   UNL A   1      33.514  24.723  23.772  1.00  0.00     0.005 A 
ATOM     21  C   UNL A   1      34.189  25.859  25.764  1.00  0.00     0.005 A 
ATOM     22  C   UNL A   1      33.106  25.948  23.217  1.00  0.00     0.013 A 
ATOM     23  C   UNL A   1      33.786  27.081  25.219  1.00  0.00     0.013 A 
ATOM     24  C   UNL A   1      33.168  27.129  23.968  1.00  0.00     0.056 A 
BRANCH  24  25
ATOM     25  C   UNL A   1      32.491  28.402  23.520  1.00  0.00     0.416 C 
ATOM     26  F   UNL A   1      31.576  28.879  24.404  1.00  0.00    -0.166 F 
ATOM     27  F   UNL A   1      33.393  29.409  23.338  1.00  0.00    -0.166 F 
ATOM     28  F   UNL A   1      31.847  28.268  22.329  1.00  0.00    -0.166 F 
ENDBRANCH  24  25
ENDBRANCH  11  19
ENDBRANCH   4   7
ENDBRANCH   2   3
ENDBRANCH   1   2
BRANCH   1  29
ATOM     29  C   UNL A   1      39.489  21.134  25.850  1.00  0.00     0.023 C 
BRANCH  29  30
ATOM     30  C   UNL A   1      39.969  20.149  26.898  1.00  0.00     0.116 C 
BRANCH  30  31
ATOM     31  N   UNL A   1      40.984  19.250  26.360  1.00  0.00    -0.352 N 
ATOM     32  C   UNL A   1      42.228  19.534  25.857  1.00  0.00     0.251 C 
ATOM     33  H   UNL A   1      40.739  18.297  26.359  1.00  0.00     0.163 HD
ATOM     34  O   UNL A   1      42.837  18.685  25.214  1.00  0.00    -0.269 OA
BRANCH  32  35
ATOM     35  C   UNL A   1      42.815  20.864  26.094  1.00  0.00     0.039 A 
ATOM     36  C   UNL A   1      43.153  21.670  25.006  1.00  0.00     0.014 A 
ATOM     37  C   UNL A   1      43.015  21.318  27.400  1.00  0.00     0.014 A 
ATOM     38  C   UNL A   1      43.633  22.959  25.235  1.00  0.00     0.010 A 
ATOM     39  C   UNL A   1      43.371  22.638  27.622  1.00  0.00     0.010 A 
ATOM     40  C   UNL A   1      43.702  23.466  26.543  1.00  0.00    -0.014 A 
BRANCH  40  41
ATOM     41  C   UNL A   1      44.129  24.858  26.815  1.00  0.00     0.031 A 
ATOM     42  C   UNL A   1      45.571  25.247  26.636  1.00  0.00     0.074 A 
ATOM     43  C   UNL A   1      43.230  25.741  27.291  1.00  0.00     0.049 A 
ATOM     44  N   UNL A   1      46.151  26.392  26.884  1.00  0.00    -0.248 NA
ATOM     45  C   UNL A   1      46.492  24.203  26.150  1.00  0.00     0.031 C 
ATOM     46  C   UNL A   1      41.817  25.455  27.559  1.00  0.00     0.029 A 
ATOM     47  N   UNL A   1      43.370  27.059  27.641  1.00  0.00    -0.354 N 
ATOM     48  C   UNL A   1      47.499  26.199  26.605  1.00  0.00     0.074 A 
ATOM     49  C   UNL A   1      47.664  24.813  26.233  1.00  0.00     0.031 C 
ATOM     50  C   UNL A   1      41.214  26.575  27.987  1.00  0.00     0.029 A 
ATOM     51  C   UNL A   1      42.203  27.641  28.077  1.00  0.00     0.049 A 
ATOM     52  H   UNL A   1      44.226  27.544  27.586  1.00  0.00     0.167 HD
ATOM     53  C   UNL A   1      48.506  27.103  26.631  1.00  0.00     0.031 A 
ATOM     54  C   UNL A   1      41.962  28.894  28.509  1.00  0.00     0.031 A 
ATOM     55  C   UNL A   1      48.323  28.484  26.988  1.00  0.00     0.049 A 
ATOM     56  C   UNL A   1      43.098  29.879  28.537  1.00  0.00     0.074 A 
ATOM     57  C   UNL A   1      49.257  29.504  26.984  1.00  0.00     0.029 A 
ATOM     58  N   UNL A   1      47.125  29.038  27.418  1.00  0.00    -0.354 N 
ATOM     59  N   UNL A   1      44.350  29.701  28.188  1.00  0.00    -0.248 NA
ATOM     60  C   UNL A   1      42.788  31.233  29.010  1.00  0.00     0.031 C 
ATOM     61  C   UNL A   1      48.640  30.659  27.474  1.00  0.00     0.029 A 
ATOM     62  C   UNL A   1      47.304  30.377  27.716  1.00  0.00     0.049 A 
ATOM     63  H   UNL A   1      46.274  28.550  27.498  1.00  0.00     0.167 HD
ATOM     64  C   UNL A   1      44.975  30.927  28.382  1.00  0.00     0.074 A 
ATOM     65  C   UNL A   1      43.954  31.843  28.853  1.00  0.00     0.031 C 
ATOM     66  C   UNL A   1      46.274  31.266  28.193  1.00  0.00     0.031 A 
BRANCH  53  67
ATOM     67  C   UNL A   1      49.887  26.625  26.265  1.00  0.00    -0.014 A 
ATOM     68  C   UNL A   1      50.366  26.717  24.945  1.00  0.00     0.010 A 
ATOM     69  C   UNL A   1      50.735  26.111  27.264  1.00  0.00     0.010 A 
ATOM     70  C   UNL A   1      51.648  26.265  24.622  1.00  0.00     0.020 A 
ATOM     71  C   UNL A   1      52.031  25.689  26.951  1.00  0.00     0.020 A 
ATOM     72  C   UNL A   1      52.473  25.755  25.628  1.00  0.00     0.054 A 
BRANCH  72  73
ATOM     73  S   UNL A   1      54.145  25.208  25.184  1.00  0.00     0.124 S 
ATOM     74  O   UNL A   1      54.396  25.968  23.962  1.00  0.00    -0.237 OA
ATOM     75  O   UNL A   1      54.931  25.610  26.346  1.00  0.00    -0.237 OA
ATOM     76  O   UNL A   1      54.001  23.765  25.000  1.00  0.00    -0.744 OA
ENDBRANCH  72  73
ENDBRANCH  53  67
BRANCH  54  77
ATOM     77  C   UNL A   1      40.590  29.282  28.938  1.00  0.00    -0.014 A 
ATOM     78  C   UNL A   1      40.235  29.272  30.298  1.00  0.00     0.010 A 
ATOM     79  C   UNL A   1      39.632  29.682  27.987  1.00  0.00     0.010 A 
ATOM     80  C   UNL A   1      38.946  29.636  30.698  1.00  0.00     0.020 A 
ATOM     81  C   UNL A   1      38.352  30.078  28.386  1.00  0.00     0.020 A 
ATOM     82  C   UNL A   1      38.013  30.040  29.739  1.00  0.00     0.054 A 
BRANCH  82  83
ATOM     83  S   UNL A   1      36.361  30.551  30.287  1.00  0.00     0.124 S 
ATOM     84  O   UNL A   1      35.504  29.961  29.263  1.00  0.00    -0.237 OA
ATOM     85  O   UNL A   1      36.269  29.948  31.614  1.00  0.00    -0.237 OA
ATOM     86  O   UNL A   1      36.433  32.010  30.279  1.00  0.00    -0.744 OA
ENDBRANCH  82  83
ENDBRANCH  54  77
BRANCH  66  87
ATOM     87  C   UNL A   1      46.663  32.690  28.482  1.00  0.00    -0.014 A 
ATOM     88  C   UNL A   1      46.920  33.120  29.796  1.00  0.00     0.010 A 
ATOM     89  C   UNL A   1      46.829  33.596  27.419  1.00  0.00     0.010 A 
ATOM     90  C   UNL A   1      47.307  34.439  30.043  1.00  0.00     0.020 A 
ATOM     91  C   UNL A   1      47.249  34.906  27.659  1.00  0.00     0.020 A 
ATOM     92  C   UNL A   1      47.471  35.322  28.972  1.00  0.00     0.054 A 
BRANCH  92  93
ATOM     93  S   UNL A   1      48.021  37.015  29.319  1.00  0.00     0.124 S 
ATOM     94  O   UNL A   1      46.852  37.800  28.933  1.00  0.00    -0.237 OA
ATOM     95  O   UNL A   1      48.305  36.971  30.751  1.00  0.00    -0.237 OA
ATOM     96  O   UNL A   1      49.193  37.181  28.461  1.00  0.00    -0.744 OA
ENDBRANCH  92  93
ENDBRANCH  66  87
ENDBRANCH  40  41
ENDBRANCH  32  35
ENDBRANCH  30  31
ENDBRANCH  29  30
ENDBRANCH   1  29
TORSDOF 19
ENDMDL
