MODEL 1
REMARK VINA RESULT:     -11.7      0.000      0.000
REMARK SMILES COc1c(C)cc(Br)cc1C(=O)Nc1ccc(O)c(C(=O)NCCCCNC(=O)c2ccc(-c3c4nc(c(-c5ccc(S(=O)(=O)[O-])cc5)c5ccc([nH]5)c(-c5ccc(S(=O)(=O)[O-])cc5)c5nc(c(-c6ccc(S(=O)(=O)[O-])cc6)c6ccc3[nH]6)C=C5)C=C4)cc2)c1
REMARK SMILES IDX 24 1 23 2 22 3 20 4 21 5 19 7 14 8 15 9 90 10 16 11 17 12
REMARK SMILES IDX 13 13 11 14 12 15 10 17 3 18 4 19 5 20 6 21 9 22 7 23 8 24
REMARK SMILES IDX 2 25 1 26 18 27 25 29 26 30 27 31 28 32 29 34 30 35 31 36
REMARK SMILES IDX 89 37 32 38 88 39 33 40 34 41 35 42 82 43 36 44 87 45 81 46
REMARK SMILES IDX 83 47 37 48 86 49 80 50 79 51 38 53 68 54 49 55 67 56 50 57
REMARK SMILES IDX 53 58 66 59 84 60 51 61 52 62 65 64 85 65 54 66 39 67 40 68
REMARK SMILES IDX 48 69 41 70 47 71 42 72 43 73 44 74 45 75 46 76 69 77 70 78
REMARK SMILES IDX 78 79 71 80 77 81 72 82 73 83 74 84 75 85 76 86 55 87 56 88
REMARK SMILES IDX 64 89 57 90 63 91 58 92 59 93 60 94 61 95 62 96
REMARK H PARENT 22 6 13 16 18 28 27 33 83 52 53 63
REMARK Flexibility Score: inf
ROOT
ATOM      1  C   UNL A   1      31.554  29.006  25.664  1.00  0.00     0.023 C 
ENDROOT
BRANCH   1   2
ATOM      2  C   UNL A   1      32.412  29.309  24.432  1.00  0.00     0.116 C 
BRANCH   2   3
ATOM      3  N   UNL A   1      31.612  29.495  23.241  1.00  0.00    -0.352 N 
ATOM      4  C   UNL A   1      30.775  28.645  22.562  1.00  0.00     0.255 C 
ATOM      5  O   UNL A   1      30.105  29.132  21.646  1.00  0.00    -0.269 OA
ATOM      6  H   UNL A   1      31.680  30.395  22.846  1.00  0.00     0.163 HD
BRANCH   4   7
ATOM      7  C   UNL A   1      30.567  27.202  22.875  1.00  0.00     0.083 A 
ATOM      8  C   UNL A   1      31.583  24.986  22.830  1.00  0.00     0.042 A 
ATOM      9  C   UNL A   1      30.558  24.485  23.623  1.00  0.00     0.030 A 
ATOM     10  C   UNL A   1      31.641  26.352  22.542  1.00  0.00     0.043 A 
ATOM     11  C   UNL A   1      29.493  25.304  23.961  1.00  0.00     0.049 A 
ATOM     12  C   UNL A   1      29.473  26.633  23.535  1.00  0.00     0.128 A 
BRANCH   8  13
ATOM     13  N   UNL A   1      32.561  24.131  22.310  1.00  0.00    -0.322 N 
ATOM     14  C   UNL A   1      33.728  23.766  22.952  1.00  0.00     0.259 C 
ATOM     15  O   UNL A   1      34.823  23.999  22.441  1.00  0.00    -0.269 OA
ATOM     16  H   UNL A   1      32.405  23.759  21.412  1.00  0.00     0.170 HD
BRANCH  14  17
ATOM     17  C   UNL A   1      33.633  22.747  24.059  1.00  0.00     0.083 A 
ATOM     18  C   UNL A   1      33.821  22.954  25.439  1.00  0.00     0.134 A 
ATOM     19  C   UNL A   1      33.385  22.000  26.384  1.00  0.00    -0.007 A 
ATOM     20  C   UNL A   1      33.379  22.298  27.859  1.00  0.00     0.048 C 
ATOM     21  C   UNL A   1      32.978  20.743  25.935  1.00  0.00     0.023 A 
ATOM     22  C   UNL A   1      33.225  21.469  23.640  1.00  0.00     0.033 A 
ATOM     23  C   UNL A   1      32.938  20.472  24.572  1.00  0.00     0.019 A 
ATOM     24  Br  UNL A   1      32.450  18.745  23.976  1.00  0.00    -0.051 Br
BRANCH  18  25
ATOM     25  O   UNL A   1      34.498  24.041  25.921  1.00  0.00    -0.496 OA
ATOM     26  C   UNL A   1      35.913  23.836  25.788  1.00  0.00     0.278 C 
ENDBRANCH  18  25
ENDBRANCH  14  17
ENDBRANCH   8  13
BRANCH  12  27
ATOM     27  O   UNL A   1      28.336  27.312  23.827  1.00  0.00    -0.507 OA
ATOM     28  H   UNL A   1      27.566  26.847  24.085  1.00  0.00     0.293 HD
ENDBRANCH  12  27
ENDBRANCH   4   7
ENDBRANCH   2   3
ENDBRANCH   1   2
BRANCH   1  29
ATOM     29  C   UNL A   1      32.221  28.236  26.793  1.00  0.00     0.023 C 
BRANCH  29  30
ATOM     30  C   UNL A   1      33.584  28.747  27.217  1.00  0.00     0.116 C 
BRANCH  30  31
ATOM     31  N   UNL A   1      33.577  30.106  27.745  1.00  0.00    -0.352 N 
ATOM     32  C   UNL A   1      34.619  30.780  28.345  1.00  0.00     0.251 C 
ATOM     33  H   UNL A   1      32.729  30.598  27.665  1.00  0.00     0.163 HD
ATOM     34  O   UNL A   1      34.460  31.907  28.799  1.00  0.00    -0.269 OA
BRANCH  32  35
ATOM     35  C   UNL A   1      35.914  30.084  28.476  1.00  0.00     0.039 A 
ATOM     36  C   UNL A   1      36.821  30.135  27.415  1.00  0.00     0.014 A 
ATOM     37  C   UNL A   1      36.275  29.505  29.695  1.00  0.00     0.014 A 
ATOM     38  C   UNL A   1      38.129  29.690  27.611  1.00  0.00     0.010 A 
ATOM     39  C   UNL A   1      37.598  29.143  29.912  1.00  0.00     0.010 A 
ATOM     40  C   UNL A   1      38.541  29.240  28.877  1.00  0.00    -0.014 A 
BRANCH  40  41
ATOM     41  C   UNL A   1      39.952  28.874  29.152  1.00  0.00     0.031 A 
ATOM     42  C   UNL A   1      40.886  29.897  29.735  1.00  0.00     0.074 A 
ATOM     43  C   UNL A   1      40.414  27.660  28.792  1.00  0.00     0.049 A 
ATOM     44  N   UNL A   1      42.172  29.810  29.953  1.00  0.00    -0.248 NA
ATOM     45  C   UNL A   1      40.304  31.203  30.087  1.00  0.00     0.031 C 
ATOM     46  C   UNL A   1      39.621  26.598  28.166  1.00  0.00     0.029 A 
ATOM     47  N   UNL A   1      41.671  27.117  28.890  1.00  0.00    -0.354 N 
ATOM     48  C   UNL A   1      42.557  31.053  30.438  1.00  0.00     0.074 A 
ATOM     49  C   UNL A   1      41.379  31.892  30.439  1.00  0.00     0.031 C 
ATOM     50  C   UNL A   1      40.404  25.526  27.959  1.00  0.00     0.029 A 
ATOM     51  C   UNL A   1      41.760  25.835  28.403  1.00  0.00     0.049 A 
ATOM     52  H   UNL A   1      42.437  27.601  29.274  1.00  0.00     0.167 HD
ATOM     53  C   UNL A   1      43.777  31.457  30.864  1.00  0.00     0.031 A 
ATOM     54  C   UNL A   1      42.815  25.001  28.318  1.00  0.00     0.031 A 
ATOM     55  C   UNL A   1      44.940  30.614  30.888  1.00  0.00     0.049 A 
ATOM     56  C   UNL A   1      44.155  25.462  28.825  1.00  0.00     0.074 A 
ATOM     57  C   UNL A   1      46.206  30.908  31.362  1.00  0.00     0.029 A 
ATOM     58  N   UNL A   1      44.978  29.307  30.426  1.00  0.00    -0.354 N 
ATOM     59  N   UNL A   1      44.484  26.622  29.340  1.00  0.00    -0.248 NA
ATOM     60  C   UNL A   1      45.261  24.496  28.750  1.00  0.00     0.031 C 
ATOM     61  C   UNL A   1      47.020  29.789  31.154  1.00  0.00     0.029 A 
ATOM     62  C   UNL A   1      46.248  28.785  30.593  1.00  0.00     0.049 A 
ATOM     63  H   UNL A   1      44.214  28.823  30.038  1.00  0.00     0.167 HD
ATOM     64  C   UNL A   1      45.829  26.518  29.675  1.00  0.00     0.074 A 
ATOM     65  C   UNL A   1      46.248  25.178  29.314  1.00  0.00     0.031 C 
ATOM     66  C   UNL A   1      46.643  27.447  30.233  1.00  0.00     0.031 A 
BRANCH  53  67
ATOM     67  C   UNL A   1      43.905  32.878  31.341  1.00  0.00    -0.014 A 
ATOM     68  C   UNL A   1      43.692  33.211  32.691  1.00  0.00     0.010 A 
ATOM     69  C   UNL A   1      44.255  33.892  30.432  1.00  0.00     0.010 A 
ATOM     70  C   UNL A   1      43.779  34.538  33.115  1.00  0.00     0.020 A 
ATOM     71  C   UNL A   1      44.370  35.219  30.858  1.00  0.00     0.020 A 
ATOM     72  C   UNL A   1      44.111  35.535  32.193  1.00  0.00     0.054 A 
BRANCH  72  73
ATOM     73  S   UNL A   1      44.226  37.251  32.770  1.00  0.00     0.124 S 
ATOM     74  O   UNL A   1      44.103  37.997  31.520  1.00  0.00    -0.237 OA
ATOM     75  O   UNL A   1      43.089  37.362  33.681  1.00  0.00    -0.237 OA
ATOM     76  O   UNL A   1      45.539  37.314  33.407  1.00  0.00    -0.744 OA
ENDBRANCH  72  73
ENDBRANCH  53  67
BRANCH  54  77
ATOM     77  C   UNL A   1      42.641  23.635  27.756  1.00  0.00    -0.014 A 
ATOM     78  C   UNL A   1      43.065  23.349  26.446  1.00  0.00     0.010 A 
ATOM     79  C   UNL A   1      42.069  22.609  28.529  1.00  0.00     0.010 A 
ATOM     80  C   UNL A   1      42.905  22.067  25.912  1.00  0.00     0.020 A 
ATOM     81  C   UNL A   1      41.928  21.320  28.007  1.00  0.00     0.020 A 
ATOM     82  C   UNL A   1      42.337  21.060  26.698  1.00  0.00     0.054 A 
BRANCH  82  83
ATOM     83  S   UNL A   1      42.190  19.388  26.006  1.00  0.00     0.124 S 
ATOM     84  O   UNL A   1      42.976  19.495  24.782  1.00  0.00    -0.237 OA
ATOM     85  O   UNL A   1      42.767  18.557  27.060  1.00  0.00    -0.237 OA
ATOM     86  O   UNL A   1      40.751  19.225  25.815  1.00  0.00    -0.744 OA
ENDBRANCH  82  83
ENDBRANCH  54  77
BRANCH  66  87
ATOM     87  C   UNL A   1      48.062  27.040  30.526  1.00  0.00    -0.014 A 
ATOM     88  C   UNL A   1      49.100  27.328  29.625  1.00  0.00     0.010 A 
ATOM     89  C   UNL A   1      48.364  26.419  31.751  1.00  0.00     0.010 A 
ATOM     90  C   UNL A   1      50.418  26.983  29.936  1.00  0.00     0.020 A 
ATOM     91  C   UNL A   1      49.682  26.092  32.074  1.00  0.00     0.020 A 
ATOM     92  C   UNL A   1      50.701  26.366  31.158  1.00  0.00     0.054 A 
BRANCH  92  93
ATOM     93  S   UNL A   1      52.424  25.976  31.566  1.00  0.00     0.124 S 
ATOM     94  O   UNL A   1      52.746  27.011  32.543  1.00  0.00    -0.237 OA
ATOM     95  O   UNL A   1      52.332  24.618  32.096  1.00  0.00    -0.237 OA
ATOM     96  O   UNL A   1      53.117  26.091  30.284  1.00  0.00    -0.744 OA
ENDBRANCH  92  93
ENDBRANCH  66  87
ENDBRANCH  40  41
ENDBRANCH  32  35
ENDBRANCH  30  31
ENDBRANCH  29  30
ENDBRANCH   1  29
TORSDOF 18
ENDMDL
MODEL 2
REMARK VINA RESULT:     -11.3      3.331      9.201
REMARK SMILES COc1c(C)cc(Br)cc1C(=O)Nc1ccc(O)c(C(=O)NCCCCNC(=O)c2ccc(-c3c4nc(c(-c5ccc(S(=O)(=O)[O-])cc5)c5ccc([nH]5)c(-c5ccc(S(=O)(=O)[O-])cc5)c5nc(c(-c6ccc(S(=O)(=O)[O-])cc6)c6ccc3[nH]6)C=C5)C=C4)cc2)c1
REMARK SMILES IDX 24 1 23 2 22 3 20 4 21 5 19 7 14 8 15 9 90 10 16 11 17 12
REMARK SMILES IDX 13 13 11 14 12 15 10 17 3 18 4 19 5 20 6 21 9 22 7 23 8 24
REMARK SMILES IDX 2 25 1 26 18 27 25 29 26 30 27 31 28 32 29 34 30 35 31 36
REMARK SMILES IDX 89 37 32 38 88 39 33 40 34 41 35 42 82 43 36 44 87 45 81 46
REMARK SMILES IDX 83 47 37 48 86 49 80 50 79 51 38 53 68 54 49 55 67 56 50 57
REMARK SMILES IDX 53 58 66 59 84 60 51 61 52 62 65 64 85 65 54 66 39 67 40 68
REMARK SMILES IDX 48 69 41 70 47 71 42 72 43 73 44 74 45 75 46 76 69 77 70 78
REMARK SMILES IDX 78 79 71 80 77 81 72 82 73 83 74 84 75 85 76 86 55 87 56 88
REMARK SMILES IDX 64 89 57 90 63 91 58 92 59 93 60 94 61 95 62 96
REMARK H PARENT 22 6 13 16 18 28 27 33 83 52 53 63
REMARK Flexibility Score: inf
ROOT
ATOM      1  C   UNL A   1      37.464  20.354  24.879  1.00  0.00     0.023 C 
ENDROOT
BRANCH   1   2
ATOM      2  C   UNL A   1      35.934  20.366  24.911  1.00  0.00     0.116 C 
BRANCH   2   3
ATOM      3  N   UNL A   1      35.417  20.931  26.140  1.00  0.00    -0.352 N 
ATOM      4  C   UNL A   1      34.351  21.759  26.385  1.00  0.00     0.255 C 
ATOM      5  O   UNL A   1      34.060  21.963  27.568  1.00  0.00    -0.269 OA
ATOM      6  H   UNL A   1      35.922  20.673  26.945  1.00  0.00     0.163 HD
BRANCH   4   7
ATOM      7  C   UNL A   1      33.483  22.385  25.346  1.00  0.00     0.083 A 
ATOM      8  C   UNL A   1      33.399  24.022  23.542  1.00  0.00     0.042 A 
ATOM      9  C   UNL A   1      32.169  23.524  23.129  1.00  0.00     0.030 A 
ATOM     10  C   UNL A   1      34.096  23.395  24.577  1.00  0.00     0.043 A 
ATOM     11  C   UNL A   1      31.550  22.531  23.870  1.00  0.00     0.049 A 
ATOM     12  C   UNL A   1      32.179  22.013  25.004  1.00  0.00     0.128 A 
BRANCH   8  13
ATOM     13  N   UNL A   1      33.946  25.156  22.931  1.00  0.00    -0.322 N 
ATOM     14  C   UNL A   1      33.227  26.141  22.285  1.00  0.00     0.259 C 
ATOM     15  O   UNL A   1      33.446  26.403  21.103  1.00  0.00    -0.269 OA
ATOM     16  H   UNL A   1      34.925  25.259  22.965  1.00  0.00     0.170 HD
BRANCH  14  17
ATOM     17  C   UNL A   1      32.479  27.139  23.134  1.00  0.00     0.083 A 
ATOM     18  C   UNL A   1      32.950  27.833  24.264  1.00  0.00     0.134 A 
ATOM     19  C   UNL A   1      32.269  28.965  24.760  1.00  0.00    -0.007 A 
ATOM     20  C   UNL A   1      32.869  29.843  25.825  1.00  0.00     0.048 C 
ATOM     21  C   UNL A   1      30.995  29.256  24.266  1.00  0.00     0.023 A 
ATOM     22  C   UNL A   1      31.193  27.454  22.663  1.00  0.00     0.033 A 
ATOM     23  C   UNL A   1      30.450  28.477  23.251  1.00  0.00     0.019 A 
ATOM     24  Br  UNL A   1      28.699  28.836  22.637  1.00  0.00    -0.051 Br
BRANCH  18  25
ATOM     25  O   UNL A   1      34.036  27.401  24.977  1.00  0.00    -0.496 OA
ATOM     26  C   UNL A   1      33.606  26.607  26.093  1.00  0.00     0.278 C 
ENDBRANCH  18  25
ENDBRANCH  14  17
ENDBRANCH   8  13
BRANCH  12  27
ATOM     27  O   UNL A   1      31.440  21.127  25.716  1.00  0.00    -0.507 OA
ATOM     28  H   UNL A   1      31.351  20.244  25.417  1.00  0.00     0.293 HD
ENDBRANCH  12  27
ENDBRANCH   4   7
ENDBRANCH   2   3
ENDBRANCH   1   2
BRANCH   1  29
ATOM     29  C   UNL A   1      38.171  21.616  25.350  1.00  0.00     0.023 C 
BRANCH  29  30
ATOM     30  C   UNL A   1      39.304  21.403  26.334  1.00  0.00     0.116 C 
BRANCH  30  31
ATOM     31  N   UNL A   1      40.065  20.178  26.115  1.00  0.00    -0.352 N 
ATOM     32  C   UNL A   1      41.435  20.032  26.100  1.00  0.00     0.251 C 
ATOM     33  H   UNL A   1      39.538  19.362  25.960  1.00  0.00     0.163 HD
ATOM     34  O   UNL A   1      41.949  18.948  25.846  1.00  0.00    -0.269 OA
BRANCH  32  35
ATOM     35  C   UNL A   1      42.266  21.228  26.340  1.00  0.00     0.039 A 
ATOM     36  C   UNL A   1      42.584  22.059  25.264  1.00  0.00     0.014 A 
ATOM     37  C   UNL A   1      42.607  21.590  27.646  1.00  0.00     0.014 A 
ATOM     38  C   UNL A   1      43.161  23.307  25.511  1.00  0.00     0.010 A 
ATOM     39  C   UNL A   1      43.101  22.864  27.894  1.00  0.00     0.010 A 
ATOM     40  C   UNL A   1      43.375  23.738  26.830  1.00  0.00    -0.014 A 
BRANCH  40  41
ATOM     41  C   UNL A   1      43.873  25.103  27.132  1.00  0.00     0.031 A 
ATOM     42  C   UNL A   1      45.327  25.427  26.930  1.00  0.00     0.074 A 
ATOM     43  C   UNL A   1      43.043  26.017  27.673  1.00  0.00     0.049 A 
ATOM     44  N   UNL A   1      45.977  26.521  27.229  1.00  0.00    -0.248 NA
ATOM     45  C   UNL A   1      46.167  24.367  26.346  1.00  0.00     0.031 C 
ATOM     46  C   UNL A   1      41.623  25.808  27.971  1.00  0.00     0.029 A 
ATOM     47  N   UNL A   1      43.279  27.306  28.084  1.00  0.00    -0.354 N 
ATOM     48  C   UNL A   1      47.304  26.272  26.899  1.00  0.00     0.074 A 
ATOM     49  C   UNL A   1      47.373  24.909  26.420  1.00  0.00     0.031 C 
ATOM     50  C   UNL A   1      41.111  26.935  28.492  1.00  0.00     0.029 A 
ATOM     51  C   UNL A   1      42.170  27.934  28.600  1.00  0.00     0.049 A 
ATOM     52  H   UNL A   1      44.159  27.740  28.013  1.00  0.00     0.167 HD
ATOM     53  C   UNL A   1      48.366  27.107  26.967  1.00  0.00     0.031 A 
ATOM     54  C   UNL A   1      42.023  29.173  29.107  1.00  0.00     0.031 A 
ATOM     55  C   UNL A   1      48.289  28.470  27.417  1.00  0.00     0.049 A 
ATOM     56  C   UNL A   1      43.211  30.095  29.147  1.00  0.00     0.074 A 
ATOM     57  C   UNL A   1      49.295  29.419  27.462  1.00  0.00     0.029 A 
ATOM     58  N   UNL A   1      47.139  29.082  27.890  1.00  0.00    -0.354 N 
ATOM     59  N   UNL A   1      44.446  29.861  28.769  1.00  0.00    -0.248 NA
ATOM     60  C   UNL A   1      42.984  31.450  29.668  1.00  0.00     0.031 C 
ATOM     61  C   UNL A   1      48.760  30.596  27.997  1.00  0.00     0.029 A 
ATOM     62  C   UNL A   1      47.411  30.392  28.242  1.00  0.00     0.049 A 
ATOM     63  H   UNL A   1      46.258  28.648  27.966  1.00  0.00     0.167 HD
ATOM     64  C   UNL A   1      45.136  31.048  28.984  1.00  0.00     0.074 A 
ATOM     65  C   UNL A   1      44.181  32.000  29.513  1.00  0.00     0.031 C 
ATOM     66  C   UNL A   1      46.444  31.325  28.760  1.00  0.00     0.031 A 
BRANCH  53  67
ATOM     67  C   UNL A   1      49.702  26.562  26.541  1.00  0.00    -0.014 A 
ATOM     68  C   UNL A   1      50.540  25.903  27.459  1.00  0.00     0.010 A 
ATOM     69  C   UNL A   1      50.120  26.698  25.206  1.00  0.00     0.010 A 
ATOM     70  C   UNL A   1      51.793  25.432  27.061  1.00  0.00     0.020 A 
ATOM     71  C   UNL A   1      51.362  26.204  24.797  1.00  0.00     0.020 A 
ATOM     72  C   UNL A   1      52.198  25.592  25.732  1.00  0.00     0.054 A 
BRANCH  72  73
ATOM     73  S   UNL A   1      53.827  24.965  25.238  1.00  0.00     0.124 S 
ATOM     74  O   UNL A   1      53.508  23.603  24.816  1.00  0.00    -0.237 OA
ATOM     75  O   UNL A   1      54.213  25.879  24.166  1.00  0.00    -0.237 OA
ATOM     76  O   UNL A   1      54.622  25.069  26.458  1.00  0.00    -0.744 OA
ENDBRANCH  72  73
ENDBRANCH  53  67
BRANCH  54  77
ATOM     77  C   UNL A   1      40.691  29.625  29.593  1.00  0.00    -0.014 A 
ATOM     78  C   UNL A   1      40.438  29.727  30.973  1.00  0.00     0.010 A 
ATOM     79  C   UNL A   1      39.676  29.972  28.683  1.00  0.00     0.010 A 
ATOM     80  C   UNL A   1      39.189  30.152  31.435  1.00  0.00     0.020 A 
ATOM     81  C   UNL A   1      38.434  30.418  29.142  1.00  0.00     0.020 A 
ATOM     82  C   UNL A   1      38.194  30.496  30.516  1.00  0.00     0.054 A 
BRANCH  82  83
ATOM     83  S   UNL A   1      36.599  31.098  31.136  1.00  0.00     0.124 S 
ATOM     84  O   UNL A   1      35.896  31.425  29.900  1.00  0.00    -0.237 OA
ATOM     85  O   UNL A   1      36.087  29.943  31.871  1.00  0.00    -0.237 OA
ATOM     86  O   UNL A   1      36.967  32.242  31.969  1.00  0.00    -0.744 OA
ENDBRANCH  82  83
ENDBRANCH  54  77
BRANCH  66  87
ATOM     87  C   UNL A   1      46.916  32.725  29.050  1.00  0.00    -0.014 A 
ATOM     88  C   UNL A   1      46.851  33.729  28.069  1.00  0.00     0.010 A 
ATOM     89  C   UNL A   1      47.367  33.049  30.341  1.00  0.00     0.010 A 
ATOM     90  C   UNL A   1      47.251  35.033  28.372  1.00  0.00     0.020 A 
ATOM     91  C   UNL A   1      47.746  34.356  30.653  1.00  0.00     0.020 A 
ATOM     92  C   UNL A   1      47.697  35.339  29.662  1.00  0.00     0.054 A 
BRANCH  92  93
ATOM     93  S   UNL A   1      48.158  37.049  30.048  1.00  0.00     0.124 S 
ATOM     94  O   UNL A   1      48.785  37.483  28.803  1.00  0.00    -0.237 OA
ATOM     95  O   UNL A   1      46.870  37.670  30.353  1.00  0.00    -0.237 OA
ATOM     96  O   UNL A   1      49.062  36.915  31.188  1.00  0.00    -0.744 OA
ENDBRANCH  92  93
ENDBRANCH  66  87
ENDBRANCH  40  41
ENDBRANCH  32  35
ENDBRANCH  30  31
ENDBRANCH  29  30
ENDBRANCH   1  29
TORSDOF 18
ENDMDL
MODEL 3
REMARK VINA RESULT:     -11.3      2.916      3.646
REMARK SMILES COc1c(C)cc(Br)cc1C(=O)Nc1ccc(O)c(C(=O)NCCCCNC(=O)c2ccc(-c3c4nc(c(-c5ccc(S(=O)(=O)[O-])cc5)c5ccc([nH]5)c(-c5ccc(S(=O)(=O)[O-])cc5)c5nc(c(-c6ccc(S(=O)(=O)[O-])cc6)c6ccc3[nH]6)C=C5)C=C4)cc2)c1
REMARK SMILES IDX 24 1 23 2 22 3 20 4 21 5 19 7 14 8 15 9 90 10 16 11 17 12
REMARK SMILES IDX 13 13 11 14 12 15 10 17 3 18 4 19 5 20 6 21 9 22 7 23 8 24
REMARK SMILES IDX 2 25 1 26 18 27 25 29 26 30 27 31 28 32 29 34 30 35 31 36
REMARK SMILES IDX 89 37 32 38 88 39 33 40 34 41 35 42 82 43 36 44 87 45 81 46
REMARK SMILES IDX 83 47 37 48 86 49 80 50 79 51 38 53 68 54 49 55 67 56 50 57
REMARK SMILES IDX 53 58 66 59 84 60 51 61 52 62 65 64 85 65 54 66 39 67 40 68
REMARK SMILES IDX 48 69 41 70 47 71 42 72 43 73 44 74 45 75 46 76 69 77 70 78
REMARK SMILES IDX 78 79 71 80 77 81 72 82 73 83 74 84 75 85 76 86 55 87 56 88
REMARK SMILES IDX 64 89 57 90 63 91 58 92 59 93 60 94 61 95 62 96
REMARK H PARENT 22 6 13 16 18 28 27 33 83 52 53 63
REMARK Flexibility Score: inf
ROOT
ATOM      1  C   UNL A   1      31.439  29.433  25.500  1.00  0.00     0.023 C 
ENDROOT
BRANCH   1   2
ATOM      2  C   UNL A   1      31.464  28.926  24.056  1.00  0.00     0.116 C 
BRANCH   2   3
ATOM      3  N   UNL A   1      32.749  29.134  23.425  1.00  0.00    -0.352 N 
ATOM      4  C   UNL A   1      33.658  28.253  22.895  1.00  0.00     0.255 C 
ATOM      5  O   UNL A   1      34.618  28.736  22.285  1.00  0.00    -0.269 OA
ATOM      6  H   UNL A   1      33.021  30.079  23.364  1.00  0.00     0.163 HD
BRANCH   4   7
ATOM      7  C   UNL A   1      33.554  26.766  22.945  1.00  0.00     0.083 A 
ATOM      8  C   UNL A   1      33.618  24.812  24.402  1.00  0.00     0.042 A 
ATOM      9  C   UNL A   1      33.122  24.015  23.378  1.00  0.00     0.030 A 
ATOM     10  C   UNL A   1      33.739  26.192  24.220  1.00  0.00     0.043 A 
ATOM     11  C   UNL A   1      32.933  24.560  22.119  1.00  0.00     0.049 A 
ATOM     12  C   UNL A   1      33.208  25.911  21.895  1.00  0.00     0.128 A 
BRANCH   8  13
ATOM     13  N   UNL A   1      34.006  24.242  25.620  1.00  0.00    -0.322 N 
ATOM     14  C   UNL A   1      33.613  23.003  26.084  1.00  0.00     0.259 C 
ATOM     15  O   UNL A   1      33.020  22.895  27.156  1.00  0.00    -0.269 OA
ATOM     16  H   UNL A   1      34.609  24.769  26.194  1.00  0.00     0.170 HD
BRANCH  14  17
ATOM     17  C   UNL A   1      34.261  21.785  25.475  1.00  0.00     0.083 A 
ATOM     18  C   UNL A   1      35.629  21.573  25.222  1.00  0.00     0.134 A 
ATOM     19  C   UNL A   1      36.129  20.279  24.957  1.00  0.00    -0.007 A 
ATOM     20  C   UNL A   1      37.607  20.001  24.901  1.00  0.00     0.048 C 
ATOM     21  C   UNL A   1      35.225  19.243  24.717  1.00  0.00     0.023 A 
ATOM     22  C   UNL A   1      33.378  20.722  25.220  1.00  0.00     0.033 A 
ATOM     23  C   UNL A   1      33.858  19.479  24.810  1.00  0.00     0.019 A 
ATOM     24  Br  UNL A   1      32.641  18.087  24.415  1.00  0.00    -0.051 Br
BRANCH  18  25
ATOM     25  O   UNL A   1      36.519  22.610  25.142  1.00  0.00    -0.496 OA
ATOM     26  C   UNL A   1      36.676  23.017  23.774  1.00  0.00     0.278 C 
ENDBRANCH  18  25
ENDBRANCH  14  17
ENDBRANCH   8  13
BRANCH  12  27
ATOM     27  O   UNL A   1      33.095  26.313  20.605  1.00  0.00    -0.507 OA
ATOM     28  H   UNL A   1      32.640  25.778  19.985  1.00  0.00     0.293 HD
ENDBRANCH  12  27
ENDBRANCH   4   7
ENDBRANCH   2   3
ENDBRANCH   1   2
BRANCH   1  29
ATOM     29  C   UNL A   1      32.058  28.529  26.556  1.00  0.00     0.023 C 
BRANCH  29  30
ATOM     30  C   UNL A   1      33.341  29.038  27.182  1.00  0.00     0.116 C 
BRANCH  30  31
ATOM     31  N   UNL A   1      33.427  30.491  27.274  1.00  0.00    -0.352 N 
ATOM     32  C   UNL A   1      34.479  31.241  27.754  1.00  0.00     0.251 C 
ATOM     33  H   UNL A   1      32.643  30.993  26.957  1.00  0.00     0.163 HD
ATOM     34  O   UNL A   1      34.399  32.462  27.829  1.00  0.00    -0.269 OA
BRANCH  32  35
ATOM     35  C   UNL A   1      35.683  30.529  28.228  1.00  0.00     0.039 A 
ATOM     36  C   UNL A   1      36.912  30.803  27.625  1.00  0.00     0.014 A 
ATOM     37  C   UNL A   1      35.607  29.703  29.353  1.00  0.00     0.014 A 
ATOM     38  C   UNL A   1      38.084  30.322  28.214  1.00  0.00     0.010 A 
ATOM     39  C   UNL A   1      36.777  29.300  29.982  1.00  0.00     0.010 A 
ATOM     40  C   UNL A   1      38.027  29.612  29.424  1.00  0.00    -0.014 A 
BRANCH  40  41
ATOM     41  C   UNL A   1      39.258  29.192  30.138  1.00  0.00     0.031 A 
ATOM     42  C   UNL A   1      39.684  29.921  31.382  1.00  0.00     0.074 A 
ATOM     43  C   UNL A   1      40.039  28.223  29.620  1.00  0.00     0.049 A 
ATOM     44  N   UNL A   1      40.773  29.778  32.090  1.00  0.00    -0.248 NA
ATOM     45  C   UNL A   1      38.780  30.975  31.874  1.00  0.00     0.031 C 
ATOM     46  C   UNL A   1      39.765  27.477  28.388  1.00  0.00     0.029 A 
ATOM     47  N   UNL A   1      41.233  27.707  30.058  1.00  0.00    -0.354 N 
ATOM     48  C   UNL A   1      40.701  30.739  33.091  1.00  0.00     0.074 A 
ATOM     49  C   UNL A   1      39.484  31.490  32.871  1.00  0.00     0.031 C 
ATOM     50  C   UNL A   1      40.749  26.585  28.185  1.00  0.00     0.029 A 
ATOM     51  C   UNL A   1      41.739  26.718  29.248  1.00  0.00     0.049 A 
ATOM     52  H   UNL A   1      41.683  28.015  30.877  1.00  0.00     0.167 HD
ATOM     53  C   UNL A   1      41.558  30.965  34.113  1.00  0.00     0.031 A 
ATOM     54  C   UNL A   1      42.877  26.002  29.347  1.00  0.00     0.031 A 
ATOM     55  C   UNL A   1      42.752  30.200  34.346  1.00  0.00     0.049 A 
ATOM     56  C   UNL A   1      43.800  26.251  30.508  1.00  0.00     0.074 A 
ATOM     57  C   UNL A   1      43.653  30.307  35.390  1.00  0.00     0.029 A 
ATOM     58  N   UNL A   1      43.207  29.178  33.526  1.00  0.00    -0.354 N 
ATOM     59  N   UNL A   1      43.682  27.123  31.481  1.00  0.00    -0.248 NA
ATOM     60  C   UNL A   1      45.004  25.410  30.592  1.00  0.00     0.031 C 
ATOM     61  C   UNL A   1      44.673  29.372  35.183  1.00  0.00     0.029 A 
ATOM     62  C   UNL A   1      44.382  28.654  34.034  1.00  0.00     0.049 A 
ATOM     63  H   UNL A   1      42.760  28.872  32.704  1.00  0.00     0.167 HD
ATOM     64  C   UNL A   1      44.781  26.919  32.306  1.00  0.00     0.074 A 
ATOM     65  C   UNL A   1      45.547  25.835  31.725  1.00  0.00     0.031 C 
ATOM     66  C   UNL A   1      45.125  27.570  33.444  1.00  0.00     0.031 A 
BRANCH  53  67
ATOM     67  C   UNL A   1      41.226  32.089  35.056  1.00  0.00    -0.014 A 
ATOM     68  C   UNL A   1      40.445  31.863  36.204  1.00  0.00     0.010 A 
ATOM     69  C   UNL A   1      41.710  33.384  34.800  1.00  0.00     0.010 A 
ATOM     70  C   UNL A   1      40.113  32.920  37.054  1.00  0.00     0.020 A 
ATOM     71  C   UNL A   1      41.403  34.440  35.663  1.00  0.00     0.020 A 
ATOM     72  C   UNL A   1      40.589  34.205  36.773  1.00  0.00     0.054 A 
BRANCH  72  73
ATOM     73  S   UNL A   1      40.151  35.560  37.896  1.00  0.00     0.124 S 
ATOM     74  O   UNL A   1      41.334  35.634  38.752  1.00  0.00    -0.237 OA
ATOM     75  O   UNL A   1      39.965  36.686  36.985  1.00  0.00    -0.237 OA
ATOM     76  O   UNL A   1      38.936  35.085  38.553  1.00  0.00    -0.744 OA
ENDBRANCH  72  73
ENDBRANCH  53  67
BRANCH  54  77
ATOM     77  C   UNL A   1      43.192  24.961  28.331  1.00  0.00    -0.014 A 
ATOM     78  C   UNL A   1      42.725  23.646  28.498  1.00  0.00     0.010 A 
ATOM     79  C   UNL A   1      43.943  25.282  27.187  1.00  0.00     0.010 A 
ATOM     80  C   UNL A   1      43.017  22.664  27.547  1.00  0.00     0.020 A 
ATOM     81  C   UNL A   1      44.218  24.308  26.222  1.00  0.00     0.020 A 
ATOM     82  C   UNL A   1      43.762  23.002  26.414  1.00  0.00     0.054 A 
BRANCH  82  83
ATOM     83  S   UNL A   1      44.083  21.726  25.163  1.00  0.00     0.124 S 
ATOM     84  O   UNL A   1      45.446  21.319  25.488  1.00  0.00    -0.237 OA
ATOM     85  O   UNL A   1      43.042  20.739  25.443  1.00  0.00    -0.237 OA
ATOM     86  O   UNL A   1      43.927  22.442  23.899  1.00  0.00    -0.744 OA
ENDBRANCH  82  83
ENDBRANCH  54  77
BRANCH  66  87
ATOM     87  C   UNL A   1      46.363  27.105  34.162  1.00  0.00    -0.014 A 
ATOM     88  C   UNL A   1      46.305  26.079  35.120  1.00  0.00     0.010 A 
ATOM     89  C   UNL A   1      47.609  27.661  33.821  1.00  0.00     0.010 A 
ATOM     90  C   UNL A   1      47.472  25.630  35.741  1.00  0.00     0.020 A 
ATOM     91  C   UNL A   1      48.781  27.199  34.425  1.00  0.00     0.020 A 
ATOM     92  C   UNL A   1      48.703  26.193  35.391  1.00  0.00     0.054 A 
BRANCH  92  93
ATOM     93  S   UNL A   1      50.212  25.557  36.170  1.00  0.00     0.124 S 
ATOM     94  O   UNL A   1      49.823  24.193  36.516  1.00  0.00    -0.237 OA
ATOM     95  O   UNL A   1      51.202  25.676  35.101  1.00  0.00    -0.237 OA
ATOM     96  O   UNL A   1      50.420  26.454  37.305  1.00  0.00    -0.744 OA
ENDBRANCH  92  93
ENDBRANCH  66  87
ENDBRANCH  40  41
ENDBRANCH  32  35
ENDBRANCH  30  31
ENDBRANCH  29  30
ENDBRANCH   1  29
TORSDOF 18
ENDMDL
