MODEL 1
REMARK VINA RESULT:     -11.6      0.000      0.000
REMARK SMILES O=C(NCCCCNC(=O)[C@H](c1c[nH]c2ccc(Cl)cc12)[NH+]1CCN(c2cccc(Cl)c2)CC1)c1ccc(-c2c3nc(c(-c4ccc(S(=O)(=O)[O-])cc4)c4ccc([nH]4)c(-c4ccc(S(=O)(=O)[O-])cc4)c4nc(c(-c5ccc(S(=O)(=O)[O-])cc5)c5ccc2[nH]5)C=C4)C=C3)cc1
REMARK SMILES IDX 5 1 4 2 3 3 1 4 2 5 35 7 36 8 94 9 37 10 93 11 38 12 39 13
REMARK SMILES IDX 40 14 87 15 41 16 92 17 86 18 88 19 42 20 91 21 85 22 84 23
REMARK SMILES IDX 43 25 73 26 54 27 72 28 55 29 58 30 71 31 89 32 56 33 57 34
REMARK SMILES IDX 70 36 90 37 59 38 44 39 45 40 53 41 46 42 52 43 47 44 48 45
REMARK SMILES IDX 49 46 50 47 51 48 74 49 75 50 83 51 76 52 82 53 77 54 78 55
REMARK SMILES IDX 79 56 80 57 81 58 60 59 61 60 69 61 62 62 68 63 63 64 64 65
REMARK SMILES IDX 65 66 66 67 67 68 6 69 7 70 8 71 9 72 10 74 11 75 22 76
REMARK SMILES IDX 23 77 34 78 24 80 33 81 25 82 26 83 27 84 32 85 28 86 30 87
REMARK SMILES IDX 29 88 31 89 12 90 13 91 21 92 14 93 15 94 20 95 16 97 18 98
REMARK SMILES IDX 17 99 19 100
REMARK H PARENT 3 6 88 24 58 35 8 73 22 79 14 96
REMARK Flexibility Score: inf
ROOT
ATOM      1  C   UNL A   1      32.922  30.651  26.445  1.00  0.00     0.023 C 
ENDROOT
BRANCH   1   2
ATOM      2  C   UNL A   1      33.692  31.336  27.568  1.00  0.00     0.116 C 
BRANCH   2   3
ATOM      3  N   UNL A   1      33.270  32.708  27.801  1.00  0.00    -0.352 N 
ATOM      4  O   UNL A   1      33.284  34.715  28.837  1.00  0.00    -0.269 OA
ATOM      5  C   UNL A   1      33.822  33.626  28.662  1.00  0.00     0.251 C 
ATOM      6  H   UNL A   1      32.493  33.017  27.279  1.00  0.00     0.163 HD
BRANCH   5   7
ATOM      7  C   UNL A   1      35.052  33.269  29.398  1.00  0.00     0.039 A 
ATOM      8  C   UNL A   1      36.269  33.869  29.069  1.00  0.00     0.014 A 
ATOM      9  C   UNL A   1      34.986  32.305  30.409  1.00  0.00     0.014 A 
ATOM     10  C   UNL A   1      37.440  33.425  29.671  1.00  0.00     0.010 A 
ATOM     11  C   UNL A   1      36.156  31.911  31.063  1.00  0.00     0.010 A 
ATOM     12  C   UNL A   1      37.394  32.454  30.686  1.00  0.00    -0.014 A 
BRANCH  12  13
ATOM     13  C   UNL A   1      38.643  32.095  31.400  1.00  0.00     0.031 A 
ATOM     14  C   UNL A   1      39.623  31.114  30.821  1.00  0.00     0.074 A 
ATOM     15  C   UNL A   1      38.891  32.690  32.583  1.00  0.00     0.049 A 
ATOM     16  N   UNL A   1      40.767  30.714  31.315  1.00  0.00    -0.248 NA
ATOM     17  C   UNL A   1      39.280  30.497  29.529  1.00  0.00     0.031 C 
ATOM     18  C   UNL A   1      38.000  33.648  33.247  1.00  0.00     0.029 A 
ATOM     19  N   UNL A   1      39.963  32.595  33.431  1.00  0.00    -0.354 N 
ATOM     20  C   UNL A   1      41.271  29.786  30.411  1.00  0.00     0.074 A 
ATOM     21  C   UNL A   1      40.304  29.673  29.340  1.00  0.00     0.031 C 
ATOM     22  C   UNL A   1      38.579  34.080  34.376  1.00  0.00     0.029 A 
ATOM     23  C   UNL A   1      39.852  33.390  34.547  1.00  0.00     0.049 A 
ATOM     24  H   UNL A   1      40.739  32.013  33.257  1.00  0.00     0.167 HD
ATOM     25  C   UNL A   1      42.436  29.096  30.472  1.00  0.00     0.031 A 
ATOM     26  C   UNL A   1      40.671  33.533  35.605  1.00  0.00     0.031 A 
ATOM     27  C   UNL A   1      43.397  29.224  31.537  1.00  0.00     0.049 A 
ATOM     28  C   UNL A   1      41.945  32.743  35.649  1.00  0.00     0.074 A 
ATOM     29  C   UNL A   1      44.629  28.601  31.661  1.00  0.00     0.029 A 
ATOM     30  N   UNL A   1      43.238  30.018  32.662  1.00  0.00    -0.354 N 
ATOM     31  N   UNL A   1      42.424  31.907  34.759  1.00  0.00    -0.248 NA
ATOM     32  C   UNL A   1      42.788  32.914  36.840  1.00  0.00     0.031 C 
ATOM     33  C   UNL A   1      45.191  28.984  32.885  1.00  0.00     0.029 A 
ATOM     34  C   UNL A   1      44.332  29.881  33.499  1.00  0.00     0.049 A 
ATOM     35  H   UNL A   1      42.460  30.596  32.839  1.00  0.00     0.167 HD
ATOM     36  C   UNL A   1      43.628  31.455  35.281  1.00  0.00     0.074 A 
ATOM     37  C   UNL A   1      43.818  32.131  36.549  1.00  0.00     0.031 C 
ATOM     38  C   UNL A   1      44.497  30.553  34.761  1.00  0.00     0.031 A 
BRANCH  25  39
ATOM     39  C   UNL A   1      42.741  28.118  29.369  1.00  0.00    -0.014 A 
ATOM     40  C   UNL A   1      42.306  26.784  29.439  1.00  0.00     0.010 A 
ATOM     41  C   UNL A   1      43.385  28.569  28.201  1.00  0.00     0.010 A 
ATOM     42  C   UNL A   1      42.522  25.912  28.367  1.00  0.00     0.020 A 
ATOM     43  C   UNL A   1      43.585  27.705  27.119  1.00  0.00     0.020 A 
ATOM     44  C   UNL A   1      43.159  26.379  27.212  1.00  0.00     0.054 A 
BRANCH  44  45
ATOM     45  S   UNL A   1      43.373  25.244  25.813  1.00  0.00     0.124 S 
ATOM     46  O   UNL A   1      44.821  25.277  25.619  1.00  0.00    -0.237 OA
ATOM     47  O   UNL A   1      42.839  23.988  26.334  1.00  0.00    -0.237 OA
ATOM     48  O   UNL A   1      42.588  25.856  24.745  1.00  0.00    -0.744 OA
ENDBRANCH  44  45
ENDBRANCH  25  39
BRANCH  26  49
ATOM     49  C   UNL A   1      40.287  34.438  36.720  1.00  0.00    -0.014 A 
ATOM     50  C   UNL A   1      39.462  33.983  37.762  1.00  0.00     0.010 A 
ATOM     51  C   UNL A   1      40.760  35.762  36.746  1.00  0.00     0.010 A 
ATOM     52  C   UNL A   1      39.098  34.846  38.800  1.00  0.00     0.020 A 
ATOM     53  C   UNL A   1      40.423  36.618  37.795  1.00  0.00     0.020 A 
ATOM     54  C   UNL A   1      39.580  36.159  38.809  1.00  0.00     0.054 A 
BRANCH  54  55
ATOM     55  S   UNL A   1      39.131  37.256  40.182  1.00  0.00     0.124 S 
ATOM     56  O   UNL A   1      40.441  37.658  40.686  1.00  0.00    -0.237 OA
ATOM     57  O   UNL A   1      38.360  38.303  39.517  1.00  0.00    -0.237 OA
ATOM     58  O   UNL A   1      38.356  36.390  41.067  1.00  0.00    -0.744 OA
ENDBRANCH  54  55
ENDBRANCH  26  49
BRANCH  38  59
ATOM     59  C   UNL A   1      45.733  30.259  35.563  1.00  0.00    -0.014 A 
ATOM     60  C   UNL A   1      46.901  31.024  35.393  1.00  0.00     0.010 A 
ATOM     61  C   UNL A   1      45.718  29.225  36.515  1.00  0.00     0.010 A 
ATOM     62  C   UNL A   1      48.046  30.735  36.139  1.00  0.00     0.020 A 
ATOM     63  C   UNL A   1      46.854  28.950  37.280  1.00  0.00     0.020 A 
ATOM     64  C   UNL A   1      48.016  29.698  37.076  1.00  0.00     0.054 A 
BRANCH  64  65
ATOM     65  S   UNL A   1      49.504  29.361  38.056  1.00  0.00     0.124 S 
ATOM     66  O   UNL A   1      50.364  30.485  37.698  1.00  0.00    -0.237 OA
ATOM     67  O   UNL A   1      48.997  29.369  39.426  1.00  0.00    -0.237 OA
ATOM     68  O   UNL A   1      49.948  28.056  37.571  1.00  0.00    -0.744 OA
ENDBRANCH  64  65
ENDBRANCH  38  59
ENDBRANCH  12  13
ENDBRANCH   5   7
ENDBRANCH   2   3
ENDBRANCH   1   2
BRANCH   1  69
ATOM     69  C   UNL A   1      31.756  29.770  26.902  1.00  0.00     0.023 C 
BRANCH  69  70
ATOM     70  C   UNL A   1      32.177  28.394  27.416  1.00  0.00     0.116 C 
BRANCH  70  71
ATOM     71  N   UNL A   1      31.139  27.403  27.203  1.00  0.00    -0.351 N 
ATOM     72  C   UNL A   1      30.955  26.542  26.147  1.00  0.00     0.283 C 
ATOM     73  H   UNL A   1      30.468  27.337  27.919  1.00  0.00     0.163 HD
ATOM     74  O   UNL A   1      29.925  25.859  26.143  1.00  0.00    -0.268 OA
BRANCH  72  75
ATOM     75  C   UNL A   1      32.036  26.456  25.036  1.00  0.00     0.307 C 
BRANCH  75  76
ATOM     76  N   UNL A   1      32.097  25.061  24.539  1.00  0.00    -0.318 N 
ATOM     77  C   UNL A   1      32.965  24.760  23.391  1.00  0.00     0.284 C 
ATOM     78  C   UNL A   1      32.291  24.056  25.598  1.00  0.00     0.284 C 
ATOM     79  H   UNL A   1      31.153  24.985  24.160  1.00  0.00     0.349 HD
ATOM     80  C   UNL A   1      34.459  24.498  23.726  1.00  0.00     0.178 C 
ATOM     81  C   UNL A   1      33.757  23.842  26.020  1.00  0.00     0.178 C 
ATOM     82  N   UNL A   1      34.582  23.546  24.841  1.00  0.00    -0.360 N 
BRANCH  82  83
ATOM     83  C   UNL A   1      35.796  22.922  25.084  1.00  0.00     0.038 A 
ATOM     84  C   UNL A   1      35.944  21.570  24.738  1.00  0.00     0.026 A 
ATOM     85  C   UNL A   1      36.886  23.578  25.665  1.00  0.00     0.046 A 
ATOM     86  C   UNL A   1      37.148  20.894  24.938  1.00  0.00     0.004 A 
ATOM     87  C   UNL A   1      38.088  22.899  25.878  1.00  0.00     0.043 A 
ATOM     88  C   UNL A   1      38.226  21.563  25.511  1.00  0.00     0.020 A 
ATOM     89  Cl  UNL A   1      39.415  23.720  26.607  1.00  0.00    -0.084 Cl
ENDBRANCH  82  83
ENDBRANCH  75  76
BRANCH  75  90
ATOM     90  C   UNL A   1      31.865  27.544  24.004  1.00  0.00     0.044 A 
ATOM     91  C   UNL A   1      32.842  28.202  23.274  1.00  0.00     0.094 A 
ATOM     92  C   UNL A   1      30.607  28.055  23.531  1.00  0.00     0.011 A 
ATOM     93  N   UNL A   1      32.245  29.145  22.486  1.00  0.00    -0.361 N 
ATOM     94  C   UNL A   1      30.879  29.081  22.625  1.00  0.00     0.046 A 
ATOM     95  C   UNL A   1      29.258  27.738  23.798  1.00  0.00     0.031 A 
ATOM     96  H   UNL A   1      32.723  29.779  21.904  1.00  0.00     0.166 HD
ATOM     97  C   UNL A   1      29.874  29.840  22.013  1.00  0.00     0.028 A 
ATOM     98  C   UNL A   1      28.246  28.471  23.173  1.00  0.00     0.041 A 
ATOM     99  C   UNL A   1      28.546  29.515  22.305  1.00  0.00     0.022 A 
ATOM    100  Cl  UNL A   1      26.601  28.068  23.489  1.00  0.00    -0.084 Cl
ENDBRANCH  75  90
ENDBRANCH  72  75
ENDBRANCH  70  71
ENDBRANCH  69  70
ENDBRANCH   1  69
TORSDOF 17
ENDMDL
MODEL 2
REMARK VINA RESULT:     -11.6      1.380      7.994
REMARK SMILES O=C(NCCCCNC(=O)[C@H](c1c[nH]c2ccc(Cl)cc12)[NH+]1CCN(c2cccc(Cl)c2)CC1)c1ccc(-c2c3nc(c(-c4ccc(S(=O)(=O)[O-])cc4)c4ccc([nH]4)c(-c4ccc(S(=O)(=O)[O-])cc4)c4nc(c(-c5ccc(S(=O)(=O)[O-])cc5)c5ccc2[nH]5)C=C4)C=C3)cc1
REMARK SMILES IDX 5 1 4 2 3 3 1 4 2 5 35 7 36 8 94 9 37 10 93 11 38 12 39 13
REMARK SMILES IDX 40 14 87 15 41 16 92 17 86 18 88 19 42 20 91 21 85 22 84 23
REMARK SMILES IDX 43 25 73 26 54 27 72 28 55 29 58 30 71 31 89 32 56 33 57 34
REMARK SMILES IDX 70 36 90 37 59 38 44 39 45 40 53 41 46 42 52 43 47 44 48 45
REMARK SMILES IDX 49 46 50 47 51 48 74 49 75 50 83 51 76 52 82 53 77 54 78 55
REMARK SMILES IDX 79 56 80 57 81 58 60 59 61 60 69 61 62 62 68 63 63 64 64 65
REMARK SMILES IDX 65 66 66 67 67 68 6 69 7 70 8 71 9 72 10 74 11 75 22 76
REMARK SMILES IDX 23 77 34 78 24 80 33 81 25 82 26 83 27 84 32 85 28 86 30 87
REMARK SMILES IDX 29 88 31 89 12 90 13 91 21 92 14 93 15 94 20 95 16 97 18 98
REMARK SMILES IDX 17 99 19 100
REMARK H PARENT 3 6 88 24 58 35 8 73 22 79 14 96
REMARK Flexibility Score: inf
ROOT
ATOM      1  C   UNL A   1      33.631  31.174  27.741  1.00  0.00     0.023 C 
ENDROOT
BRANCH   1   2
ATOM      2  C   UNL A   1      34.050  32.597  27.391  1.00  0.00     0.116 C 
BRANCH   2   3
ATOM      3  N   UNL A   1      33.342  33.611  28.157  1.00  0.00    -0.352 N 
ATOM      4  O   UNL A   1      32.856  34.834  29.992  1.00  0.00    -0.269 OA
ATOM      5  C   UNL A   1      33.615  34.050  29.430  1.00  0.00     0.251 C 
ATOM      6  H   UNL A   1      32.573  34.033  27.709  1.00  0.00     0.163 HD
BRANCH   5   7
ATOM      7  C   UNL A   1      34.816  33.539  30.122  1.00  0.00     0.039 A 
ATOM      8  C   UNL A   1      36.072  34.084  29.848  1.00  0.00     0.014 A 
ATOM      9  C   UNL A   1      34.682  32.488  31.034  1.00  0.00     0.014 A 
ATOM     10  C   UNL A   1      37.209  33.505  30.399  1.00  0.00     0.010 A 
ATOM     11  C   UNL A   1      35.821  31.953  31.641  1.00  0.00     0.010 A 
ATOM     12  C   UNL A   1      37.094  32.444  31.314  1.00  0.00    -0.014 A 
BRANCH  12  13
ATOM     13  C   UNL A   1      38.314  31.933  31.984  1.00  0.00     0.031 A 
ATOM     14  C   UNL A   1      38.687  32.368  33.373  1.00  0.00     0.074 A 
ATOM     15  C   UNL A   1      39.079  31.046  31.317  1.00  0.00     0.049 A 
ATOM     16  N   UNL A   1      39.711  31.996  34.098  1.00  0.00    -0.248 NA
ATOM     17  C   UNL A   1      37.808  33.347  34.034  1.00  0.00     0.031 C 
ATOM     18  C   UNL A   1      38.819  30.565  29.957  1.00  0.00     0.029 A 
ATOM     19  N   UNL A   1      40.216  30.380  31.691  1.00  0.00    -0.354 N 
ATOM     20  C   UNL A   1      39.615  32.706  35.289  1.00  0.00     0.074 A 
ATOM     21  C   UNL A   1      38.437  33.541  35.188  1.00  0.00     0.031 C 
ATOM     22  C   UNL A   1      39.745  29.654  29.626  1.00  0.00     0.029 A 
ATOM     23  C   UNL A   1      40.696  29.528  30.725  1.00  0.00     0.049 A 
ATOM     24  H   UNL A   1      40.648  30.499  32.568  1.00  0.00     0.167 HD
ATOM     25  C   UNL A   1      40.435  32.662  36.366  1.00  0.00     0.031 A 
ATOM     26  C   UNL A   1      41.791  28.747  30.710  1.00  0.00     0.031 A 
ATOM     27  C   UNL A   1      41.600  31.819  36.462  1.00  0.00     0.049 A 
ATOM     28  C   UNL A   1      42.688  28.732  31.913  1.00  0.00     0.074 A 
ATOM     29  C   UNL A   1      42.466  31.669  37.533  1.00  0.00     0.029 A 
ATOM     30  N   UNL A   1      42.067  30.990  35.454  1.00  0.00    -0.354 N 
ATOM     31  N   UNL A   1      42.550  29.376  33.047  1.00  0.00    -0.248 NA
ATOM     32  C   UNL A   1      43.886  27.887  31.834  1.00  0.00     0.031 C 
ATOM     33  C   UNL A   1      43.483  30.786  37.153  1.00  0.00     0.029 A 
ATOM     34  C   UNL A   1      43.224  30.349  35.864  1.00  0.00     0.049 A 
ATOM     35  H   UNL A   1      41.639  30.875  34.574  1.00  0.00     0.167 HD
ATOM     36  C   UNL A   1      43.644  29.010  33.820  1.00  0.00     0.074 A 
ATOM     37  C   UNL A   1      44.416  28.067  33.036  1.00  0.00     0.031 C 
ATOM     38  C   UNL A   1      43.984  29.423  35.065  1.00  0.00     0.031 A 
BRANCH  25  39
ATOM     39  C   UNL A   1      40.126  33.562  37.533  1.00  0.00    -0.014 A 
ATOM     40  C   UNL A   1      40.569  34.894  37.561  1.00  0.00     0.010 A 
ATOM     41  C   UNL A   1      39.295  33.093  38.569  1.00  0.00     0.010 A 
ATOM     42  C   UNL A   1      40.199  35.741  38.610  1.00  0.00     0.020 A 
ATOM     43  C   UNL A   1      38.907  33.942  39.610  1.00  0.00     0.020 A 
ATOM     44  C   UNL A   1      39.369  35.260  39.629  1.00  0.00     0.054 A 
BRANCH  44  45
ATOM     45  S   UNL A   1      38.855  36.396  40.947  1.00  0.00     0.124 S 
ATOM     46  O   UNL A   1      40.088  36.537  41.718  1.00  0.00    -0.237 OA
ATOM     47  O   UNL A   1      38.441  37.583  40.204  1.00  0.00    -0.237 OA
ATOM     48  O   UNL A   1      37.777  35.679  41.623  1.00  0.00    -0.744 OA
ENDBRANCH  44  45
ENDBRANCH  25  39
BRANCH  26  49
ATOM     49  C   UNL A   1      42.113  27.947  29.500  1.00  0.00    -0.014 A 
ATOM     50  C   UNL A   1      42.910  28.482  28.475  1.00  0.00     0.010 A 
ATOM     51  C   UNL A   1      41.628  26.632  29.378  1.00  0.00     0.010 A 
ATOM     52  C   UNL A   1      43.197  27.724  27.336  1.00  0.00     0.020 A 
ATOM     53  C   UNL A   1      41.936  25.861  28.256  1.00  0.00     0.020 A 
ATOM     54  C   UNL A   1      42.706  26.418  27.233  1.00  0.00     0.054 A 
BRANCH  54  55
ATOM     55  S   UNL A   1      43.120  25.432  25.768  1.00  0.00     0.124 S 
ATOM     56  O   UNL A   1      44.579  25.422  25.813  1.00  0.00    -0.237 OA
ATOM     57  O   UNL A   1      42.469  24.155  26.049  1.00  0.00    -0.237 OA
ATOM     58  O   UNL A   1      42.529  26.194  24.670  1.00  0.00    -0.744 OA
ENDBRANCH  54  55
ENDBRANCH  26  49
BRANCH  38  59
ATOM     59  C   UNL A   1      45.240  28.847  35.655  1.00  0.00    -0.014 A 
ATOM     60  C   UNL A   1      46.476  29.499  35.497  1.00  0.00     0.010 A 
ATOM     61  C   UNL A   1      45.179  27.655  36.399  1.00  0.00     0.010 A 
ATOM     62  C   UNL A   1      47.637  28.948  36.044  1.00  0.00     0.020 A 
ATOM     63  C   UNL A   1      46.334  27.116  36.968  1.00  0.00     0.020 A 
ATOM     64  C   UNL A   1      47.559  27.758  36.773  1.00  0.00     0.054 A 
BRANCH  64  65
ATOM     65  S   UNL A   1      49.074  27.078  37.501  1.00  0.00     0.124 S 
ATOM     66  O   UNL A   1      49.032  25.690  37.049  1.00  0.00    -0.237 OA
ATOM     67  O   UNL A   1      50.120  27.903  36.901  1.00  0.00    -0.237 OA
ATOM     68  O   UNL A   1      48.884  27.272  38.937  1.00  0.00    -0.744 OA
ENDBRANCH  64  65
ENDBRANCH  38  59
ENDBRANCH  12  13
ENDBRANCH   5   7
ENDBRANCH   2   3
ENDBRANCH   1   2
BRANCH   1  69
ATOM     69  C   UNL A   1      34.702  30.106  27.507  1.00  0.00     0.023 C 
BRANCH  69  70
ATOM     70  C   UNL A   1      34.210  28.890  26.724  1.00  0.00     0.116 C 
BRANCH  70  71
ATOM     71  N   UNL A   1      32.918  28.433  27.202  1.00  0.00    -0.351 N 
ATOM     72  C   UNL A   1      31.987  27.634  26.581  1.00  0.00     0.283 C 
ATOM     73  H   UNL A   1      32.671  28.741  28.103  1.00  0.00     0.163 HD
ATOM     74  O   UNL A   1      30.905  27.471  27.154  1.00  0.00    -0.268 OA
BRANCH  72  75
ATOM     75  C   UNL A   1      32.338  26.970  25.222  1.00  0.00     0.307 C 
BRANCH  75  76
ATOM     76  N   UNL A   1      31.690  25.638  25.162  1.00  0.00    -0.318 N 
ATOM     77  C   UNL A   1      31.817  24.849  23.928  1.00  0.00     0.284 C 
ATOM     78  C   UNL A   1      31.955  24.790  26.337  1.00  0.00     0.284 C 
ATOM     79  H   UNL A   1      30.714  25.936  25.165  1.00  0.00     0.349 HD
ATOM     80  C   UNL A   1      33.114  24.005  23.799  1.00  0.00     0.178 C 
ATOM     81  C   UNL A   1      33.283  24.012  26.280  1.00  0.00     0.178 C 
ATOM     82  N   UNL A   1      33.362  23.241  25.032  1.00  0.00    -0.360 N 
BRANCH  82  83
ATOM     83  C   UNL A   1      34.260  22.185  25.020  1.00  0.00     0.038 A 
ATOM     84  C   UNL A   1      35.603  22.434  25.342  1.00  0.00     0.026 A 
ATOM     85  C   UNL A   1      33.890  20.875  24.696  1.00  0.00     0.046 A 
ATOM     86  C   UNL A   1      36.549  21.408  25.369  1.00  0.00     0.004 A 
ATOM     87  C   UNL A   1      34.838  19.850  24.709  1.00  0.00     0.043 A 
ATOM     88  C   UNL A   1      36.164  20.108  25.051  1.00  0.00     0.020 A 
ATOM     89  Cl  UNL A   1      34.367  18.246  24.295  1.00  0.00    -0.084 Cl
ENDBRANCH  82  83
ENDBRANCH  75  76
BRANCH  75  90
ATOM     90  C   UNL A   1      32.092  27.905  24.063  1.00  0.00     0.044 A 
ATOM     91  C   UNL A   1      33.021  28.514  23.234  1.00  0.00     0.094 A 
ATOM     92  C   UNL A   1      30.801  28.284  23.556  1.00  0.00     0.011 A 
ATOM     93  N   UNL A   1      32.360  29.315  22.345  1.00  0.00    -0.361 N 
ATOM     94  C   UNL A   1      31.002  29.197  22.521  1.00  0.00     0.046 A 
ATOM     95  C   UNL A   1      29.475  27.932  23.891  1.00  0.00     0.031 A 
ATOM     96  H   UNL A   1      32.794  29.892  21.676  1.00  0.00     0.166 HD
ATOM     97  C   UNL A   1      29.948  29.816  21.838  1.00  0.00     0.028 A 
ATOM     98  C   UNL A   1      28.416  28.524  23.200  1.00  0.00     0.041 A 
ATOM     99  C   UNL A   1      28.645  29.461  22.198  1.00  0.00     0.022 A 
ATOM    100  Cl  UNL A   1      26.800  28.079  23.600  1.00  0.00    -0.084 Cl
ENDBRANCH  75  90
ENDBRANCH  72  75
ENDBRANCH  70  71
ENDBRANCH  69  70
ENDBRANCH   1  69
TORSDOF 17
ENDMDL
MODEL 3
REMARK VINA RESULT:     -11.5      2.798      9.035
REMARK SMILES O=C(NCCCCNC(=O)[C@H](c1c[nH]c2ccc(Cl)cc12)[NH+]1CCN(c2cccc(Cl)c2)CC1)c1ccc(-c2c3nc(c(-c4ccc(S(=O)(=O)[O-])cc4)c4ccc([nH]4)c(-c4ccc(S(=O)(=O)[O-])cc4)c4nc(c(-c5ccc(S(=O)(=O)[O-])cc5)c5ccc2[nH]5)C=C4)C=C3)cc1
REMARK SMILES IDX 5 1 4 2 3 3 1 4 2 5 35 7 36 8 94 9 37 10 93 11 38 12 39 13
REMARK SMILES IDX 40 14 87 15 41 16 92 17 86 18 88 19 42 20 91 21 85 22 84 23
REMARK SMILES IDX 43 25 73 26 54 27 72 28 55 29 58 30 71 31 89 32 56 33 57 34
REMARK SMILES IDX 70 36 90 37 59 38 44 39 45 40 53 41 46 42 52 43 47 44 48 45
REMARK SMILES IDX 49 46 50 47 51 48 74 49 75 50 83 51 76 52 82 53 77 54 78 55
REMARK SMILES IDX 79 56 80 57 81 58 60 59 61 60 69 61 62 62 68 63 63 64 64 65
REMARK SMILES IDX 65 66 66 67 67 68 6 69 7 70 8 71 9 72 10 74 11 75 22 76
REMARK SMILES IDX 23 77 34 78 24 80 33 81 25 82 26 83 27 84 32 85 28 86 30 87
REMARK SMILES IDX 29 88 31 89 12 90 13 91 21 92 14 93 15 94 20 95 16 97 18 98
REMARK SMILES IDX 17 99 19 100
REMARK H PARENT 3 6 88 24 58 35 8 73 22 79 14 96
REMARK Flexibility Score: inf
ROOT
ATOM      1  C   UNL A   1      38.286  24.051  26.898  1.00  0.00     0.023 C 
ENDROOT
BRANCH   1   2
ATOM      2  C   UNL A   1      39.773  23.821  27.137  1.00  0.00     0.116 C 
BRANCH   2   3
ATOM      3  N   UNL A   1      40.619  24.403  26.106  1.00  0.00    -0.352 N 
ATOM      4  O   UNL A   1      41.759  26.058  25.075  1.00  0.00    -0.269 OA
ATOM      5  C   UNL A   1      41.157  25.668  26.070  1.00  0.00     0.251 C 
ATOM      6  H   UNL A   1      40.831  23.820  25.341  1.00  0.00     0.163 HD
BRANCH   5   7
ATOM      7  C   UNL A   1      40.968  26.559  27.233  1.00  0.00     0.039 A 
ATOM      8  C   UNL A   1      41.687  27.753  27.328  1.00  0.00     0.014 A 
ATOM      9  C   UNL A   1      40.083  26.181  28.246  1.00  0.00     0.014 A 
ATOM     10  C   UNL A   1      41.606  28.514  28.488  1.00  0.00     0.010 A 
ATOM     11  C   UNL A   1      39.950  26.985  29.381  1.00  0.00     0.010 A 
ATOM     12  C   UNL A   1      40.725  28.146  29.520  1.00  0.00    -0.014 A 
BRANCH  12  13
ATOM     13  C   UNL A   1      40.565  29.047  30.687  1.00  0.00     0.031 A 
ATOM     14  C   UNL A   1      39.475  30.081  30.736  1.00  0.00     0.074 A 
ATOM     15  C   UNL A   1      41.416  28.902  31.720  1.00  0.00     0.049 A 
ATOM     16  N   UNL A   1      39.196  30.928  31.694  1.00  0.00    -0.248 NA
ATOM     17  C   UNL A   1      38.589  30.186  29.566  1.00  0.00     0.031 C 
ATOM     18  C   UNL A   1      42.522  27.940  31.773  1.00  0.00     0.029 A 
ATOM     19  N   UNL A   1      41.482  29.546  32.928  1.00  0.00    -0.354 N 
ATOM     20  C   UNL A   1      38.119  31.680  31.238  1.00  0.00     0.074 A 
ATOM     21  C   UNL A   1      37.800  31.197  29.911  1.00  0.00     0.031 C 
ATOM     22  C   UNL A   1      43.130  28.030  32.964  1.00  0.00     0.029 A 
ATOM     23  C   UNL A   1      42.497  29.092  33.737  1.00  0.00     0.049 A 
ATOM     24  H   UNL A   1      40.862  30.264  33.192  1.00  0.00     0.167 HD
ATOM     25  C   UNL A   1      37.460  32.679  31.872  1.00  0.00     0.031 A 
ATOM     26  C   UNL A   1      42.893  29.498  34.957  1.00  0.00     0.031 A 
ATOM     27  C   UNL A   1      37.778  33.145  33.198  1.00  0.00     0.049 A 
ATOM     28  C   UNL A   1      42.151  30.618  35.626  1.00  0.00     0.074 A 
ATOM     29  C   UNL A   1      37.135  34.120  33.943  1.00  0.00     0.029 A 
ATOM     30  N   UNL A   1      38.828  32.679  33.974  1.00  0.00    -0.354 N 
ATOM     31  N   UNL A   1      41.105  31.282  35.195  1.00  0.00    -0.248 NA
ATOM     32  C   UNL A   1      42.643  31.043  36.943  1.00  0.00     0.031 C 
ATOM     33  C   UNL A   1      37.826  34.276  35.150  1.00  0.00     0.029 A 
ATOM     34  C   UNL A   1      38.870  33.365  35.177  1.00  0.00     0.049 A 
ATOM     35  H   UNL A   1      39.452  31.964  33.709  1.00  0.00     0.167 HD
ATOM     36  C   UNL A   1      40.811  32.203  36.192  1.00  0.00     0.074 A 
ATOM     37  C   UNL A   1      41.769  31.989  37.258  1.00  0.00     0.031 C 
ATOM     38  C   UNL A   1      39.838  33.146  36.219  1.00  0.00     0.031 A 
BRANCH  25  39
ATOM     39  C   UNL A   1      36.334  33.363  31.143  1.00  0.00    -0.014 A 
ATOM     40  C   UNL A   1      35.098  33.596  31.769  1.00  0.00     0.010 A 
ATOM     41  C   UNL A   1      36.552  33.866  29.847  1.00  0.00     0.010 A 
ATOM     42  C   UNL A   1      34.094  34.310  31.107  1.00  0.00     0.020 A 
ATOM     43  C   UNL A   1      35.557  34.597  29.189  1.00  0.00     0.020 A 
ATOM     44  C   UNL A   1      34.330  34.807  29.821  1.00  0.00     0.054 A 
BRANCH  44  45
ATOM     45  S   UNL A   1      33.032  35.780  29.008  1.00  0.00     0.124 S 
ATOM     46  O   UNL A   1      33.815  36.781  28.286  1.00  0.00    -0.237 OA
ATOM     47  O   UNL A   1      32.362  34.787  28.173  1.00  0.00    -0.237 OA
ATOM     48  O   UNL A   1      32.237  36.295  30.119  1.00  0.00    -0.744 OA
ENDBRANCH  44  45
ENDBRANCH  25  39
BRANCH  26  49
ATOM     49  C   UNL A   1      44.071  28.862  35.603  1.00  0.00    -0.014 A 
ATOM     50  C   UNL A   1      45.367  29.357  35.381  1.00  0.00     0.010 A 
ATOM     51  C   UNL A   1      43.893  27.758  36.456  1.00  0.00     0.010 A 
ATOM     52  C   UNL A   1      46.468  28.743  35.985  1.00  0.00     0.020 A 
ATOM     53  C   UNL A   1      44.987  27.160  37.084  1.00  0.00     0.020 A 
ATOM     54  C   UNL A   1      46.271  27.647  36.831  1.00  0.00     0.054 A 
BRANCH  54  55
ATOM     55  S   UNL A   1      47.705  26.885  37.639  1.00  0.00     0.124 S 
ATOM     56  O   UNL A   1      47.530  27.308  39.025  1.00  0.00    -0.237 OA
ATOM     57  O   UNL A   1      47.499  25.462  37.380  1.00  0.00    -0.237 OA
ATOM     58  O   UNL A   1      48.842  27.478  36.939  1.00  0.00    -0.744 OA
ENDBRANCH  54  55
ENDBRANCH  26  49
BRANCH  38  59
ATOM     59  C   UNL A   1      39.761  34.008  37.447  1.00  0.00    -0.014 A 
ATOM     60  C   UNL A   1      40.534  35.177  37.557  1.00  0.00     0.010 A 
ATOM     61  C   UNL A   1      38.884  33.660  38.491  1.00  0.00     0.010 A 
ATOM     62  C   UNL A   1      40.458  35.966  38.707  1.00  0.00     0.020 A 
ATOM     63  C   UNL A   1      38.788  34.461  39.631  1.00  0.00     0.020 A 
ATOM     64  C   UNL A   1      39.588  35.601  39.738  1.00  0.00     0.054 A 
BRANCH  64  65
ATOM     65  S   UNL A   1      39.481  36.657  41.209  1.00  0.00     0.124 S 
ATOM     66  O   UNL A   1      40.887  36.814  41.572  1.00  0.00    -0.237 OA
ATOM     67  O   UNL A   1      38.827  37.859  40.697  1.00  0.00    -0.237 OA
ATOM     68  O   UNL A   1      38.680  35.869  42.142  1.00  0.00    -0.744 OA
ENDBRANCH  64  65
ENDBRANCH  38  59
ENDBRANCH  12  13
ENDBRANCH   5   7
ENDBRANCH   2   3
ENDBRANCH   1   2
BRANCH   1  69
ATOM     69  C   UNL A   1      37.745  23.481  25.583  1.00  0.00     0.023 C 
BRANCH  69  70
ATOM     70  C   UNL A   1      36.272  23.797  25.326  1.00  0.00     0.116 C 
BRANCH  70  71
ATOM     71  N   UNL A   1      35.900  23.525  23.950  1.00  0.00    -0.351 N 
ATOM     72  C   UNL A   1      34.672  23.203  23.422  1.00  0.00     0.283 C 
ATOM     73  H   UNL A   1      36.635  23.579  23.297  1.00  0.00     0.163 HD
ATOM     74  O   UNL A   1      34.628  22.909  22.223  1.00  0.00    -0.268 OA
BRANCH  72  75
ATOM     75  C   UNL A   1      33.417  23.240  24.336  1.00  0.00     0.307 C 
BRANCH  75  76
ATOM     76  N   UNL A   1      32.238  23.593  23.510  1.00  0.00    -0.318 N 
ATOM     77  C   UNL A   1      30.970  23.901  24.188  1.00  0.00     0.284 C 
ATOM     78  C   UNL A   1      32.514  24.600  22.471  1.00  0.00     0.284 C 
ATOM     79  H   UNL A   1      32.071  22.685  23.075  1.00  0.00     0.349 HD
ATOM     80  C   UNL A   1      30.811  25.363  24.688  1.00  0.00     0.178 C 
ATOM     81  C   UNL A   1      32.458  26.060  22.960  1.00  0.00     0.178 C 
ATOM     82  N   UNL A   1      31.175  26.317  23.629  1.00  0.00    -0.360 N 
BRANCH  82  83
ATOM     83  C   UNL A   1      30.798  27.646  23.738  1.00  0.00     0.038 A 
ATOM     84  C   UNL A   1      29.850  28.157  22.839  1.00  0.00     0.026 A 
ATOM     85  C   UNL A   1      31.322  28.509  24.707  1.00  0.00     0.046 A 
ATOM     86  C   UNL A   1      29.414  29.481  22.913  1.00  0.00     0.004 A 
ATOM     87  C   UNL A   1      30.897  29.838  24.773  1.00  0.00     0.043 A 
ATOM     88  C   UNL A   1      29.940  30.325  23.887  1.00  0.00     0.020 A 
ATOM     89  Cl  UNL A   1      31.564  30.889  25.964  1.00  0.00    -0.084 Cl
ENDBRANCH  82  83
ENDBRANCH  75  76
BRANCH  75  90
ATOM     90  C   UNL A   1      33.309  21.999  25.189  1.00  0.00     0.044 A 
ATOM     91  C   UNL A   1      33.414  21.887  26.566  1.00  0.00     0.094 A 
ATOM     92  C   UNL A   1      32.998  20.680  24.708  1.00  0.00     0.011 A 
ATOM     93  N   UNL A   1      33.297  20.570  26.912  1.00  0.00    -0.361 N 
ATOM     94  C   UNL A   1      33.046  19.809  25.795  1.00  0.00     0.046 A 
ATOM     95  C   UNL A   1      32.684  20.150  23.438  1.00  0.00     0.031 A 
ATOM     96  H   UNL A   1      33.380  20.219  27.827  1.00  0.00     0.166 HD
ATOM     97  C   UNL A   1      32.848  18.428  25.673  1.00  0.00     0.028 A 
ATOM     98  C   UNL A   1      32.459  18.778  23.307  1.00  0.00     0.041 A 
ATOM     99  C   UNL A   1      32.551  17.926  24.402  1.00  0.00     0.022 A 
ATOM    100  Cl  UNL A   1      32.058  18.137  21.759  1.00  0.00    -0.084 Cl
ENDBRANCH  75  90
ENDBRANCH  72  75
ENDBRANCH  70  71
ENDBRANCH  69  70
ENDBRANCH   1  69
TORSDOF 17
ENDMDL
