MODEL 1
REMARK VINA RESULT:     -14.3      0.000      0.000
REMARK SMILES Cc1ccccc1C(=O)Nc1ccc(N2CCCCC2)cc1C(=O)NCCCCNC(=O)c1ccc(-c2c3nc(c(-c4ccc(S(=O)(=O)[O-])cc4)c4ccc([nH]4)c(-c4ccc(S(=O)(=O)[O-])cc4)c4nc(c(-c5ccc(S(=O)(=O)[O-])cc5)c5ccc2[nH]5)C=C4)C=C3)cc1
REMARK SMILES IDX 28 1 27 2 26 3 25 4 23 5 24 6 22 8 11 9 12 10 13 11 21 12
REMARK SMILES IDX 14 13 10 14 8 15 9 16 7 18 1 19 2 20 3 21 4 22 6 23 5 24
REMARK SMILES IDX 15 25 16 26 20 27 17 28 19 29 18 30 29 31 30 32 31 33 32 35
REMARK SMILES IDX 33 36 34 37 92 38 35 39 91 40 36 41 37 42 38 43 85 44 39 45
REMARK SMILES IDX 90 46 84 47 86 48 40 49 89 50 83 51 82 52 41 54 71 55 52 56
REMARK SMILES IDX 70 57 53 58 56 59 69 60 87 61 54 62 55 63 68 65 88 66 57 67
REMARK SMILES IDX 42 68 43 69 51 70 44 71 50 72 45 73 46 74 47 75 48 76 49 77
REMARK SMILES IDX 72 78 73 79 81 80 74 81 80 82 75 83 76 84 77 85 78 86 79 87
REMARK SMILES IDX 58 88 59 89 67 90 60 91 66 92 61 93 62 94 63 95 64 96 65 97
REMARK H PARENT 25 7 10 17 30 34 86 53 56 64
REMARK Flexibility Score: inf
ROOT
ATOM      1  C   UNL A   1      32.964  30.097  27.122  1.00  0.00     0.023 C 
ENDROOT
BRANCH   1   2
ATOM      2  C   UNL A   1      32.163  28.822  27.331  1.00  0.00     0.023 C 
BRANCH   2   3
ATOM      3  C   UNL A   1      32.832  27.528  26.873  1.00  0.00     0.116 C 
BRANCH   3   4
ATOM      4  N   UNL A   1      32.149  26.293  27.261  1.00  0.00    -0.352 N 
ATOM      5  C   UNL A   1      31.479  25.322  26.545  1.00  0.00     0.253 C 
ATOM      6  O   UNL A   1      31.053  24.337  27.144  1.00  0.00    -0.269 OA
ATOM      7  H   UNL A   1      32.171  26.120  28.230  1.00  0.00     0.163 HD
BRANCH   5   8
ATOM      8  C   UNL A   1      31.258  25.434  25.080  1.00  0.00     0.065 A 
ATOM      9  C   UNL A   1      31.399  24.348  24.197  1.00  0.00     0.054 A 
ATOM     10  C   UNL A   1      31.253  24.572  22.819  1.00  0.00     0.029 A 
ATOM     11  C   UNL A   1      30.788  25.793  22.346  1.00  0.00     0.028 A 
ATOM     12  C   UNL A   1      30.982  26.705  24.543  1.00  0.00     0.042 A 
ATOM     13  C   UNL A   1      30.593  26.866  23.213  1.00  0.00     0.038 A 
BRANCH   9  14
ATOM     14  N   UNL A   1      31.631  22.997  24.503  1.00  0.00    -0.321 N 
ATOM     15  C   UNL A   1      32.760  22.237  24.666  1.00  0.00     0.255 C 
ATOM     16  O   UNL A   1      32.602  21.025  24.860  1.00  0.00    -0.269 OA
ATOM     17  H   UNL A   1      30.801  22.484  24.629  1.00  0.00     0.170 HD
BRANCH  15  18
ATOM     18  C   UNL A   1      34.141  22.773  24.774  1.00  0.00     0.043 A 
ATOM     19  C   UNL A   1      34.266  22.898  27.350  1.00  0.00     0.045 C 
ATOM     20  C   UNL A   1      34.840  23.030  25.970  1.00  0.00    -0.038 A 
ATOM     21  C   UNL A   1      36.186  23.440  25.885  1.00  0.00     0.004 A 
ATOM     22  C   UNL A   1      36.846  23.532  24.660  1.00  0.00     0.000 A 
ATOM     23  C   UNL A   1      34.830  22.846  23.546  1.00  0.00     0.014 A 
ATOM     24  C   UNL A   1      36.171  23.220  23.489  1.00  0.00     0.001 A 
ENDBRANCH  15  18
ENDBRANCH   9  14
BRANCH  13  25
ATOM     25  N   UNL A   1      29.924  27.996  22.753  1.00  0.00    -0.372 N 
ATOM     26  C   UNL A   1      28.593  28.173  23.362  1.00  0.00     0.116 C 
ATOM     27  C   UNL A   1      30.659  29.245  22.540  1.00  0.00     0.116 C 
ATOM     28  C   UNL A   1      27.732  29.049  22.459  1.00  0.00     0.021 C 
ATOM     29  C   UNL A   1      29.844  30.131  21.597  1.00  0.00     0.021 C 
ATOM     30  C   UNL A   1      28.430  30.366  22.126  1.00  0.00     0.004 C 
ENDBRANCH  13  25
ENDBRANCH   5   8
ENDBRANCH   3   4
ENDBRANCH   2   3
ENDBRANCH   1   2
BRANCH   1  31
ATOM     31  C   UNL A   1      34.470  29.878  27.125  1.00  0.00     0.116 C 
BRANCH  31  32
ATOM     32  N   UNL A   1      35.216  31.063  27.530  1.00  0.00    -0.352 N 
ATOM     33  C   UNL A   1      36.472  31.119  28.115  1.00  0.00     0.251 C 
ATOM     34  H   UNL A   1      34.775  31.929  27.369  1.00  0.00     0.163 HD
ATOM     35  O   UNL A   1      36.936  32.138  28.589  1.00  0.00    -0.269 OA
BRANCH  33  36
ATOM     36  C   UNL A   1      37.281  29.885  28.038  1.00  0.00     0.039 A 
ATOM     37  C   UNL A   1      37.299  29.071  29.176  1.00  0.00     0.014 A 
ATOM     38  C   UNL A   1      38.236  29.759  27.036  1.00  0.00     0.014 A 
ATOM     39  C   UNL A   1      38.406  28.266  29.414  1.00  0.00     0.010 A 
ATOM     40  C   UNL A   1      39.375  29.033  27.319  1.00  0.00     0.010 A 
ATOM     41  C   UNL A   1      39.482  28.335  28.533  1.00  0.00    -0.014 A 
BRANCH  41  42
ATOM     42  C   UNL A   1      40.798  27.781  28.822  1.00  0.00     0.031 A 
ATOM     43  C   UNL A   1      41.095  26.379  28.463  1.00  0.00     0.074 A 
ATOM     44  C   UNL A   1      41.775  28.563  29.329  1.00  0.00     0.049 A 
ATOM     45  N   UNL A   1      42.114  25.716  28.890  1.00  0.00    -0.248 NA
ATOM     46  C   UNL A   1      40.202  25.582  27.629  1.00  0.00     0.031 C 
ATOM     47  C   UNL A   1      43.211  28.298  29.336  1.00  0.00     0.029 A 
ATOM     48  N   UNL A   1      41.645  29.682  30.131  1.00  0.00    -0.354 N 
ATOM     49  C   UNL A   1      42.185  24.551  28.164  1.00  0.00     0.074 A 
ATOM     50  C   UNL A   1      40.921  24.470  27.469  1.00  0.00     0.031 C 
ATOM     51  C   UNL A   1      43.793  29.073  30.266  1.00  0.00     0.029 A 
ATOM     52  C   UNL A   1      42.733  29.732  31.010  1.00  0.00     0.049 A 
ATOM     53  H   UNL A   1      40.911  30.335  30.090  1.00  0.00     0.167 HD
ATOM     54  C   UNL A   1      43.360  23.860  28.131  1.00  0.00     0.031 A 
ATOM     55  C   UNL A   1      42.541  29.595  32.359  1.00  0.00     0.031 A 
ATOM     56  C   UNL A   1      44.332  24.393  29.091  1.00  0.00     0.049 A 
ATOM     57  C   UNL A   1      43.134  28.327  32.957  1.00  0.00     0.074 A 
ATOM     58  C   UNL A   1      45.497  25.138  29.000  1.00  0.00     0.029 A 
ATOM     59  N   UNL A   1      43.986  24.399  30.435  1.00  0.00    -0.354 N 
ATOM     60  N   UNL A   1      43.785  27.419  32.281  1.00  0.00    -0.248 NA
ATOM     61  C   UNL A   1      42.971  27.948  34.363  1.00  0.00     0.031 C 
ATOM     62  C   UNL A   1      45.835  25.600  30.310  1.00  0.00     0.029 A 
ATOM     63  C   UNL A   1      44.888  25.119  31.193  1.00  0.00     0.049 A 
ATOM     64  H   UNL A   1      43.194  23.946  30.803  1.00  0.00     0.167 HD
ATOM     65  C   UNL A   1      44.069  26.351  33.090  1.00  0.00     0.074 A 
ATOM     66  C   UNL A   1      43.554  26.736  34.391  1.00  0.00     0.031 C 
ATOM     67  C   UNL A   1      44.662  25.209  32.628  1.00  0.00     0.031 A 
BRANCH  54  68
ATOM     68  C   UNL A   1      43.697  22.842  27.061  1.00  0.00    -0.014 A 
ATOM     69  C   UNL A   1      42.829  21.755  26.831  1.00  0.00     0.010 A 
ATOM     70  C   UNL A   1      44.881  22.851  26.300  1.00  0.00     0.010 A 
ATOM     71  C   UNL A   1      43.171  20.696  25.971  1.00  0.00     0.020 A 
ATOM     72  C   UNL A   1      45.253  21.789  25.464  1.00  0.00     0.020 A 
ATOM     73  C   UNL A   1      44.398  20.707  25.314  1.00  0.00     0.054 A 
BRANCH  73  74
ATOM     74  S   UNL A   1      44.872  19.302  24.274  1.00  0.00     0.124 S 
ATOM     75  O   UNL A   1      46.326  19.280  24.418  1.00  0.00    -0.237 OA
ATOM     76  O   UNL A   1      44.158  18.194  24.899  1.00  0.00    -0.237 OA
ATOM     77  O   UNL A   1      44.392  19.677  22.944  1.00  0.00    -0.744 OA
ENDBRANCH  73  74
ENDBRANCH  54  68
BRANCH  55  78
ATOM     78  C   UNL A   1      41.311  30.295  32.838  1.00  0.00    -0.014 A 
ATOM     79  C   UNL A   1      40.195  29.484  33.146  1.00  0.00     0.010 A 
ATOM     80  C   UNL A   1      41.384  31.585  33.390  1.00  0.00     0.010 A 
ATOM     81  C   UNL A   1      39.284  29.872  34.129  1.00  0.00     0.020 A 
ATOM     82  C   UNL A   1      40.459  31.984  34.368  1.00  0.00     0.020 A 
ATOM     83  C   UNL A   1      39.464  31.093  34.781  1.00  0.00     0.054 A 
BRANCH  83  84
ATOM     84  S   UNL A   1      38.522  31.377  36.309  1.00  0.00     0.124 S 
ATOM     85  O   UNL A   1      39.495  32.067  37.150  1.00  0.00    -0.237 OA
ATOM     86  O   UNL A   1      37.414  32.205  35.827  1.00  0.00    -0.237 OA
ATOM     87  O   UNL A   1      38.157  30.032  36.739  1.00  0.00    -0.744 OA
ENDBRANCH  83  84
ENDBRANCH  55  78
BRANCH  67  88
ATOM     88  C   UNL A   1      45.026  24.027  33.494  1.00  0.00    -0.014 A 
ATOM     89  C   UNL A   1      44.110  23.022  33.843  1.00  0.00     0.010 A 
ATOM     90  C   UNL A   1      46.307  23.964  34.092  1.00  0.00     0.010 A 
ATOM     91  C   UNL A   1      44.483  21.960  34.683  1.00  0.00     0.020 A 
ATOM     92  C   UNL A   1      46.682  22.924  34.945  1.00  0.00     0.020 A 
ATOM     93  C   UNL A   1      45.773  21.912  35.216  1.00  0.00     0.054 A 
BRANCH  93  94
ATOM     94  S   UNL A   1      46.232  20.541  36.307  1.00  0.00     0.124 S 
ATOM     95  O   UNL A   1      45.490  19.418  35.738  1.00  0.00    -0.237 OA
ATOM     96  O   UNL A   1      47.681  20.489  36.130  1.00  0.00    -0.237 OA
ATOM     97  O   UNL A   1      45.779  20.975  37.626  1.00  0.00    -0.744 OA
ENDBRANCH  93  94
ENDBRANCH  67  88
ENDBRANCH  41  42
ENDBRANCH  33  36
ENDBRANCH  31  32
ENDBRANCH   1  31
TORSDOF 17
ENDMDL
MODEL 2
REMARK VINA RESULT:     -14.2      1.094      3.623
REMARK SMILES Cc1ccccc1C(=O)Nc1ccc(N2CCCCC2)cc1C(=O)NCCCCNC(=O)c1ccc(-c2c3nc(c(-c4ccc(S(=O)(=O)[O-])cc4)c4ccc([nH]4)c(-c4ccc(S(=O)(=O)[O-])cc4)c4nc(c(-c5ccc(S(=O)(=O)[O-])cc5)c5ccc2[nH]5)C=C4)C=C3)cc1
REMARK SMILES IDX 28 1 27 2 26 3 25 4 23 5 24 6 22 8 11 9 12 10 13 11 21 12
REMARK SMILES IDX 14 13 10 14 8 15 9 16 7 18 1 19 2 20 3 21 4 22 6 23 5 24
REMARK SMILES IDX 15 25 16 26 20 27 17 28 19 29 18 30 29 31 30 32 31 33 32 35
REMARK SMILES IDX 33 36 34 37 92 38 35 39 91 40 36 41 37 42 38 43 85 44 39 45
REMARK SMILES IDX 90 46 84 47 86 48 40 49 89 50 83 51 82 52 41 54 71 55 52 56
REMARK SMILES IDX 70 57 53 58 56 59 69 60 87 61 54 62 55 63 68 65 88 66 57 67
REMARK SMILES IDX 42 68 43 69 51 70 44 71 50 72 45 73 46 74 47 75 48 76 49 77
REMARK SMILES IDX 72 78 73 79 81 80 74 81 80 82 75 83 76 84 77 85 78 86 79 87
REMARK SMILES IDX 58 88 59 89 67 90 60 91 66 92 61 93 62 94 63 95 64 96 65 97
REMARK H PARENT 25 7 10 17 30 34 86 53 56 64
REMARK Flexibility Score: inf
ROOT
ATOM      1  C   UNL A   1      33.868  28.964  27.568  1.00  0.00     0.023 C 
ENDROOT
BRANCH   1   2
ATOM      2  C   UNL A   1      32.695  28.282  26.882  1.00  0.00     0.023 C 
BRANCH   2   3
ATOM      3  C   UNL A   1      32.886  26.806  26.538  1.00  0.00     0.116 C 
BRANCH   3   4
ATOM      4  N   UNL A   1      31.823  25.909  26.995  1.00  0.00    -0.352 N 
ATOM      5  C   UNL A   1      31.483  24.611  26.675  1.00  0.00     0.253 C 
ATOM      6  O   UNL A   1      30.557  24.077  27.283  1.00  0.00    -0.269 OA
ATOM      7  H   UNL A   1      31.229  26.315  27.667  1.00  0.00     0.163 HD
BRANCH   5   8
ATOM      8  C   UNL A   1      32.199  23.845  25.622  1.00  0.00     0.065 A 
ATOM      9  C   UNL A   1      31.653  23.594  24.351  1.00  0.00     0.054 A 
ATOM     10  C   UNL A   1      32.370  22.789  23.452  1.00  0.00     0.029 A 
ATOM     11  C   UNL A   1      33.676  22.406  23.733  1.00  0.00     0.028 A 
ATOM     12  C   UNL A   1      33.443  23.272  25.944  1.00  0.00     0.042 A 
ATOM     13  C   UNL A   1      34.252  22.691  24.968  1.00  0.00     0.038 A 
BRANCH   9  14
ATOM     14  N   UNL A   1      30.460  24.089  23.799  1.00  0.00    -0.321 N 
ATOM     15  C   UNL A   1      30.015  25.338  23.454  1.00  0.00     0.255 C 
ATOM     16  O   UNL A   1      28.848  25.432  23.054  1.00  0.00    -0.269 OA
ATOM     17  H   UNL A   1      29.798  23.383  23.620  1.00  0.00     0.170 HD
BRANCH  15  18
ATOM     18  C   UNL A   1      30.863  26.556  23.384  1.00  0.00     0.043 A 
ATOM     19  C   UNL A   1      32.548  25.706  21.622  1.00  0.00     0.045 C 
ATOM     20  C   UNL A   1      31.972  26.747  22.536  1.00  0.00    -0.038 A 
ATOM     21  C   UNL A   1      32.599  28.009  22.526  1.00  0.00     0.004 A 
ATOM     22  C   UNL A   1      32.110  29.074  23.283  1.00  0.00     0.000 A 
ATOM     23  C   UNL A   1      30.366  27.650  24.122  1.00  0.00     0.014 A 
ATOM     24  C   UNL A   1      30.982  28.898  24.071  1.00  0.00     0.001 A 
ENDBRANCH  15  18
ENDBRANCH   9  14
BRANCH  13  25
ATOM     25  N   UNL A   1      35.620  22.493  25.140  1.00  0.00    -0.372 N 
ATOM     26  C   UNL A   1      36.246  23.495  26.022  1.00  0.00     0.116 C 
ATOM     27  C   UNL A   1      36.148  21.137  25.298  1.00  0.00     0.116 C 
ATOM     28  C   UNL A   1      37.742  23.563  25.734  1.00  0.00     0.021 C 
ATOM     29  C   UNL A   1      37.641  21.158  24.970  1.00  0.00     0.021 C 
ATOM     30  C   UNL A   1      38.392  22.183  25.820  1.00  0.00     0.004 C 
ENDBRANCH  13  25
ENDBRANCH   5   8
ENDBRANCH   3   4
ENDBRANCH   2   3
ENDBRANCH   1   2
BRANCH   1  31
ATOM     31  C   UNL A   1      34.651  29.895  26.654  1.00  0.00     0.116 C 
BRANCH  31  32
ATOM     32  N   UNL A   1      35.278  31.000  27.370  1.00  0.00    -0.352 N 
ATOM     33  C   UNL A   1      36.404  30.960  28.177  1.00  0.00     0.251 C 
ATOM     34  H   UNL A   1      34.849  31.881  27.268  1.00  0.00     0.163 HD
ATOM     35  O   UNL A   1      36.745  31.891  28.883  1.00  0.00    -0.269 OA
BRANCH  33  36
ATOM     36  C   UNL A   1      37.247  29.753  28.059  1.00  0.00     0.039 A 
ATOM     37  C   UNL A   1      37.258  28.881  29.153  1.00  0.00     0.014 A 
ATOM     38  C   UNL A   1      38.232  29.705  27.077  1.00  0.00     0.014 A 
ATOM     39  C   UNL A   1      38.380  28.093  29.378  1.00  0.00     0.010 A 
ATOM     40  C   UNL A   1      39.381  28.994  27.353  1.00  0.00     0.010 A 
ATOM     41  C   UNL A   1      39.477  28.236  28.532  1.00  0.00    -0.014 A 
BRANCH  41  42
ATOM     42  C   UNL A   1      40.799  27.701  28.827  1.00  0.00     0.031 A 
ATOM     43  C   UNL A   1      41.120  26.306  28.466  1.00  0.00     0.074 A 
ATOM     44  C   UNL A   1      41.761  28.497  29.342  1.00  0.00     0.049 A 
ATOM     45  N   UNL A   1      42.146  25.657  28.898  1.00  0.00    -0.248 NA
ATOM     46  C   UNL A   1      40.244  25.498  27.625  1.00  0.00     0.031 C 
ATOM     47  C   UNL A   1      43.201  28.254  29.358  1.00  0.00     0.029 A 
ATOM     48  N   UNL A   1      41.609  29.612  30.147  1.00  0.00    -0.354 N 
ATOM     49  C   UNL A   1      42.240  24.496  28.168  1.00  0.00     0.074 A 
ATOM     50  C   UNL A   1      40.981  24.397  27.466  1.00  0.00     0.031 C 
ATOM     51  C   UNL A   1      43.764  29.036  30.293  1.00  0.00     0.029 A 
ATOM     52  C   UNL A   1      42.691  29.676  31.033  1.00  0.00     0.049 A 
ATOM     53  H   UNL A   1      40.864  30.254  30.103  1.00  0.00     0.167 HD
ATOM     54  C   UNL A   1      43.425  23.823  28.141  1.00  0.00     0.031 A 
ATOM     55  C   UNL A   1      42.492  29.532  32.381  1.00  0.00     0.031 A 
ATOM     56  C   UNL A   1      44.384  24.368  29.109  1.00  0.00     0.049 A 
ATOM     57  C   UNL A   1      43.100  28.272  32.978  1.00  0.00     0.074 A 
ATOM     58  C   UNL A   1      45.537  25.131  29.027  1.00  0.00     0.029 A 
ATOM     59  N   UNL A   1      44.029  24.365  30.450  1.00  0.00    -0.354 N 
ATOM     60  N   UNL A   1      43.770  27.376  32.304  1.00  0.00    -0.248 NA
ATOM     61  C   UNL A   1      42.935  27.886  34.382  1.00  0.00     0.031 C 
ATOM     62  C   UNL A   1      45.860  25.594  30.340  1.00  0.00     0.029 A 
ATOM     63  C   UNL A   1      44.915  25.096  31.216  1.00  0.00     0.049 A 
ATOM     64  H   UNL A   1      43.241  23.898  30.812  1.00  0.00     0.167 HD
ATOM     65  C   UNL A   1      44.066  26.309  33.111  1.00  0.00     0.074 A 
ATOM     66  C   UNL A   1      43.536  26.682  34.410  1.00  0.00     0.031 C 
ATOM     67  C   UNL A   1      44.678  25.179  32.650  1.00  0.00     0.031 A 
BRANCH  54  68
ATOM     68  C   UNL A   1      43.784  22.814  27.070  1.00  0.00    -0.014 A 
ATOM     69  C   UNL A   1      42.901  21.752  26.785  1.00  0.00     0.010 A 
ATOM     70  C   UNL A   1      45.000  22.804  26.361  1.00  0.00     0.010 A 
ATOM     71  C   UNL A   1      43.255  20.698  25.923  1.00  0.00     0.020 A 
ATOM     72  C   UNL A   1      45.383  21.747  25.525  1.00  0.00     0.020 A 
ATOM     73  C   UNL A   1      44.511  20.688  25.320  1.00  0.00     0.054 A 
BRANCH  73  74
ATOM     74  S   UNL A   1      44.996  19.288  24.279  1.00  0.00     0.124 S 
ATOM     75  O   UNL A   1      46.448  19.269  24.434  1.00  0.00    -0.237 OA
ATOM     76  O   UNL A   1      44.279  18.177  24.895  1.00  0.00    -0.237 OA
ATOM     77  O   UNL A   1      44.525  19.667  22.947  1.00  0.00    -0.744 OA
ENDBRANCH  73  74
ENDBRANCH  54  68
BRANCH  55  78
ATOM     78  C   UNL A   1      41.249  30.211  32.854  1.00  0.00    -0.014 A 
ATOM     79  C   UNL A   1      40.174  29.378  33.239  1.00  0.00     0.010 A 
ATOM     80  C   UNL A   1      41.285  31.533  33.329  1.00  0.00     0.010 A 
ATOM     81  C   UNL A   1      39.275  29.788  34.224  1.00  0.00     0.020 A 
ATOM     82  C   UNL A   1      40.372  31.953  34.309  1.00  0.00     0.020 A 
ATOM     83  C   UNL A   1      39.423  31.050  34.800  1.00  0.00     0.054 A 
BRANCH  83  84
ATOM     84  S   UNL A   1      38.512  31.386  36.336  1.00  0.00     0.124 S 
ATOM     85  O   UNL A   1      37.400  32.205  35.865  1.00  0.00    -0.237 OA
ATOM     86  O   UNL A   1      38.153  30.034  36.772  1.00  0.00    -0.237 OA
ATOM     87  O   UNL A   1      39.492  32.072  37.170  1.00  0.00    -0.744 OA
ENDBRANCH  83  84
ENDBRANCH  55  78
BRANCH  67  88
ATOM     88  C   UNL A   1      45.056  23.999  33.514  1.00  0.00    -0.014 A 
ATOM     89  C   UNL A   1      44.185  22.928  33.771  1.00  0.00     0.010 A 
ATOM     90  C   UNL A   1      46.290  24.004  34.206  1.00  0.00     0.010 A 
ATOM     91  C   UNL A   1      44.565  21.870  34.613  1.00  0.00     0.020 A 
ATOM     92  C   UNL A   1      46.670  22.967  35.062  1.00  0.00     0.020 A 
ATOM     93  C   UNL A   1      45.812  21.891  35.241  1.00  0.00     0.054 A 
BRANCH  93  94
ATOM     94  S   UNL A   1      46.280  20.524  36.333  1.00  0.00     0.124 S 
ATOM     95  O   UNL A   1      45.480  19.416  35.817  1.00  0.00    -0.237 OA
ATOM     96  O   UNL A   1      47.717  20.426  36.093  1.00  0.00    -0.237 OA
ATOM     97  O   UNL A   1      45.900  20.992  37.664  1.00  0.00    -0.744 OA
ENDBRANCH  93  94
ENDBRANCH  67  88
ENDBRANCH  41  42
ENDBRANCH  33  36
ENDBRANCH  31  32
ENDBRANCH   1  31
TORSDOF 17
ENDMDL
MODEL 3
REMARK VINA RESULT:     -14.2      4.845     11.381
REMARK SMILES Cc1ccccc1C(=O)Nc1ccc(N2CCCCC2)cc1C(=O)NCCCCNC(=O)c1ccc(-c2c3nc(c(-c4ccc(S(=O)(=O)[O-])cc4)c4ccc([nH]4)c(-c4ccc(S(=O)(=O)[O-])cc4)c4nc(c(-c5ccc(S(=O)(=O)[O-])cc5)c5ccc2[nH]5)C=C4)C=C3)cc1
REMARK SMILES IDX 28 1 27 2 26 3 25 4 23 5 24 6 22 8 11 9 12 10 13 11 21 12
REMARK SMILES IDX 14 13 10 14 8 15 9 16 7 18 1 19 2 20 3 21 4 22 6 23 5 24
REMARK SMILES IDX 15 25 16 26 20 27 17 28 19 29 18 30 29 31 30 32 31 33 32 35
REMARK SMILES IDX 33 36 34 37 92 38 35 39 91 40 36 41 37 42 38 43 85 44 39 45
REMARK SMILES IDX 90 46 84 47 86 48 40 49 89 50 83 51 82 52 41 54 71 55 52 56
REMARK SMILES IDX 70 57 53 58 56 59 69 60 87 61 54 62 55 63 68 65 88 66 57 67
REMARK SMILES IDX 42 68 43 69 51 70 44 71 50 72 45 73 46 74 47 75 48 76 49 77
REMARK SMILES IDX 72 78 73 79 81 80 74 81 80 82 75 83 76 84 77 85 78 86 79 87
REMARK SMILES IDX 58 88 59 89 67 90 60 91 66 92 61 93 62 94 63 95 64 96 65 97
REMARK H PARENT 25 7 10 17 30 34 86 53 56 64
REMARK Flexibility Score: inf
ROOT
ATOM      1  C   UNL A   1      37.525  21.834  25.677  1.00  0.00     0.023 C 
ENDROOT
BRANCH   1   2
ATOM      2  C   UNL A   1      37.033  21.877  24.239  1.00  0.00     0.023 C 
BRANCH   2   3
ATOM      3  C   UNL A   1      36.320  23.159  23.813  1.00  0.00     0.116 C 
BRANCH   3   4
ATOM      4  N   UNL A   1      35.269  23.626  24.719  1.00  0.00    -0.352 N 
ATOM      5  C   UNL A   1      33.966  23.225  24.936  1.00  0.00     0.253 C 
ATOM      6  O   UNL A   1      33.323  23.771  25.830  1.00  0.00    -0.269 OA
ATOM      7  H   UNL A   1      35.547  24.379  25.289  1.00  0.00     0.163 HD
BRANCH   5   8
ATOM      8  C   UNL A   1      33.322  22.162  24.122  1.00  0.00     0.065 A 
ATOM      9  C   UNL A   1      32.817  22.386  22.829  1.00  0.00     0.054 A 
ATOM     10  C   UNL A   1      32.149  21.340  22.172  1.00  0.00     0.029 A 
ATOM     11  C   UNL A   1      32.155  20.055  22.701  1.00  0.00     0.028 A 
ATOM     12  C   UNL A   1      33.131  20.897  24.709  1.00  0.00     0.042 A 
ATOM     13  C   UNL A   1      32.696  19.805  23.960  1.00  0.00     0.038 A 
BRANCH   9  14
ATOM     14  N   UNL A   1      32.924  23.540  22.036  1.00  0.00    -0.321 N 
ATOM     15  C   UNL A   1      32.426  24.813  22.133  1.00  0.00     0.255 C 
ATOM     16  O   UNL A   1      32.657  25.583  21.194  1.00  0.00    -0.269 OA
ATOM     17  H   UNL A   1      33.479  23.405  21.234  1.00  0.00     0.170 HD
BRANCH  15  18
ATOM     18  C   UNL A   1      31.763  25.379  23.336  1.00  0.00     0.043 A 
ATOM     19  C   UNL A   1      33.658  26.977  24.060  1.00  0.00     0.045 C 
ATOM     20  C   UNL A   1      32.287  26.379  24.179  1.00  0.00    -0.038 A 
ATOM     21  C   UNL A   1      31.474  26.874  25.218  1.00  0.00     0.004 A 
ATOM     22  C   UNL A   1      30.157  26.444  25.384  1.00  0.00     0.000 A 
ATOM     23  C   UNL A   1      30.423  24.974  23.502  1.00  0.00     0.014 A 
ATOM     24  C   UNL A   1      29.626  25.502  24.515  1.00  0.00     0.001 A 
ENDBRANCH  15  18
ENDBRANCH   9  14
BRANCH  13  25
ATOM     25  N   UNL A   1      32.885  18.486  24.366  1.00  0.00    -0.372 N 
ATOM     26  C   UNL A   1      34.143  17.899  23.869  1.00  0.00     0.116 C 
ATOM     27  C   UNL A   1      32.529  18.083  25.728  1.00  0.00     0.116 C 
ATOM     28  C   UNL A   1      34.030  16.378  23.869  1.00  0.00     0.021 C 
ATOM     29  C   UNL A   1      32.360  16.564  25.754  1.00  0.00     0.021 C 
ATOM     30  C   UNL A   1      33.608  15.848  25.238  1.00  0.00     0.004 C 
ENDBRANCH  13  25
ENDBRANCH   5   8
ENDBRANCH   3   4
ENDBRANCH   2   3
ENDBRANCH   1   2
BRANCH   1  31
ATOM     31  C   UNL A   1      38.236  23.106  26.116  1.00  0.00     0.116 C 
BRANCH  31  32
ATOM     32  N   UNL A   1      39.453  22.845  26.875  1.00  0.00    -0.352 N 
ATOM     33  C   UNL A   1      40.269  23.764  27.516  1.00  0.00     0.251 C 
ATOM     34  H   UNL A   1      39.729  21.901  26.940  1.00  0.00     0.163 HD
ATOM     35  O   UNL A   1      41.363  23.477  27.964  1.00  0.00    -0.269 OA
BRANCH  33  36
ATOM     36  C   UNL A   1      39.695  25.108  27.727  1.00  0.00     0.039 A 
ATOM     37  C   UNL A   1      40.117  26.119  26.857  1.00  0.00     0.014 A 
ATOM     38  C   UNL A   1      39.073  25.400  28.937  1.00  0.00     0.014 A 
ATOM     39  C   UNL A   1      40.107  27.437  27.296  1.00  0.00     0.010 A 
ATOM     40  C   UNL A   1      39.152  26.694  29.406  1.00  0.00     0.010 A 
ATOM     41  C   UNL A   1      39.722  27.700  28.608  1.00  0.00    -0.014 A 
BRANCH  41  42
ATOM     42  C   UNL A   1      39.947  28.975  29.275  1.00  0.00     0.031 A 
ATOM     43  C   UNL A   1      38.939  30.048  29.160  1.00  0.00     0.074 A 
ATOM     44  C   UNL A   1      41.024  29.152  30.071  1.00  0.00     0.049 A 
ATOM     45  N   UNL A   1      39.142  31.279  29.485  1.00  0.00    -0.248 NA
ATOM     46  C   UNL A   1      37.617  29.817  28.588  1.00  0.00     0.031 C 
ATOM     47  C   UNL A   1      41.221  30.187  31.083  1.00  0.00     0.029 A 
ATOM     48  N   UNL A   1      42.261  28.538  29.986  1.00  0.00    -0.354 N 
ATOM     49  C   UNL A   1      37.924  31.917  29.470  1.00  0.00     0.074 A 
ATOM     50  C   UNL A   1      37.030  30.994  28.810  1.00  0.00     0.031 C 
ATOM     51  C   UNL A   1      42.532  30.285  31.355  1.00  0.00     0.029 A 
ATOM     52  C   UNL A   1      43.240  29.446  30.404  1.00  0.00     0.049 A 
ATOM     53  H   UNL A   1      42.425  27.617  29.682  1.00  0.00     0.167 HD
ATOM     54  C   UNL A   1      37.785  33.097  30.138  1.00  0.00     0.031 A 
ATOM     55  C   UNL A   1      44.180  29.909  29.521  1.00  0.00     0.031 A 
ATOM     56  C   UNL A   1      39.076  33.613  30.608  1.00  0.00     0.049 A 
ATOM     57  C   UNL A   1      44.072  31.393  29.202  1.00  0.00     0.074 A 
ATOM     58  C   UNL A   1      39.704  33.715  31.838  1.00  0.00     0.029 A 
ATOM     59  N   UNL A   1      40.055  33.878  29.662  1.00  0.00    -0.354 N 
ATOM     60  N   UNL A   1      43.178  32.200  29.708  1.00  0.00    -0.248 NA
ATOM     61  C   UNL A   1      44.924  32.070  28.222  1.00  0.00     0.031 C 
ATOM     62  C   UNL A   1      41.079  34.034  31.613  1.00  0.00     0.029 A 
ATOM     63  C   UNL A   1      41.276  34.144  30.249  1.00  0.00     0.049 A 
ATOM     64  H   UNL A   1      39.899  33.877  28.691  1.00  0.00     0.167 HD
ATOM     65  C   UNL A   1      43.275  33.432  29.118  1.00  0.00     0.074 A 
ATOM     66  C   UNL A   1      44.396  33.307  28.204  1.00  0.00     0.031 C 
ATOM     67  C   UNL A   1      42.404  34.451  29.382  1.00  0.00     0.031 A 
BRANCH  54  68
ATOM     68  C   UNL A   1      36.444  33.663  30.559  1.00  0.00    -0.014 A 
ATOM     69  C   UNL A   1      35.517  34.069  29.576  1.00  0.00     0.010 A 
ATOM     70  C   UNL A   1      36.060  33.891  31.893  1.00  0.00     0.010 A 
ATOM     71  C   UNL A   1      34.332  34.750  29.906  1.00  0.00     0.020 A 
ATOM     72  C   UNL A   1      34.899  34.597  32.238  1.00  0.00     0.020 A 
ATOM     73  C   UNL A   1      34.045  35.037  31.238  1.00  0.00     0.054 A 
BRANCH  73  74
ATOM     74  S   UNL A   1      32.561  35.988  31.653  1.00  0.00     0.124 S 
ATOM     75  O   UNL A   1      33.112  37.134  32.371  1.00  0.00    -0.237 OA
ATOM     76  O   UNL A   1      31.997  36.277  30.339  1.00  0.00    -0.237 OA
ATOM     77  O   UNL A   1      31.777  35.067  32.475  1.00  0.00    -0.744 OA
ENDBRANCH  73  74
ENDBRANCH  54  68
BRANCH  55  78
ATOM     78  C   UNL A   1      44.662  28.847  28.587  1.00  0.00    -0.014 A 
ATOM     79  C   UNL A   1      44.025  28.768  27.328  1.00  0.00     0.010 A 
ATOM     80  C   UNL A   1      45.939  28.280  28.737  1.00  0.00     0.010 A 
ATOM     81  C   UNL A   1      44.722  28.316  26.207  1.00  0.00     0.020 A 
ATOM     82  C   UNL A   1      46.636  27.810  27.613  1.00  0.00     0.020 A 
ATOM     83  C   UNL A   1      46.047  27.904  26.348  1.00  0.00     0.054 A 
BRANCH  83  84
ATOM     84  S   UNL A   1      47.036  27.716  24.834  1.00  0.00     0.124 S 
ATOM     85  O   UNL A   1      48.388  27.571  25.363  1.00  0.00    -0.237 OA
ATOM     86  O   UNL A   1      46.459  26.503  24.250  1.00  0.00    -0.237 OA
ATOM     87  O   UNL A   1      46.773  28.949  24.101  1.00  0.00    -0.744 OA
ENDBRANCH  83  84
ENDBRANCH  55  78
BRANCH  67  88
ATOM     88  C   UNL A   1      42.501  35.833  28.782  1.00  0.00    -0.014 A 
ATOM     89  C   UNL A   1      41.898  36.183  27.564  1.00  0.00     0.010 A 
ATOM     90  C   UNL A   1      43.327  36.806  29.392  1.00  0.00     0.010 A 
ATOM     91  C   UNL A   1      42.047  37.472  27.024  1.00  0.00     0.020 A 
ATOM     92  C   UNL A   1      43.499  38.084  28.854  1.00  0.00     0.020 A 
ATOM     93  C   UNL A   1      42.835  38.418  27.683  1.00  0.00     0.054 A 
BRANCH  93  94
ATOM     94  S   UNL A   1      43.025  40.070  26.966  1.00  0.00     0.124 S 
ATOM     95  O   UNL A   1      44.238  39.933  26.164  1.00  0.00    -0.237 OA
ATOM     96  O   UNL A   1      41.784  40.212  26.208  1.00  0.00    -0.237 OA
ATOM     97  O   UNL A   1      43.149  40.944  28.130  1.00  0.00    -0.744 OA
ENDBRANCH  93  94
ENDBRANCH  67  88
ENDBRANCH  41  42
ENDBRANCH  33  36
ENDBRANCH  31  32
ENDBRANCH   1  31
TORSDOF 17
ENDMDL
