MODEL 1
REMARK VINA RESULT:     -12.1      0.000      0.000
REMARK SMILES COc1cccc([C@@H]2[NH2+][C@@](C)(C(=O)NCCCCNC(=O)c3ccc(-c4c5nc(c(-c6ccc(S(=O)(=O)[O-])cc6)c6ccc([nH]6)c(-c6ccc(S(=O)(=O)[O-])cc6)c6nc(c(-c7ccc(S(=O)(=O)[O-])cc7)c7ccc4[nH]7)C=C6)C=C5)cc3)[C@@H]3C(=O)N(C)C(=O)[C@@H]32)c1O
REMARK SMILES IDX 17 1 16 2 15 3 14 4 12 5 13 6 10 8 8 9 9 10 89 11 82 14
REMARK SMILES IDX 87 15 11 16 83 17 85 18 88 19 84 20 86 21 7 22 3 23 4 24
REMARK SMILES IDX 90 25 5 26 6 27 2 28 1 29 91 30 18 32 19 33 20 34 21 36
REMARK SMILES IDX 22 37 23 38 81 39 24 40 80 41 25 42 26 43 27 44 74 45 28 46
REMARK SMILES IDX 79 47 73 48 75 49 29 50 78 51 72 52 71 53 30 55 60 56 41 57
REMARK SMILES IDX 59 58 42 59 45 60 58 61 76 62 43 63 44 64 57 66 77 67 46 68
REMARK SMILES IDX 31 69 32 70 40 71 33 72 39 73 34 74 35 75 36 76 37 77 38 78
REMARK SMILES IDX 61 79 62 80 70 81 63 82 69 83 64 84 65 85 66 86 67 87 68 88
REMARK SMILES IDX 47 89 48 90 56 91 49 92 55 93 50 94 51 95 52 96 53 97 54 98
REMARK H PARENT 14 7 9 12 9 13 91 31 19 35 75 54 45 65
REMARK Flexibility Score: inf
ROOT
ATOM      1  C   UNL A   1      36.227  23.775  24.775  1.00  0.00     0.023 C 
ENDROOT
BRANCH   1   2
ATOM      2  C   UNL A   1      35.731  22.733  23.771  1.00  0.00     0.023 C 
BRANCH   2   3
ATOM      3  C   UNL A   1      34.239  22.761  23.474  1.00  0.00     0.116 C 
BRANCH   3   4
ATOM      4  N   UNL A   1      33.921  23.548  22.307  1.00  0.00    -0.351 N 
ATOM      5  C   UNL A   1      32.921  24.434  22.081  1.00  0.00     0.281 C 
ATOM      6  O   UNL A   1      32.861  24.867  20.922  1.00  0.00    -0.268 OA
ATOM      7  H   UNL A   1      34.533  23.419  21.547  1.00  0.00     0.163 HD
BRANCH   5   8
ATOM      8  C   UNL A   1      31.883  24.884  23.174  1.00  0.00     0.185 C 
ATOM      9  C   UNL A   1      31.178  27.102  22.519  1.00  0.00     0.232 C 
ATOM     10  N   UNL A   1      30.771  25.670  22.543  1.00  0.00    -0.326 N 
ATOM     11  C   UNL A   1      32.474  27.236  23.364  1.00  0.00     0.161 C 
ATOM     12  H   UNL A   1      30.610  25.340  21.592  1.00  0.00     0.347 HD
ATOM     13  H   UNL A   1      29.909  25.555  23.076  1.00  0.00     0.347 HD
ATOM     14  C   UNL A   1      32.634  25.888  24.050  1.00  0.00     0.169 C 
ATOM     15  C   UNL A   1      32.562  28.172  24.542  1.00  0.00     0.239 C 
ATOM     16  C   UNL A   1      31.356  23.709  24.007  1.00  0.00     0.091 C 
ATOM     17  C   UNL A   1      32.128  26.140  25.446  1.00  0.00     0.240 C 
ATOM     18  N   UNL A   1      32.217  27.483  25.673  1.00  0.00    -0.285 N 
ATOM     19  O   UNL A   1      32.924  29.337  24.466  1.00  0.00    -0.274 OA
ATOM     20  O   UNL A   1      31.774  25.307  26.251  1.00  0.00    -0.274 OA
ATOM     21  C   UNL A   1      31.836  28.054  26.944  1.00  0.00     0.156 C 
BRANCH   9  22
ATOM     22  C   UNL A   1      30.026  28.098  22.686  1.00  0.00     0.056 A 
ATOM     23  C   UNL A   1      28.761  29.936  21.690  1.00  0.00     0.161 A 
ATOM     24  C   UNL A   1      27.619  29.567  22.375  1.00  0.00     0.050 A 
ATOM     25  C   UNL A   1      29.969  29.325  22.030  1.00  0.00     0.166 A 
ATOM     26  C   UNL A   1      27.701  28.533  23.309  1.00  0.00     0.005 A 
ATOM     27  C   UNL A   1      28.876  27.765  23.419  1.00  0.00     0.014 A 
BRANCH  23  28
ATOM     28  O   UNL A   1      28.688  30.945  20.765  1.00  0.00    -0.493 OA
ATOM     29  C   UNL A   1      28.204  32.143  21.393  1.00  0.00     0.278 C 
ENDBRANCH  23  28
BRANCH  25  30
ATOM     30  O   UNL A   1      31.102  30.075  21.931  1.00  0.00    -0.504 OA
ATOM     31  H   UNL A   1      31.407  30.563  22.670  1.00  0.00     0.293 HD
ENDBRANCH  25  30
ENDBRANCH   9  22
ENDBRANCH   5   8
ENDBRANCH   3   4
ENDBRANCH   2   3
ENDBRANCH   1   2
BRANCH   1  32
ATOM     32  C   UNL A   1      36.670  23.230  26.128  1.00  0.00     0.116 C 
BRANCH  32  33
ATOM     33  N   UNL A   1      37.914  22.479  26.057  1.00  0.00    -0.352 N 
ATOM     34  C   UNL A   1      39.197  22.881  26.339  1.00  0.00     0.251 C 
ATOM     35  H   UNL A   1      37.823  21.543  25.763  1.00  0.00     0.163 HD
ATOM     36  O   UNL A   1      40.143  22.147  26.069  1.00  0.00    -0.269 OA
BRANCH  34  37
ATOM     37  C   UNL A   1      39.431  24.212  26.934  1.00  0.00     0.039 A 
ATOM     38  C   UNL A   1      39.008  24.451  28.243  1.00  0.00     0.014 A 
ATOM     39  C   UNL A   1      40.097  25.208  26.214  1.00  0.00     0.014 A 
ATOM     40  C   UNL A   1      39.326  25.663  28.858  1.00  0.00     0.010 A 
ATOM     41  C   UNL A   1      40.484  26.381  26.856  1.00  0.00     0.010 A 
ATOM     42  C   UNL A   1      40.106  26.619  28.186  1.00  0.00    -0.014 A 
BRANCH  42  43
ATOM     43  C   UNL A   1      40.553  27.859  28.871  1.00  0.00     0.031 A 
ATOM     44  C   UNL A   1      41.932  27.948  29.466  1.00  0.00     0.074 A 
ATOM     45  C   UNL A   1      39.692  28.889  29.003  1.00  0.00     0.049 A 
ATOM     46  N   UNL A   1      42.488  28.943  30.107  1.00  0.00    -0.248 NA
ATOM     47  C   UNL A   1      42.789  26.757  29.347  1.00  0.00     0.031 C 
ATOM     48  C   UNL A   1      38.309  28.904  28.518  1.00  0.00     0.029 A 
ATOM     49  N   UNL A   1      39.851  30.122  29.584  1.00  0.00    -0.354 N 
ATOM     50  C   UNL A   1      43.752  28.497  30.476  1.00  0.00     0.074 A 
ATOM     51  C   UNL A   1      43.859  27.123  30.037  1.00  0.00     0.031 C 
ATOM     52  C   UNL A   1      37.762  30.100  28.786  1.00  0.00     0.029 A 
ATOM     53  C   UNL A   1      38.735  30.922  29.498  1.00  0.00     0.049 A 
ATOM     54  H   UNL A   1      40.685  30.408  30.021  1.00  0.00     0.167 HD
ATOM     55  C   UNL A   1      44.743  29.176  31.103  1.00  0.00     0.031 A 
ATOM     56  C   UNL A   1      38.517  32.175  29.941  1.00  0.00     0.031 A 
ATOM     57  C   UNL A   1      44.632  30.544  31.534  1.00  0.00     0.049 A 
ATOM     58  C   UNL A   1      39.629  32.906  30.641  1.00  0.00     0.074 A 
ATOM     59  C   UNL A   1      45.598  31.340  32.126  1.00  0.00     0.029 A 
ATOM     60  N   UNL A   1      43.487  31.319  31.428  1.00  0.00    -0.354 N 
ATOM     61  N   UNL A   1      40.846  32.493  30.909  1.00  0.00    -0.248 NA
ATOM     62  C   UNL A   1      39.345  34.277  31.087  1.00  0.00     0.031 C 
ATOM     63  C   UNL A   1      45.019  32.576  32.430  1.00  0.00     0.029 A 
ATOM     64  C   UNL A   1      43.712  32.574  31.970  1.00  0.00     0.049 A 
ATOM     65  H   UNL A   1      42.639  31.021  31.026  1.00  0.00     0.167 HD
ATOM     66  C   UNL A   1      41.479  33.561  31.534  1.00  0.00     0.074 A 
ATOM     67  C   UNL A   1      40.517  34.644  31.585  1.00  0.00     0.031 C 
ATOM     68  C   UNL A   1      42.743  33.639  32.021  1.00  0.00     0.031 A 
BRANCH  55  69
ATOM     69  C   UNL A   1      46.032  28.441  31.364  1.00  0.00    -0.014 A 
ATOM     70  C   UNL A   1      46.236  27.730  32.562  1.00  0.00     0.010 A 
ATOM     71  C   UNL A   1      47.042  28.428  30.384  1.00  0.00     0.010 A 
ATOM     72  C   UNL A   1      47.440  27.060  32.793  1.00  0.00     0.020 A 
ATOM     73  C   UNL A   1      48.235  27.733  30.598  1.00  0.00     0.020 A 
ATOM     74  C   UNL A   1      48.433  27.068  31.809  1.00  0.00     0.054 A 
BRANCH  74  75
ATOM     75  S   UNL A   1      49.978  26.172  32.130  1.00  0.00     0.124 S 
ATOM     76  O   UNL A   1      50.033  25.252  30.998  1.00  0.00    -0.237 OA
ATOM     77  O   UNL A   1      50.975  27.240  32.122  1.00  0.00    -0.237 OA
ATOM     78  O   UNL A   1      49.752  25.546  33.431  1.00  0.00    -0.744 OA
ENDBRANCH  74  75
ENDBRANCH  55  69
BRANCH  56  79
ATOM     79  C   UNL A   1      37.196  32.824  29.714  1.00  0.00    -0.014 A 
ATOM     80  C   UNL A   1      36.262  32.932  30.760  1.00  0.00     0.010 A 
ATOM     81  C   UNL A   1      36.872  33.357  28.453  1.00  0.00     0.010 A 
ATOM     82  C   UNL A   1      35.024  33.543  30.546  1.00  0.00     0.020 A 
ATOM     83  C   UNL A   1      35.647  33.996  28.243  1.00  0.00     0.020 A 
ATOM     84  C   UNL A   1      34.726  34.076  29.289  1.00  0.00     0.054 A 
BRANCH  84  85
ATOM     85  S   UNL A   1      33.136  34.918  29.050  1.00  0.00     0.124 S 
ATOM     86  O   UNL A   1      33.557  36.237  28.591  1.00  0.00    -0.237 OA
ATOM     87  O   UNL A   1      32.482  34.078  28.050  1.00  0.00    -0.237 OA
ATOM     88  O   UNL A   1      32.527  34.882  30.378  1.00  0.00    -0.744 OA
ENDBRANCH  84  85
ENDBRANCH  56  79
BRANCH  68  89
ATOM     89  C   UNL A   1      43.168  34.949  32.629  1.00  0.00    -0.014 A 
ATOM     90  C   UNL A   1      43.761  35.958  31.851  1.00  0.00     0.010 A 
ATOM     91  C   UNL A   1      42.927  35.190  33.995  1.00  0.00     0.010 A 
ATOM     92  C   UNL A   1      44.140  37.171  32.434  1.00  0.00     0.020 A 
ATOM     93  C   UNL A   1      43.276  36.412  34.575  1.00  0.00     0.020 A 
ATOM     94  C   UNL A   1      43.895  37.389  33.793  1.00  0.00     0.054 A 
BRANCH  94  95
ATOM     95  S   UNL A   1      44.364  38.983  34.519  1.00  0.00     0.124 S 
ATOM     96  O   UNL A   1      43.332  39.873  33.991  1.00  0.00    -0.237 OA
ATOM     97  O   UNL A   1      44.289  38.716  35.954  1.00  0.00    -0.237 OA
ATOM     98  O   UNL A   1      45.712  39.217  34.004  1.00  0.00    -0.744 OA
ENDBRANCH  94  95
ENDBRANCH  68  89
ENDBRANCH  42  43
ENDBRANCH  34  37
ENDBRANCH  32  33
ENDBRANCH   1  32
TORSDOF 17
ENDMDL
MODEL 2
REMARK VINA RESULT:     -12.1      3.012      9.700
REMARK SMILES COc1cccc([C@@H]2[NH2+][C@@](C)(C(=O)NCCCCNC(=O)c3ccc(-c4c5nc(c(-c6ccc(S(=O)(=O)[O-])cc6)c6ccc([nH]6)c(-c6ccc(S(=O)(=O)[O-])cc6)c6nc(c(-c7ccc(S(=O)(=O)[O-])cc7)c7ccc4[nH]7)C=C6)C=C5)cc3)[C@@H]3C(=O)N(C)C(=O)[C@@H]32)c1O
REMARK SMILES IDX 17 1 16 2 15 3 14 4 12 5 13 6 10 8 8 9 9 10 89 11 82 14
REMARK SMILES IDX 87 15 11 16 83 17 85 18 88 19 84 20 86 21 7 22 3 23 4 24
REMARK SMILES IDX 90 25 5 26 6 27 2 28 1 29 91 30 18 32 19 33 20 34 21 36
REMARK SMILES IDX 22 37 23 38 81 39 24 40 80 41 25 42 26 43 27 44 74 45 28 46
REMARK SMILES IDX 79 47 73 48 75 49 29 50 78 51 72 52 71 53 30 55 60 56 41 57
REMARK SMILES IDX 59 58 42 59 45 60 58 61 76 62 43 63 44 64 57 66 77 67 46 68
REMARK SMILES IDX 31 69 32 70 40 71 33 72 39 73 34 74 35 75 36 76 37 77 38 78
REMARK SMILES IDX 61 79 62 80 70 81 63 82 69 83 64 84 65 85 66 86 67 87 68 88
REMARK SMILES IDX 47 89 48 90 56 91 49 92 55 93 50 94 51 95 52 96 53 97 54 98
REMARK H PARENT 14 7 9 12 9 13 91 31 19 35 75 54 45 65
REMARK Flexibility Score: inf
ROOT
ATOM      1  C   UNL A   1      32.228  28.110  26.979  1.00  0.00     0.023 C 
ENDROOT
BRANCH   1   2
ATOM      2  C   UNL A   1      32.000  27.755  25.509  1.00  0.00     0.023 C 
BRANCH   2   3
ATOM      3  C   UNL A   1      30.663  27.102  25.187  1.00  0.00     0.116 C 
BRANCH   3   4
ATOM      4  N   UNL A   1      30.385  25.965  26.031  1.00  0.00    -0.351 N 
ATOM      5  C   UNL A   1      30.604  24.642  25.835  1.00  0.00     0.281 C 
ATOM      6  O   UNL A   1      30.147  23.903  26.718  1.00  0.00    -0.268 OA
ATOM      7  H   UNL A   1      29.964  26.188  26.893  1.00  0.00     0.163 HD
BRANCH   5   8
ATOM      8  C   UNL A   1      31.356  24.051  24.586  1.00  0.00     0.185 C 
ATOM      9  C   UNL A   1      32.043  21.827  25.240  1.00  0.00     0.232 C 
ATOM     10  N   UNL A   1      31.048  22.590  24.438  1.00  0.00    -0.326 N 
ATOM     11  C   UNL A   1      33.132  22.829  25.712  1.00  0.00     0.161 C 
ATOM     12  H   UNL A   1      30.106  22.398  24.779  1.00  0.00     0.347 HD
ATOM     13  H   UNL A   1      31.098  22.316  23.456  1.00  0.00     0.347 HD
ATOM     14  C   UNL A   1      32.840  24.111  24.947  1.00  0.00     0.169 C 
ATOM     15  C   UNL A   1      34.591  22.626  25.390  1.00  0.00     0.239 C 
ATOM     16  C   UNL A   1      31.068  24.835  23.300  1.00  0.00     0.091 C 
ATOM     17  C   UNL A   1      33.851  24.095  23.830  1.00  0.00     0.240 C 
ATOM     18  N   UNL A   1      34.875  23.282  24.223  1.00  0.00    -0.285 N 
ATOM     19  O   UNL A   1      35.370  22.006  26.099  1.00  0.00    -0.274 OA
ATOM     20  O   UNL A   1      33.807  24.735  22.804  1.00  0.00    -0.274 OA
ATOM     21  C   UNL A   1      36.031  23.076  23.381  1.00  0.00     0.156 C 
BRANCH   9  22
ATOM     22  C   UNL A   1      32.430  20.465  24.654  1.00  0.00     0.056 A 
ATOM     23  C   UNL A   1      32.489  18.046  24.989  1.00  0.00     0.161 A 
ATOM     24  C   UNL A   1      32.382  17.821  23.631  1.00  0.00     0.050 A 
ATOM     25  C   UNL A   1      32.722  19.348  25.433  1.00  0.00     0.166 A 
ATOM     26  C   UNL A   1      32.417  18.914  22.763  1.00  0.00     0.005 A 
ATOM     27  C   UNL A   1      32.378  20.226  23.272  1.00  0.00     0.014 A 
BRANCH  23  28
ATOM     28  O   UNL A   1      32.448  16.979  25.849  1.00  0.00    -0.493 OA
ATOM     29  C   UNL A   1      33.189  15.881  25.292  1.00  0.00     0.278 C 
ENDBRANCH  23  28
BRANCH  25  30
ATOM     30  O   UNL A   1      33.481  19.504  26.554  1.00  0.00    -0.504 OA
ATOM     31  H   UNL A   1      33.635  18.775  27.120  1.00  0.00     0.293 HD
ENDBRANCH  25  30
ENDBRANCH   9  22
ENDBRANCH   5   8
ENDBRANCH   3   4
ENDBRANCH   2   3
ENDBRANCH   1   2
BRANCH   1  32
ATOM     32  C   UNL A   1      33.625  28.611  27.329  1.00  0.00     0.116 C 
BRANCH  32  33
ATOM     33  N   UNL A   1      33.655  30.030  27.647  1.00  0.00    -0.352 N 
ATOM     34  C   UNL A   1      34.654  30.777  28.222  1.00  0.00     0.251 C 
ATOM     35  H   UNL A   1      32.838  30.529  27.417  1.00  0.00     0.163 HD
ATOM     36  O   UNL A   1      34.437  31.938  28.556  1.00  0.00    -0.269 OA
BRANCH  34  37
ATOM     37  C   UNL A   1      35.976  30.165  28.465  1.00  0.00     0.039 A 
ATOM     38  C   UNL A   1      36.933  30.198  27.449  1.00  0.00     0.014 A 
ATOM     39  C   UNL A   1      36.280  29.594  29.704  1.00  0.00     0.014 A 
ATOM     40  C   UNL A   1      38.222  29.728  27.704  1.00  0.00     0.010 A 
ATOM     41  C   UNL A   1      37.587  29.204  29.981  1.00  0.00     0.010 A 
ATOM     42  C   UNL A   1      38.573  29.271  28.985  1.00  0.00    -0.014 A 
BRANCH  42  43
ATOM     43  C   UNL A   1      39.972  28.883  29.302  1.00  0.00     0.031 A 
ATOM     44  C   UNL A   1      40.895  29.851  29.992  1.00  0.00     0.074 A 
ATOM     45  C   UNL A   1      40.426  27.673  28.918  1.00  0.00     0.049 A 
ATOM     46  N   UNL A   1      42.146  29.690  30.338  1.00  0.00    -0.248 NA
ATOM     47  C   UNL A   1      40.349  31.180  30.314  1.00  0.00     0.031 C 
ATOM     48  C   UNL A   1      39.646  26.666  28.193  1.00  0.00     0.029 A 
ATOM     49  N   UNL A   1      41.653  27.081  29.083  1.00  0.00    -0.354 N 
ATOM     50  C   UNL A   1      42.540  30.896  30.907  1.00  0.00     0.074 A 
ATOM     51  C   UNL A   1      41.413  31.797  30.808  1.00  0.00     0.031 C 
ATOM     52  C   UNL A   1      40.400  25.571  28.011  1.00  0.00     0.029 A 
ATOM     53  C   UNL A   1      41.728  25.808  28.567  1.00  0.00     0.049 A 
ATOM     54  H   UNL A   1      42.410  27.526  29.528  1.00  0.00     0.167 HD
ATOM     55  C   UNL A   1      43.725  31.217  31.480  1.00  0.00     0.031 A 
ATOM     56  C   UNL A   1      42.749  24.930  28.543  1.00  0.00     0.031 A 
ATOM     57  C   UNL A   1      44.841  30.315  31.578  1.00  0.00     0.049 A 
ATOM     58  C   UNL A   1      44.057  25.312  29.178  1.00  0.00     0.074 A 
ATOM     59  C   UNL A   1      46.065  30.525  32.191  1.00  0.00     0.029 A 
ATOM     60  N   UNL A   1      44.876  29.036  31.045  1.00  0.00    -0.354 N 
ATOM     61  N   UNL A   1      44.383  26.430  29.783  1.00  0.00    -0.248 NA
ATOM     62  C   UNL A   1      45.130  24.310  29.141  1.00  0.00     0.031 C 
ATOM     63  C   UNL A   1      46.859  29.394  31.977  1.00  0.00     0.029 A 
ATOM     64  C   UNL A   1      46.110  28.454  31.289  1.00  0.00     0.049 A 
ATOM     65  H   UNL A   1      44.134  28.603  30.564  1.00  0.00     0.167 HD
ATOM     66  C   UNL A   1      45.692  26.256  30.218  1.00  0.00     0.074 A 
ATOM     67  C   UNL A   1      46.089  24.919  29.825  1.00  0.00     0.031 C 
ATOM     68  C   UNL A   1      46.494  27.125  30.884  1.00  0.00     0.031 A 
BRANCH  55  69
ATOM     69  C   UNL A   1      43.872  32.608  32.039  1.00  0.00    -0.014 A 
ATOM     70  C   UNL A   1      44.392  33.656  31.257  1.00  0.00     0.010 A 
ATOM     71  C   UNL A   1      43.449  32.882  33.353  1.00  0.00     0.010 A 
ATOM     72  C   UNL A   1      44.530  34.940  31.793  1.00  0.00     0.020 A 
ATOM     73  C   UNL A   1      43.556  34.172  33.882  1.00  0.00     0.020 A 
ATOM     74  C   UNL A   1      44.112  35.188  33.104  1.00  0.00     0.054 A 
BRANCH  74  75
ATOM     75  S   UNL A   1      44.285  36.869  33.765  1.00  0.00     0.124 S 
ATOM     76  O   UNL A   1      45.702  37.139  33.534  1.00  0.00    -0.237 OA
ATOM     77  O   UNL A   1      43.357  37.635  32.937  1.00  0.00    -0.237 OA
ATOM     78  O   UNL A   1      43.899  36.732  35.167  1.00  0.00    -0.744 OA
ENDBRANCH  74  75
ENDBRANCH  55  69
BRANCH  56  79
ATOM     79  C   UNL A   1      42.564  23.594  27.911  1.00  0.00    -0.014 A 
ATOM     80  C   UNL A   1      43.001  23.356  26.596  1.00  0.00     0.010 A 
ATOM     81  C   UNL A   1      41.965  22.543  28.632  1.00  0.00     0.010 A 
ATOM     82  C   UNL A   1      42.829  22.101  26.007  1.00  0.00     0.020 A 
ATOM     83  C   UNL A   1      41.818  21.278  28.056  1.00  0.00     0.020 A 
ATOM     84  C   UNL A   1      42.242  21.068  26.743  1.00  0.00     0.054 A 
BRANCH  84  85
ATOM     85  S   UNL A   1      42.082  19.430  25.978  1.00  0.00     0.124 S 
ATOM     86  O   UNL A   1      42.610  18.555  27.019  1.00  0.00    -0.237 OA
ATOM     87  O   UNL A   1      40.644  19.333  25.738  1.00  0.00    -0.237 OA
ATOM     88  O   UNL A   1      42.901  19.534  24.772  1.00  0.00    -0.744 OA
ENDBRANCH  84  85
ENDBRANCH  56  79
BRANCH  68  89
ATOM     89  C   UNL A   1      47.873  26.647  31.253  1.00  0.00    -0.014 A 
ATOM     90  C   UNL A   1      48.102  25.915  32.431  1.00  0.00     0.010 A 
ATOM     91  C   UNL A   1      48.950  26.897  30.381  1.00  0.00     0.010 A 
ATOM     92  C   UNL A   1      49.389  25.474  32.750  1.00  0.00     0.020 A 
ATOM     93  C   UNL A   1      50.231  26.430  30.681  1.00  0.00     0.020 A 
ATOM     94  C   UNL A   1      50.446  25.734  31.872  1.00  0.00     0.054 A 
BRANCH  94  95
ATOM     95  S   UNL A   1      52.100  25.120  32.291  1.00  0.00     0.124 S 
ATOM     96  O   UNL A   1      52.895  25.594  31.161  1.00  0.00    -0.237 OA
ATOM     97  O   UNL A   1      52.370  25.776  33.569  1.00  0.00    -0.237 OA
ATOM     98  O   UNL A   1      51.924  23.671  32.366  1.00  0.00    -0.744 OA
ENDBRANCH  94  95
ENDBRANCH  68  89
ENDBRANCH  42  43
ENDBRANCH  34  37
ENDBRANCH  32  33
ENDBRANCH   1  32
TORSDOF 17
ENDMDL
MODEL 3
REMARK VINA RESULT:     -11.9      3.340      4.499
REMARK SMILES COc1cccc([C@@H]2[NH2+][C@@](C)(C(=O)NCCCCNC(=O)c3ccc(-c4c5nc(c(-c6ccc(S(=O)(=O)[O-])cc6)c6ccc([nH]6)c(-c6ccc(S(=O)(=O)[O-])cc6)c6nc(c(-c7ccc(S(=O)(=O)[O-])cc7)c7ccc4[nH]7)C=C6)C=C5)cc3)[C@@H]3C(=O)N(C)C(=O)[C@@H]32)c1O
REMARK SMILES IDX 17 1 16 2 15 3 14 4 12 5 13 6 10 8 8 9 9 10 89 11 82 14
REMARK SMILES IDX 87 15 11 16 83 17 85 18 88 19 84 20 86 21 7 22 3 23 4 24
REMARK SMILES IDX 90 25 5 26 6 27 2 28 1 29 91 30 18 32 19 33 20 34 21 36
REMARK SMILES IDX 22 37 23 38 81 39 24 40 80 41 25 42 26 43 27 44 74 45 28 46
REMARK SMILES IDX 79 47 73 48 75 49 29 50 78 51 72 52 71 53 30 55 60 56 41 57
REMARK SMILES IDX 59 58 42 59 45 60 58 61 76 62 43 63 44 64 57 66 77 67 46 68
REMARK SMILES IDX 31 69 32 70 40 71 33 72 39 73 34 74 35 75 36 76 37 77 38 78
REMARK SMILES IDX 61 79 62 80 70 81 63 82 69 83 64 84 65 85 66 86 67 87 68 88
REMARK SMILES IDX 47 89 48 90 56 91 49 92 55 93 50 94 51 95 52 96 53 97 54 98
REMARK H PARENT 14 7 9 12 9 13 91 31 19 35 75 54 45 65
REMARK Flexibility Score: inf
ROOT
ATOM      1  C   UNL A   1      39.794  21.811  26.548  1.00  0.00     0.023 C 
ENDROOT
BRANCH   1   2
ATOM      2  C   UNL A   1      38.614  21.777  25.576  1.00  0.00     0.023 C 
BRANCH   2   3
ATOM      3  C   UNL A   1      37.558  22.854  25.782  1.00  0.00     0.116 C 
BRANCH   3   4
ATOM      4  N   UNL A   1      36.394  22.363  26.477  1.00  0.00    -0.351 N 
ATOM      5  C   UNL A   1      35.074  22.581  26.260  1.00  0.00     0.281 C 
ATOM      6  O   UNL A   1      34.318  22.093  27.111  1.00  0.00    -0.268 OA
ATOM      7  H   UNL A   1      36.591  21.769  27.238  1.00  0.00     0.163 HD
BRANCH   5   8
ATOM      8  C   UNL A   1      34.508  23.406  25.046  1.00  0.00     0.185 C 
ATOM      9  C   UNL A   1      33.914  25.566  25.953  1.00  0.00     0.232 C 
ATOM     10  N   UNL A   1      34.934  24.841  25.148  1.00  0.00    -0.326 N 
ATOM     11  C   UNL A   1      32.711  24.607  26.161  1.00  0.00     0.161 C 
ATOM     12  H   UNL A   1      35.844  24.901  25.605  1.00  0.00     0.347 HD
ATOM     13  H   UNL A   1      35.012  25.254  24.218  1.00  0.00     0.347 HD
ATOM     14  C   UNL A   1      32.993  23.425  25.246  1.00  0.00     0.169 C 
ATOM     15  C   UNL A   1      31.315  24.979  25.732  1.00  0.00     0.239 C 
ATOM     16  C   UNL A   1      34.879  22.790  23.691  1.00  0.00     0.091 C 
ATOM     17  C   UNL A   1      32.115  23.686  24.050  1.00  0.00     0.240 C 
ATOM     18  N   UNL A   1      31.115  24.521  24.457  1.00  0.00    -0.285 N 
ATOM     19  O   UNL A   1      30.509  25.558  26.446  1.00  0.00    -0.274 OA
ATOM     20  O   UNL A   1      32.225  23.196  22.948  1.00  0.00    -0.274 OA
ATOM     21  C   UNL A   1      30.076  24.943  23.547  1.00  0.00     0.156 C 
BRANCH   9  22
ATOM     22  C   UNL A   1      33.693  27.026  25.543  1.00  0.00     0.056 A 
ATOM     23  C   UNL A   1      32.446  28.576  24.122  1.00  0.00     0.161 A 
ATOM     24  C   UNL A   1      32.571  29.585  25.057  1.00  0.00     0.050 A 
ATOM     25  C   UNL A   1      33.188  27.407  24.302  1.00  0.00     0.166 A 
ATOM     26  C   UNL A   1      33.356  29.361  26.189  1.00  0.00     0.005 A 
ATOM     27  C   UNL A   1      33.861  28.074  26.460  1.00  0.00     0.014 A 
BRANCH  23  28
ATOM     28  O   UNL A   1      31.671  28.785  23.012  1.00  0.00    -0.493 OA
ATOM     29  C   UNL A   1      30.435  29.410  23.396  1.00  0.00     0.278 C 
ENDBRANCH  23  28
BRANCH  25  30
ATOM     30  O   UNL A   1      33.628  26.764  23.183  1.00  0.00    -0.504 OA
ATOM     31  H   UNL A   1      33.625  25.828  23.149  1.00  0.00     0.293 HD
ENDBRANCH  25  30
ENDBRANCH   9  22
ENDBRANCH   5   8
ENDBRANCH   3   4
ENDBRANCH   2   3
ENDBRANCH   1   2
BRANCH   1  32
ATOM     32  C   UNL A   1      40.209  23.194  27.035  1.00  0.00     0.116 C 
BRANCH  32  33
ATOM     33  N   UNL A   1      40.891  23.974  26.013  1.00  0.00    -0.352 N 
ATOM     34  C   UNL A   1      41.316  25.279  26.046  1.00  0.00     0.251 C 
ATOM     35  H   UNL A   1      41.075  23.494  25.173  1.00  0.00     0.163 HD
ATOM     36  O   UNL A   1      41.737  25.814  25.025  1.00  0.00    -0.269 OA
BRANCH  34  37
ATOM     37  C   UNL A   1      41.232  26.043  27.308  1.00  0.00     0.039 A 
ATOM     38  C   UNL A   1      42.283  26.895  27.653  1.00  0.00     0.014 A 
ATOM     39  C   UNL A   1      40.103  25.945  28.126  1.00  0.00     0.014 A 
ATOM     40  C   UNL A   1      42.164  27.709  28.781  1.00  0.00     0.010 A 
ATOM     41  C   UNL A   1      39.952  26.817  29.201  1.00  0.00     0.010 A 
ATOM     42  C   UNL A   1      40.980  27.711  29.537  1.00  0.00    -0.014 A 
BRANCH  42  43
ATOM     43  C   UNL A   1      40.796  28.659  30.665  1.00  0.00     0.031 A 
ATOM     44  C   UNL A   1      41.642  28.546  31.904  1.00  0.00     0.074 A 
ATOM     45  C   UNL A   1      39.826  29.594  30.592  1.00  0.00     0.049 A 
ATOM     46  N   UNL A   1      41.614  29.277  32.988  1.00  0.00    -0.248 NA
ATOM     47  C   UNL A   1      42.629  27.455  31.941  1.00  0.00     0.031 C 
ATOM     48  C   UNL A   1      38.903  29.771  29.467  1.00  0.00     0.029 A 
ATOM     49  N   UNL A   1      39.453  30.572  31.480  1.00  0.00    -0.354 N 
ATOM     50  C   UNL A   1      42.569  28.730  33.838  1.00  0.00     0.074 A 
ATOM     51  C   UNL A   1      43.118  27.573  33.167  1.00  0.00     0.031 C 
ATOM     52  C   UNL A   1      38.100  30.817  29.717  1.00  0.00     0.029 A 
ATOM     53  C   UNL A   1      38.418  31.360  31.033  1.00  0.00     0.049 A 
ATOM     54  H   UNL A   1      39.886  30.697  32.356  1.00  0.00     0.167 HD
ATOM     55  C   UNL A   1      42.970  29.165  35.058  1.00  0.00     0.031 A 
ATOM     56  C   UNL A   1      37.794  32.402  31.615  1.00  0.00     0.031 A 
ATOM     57  C   UNL A   1      42.422  30.320  35.719  1.00  0.00     0.049 A 
ATOM     58  C   UNL A   1      38.251  32.862  32.972  1.00  0.00     0.074 A 
ATOM     59  C   UNL A   1      42.799  30.877  36.929  1.00  0.00     0.029 A 
ATOM     60  N   UNL A   1      41.378  31.091  35.233  1.00  0.00    -0.354 N 
ATOM     61  N   UNL A   1      39.212  32.380  33.725  1.00  0.00    -0.248 NA
ATOM     62  C   UNL A   1      37.550  34.015  33.553  1.00  0.00     0.031 C 
ATOM     63  C   UNL A   1      41.944  31.949  37.201  1.00  0.00     0.029 A 
ATOM     64  C   UNL A   1      41.077  32.102  36.132  1.00  0.00     0.049 A 
ATOM     65  H   UNL A   1      40.917  30.943  34.375  1.00  0.00     0.167 HD
ATOM     66  C   UNL A   1      39.245  33.186  34.858  1.00  0.00     0.074 A 
ATOM     67  C   UNL A   1      38.222  34.197  34.681  1.00  0.00     0.031 C 
ATOM     68  C   UNL A   1      40.050  33.096  35.946  1.00  0.00     0.031 A 
BRANCH  55  69
ATOM     69  C   UNL A   1      44.050  28.381  35.755  1.00  0.00    -0.014 A 
ATOM     70  C   UNL A   1      45.410  28.693  35.572  1.00  0.00     0.010 A 
ATOM     71  C   UNL A   1      43.702  27.340  36.636  1.00  0.00     0.010 A 
ATOM     72  C   UNL A   1      46.402  27.952  36.220  1.00  0.00     0.020 A 
ATOM     73  C   UNL A   1      44.690  26.616  37.309  1.00  0.00     0.020 A 
ATOM     74  C   UNL A   1      46.035  26.915  37.083  1.00  0.00     0.054 A 
BRANCH  74  75
ATOM     75  S   UNL A   1      47.344  25.983  37.925  1.00  0.00     0.124 S 
ATOM     76  O   UNL A   1      48.465  26.916  37.864  1.00  0.00    -0.237 OA
ATOM     77  O   UNL A   1      46.778  25.766  39.254  1.00  0.00    -0.237 OA
ATOM     78  O   UNL A   1      47.491  24.779  37.110  1.00  0.00    -0.744 OA
ENDBRANCH  74  75
ENDBRANCH  55  69
BRANCH  56  79
ATOM     79  C   UNL A   1      36.684  33.095  30.904  1.00  0.00    -0.014 A 
ATOM     80  C   UNL A   1      35.359  32.978  31.360  1.00  0.00     0.010 A 
ATOM     81  C   UNL A   1      36.950  33.892  29.775  1.00  0.00     0.010 A 
ATOM     82  C   UNL A   1      34.319  33.631  30.693  1.00  0.00     0.020 A 
ATOM     83  C   UNL A   1      35.916  34.570  29.123  1.00  0.00     0.020 A 
ATOM     84  C   UNL A   1      34.605  34.427  29.580  1.00  0.00     0.054 A 
BRANCH  84  85
ATOM     85  S   UNL A   1      33.246  35.312  28.765  1.00  0.00     0.124 S 
ATOM     86  O   UNL A   1      33.965  36.237  27.896  1.00  0.00    -0.237 OA
ATOM     87  O   UNL A   1      32.529  34.234  28.089  1.00  0.00    -0.237 OA
ATOM     88  O   UNL A   1      32.525  35.929  29.876  1.00  0.00    -0.744 OA
ENDBRANCH  84  85
ENDBRANCH  56  79
BRANCH  68  89
ATOM     89  C   UNL A   1      39.875  34.137  37.021  1.00  0.00    -0.014 A 
ATOM     90  C   UNL A   1      40.455  35.412  36.905  1.00  0.00     0.010 A 
ATOM     91  C   UNL A   1      39.078  33.846  38.144  1.00  0.00     0.010 A 
ATOM     92  C   UNL A   1      40.272  36.365  37.910  1.00  0.00     0.020 A 
ATOM     93  C   UNL A   1      38.867  34.806  39.135  1.00  0.00     0.020 A 
ATOM     94  C   UNL A   1      39.479  36.056  39.020  1.00  0.00     0.054 A 
BRANCH  94  95
ATOM     95  S   UNL A   1      39.228  37.322  40.293  1.00  0.00     0.124 S 
ATOM     96  O   UNL A   1      38.368  38.281  39.604  1.00  0.00    -0.237 OA
ATOM     97  O   UNL A   1      38.591  36.569  41.372  1.00  0.00    -0.237 OA
ATOM     98  O   UNL A   1      40.580  37.795  40.585  1.00  0.00    -0.744 OA
ENDBRANCH  94  95
ENDBRANCH  68  89
ENDBRANCH  42  43
ENDBRANCH  34  37
ENDBRANCH  32  33
ENDBRANCH   1  32
TORSDOF 17
ENDMDL
