MODEL 1
REMARK VINA RESULT:     -11.3      0.000      0.000
REMARK SMILES C[C@H]1OCC[C@@H]1C(=O)Nc1ccc(Cl)c(C(=O)NCCCCNC(=O)c2ccc(-c3c4nc(c(-c5ccc(S(=O)(=O)[O-])cc5)c5ccc([nH]5)c(-c5ccc(S(=O)(=O)[O-])cc5)c5nc(c(-c6ccc(S(=O)(=O)[O-])cc6)c6ccc3[nH]6)C=C5)C=C4)cc2)c1
REMARK SMILES IDX 21 1 20 2 19 3 18 4 16 5 17 6 15 8 10 9 11 10 86 11 12 12
REMARK SMILES IDX 13 13 14 14 9 15 7 16 8 17 6 19 1 20 2 21 3 22 4 23 5 24
REMARK SMILES IDX 22 25 23 26 24 27 25 29 26 30 27 31 85 32 28 33 84 34 29 35
REMARK SMILES IDX 30 36 31 37 78 38 32 39 83 40 77 41 79 42 33 43 82 44 76 45
REMARK SMILES IDX 75 46 34 48 64 49 45 50 63 51 46 52 49 53 62 54 80 55 47 56
REMARK SMILES IDX 48 57 61 59 81 60 50 61 35 62 36 63 44 64 37 65 43 66 38 67
REMARK SMILES IDX 39 68 40 69 41 70 42 71 65 72 66 73 74 74 67 75 73 76 68 77
REMARK SMILES IDX 69 78 70 79 71 80 72 81 51 82 52 83 60 84 53 85 59 86 54 87
REMARK SMILES IDX 55 88 56 89 57 90 58 91
REMARK H PARENT 18 7 9 18 23 28 79 47 49 58
REMARK Flexibility Score: inf
ROOT
ATOM      1  C   UNL A   1      32.285  29.043  25.803  1.00  0.00     0.023 C 
ENDROOT
BRANCH   1   2
ATOM      2  C   UNL A   1      32.416  29.086  24.286  1.00  0.00     0.023 C 
BRANCH   2   3
ATOM      3  C   UNL A   1      33.796  28.803  23.719  1.00  0.00     0.116 C 
BRANCH   3   4
ATOM      4  N   UNL A   1      33.860  27.856  22.620  1.00  0.00    -0.352 N 
ATOM      5  C   UNL A   1      33.442  26.540  22.576  1.00  0.00     0.252 C 
ATOM      6  O   UNL A   1      33.512  25.921  21.517  1.00  0.00    -0.269 OA
ATOM      7  H   UNL A   1      34.259  28.200  21.788  1.00  0.00     0.163 HD
BRANCH   5   8
ATOM      8  C   UNL A   1      33.035  25.814  23.806  1.00  0.00     0.060 A 
ATOM      9  C   UNL A   1      33.740  24.485  25.701  1.00  0.00     0.042 A 
ATOM     10  C   UNL A   1      32.529  24.749  26.323  1.00  0.00     0.028 A 
ATOM     11  C   UNL A   1      34.053  25.144  24.513  1.00  0.00     0.041 A 
ATOM     12  C   UNL A   1      31.500  25.338  25.601  1.00  0.00     0.023 A 
ATOM     13  C   UNL A   1      31.725  25.729  24.284  1.00  0.00     0.053 A 
ATOM     14  Cl  UNL A   1      30.323  25.900  23.289  1.00  0.00    -0.083 Cl
BRANCH   9  15
ATOM     15  N   UNL A   1      34.620  23.540  26.230  1.00  0.00    -0.326 N 
ATOM     16  C   UNL A   1      34.668  22.189  25.994  1.00  0.00     0.230 C 
ATOM     17  O   UNL A   1      35.416  21.518  26.718  1.00  0.00    -0.274 OA
ATOM     18  H   UNL A   1      35.295  23.889  26.857  1.00  0.00     0.169 HD
BRANCH  16  19
ATOM     19  C   UNL A   1      33.941  21.480  24.833  1.00  0.00     0.110 C 
ATOM     20  C   UNL A   1      31.790  22.067  23.608  1.00  0.00     0.039 C 
ATOM     21  C   UNL A   1      32.416  21.533  24.894  1.00  0.00     0.127 C 
ATOM     22  O   UNL A   1      31.965  20.183  25.066  1.00  0.00    -0.378 OA
ATOM     23  C   UNL A   1      32.950  19.305  24.524  1.00  0.00     0.161 C 
ATOM     24  C   UNL A   1      34.285  20.024  24.586  1.00  0.00     0.044 C 
ENDBRANCH  16  19
ENDBRANCH   9  15
ENDBRANCH   5   8
ENDBRANCH   3   4
ENDBRANCH   2   3
ENDBRANCH   1   2
BRANCH   1  25
ATOM     25  C   UNL A   1      33.563  29.248  26.613  1.00  0.00     0.116 C 
BRANCH  25  26
ATOM     26  N   UNL A   1      33.584  30.467  27.410  1.00  0.00    -0.352 N 
ATOM     27  C   UNL A   1      34.561  30.968  28.241  1.00  0.00     0.251 C 
ATOM     28  H   UNL A   1      32.771  31.020  27.345  1.00  0.00     0.163 HD
ATOM     29  O   UNL A   1      34.359  32.004  28.872  1.00  0.00    -0.269 OA
BRANCH  27  30
ATOM     30  C   UNL A   1      35.829  30.232  28.421  1.00  0.00     0.039 A 
ATOM     31  C   UNL A   1      36.750  30.210  27.369  1.00  0.00     0.014 A 
ATOM     32  C   UNL A   1      36.140  29.620  29.637  1.00  0.00     0.014 A 
ATOM     33  C   UNL A   1      38.029  29.691  27.580  1.00  0.00     0.010 A 
ATOM     34  C   UNL A   1      37.441  29.180  29.871  1.00  0.00     0.010 A 
ATOM     35  C   UNL A   1      38.406  29.238  28.854  1.00  0.00    -0.014 A 
BRANCH  35  36
ATOM     36  C   UNL A   1      39.816  28.885  29.168  1.00  0.00     0.031 A 
ATOM     37  C   UNL A   1      40.748  29.914  29.745  1.00  0.00     0.074 A 
ATOM     38  C   UNL A   1      40.284  27.665  28.834  1.00  0.00     0.049 A 
ATOM     39  N   UNL A   1      42.034  29.825  29.973  1.00  0.00    -0.248 NA
ATOM     40  C   UNL A   1      40.166  31.222  30.086  1.00  0.00     0.031 C 
ATOM     41  C   UNL A   1      39.497  26.590  28.222  1.00  0.00     0.029 A 
ATOM     42  N   UNL A   1      41.543  27.126  28.945  1.00  0.00    -0.354 N 
ATOM     43  C   UNL A   1      42.418  31.067  30.459  1.00  0.00     0.074 A 
ATOM     44  C   UNL A   1      41.238  31.906  30.457  1.00  0.00     0.031 C 
ATOM     45  C   UNL A   1      40.283  25.518  28.033  1.00  0.00     0.029 A 
ATOM     46  C   UNL A   1      41.639  25.841  28.464  1.00  0.00     0.049 A 
ATOM     47  H   UNL A   1      42.305  27.615  29.332  1.00  0.00     0.167 HD
ATOM     48  C   UNL A   1      43.640  31.472  30.884  1.00  0.00     0.031 A 
ATOM     49  C   UNL A   1      42.701  25.016  28.362  1.00  0.00     0.031 A 
ATOM     50  C   UNL A   1      44.809  30.634  30.900  1.00  0.00     0.049 A 
ATOM     51  C   UNL A   1      44.048  25.491  28.831  1.00  0.00     0.074 A 
ATOM     52  C   UNL A   1      46.074  30.933  31.376  1.00  0.00     0.029 A 
ATOM     53  N   UNL A   1      44.859  29.335  30.417  1.00  0.00    -0.354 N 
ATOM     54  N   UNL A   1      44.376  26.649  29.349  1.00  0.00    -0.248 NA
ATOM     55  C   UNL A   1      45.167  24.547  28.700  1.00  0.00     0.031 C 
ATOM     56  C   UNL A   1      46.901  29.830  31.139  1.00  0.00     0.029 A 
ATOM     57  C   UNL A   1      46.139  28.828  30.560  1.00  0.00     0.049 A 
ATOM     58  H   UNL A   1      44.097  28.846  30.031  1.00  0.00     0.167 HD
ATOM     59  C   UNL A   1      45.737  26.568  29.625  1.00  0.00     0.074 A 
ATOM     60  C   UNL A   1      46.166  25.242  29.229  1.00  0.00     0.031 C 
ATOM     61  C   UNL A   1      46.554  27.508  30.157  1.00  0.00     0.031 A 
BRANCH  48  62
ATOM     62  C   UNL A   1      43.772  32.892  31.364  1.00  0.00    -0.014 A 
ATOM     63  C   UNL A   1      44.256  33.902  30.513  1.00  0.00     0.010 A 
ATOM     64  C   UNL A   1      43.375  33.229  32.671  1.00  0.00     0.010 A 
ATOM     65  C   UNL A   1      44.384  35.214  30.974  1.00  0.00     0.020 A 
ATOM     66  C   UNL A   1      43.477  34.546  33.127  1.00  0.00     0.020 A 
ATOM     67  C   UNL A   1      43.998  35.527  32.282  1.00  0.00     0.054 A 
BRANCH  67  68
ATOM     68  S   UNL A   1      44.161  37.242  32.850  1.00  0.00     0.124 S 
ATOM     69  O   UNL A   1      43.195  37.288  33.944  1.00  0.00    -0.237 OA
ATOM     70  O   UNL A   1      45.565  37.318  33.248  1.00  0.00    -0.237 OA
ATOM     71  O   UNL A   1      43.808  38.032  31.673  1.00  0.00    -0.744 OA
ENDBRANCH  67  68
ENDBRANCH  48  62
BRANCH  49  72
ATOM     72  C   UNL A   1      42.528  23.651  27.794  1.00  0.00    -0.014 A 
ATOM     73  C   UNL A   1      42.597  23.447  26.405  1.00  0.00     0.010 A 
ATOM     74  C   UNL A   1      42.316  22.548  28.640  1.00  0.00     0.010 A 
ATOM     75  C   UNL A   1      42.443  22.164  25.871  1.00  0.00     0.020 A 
ATOM     76  C   UNL A   1      42.185  21.260  28.112  1.00  0.00     0.020 A 
ATOM     77  C   UNL A   1      42.241  21.078  26.728  1.00  0.00     0.054 A 
BRANCH  77  78
ATOM     78  S   UNL A   1      42.105  19.414  26.017  1.00  0.00     0.124 S 
ATOM     79  O   UNL A   1      42.559  18.574  27.121  1.00  0.00    -0.237 OA
ATOM     80  O   UNL A   1      40.684  19.322  25.693  1.00  0.00    -0.237 OA
ATOM     81  O   UNL A   1      42.996  19.465  24.859  1.00  0.00    -0.744 OA
ENDBRANCH  77  78
ENDBRANCH  49  72
BRANCH  61  82
ATOM     82  C   UNL A   1      47.997  27.136  30.362  1.00  0.00    -0.014 A 
ATOM     83  C   UNL A   1      48.940  27.305  29.335  1.00  0.00     0.010 A 
ATOM     84  C   UNL A   1      48.425  26.676  31.622  1.00  0.00     0.010 A 
ATOM     85  C   UNL A   1      50.287  27.006  29.559  1.00  0.00     0.020 A 
ATOM     86  C   UNL A   1      49.774  26.398  31.855  1.00  0.00     0.020 A 
ATOM     87  C   UNL A   1      50.696  26.556  30.818  1.00  0.00     0.054 A 
BRANCH  87  88
ATOM     88  S   UNL A   1      52.459  26.235  31.102  1.00  0.00     0.124 S 
ATOM     89  O   UNL A   1      52.847  27.378  31.923  1.00  0.00    -0.237 OA
ATOM     90  O   UNL A   1      52.444  24.944  31.786  1.00  0.00    -0.237 OA
ATOM     91  O   UNL A   1      53.027  26.212  29.756  1.00  0.00    -0.744 OA
ENDBRANCH  87  88
ENDBRANCH  61  82
ENDBRANCH  35  36
ENDBRANCH  27  30
ENDBRANCH  25  26
ENDBRANCH   1  25
TORSDOF 16
ENDMDL
MODEL 2
REMARK VINA RESULT:     -11.1      1.513      2.092
REMARK SMILES C[C@H]1OCC[C@@H]1C(=O)Nc1ccc(Cl)c(C(=O)NCCCCNC(=O)c2ccc(-c3c4nc(c(-c5ccc(S(=O)(=O)[O-])cc5)c5ccc([nH]5)c(-c5ccc(S(=O)(=O)[O-])cc5)c5nc(c(-c6ccc(S(=O)(=O)[O-])cc6)c6ccc3[nH]6)C=C5)C=C4)cc2)c1
REMARK SMILES IDX 21 1 20 2 19 3 18 4 16 5 17 6 15 8 10 9 11 10 86 11 12 12
REMARK SMILES IDX 13 13 14 14 9 15 7 16 8 17 6 19 1 20 2 21 3 22 4 23 5 24
REMARK SMILES IDX 22 25 23 26 24 27 25 29 26 30 27 31 85 32 28 33 84 34 29 35
REMARK SMILES IDX 30 36 31 37 78 38 32 39 83 40 77 41 79 42 33 43 82 44 76 45
REMARK SMILES IDX 75 46 34 48 64 49 45 50 63 51 46 52 49 53 62 54 80 55 47 56
REMARK SMILES IDX 48 57 61 59 81 60 50 61 35 62 36 63 44 64 37 65 43 66 38 67
REMARK SMILES IDX 39 68 40 69 41 70 42 71 65 72 66 73 74 74 67 75 73 76 68 77
REMARK SMILES IDX 69 78 70 79 71 80 72 81 51 82 52 83 60 84 53 85 59 86 54 87
REMARK SMILES IDX 55 88 56 89 57 90 58 91
REMARK H PARENT 18 7 9 18 23 28 79 47 49 58
REMARK Flexibility Score: inf
ROOT
ATOM      1  C   UNL A   1      32.387  28.432  27.297  1.00  0.00     0.023 C 
ENDROOT
BRANCH   1   2
ATOM      2  C   UNL A   1      31.465  28.684  26.111  1.00  0.00     0.023 C 
BRANCH   2   3
ATOM      3  C   UNL A   1      32.083  29.383  24.912  1.00  0.00     0.116 C 
BRANCH   3   4
ATOM      4  N   UNL A   1      31.216  29.581  23.764  1.00  0.00    -0.352 N 
ATOM      5  C   UNL A   1      30.792  28.665  22.821  1.00  0.00     0.252 C 
ATOM      6  O   UNL A   1      29.988  29.015  21.960  1.00  0.00    -0.269 OA
ATOM      7  H   UNL A   1      30.884  30.499  23.639  1.00  0.00     0.163 HD
BRANCH   5   8
ATOM      8  C   UNL A   1      31.383  27.305  22.740  1.00  0.00     0.060 A 
ATOM      9  C   UNL A   1      31.116  24.948  23.212  1.00  0.00     0.042 A 
ATOM     10  C   UNL A   1      32.143  24.664  22.325  1.00  0.00     0.028 A 
ATOM     11  C   UNL A   1      30.634  26.252  23.301  1.00  0.00     0.041 A 
ATOM     12  C   UNL A   1      32.930  25.696  21.833  1.00  0.00     0.023 A 
ATOM     13  C   UNL A   1      32.626  27.011  22.176  1.00  0.00     0.053 A 
ATOM     14  Cl  UNL A   1      33.917  28.152  22.038  1.00  0.00    -0.083 Cl
BRANCH   9  15
ATOM     15  N   UNL A   1      30.596  23.951  24.039  1.00  0.00    -0.326 N 
ATOM     16  C   UNL A   1      31.208  23.297  25.079  1.00  0.00     0.230 C 
ATOM     17  O   UNL A   1      30.617  22.317  25.553  1.00  0.00    -0.274 OA
ATOM     18  H   UNL A   1      29.668  23.682  23.853  1.00  0.00     0.169 HD
BRANCH  16  19
ATOM     19  C   UNL A   1      32.516  23.760  25.753  1.00  0.00     0.110 C 
ATOM     20  C   UNL A   1      34.775  24.378  24.756  1.00  0.00     0.039 C 
ATOM     21  C   UNL A   1      33.799  23.254  25.095  1.00  0.00     0.127 C 
ATOM     22  O   UNL A   1      34.440  22.398  26.052  1.00  0.00    -0.378 OA
ATOM     23  C   UNL A   1      34.034  22.799  27.360  1.00  0.00     0.161 C 
ATOM     24  C   UNL A   1      32.677  23.466  27.231  1.00  0.00     0.044 C 
ENDBRANCH  16  19
ENDBRANCH   9  15
ENDBRANCH   5   8
ENDBRANCH   3   4
ENDBRANCH   2   3
ENDBRANCH   1   2
BRANCH   1  25
ATOM     25  C   UNL A   1      33.755  29.110  27.265  1.00  0.00     0.116 C 
BRANCH  25  26
ATOM     26  N   UNL A   1      33.839  30.337  28.047  1.00  0.00    -0.352 N 
ATOM     27  C   UNL A   1      34.893  30.867  28.756  1.00  0.00     0.251 C 
ATOM     28  H   UNL A   1      33.012  30.871  28.071  1.00  0.00     0.163 HD
ATOM     29  O   UNL A   1      34.742  31.904  29.399  1.00  0.00    -0.269 OA
BRANCH  27  30
ATOM     30  C   UNL A   1      36.190  30.159  28.794  1.00  0.00     0.039 A 
ATOM     31  C   UNL A   1      36.962  30.107  27.630  1.00  0.00     0.014 A 
ATOM     32  C   UNL A   1      36.674  29.606  29.981  1.00  0.00     0.014 A 
ATOM     33  C   UNL A   1      38.269  29.619  27.688  1.00  0.00     0.010 A 
ATOM     34  C   UNL A   1      38.004  29.198  30.056  1.00  0.00     0.010 A 
ATOM     35  C   UNL A   1      38.824  29.227  28.918  1.00  0.00    -0.014 A 
BRANCH  35  36
ATOM     36  C   UNL A   1      40.270  28.912  29.054  1.00  0.00     0.031 A 
ATOM     37  C   UNL A   1      41.246  29.977  29.469  1.00  0.00     0.074 A 
ATOM     38  C   UNL A   1      40.718  27.689  28.700  1.00  0.00     0.049 A 
ATOM     39  N   UNL A   1      42.552  29.920  29.527  1.00  0.00    -0.248 NA
ATOM     40  C   UNL A   1      40.684  31.286  29.841  1.00  0.00     0.031 C 
ATOM     41  C   UNL A   1      39.882  26.580  28.233  1.00  0.00     0.029 A 
ATOM     42  N   UNL A   1      41.992  27.178  28.661  1.00  0.00    -0.354 N 
ATOM     43  C   UNL A   1      42.969  31.186  29.918  1.00  0.00     0.074 A 
ATOM     44  C   UNL A   1      41.780  32.002  30.045  1.00  0.00     0.031 C 
ATOM     45  C   UNL A   1      40.660  25.517  27.976  1.00  0.00     0.029 A 
ATOM     46  C   UNL A   1      42.053  25.879  28.213  1.00  0.00     0.049 A 
ATOM     47  H   UNL A   1      42.787  27.694  28.928  1.00  0.00     0.167 HD
ATOM     48  C   UNL A   1      44.227  31.627  30.163  1.00  0.00     0.031 A 
ATOM     49  C   UNL A   1      43.111  25.071  27.998  1.00  0.00     0.031 A 
ATOM     50  C   UNL A   1      45.406  30.811  30.052  1.00  0.00     0.049 A 
ATOM     51  C   UNL A   1      44.497  25.586  28.269  1.00  0.00     0.074 A 
ATOM     52  C   UNL A   1      46.716  31.150  30.346  1.00  0.00     0.029 A 
ATOM     53  N   UNL A   1      45.422  29.498  29.609  1.00  0.00    -0.354 N 
ATOM     54  N   UNL A   1      44.864  26.768  28.702  1.00  0.00    -0.248 NA
ATOM     55  C   UNL A   1      45.611  24.659  28.022  1.00  0.00     0.031 C 
ATOM     56  C   UNL A   1      47.529  30.055  30.038  1.00  0.00     0.029 A 
ATOM     57  C   UNL A   1      46.721  29.019  29.597  1.00  0.00     0.049 A 
ATOM     58  H   UNL A   1      44.627  28.982  29.343  1.00  0.00     0.167 HD
ATOM     59  C   UNL A   1      46.250  26.721  28.798  1.00  0.00     0.074 A 
ATOM     60  C   UNL A   1      46.654  25.390  28.392  1.00  0.00     0.031 C 
ATOM     61  C   UNL A   1      47.109  27.694  29.186  1.00  0.00     0.031 A 
BRANCH  48  62
ATOM     62  C   UNL A   1      44.388  33.065  30.576  1.00  0.00    -0.014 A 
ATOM     63  C   UNL A   1      44.656  34.066  29.624  1.00  0.00     0.010 A 
ATOM     64  C   UNL A   1      44.236  33.428  31.926  1.00  0.00     0.010 A 
ATOM     65  C   UNL A   1      44.815  35.395  30.021  1.00  0.00     0.020 A 
ATOM     66  C   UNL A   1      44.368  34.761  32.324  1.00  0.00     0.020 A 
ATOM     67  C   UNL A   1      44.675  35.734  31.371  1.00  0.00     0.054 A 
BRANCH  67  68
ATOM     68  S   UNL A   1      44.871  37.470  31.856  1.00  0.00     0.124 S 
ATOM     69  O   UNL A   1      43.762  38.106  31.151  1.00  0.00    -0.237 OA
ATOM     70  O   UNL A   1      44.741  37.415  33.311  1.00  0.00    -0.237 OA
ATOM     71  O   UNL A   1      46.203  37.819  31.367  1.00  0.00    -0.744 OA
ENDBRANCH  67  68
ENDBRANCH  48  62
BRANCH  49  72
ATOM     72  C   UNL A   1      42.896  23.684  27.503  1.00  0.00    -0.014 A 
ATOM     73  C   UNL A   1      43.008  23.395  26.132  1.00  0.00     0.010 A 
ATOM     74  C   UNL A   1      42.600  22.643  28.401  1.00  0.00     0.010 A 
ATOM     75  C   UNL A   1      42.814  22.091  25.666  1.00  0.00     0.020 A 
ATOM     76  C   UNL A   1      42.430  21.333  27.942  1.00  0.00     0.020 A 
ATOM     77  C   UNL A   1      42.529  21.067  26.574  1.00  0.00     0.054 A 
BRANCH  77  78
ATOM     78  S   UNL A   1      42.343  19.372  25.955  1.00  0.00     0.124 S 
ATOM     79  O   UNL A   1      42.936  18.587  27.033  1.00  0.00    -0.237 OA
ATOM     80  O   UNL A   1      40.896  19.248  25.802  1.00  0.00    -0.237 OA
ATOM     81  O   UNL A   1      43.094  19.384  24.701  1.00  0.00    -0.744 OA
ENDBRANCH  77  78
ENDBRANCH  49  72
BRANCH  61  82
ATOM     82  C   UNL A   1      48.575  27.356  29.211  1.00  0.00    -0.014 A 
ATOM     83  C   UNL A   1      49.426  27.756  28.167  1.00  0.00     0.010 A 
ATOM     84  C   UNL A   1      49.117  26.690  30.326  1.00  0.00     0.010 A 
ATOM     85  C   UNL A   1      50.795  27.481  28.230  1.00  0.00     0.020 A 
ATOM     86  C   UNL A   1      50.488  26.434  30.402  1.00  0.00     0.020 A 
ATOM     87  C   UNL A   1      51.318  26.824  29.349  1.00  0.00     0.054 A 
BRANCH  87  88
ATOM     88  S   UNL A   1      53.107  26.535  29.436  1.00  0.00     0.124 S 
ATOM     89  O   UNL A   1      53.232  25.779  30.679  1.00  0.00    -0.237 OA
ATOM     90  O   UNL A   1      53.372  25.783  28.212  1.00  0.00    -0.237 OA
ATOM     91  O   UNL A   1      53.673  27.882  29.466  1.00  0.00    -0.744 OA
ENDBRANCH  87  88
ENDBRANCH  61  82
ENDBRANCH  35  36
ENDBRANCH  27  30
ENDBRANCH  25  26
ENDBRANCH   1  25
TORSDOF 16
ENDMDL
MODEL 3
REMARK VINA RESULT:     -11.1      1.302      2.298
REMARK SMILES C[C@H]1OCC[C@@H]1C(=O)Nc1ccc(Cl)c(C(=O)NCCCCNC(=O)c2ccc(-c3c4nc(c(-c5ccc(S(=O)(=O)[O-])cc5)c5ccc([nH]5)c(-c5ccc(S(=O)(=O)[O-])cc5)c5nc(c(-c6ccc(S(=O)(=O)[O-])cc6)c6ccc3[nH]6)C=C5)C=C4)cc2)c1
REMARK SMILES IDX 21 1 20 2 19 3 18 4 16 5 17 6 15 8 10 9 11 10 86 11 12 12
REMARK SMILES IDX 13 13 14 14 9 15 7 16 8 17 6 19 1 20 2 21 3 22 4 23 5 24
REMARK SMILES IDX 22 25 23 26 24 27 25 29 26 30 27 31 85 32 28 33 84 34 29 35
REMARK SMILES IDX 30 36 31 37 78 38 32 39 83 40 77 41 79 42 33 43 82 44 76 45
REMARK SMILES IDX 75 46 34 48 64 49 45 50 63 51 46 52 49 53 62 54 80 55 47 56
REMARK SMILES IDX 48 57 61 59 81 60 50 61 35 62 36 63 44 64 37 65 43 66 38 67
REMARK SMILES IDX 39 68 40 69 41 70 42 71 65 72 66 73 74 74 67 75 73 76 68 77
REMARK SMILES IDX 69 78 70 79 71 80 72 81 51 82 52 83 60 84 53 85 59 86 54 87
REMARK SMILES IDX 55 88 56 89 57 90 58 91
REMARK H PARENT 18 7 9 18 23 28 79 47 49 58
REMARK Flexibility Score: inf
ROOT
ATOM      1  C   UNL A   1      32.711  28.078  27.155  1.00  0.00     0.023 C 
ENDROOT
BRANCH   1   2
ATOM      2  C   UNL A   1      31.852  27.187  26.267  1.00  0.00     0.023 C 
BRANCH   2   3
ATOM      3  C   UNL A   1      32.109  25.693  26.359  1.00  0.00     0.116 C 
BRANCH   3   4
ATOM      4  N   UNL A   1      30.996  24.873  26.804  1.00  0.00    -0.352 N 
ATOM      5  C   UNL A   1      30.652  23.588  26.430  1.00  0.00     0.252 C 
ATOM      6  O   UNL A   1      29.707  23.032  26.985  1.00  0.00    -0.269 OA
ATOM      7  H   UNL A   1      30.400  25.293  27.466  1.00  0.00     0.163 HD
BRANCH   5   8
ATOM      8  C   UNL A   1      31.309  22.913  25.283  1.00  0.00     0.060 A 
ATOM      9  C   UNL A   1      32.832  21.181  24.553  1.00  0.00     0.042 A 
ATOM     10  C   UNL A   1      32.318  21.284  23.269  1.00  0.00     0.028 A 
ATOM     11  C   UNL A   1      32.221  21.884  25.589  1.00  0.00     0.041 A 
ATOM     12  C   UNL A   1      31.481  22.343  22.948  1.00  0.00     0.023 A 
ATOM     13  C   UNL A   1      31.105  23.243  23.941  1.00  0.00     0.053 A 
ATOM     14  Cl  UNL A   1      30.579  24.798  23.401  1.00  0.00    -0.083 Cl
BRANCH   9  15
ATOM     15  N   UNL A   1      33.974  20.417  24.802  1.00  0.00    -0.326 N 
ATOM     16  C   UNL A   1      35.255  20.847  25.038  1.00  0.00     0.230 C 
ATOM     17  O   UNL A   1      36.144  19.985  25.049  1.00  0.00    -0.274 OA
ATOM     18  H   UNL A   1      33.842  19.442  24.809  1.00  0.00     0.169 HD
BRANCH  16  19
ATOM     19  C   UNL A   1      35.638  22.300  25.390  1.00  0.00     0.110 C 
ATOM     20  C   UNL A   1      34.853  24.513  24.410  1.00  0.00     0.039 C 
ATOM     21  C   UNL A   1      35.700  23.259  24.204  1.00  0.00     0.127 C 
ATOM     22  O   UNL A   1      37.067  23.676  24.084  1.00  0.00    -0.378 OA
ATOM     23  C   UNL A   1      37.685  23.572  25.367  1.00  0.00     0.161 C 
ATOM     24  C   UNL A   1      36.933  22.511  26.149  1.00  0.00     0.044 C 
ENDBRANCH  16  19
ENDBRANCH   9  15
ENDBRANCH   5   8
ENDBRANCH   3   4
ENDBRANCH   2   3
ENDBRANCH   1   2
BRANCH   1  25
ATOM     25  C   UNL A   1      33.525  29.166  26.459  1.00  0.00     0.116 C 
BRANCH  25  26
ATOM     26  N   UNL A   1      33.568  30.437  27.172  1.00  0.00    -0.352 N 
ATOM     27  C   UNL A   1      34.547  30.968  27.982  1.00  0.00     0.251 C 
ATOM     28  H   UNL A   1      32.771  31.005  27.057  1.00  0.00     0.163 HD
ATOM     29  O   UNL A   1      34.364  32.049  28.537  1.00  0.00    -0.269 OA
BRANCH  27  30
ATOM     30  C   UNL A   1      35.792  30.212  28.231  1.00  0.00     0.039 A 
ATOM     31  C   UNL A   1      36.749  30.140  27.214  1.00  0.00     0.014 A 
ATOM     32  C   UNL A   1      36.046  29.633  29.476  1.00  0.00     0.014 A 
ATOM     33  C   UNL A   1      38.009  29.603  27.488  1.00  0.00     0.010 A 
ATOM     34  C   UNL A   1      37.328  29.176  29.771  1.00  0.00     0.010 A 
ATOM     35  C   UNL A   1      38.331  29.182  28.789  1.00  0.00    -0.014 A 
BRANCH  35  36
ATOM     36  C   UNL A   1      39.720  28.812  29.166  1.00  0.00     0.031 A 
ATOM     37  C   UNL A   1      40.633  29.825  29.801  1.00  0.00     0.074 A 
ATOM     38  C   UNL A   1      40.194  27.592  28.837  1.00  0.00     0.049 A 
ATOM     39  N   UNL A   1      41.905  29.720  30.089  1.00  0.00    -0.248 NA
ATOM     40  C   UNL A   1      40.046  31.133  30.132  1.00  0.00     0.031 C 
ATOM     41  C   UNL A   1      39.428  26.533  28.173  1.00  0.00     0.029 A 
ATOM     42  N   UNL A   1      41.441  27.041  29.000  1.00  0.00    -0.354 N 
ATOM     43  C   UNL A   1      42.276  30.952  30.611  1.00  0.00     0.074 A 
ATOM     44  C   UNL A   1      41.105  31.802  30.564  1.00  0.00     0.031 C 
ATOM     45  C   UNL A   1      40.212  25.457  28.006  1.00  0.00     0.029 A 
ATOM     46  C   UNL A   1      41.549  25.761  28.506  1.00  0.00     0.049 A 
ATOM     47  H   UNL A   1      42.188  27.516  29.431  1.00  0.00     0.167 HD
ATOM     48  C   UNL A   1      43.480  31.339  31.099  1.00  0.00     0.031 A 
ATOM     49  C   UNL A   1      42.607  24.928  28.444  1.00  0.00     0.031 A 
ATOM     50  C   UNL A   1      44.639  30.490  31.160  1.00  0.00     0.049 A 
ATOM     51  C   UNL A   1      43.934  25.383  28.983  1.00  0.00     0.074 A 
ATOM     52  C   UNL A   1      45.882  30.771  31.700  1.00  0.00     0.029 A 
ATOM     53  N   UNL A   1      44.701  29.198  30.661  1.00  0.00    -0.354 N 
ATOM     54  N   UNL A   1      44.247  26.531  29.533  1.00  0.00    -0.248 NA
ATOM     55  C   UNL A   1      45.050  24.431  28.894  1.00  0.00     0.031 C 
ATOM     56  C   UNL A   1      46.710  29.664  31.487  1.00  0.00     0.029 A 
ATOM     57  C   UNL A   1      45.969  28.677  30.858  1.00  0.00     0.049 A 
ATOM     58  H   UNL A   1      43.955  28.721  30.232  1.00  0.00     0.167 HD
ATOM     59  C   UNL A   1      45.592  26.433  29.873  1.00  0.00     0.074 A 
ATOM     60  C   UNL A   1      46.028  25.109  29.480  1.00  0.00     0.031 C 
ATOM     61  C   UNL A   1      46.391  27.358  30.457  1.00  0.00     0.031 A 
BRANCH  48  62
ATOM     62  C   UNL A   1      43.601  32.752  31.605  1.00  0.00    -0.014 A 
ATOM     63  C   UNL A   1      43.957  33.802  30.741  1.00  0.00     0.010 A 
ATOM     64  C   UNL A   1      43.321  33.038  32.953  1.00  0.00     0.010 A 
ATOM     65  C   UNL A   1      44.077  35.107  31.225  1.00  0.00     0.020 A 
ATOM     66  C   UNL A   1      43.414  34.347  33.436  1.00  0.00     0.020 A 
ATOM     67  C   UNL A   1      43.809  35.370  32.572  1.00  0.00     0.054 A 
BRANCH  67  68
ATOM     68  S   UNL A   1      43.958  37.076  33.171  1.00  0.00     0.124 S 
ATOM     69  O   UNL A   1      43.935  37.834  31.924  1.00  0.00    -0.237 OA
ATOM     70  O   UNL A   1      42.776  37.224  34.018  1.00  0.00    -0.237 OA
ATOM     71  O   UNL A   1      45.234  37.084  33.883  1.00  0.00    -0.744 OA
ENDBRANCH  67  68
ENDBRANCH  48  62
BRANCH  49  72
ATOM     72  C   UNL A   1      42.450  23.573  27.849  1.00  0.00    -0.014 A 
ATOM     73  C   UNL A   1      42.853  23.328  26.525  1.00  0.00     0.010 A 
ATOM     74  C   UNL A   1      41.917  22.517  28.610  1.00  0.00     0.010 A 
ATOM     75  C   UNL A   1      42.714  22.053  25.968  1.00  0.00     0.020 A 
ATOM     76  C   UNL A   1      41.798  21.235  28.064  1.00  0.00     0.020 A 
ATOM     77  C   UNL A   1      42.190  21.014  26.742  1.00  0.00     0.054 A 
BRANCH  77  78
ATOM     78  S   UNL A   1      42.076  19.353  26.019  1.00  0.00     0.124 S 
ATOM     79  O   UNL A   1      42.913  19.481  24.831  1.00  0.00    -0.237 OA
ATOM     80  O   UNL A   1      42.609  18.507  27.083  1.00  0.00    -0.237 OA
ATOM     81  O   UNL A   1      40.645  19.191  25.765  1.00  0.00    -0.744 OA
ENDBRANCH  77  78
ENDBRANCH  49  72
BRANCH  61  82
ATOM     82  C   UNL A   1      47.819  26.970  30.726  1.00  0.00    -0.014 A 
ATOM     83  C   UNL A   1      48.764  26.925  29.687  1.00  0.00     0.010 A 
ATOM     84  C   UNL A   1      48.234  26.716  32.047  1.00  0.00     0.010 A 
ATOM     85  C   UNL A   1      50.098  26.615  29.962  1.00  0.00     0.020 A 
ATOM     86  C   UNL A   1      49.572  26.428  32.327  1.00  0.00     0.020 A 
ATOM     87  C   UNL A   1      50.495  26.370  31.280  1.00  0.00     0.054 A 
BRANCH  87  88
ATOM     88  S   UNL A   1      52.245  26.033  31.619  1.00  0.00     0.124 S 
ATOM     89  O   UNL A   1      52.206  24.642  32.060  1.00  0.00    -0.237 OA
ATOM     90  O   UNL A   1      52.874  26.264  30.320  1.00  0.00    -0.237 OA
ATOM     91  O   UNL A   1      52.591  27.006  32.652  1.00  0.00    -0.744 OA
ENDBRANCH  87  88
ENDBRANCH  61  82
ENDBRANCH  35  36
ENDBRANCH  27  30
ENDBRANCH  25  26
ENDBRANCH   1  25
TORSDOF 16
ENDMDL
