MODEL 1
REMARK VINA RESULT:      -9.6      0.000      0.000
REMARK SMILES O=C(C[C@@H]1[NH2+]CCc2c(Br)cccc21)NCCCCNC(=O)c1ccc(-c2c3nc(c(-c4ccc(S(=O)(=O)[O-])cc4)c4ccc([nH]4)c(-c4ccc(S(=O)(=O)[O-])cc4)c4nc(c(-c5ccc(S(=O)(=O)[O-])cc5)c5ccc2[nH]5)C=C4)C=C3)cc1
REMARK SMILES IDX 18 1 17 2 16 3 15 4 1 5 2 6 3 8 4 9 5 10 14 11 6 12 8 15
REMARK SMILES IDX 13 16 7 17 9 18 12 19 10 20 11 21 19 22 20 23 21 24 22 26
REMARK SMILES IDX 23 27 24 28 82 29 25 30 81 31 26 32 27 33 28 34 75 35 29 36
REMARK SMILES IDX 80 37 74 38 76 39 30 40 79 41 73 42 72 43 31 45 61 46 42 47
REMARK SMILES IDX 60 48 43 49 46 50 59 51 77 52 44 53 45 54 58 56 78 57 47 58
REMARK SMILES IDX 32 59 33 60 41 61 34 62 40 63 35 64 36 65 37 66 38 67 39 68
REMARK SMILES IDX 62 69 63 70 71 71 64 72 70 73 65 74 66 75 67 76 68 77 69 78
REMARK SMILES IDX 48 79 49 80 57 81 50 82 56 83 51 84 52 85 53 86 54 87 55 88
REMARK H PARENT 15 7 5 13 5 14 20 25 76 44 46 55
REMARK Flexibility Score: inf
ROOT
ATOM      1  C   UNL A   1      33.167  33.940  28.037  1.00  0.00     0.023 C 
ENDROOT
BRANCH   1   2
ATOM      2  C   UNL A   1      33.654  35.172  28.813  1.00  0.00     0.023 C 
BRANCH   2   3
ATOM      3  C   UNL A   1      33.595  35.067  30.336  1.00  0.00     0.116 C 
BRANCH   3   4
ATOM      4  N   UNL A   1      34.887  34.828  30.948  1.00  0.00    -0.356 N 
ATOM      5  O   UNL A   1      34.409  32.681  31.606  1.00  0.00    -0.275 OA
ATOM      6  C   UNL A   1      35.219  33.592  31.468  1.00  0.00     0.226 C 
ATOM      7  H   UNL A   1      35.541  35.563  30.995  1.00  0.00     0.163 HD
BRANCH   6   8
ATOM      8  C   UNL A   1      36.680  33.453  31.840  1.00  0.00     0.170 C 
BRANCH   8   9
ATOM      9  C   UNL A   1      36.941  32.882  33.254  1.00  0.00     0.223 C 
ATOM     10  N   UNL A   1      37.434  33.859  34.238  1.00  0.00    -0.339 N 
ATOM     11  C   UNL A   1      37.704  31.565  33.267  1.00  0.00     0.014 A 
ATOM     12  C   UNL A   1      38.887  33.965  34.263  1.00  0.00     0.265 C 
ATOM     13  H   UNL A   1      37.114  33.576  35.164  1.00  0.00     0.346 HD
ATOM     14  H   UNL A   1      37.069  34.772  33.969  1.00  0.00     0.346 HD
ATOM     15  C   UNL A   1      38.991  31.456  33.839  1.00  0.00    -0.019 A 
ATOM     16  C   UNL A   1      37.097  30.418  32.722  1.00  0.00     0.010 A 
ATOM     17  C   UNL A   1      39.587  32.642  34.558  1.00  0.00     0.098 C 
ATOM     18  C   UNL A   1      39.645  30.210  33.818  1.00  0.00     0.021 A 
ATOM     19  C   UNL A   1      37.751  29.188  32.724  1.00  0.00     0.002 A 
ATOM     20  Br  UNL A   1      41.382  29.961  34.556  1.00  0.00    -0.051 Br
ATOM     21  C   UNL A   1      39.029  29.087  33.261  1.00  0.00     0.016 A 
ENDBRANCH   8   9
ENDBRANCH   6   8
ENDBRANCH   3   4
ENDBRANCH   2   3
ENDBRANCH   1   2
BRANCH   1  22
ATOM     22  C   UNL A   1      34.121  32.748  28.031  1.00  0.00     0.116 C 
BRANCH  22  23
ATOM     23  N   UNL A   1      33.448  31.501  27.710  1.00  0.00    -0.352 N 
ATOM     24  C   UNL A   1      33.968  30.235  27.569  1.00  0.00     0.251 C 
ATOM     25  H   UNL A   1      32.475  31.572  27.573  1.00  0.00     0.163 HD
ATOM     26  O   UNL A   1      33.269  29.335  27.117  1.00  0.00    -0.269 OA
BRANCH  24  27
ATOM     27  C   UNL A   1      35.375  29.961  27.938  1.00  0.00     0.039 A 
ATOM     28  C   UNL A   1      35.669  29.603  29.257  1.00  0.00     0.014 A 
ATOM     29  C   UNL A   1      36.404  30.085  26.999  1.00  0.00     0.014 A 
ATOM     30  C   UNL A   1      36.986  29.306  29.619  1.00  0.00     0.010 A 
ATOM     31  C   UNL A   1      37.709  29.739  27.349  1.00  0.00     0.010 A 
ATOM     32  C   UNL A   1      38.013  29.348  28.662  1.00  0.00    -0.014 A 
BRANCH  32  33
ATOM     33  C   UNL A   1      39.411  29.008  29.028  1.00  0.00     0.031 A 
ATOM     34  C   UNL A   1      40.272  30.021  29.732  1.00  0.00     0.074 A 
ATOM     35  C   UNL A   1      39.918  27.803  28.704  1.00  0.00     0.049 A 
ATOM     36  N   UNL A   1      41.521  29.919  30.104  1.00  0.00    -0.248 NA
ATOM     37  C   UNL A   1      39.652  31.318  30.052  1.00  0.00     0.031 C 
ATOM     38  C   UNL A   1      39.190  26.737  28.011  1.00  0.00     0.029 A 
ATOM     39  N   UNL A   1      41.166  27.270  28.913  1.00  0.00    -0.354 N 
ATOM     40  C   UNL A   1      41.837  31.133  30.702  1.00  0.00     0.074 A 
ATOM     41  C   UNL A   1      40.663  31.973  30.603  1.00  0.00     0.031 C 
ATOM     42  C   UNL A   1      39.998  25.673  27.873  1.00  0.00     0.029 A 
ATOM     43  C   UNL A   1      41.309  25.988  28.436  1.00  0.00     0.049 A 
ATOM     44  H   UNL A   1      41.892  27.760  29.365  1.00  0.00     0.167 HD
ATOM     45  C   UNL A   1      42.992  31.506  31.299  1.00  0.00     0.031 A 
ATOM     46  C   UNL A   1      42.372  25.160  28.445  1.00  0.00     0.031 A 
ATOM     47  C   UNL A   1      44.158  30.670  31.404  1.00  0.00     0.049 A 
ATOM     48  C   UNL A   1      43.660  25.613  29.075  1.00  0.00     0.074 A 
ATOM     49  C   UNL A   1      45.362  30.957  32.021  1.00  0.00     0.029 A 
ATOM     50  N   UNL A   1      44.267  29.392  30.883  1.00  0.00    -0.354 N 
ATOM     51  N   UNL A   1      43.928  26.755  29.660  1.00  0.00    -0.248 NA
ATOM     52  C   UNL A   1      44.786  24.668  29.052  1.00  0.00     0.031 C 
ATOM     53  C   UNL A   1      46.218  29.869  31.832  1.00  0.00     0.029 A 
ATOM     54  C   UNL A   1      45.526  28.884  31.145  1.00  0.00     0.049 A 
ATOM     55  H   UNL A   1      43.553  28.916  30.398  1.00  0.00     0.167 HD
ATOM     56  C   UNL A   1      45.246  26.659  30.092  1.00  0.00     0.074 A 
ATOM     57  C   UNL A   1      45.721  25.346  29.707  1.00  0.00     0.031 C 
ATOM     58  C   UNL A   1      45.990  27.577  30.755  1.00  0.00     0.031 A 
BRANCH  45  59
ATOM     59  C   UNL A   1      43.059  32.882  31.900  1.00  0.00    -0.014 A 
ATOM     60  C   UNL A   1      42.826  33.076  33.274  1.00  0.00     0.010 A 
ATOM     61  C   UNL A   1      43.443  33.977  31.105  1.00  0.00     0.010 A 
ATOM     62  C   UNL A   1      42.965  34.345  33.840  1.00  0.00     0.020 A 
ATOM     63  C   UNL A   1      43.604  35.244  31.674  1.00  0.00     0.020 A 
ATOM     64  C   UNL A   1      43.361  35.420  33.037  1.00  0.00     0.054 A 
BRANCH  64  65
ATOM     65  S   UNL A   1      43.571  37.044  33.814  1.00  0.00     0.124 S 
ATOM     66  O   UNL A   1      43.909  37.889  32.670  1.00  0.00    -0.237 OA
ATOM     67  O   UNL A   1      42.256  37.281  34.403  1.00  0.00    -0.237 OA
ATOM     68  O   UNL A   1      44.656  36.837  34.771  1.00  0.00    -0.744 OA
ENDBRANCH  64  65
ENDBRANCH  45  59
BRANCH  46  69
ATOM     69  C   UNL A   1      42.246  23.804  27.844  1.00  0.00    -0.014 A 
ATOM     70  C   UNL A   1      42.736  23.551  26.550  1.00  0.00     0.010 A 
ATOM     71  C   UNL A   1      41.684  22.748  28.584  1.00  0.00     0.010 A 
ATOM     72  C   UNL A   1      42.674  22.261  26.013  1.00  0.00     0.020 A 
ATOM     73  C   UNL A   1      41.640  21.455  28.057  1.00  0.00     0.020 A 
ATOM     74  C   UNL A   1      42.140  21.219  26.776  1.00  0.00     0.054 A 
BRANCH  74  75
ATOM     75  S   UNL A   1      42.141  19.543  26.079  1.00  0.00     0.124 S 
ATOM     76  O   UNL A   1      42.658  18.746  27.187  1.00  0.00    -0.237 OA
ATOM     77  O   UNL A   1      40.729  19.344  25.761  1.00  0.00    -0.237 OA
ATOM     78  O   UNL A   1      43.025  19.651  24.921  1.00  0.00    -0.744 OA
ENDBRANCH  74  75
ENDBRANCH  46  69
BRANCH  58  79
ATOM     79  C   UNL A   1      47.399  27.211  31.133  1.00  0.00    -0.014 A 
ATOM     80  C   UNL A   1      47.669  26.502  32.316  1.00  0.00     0.010 A 
ATOM     81  C   UNL A   1      48.448  27.470  30.231  1.00  0.00     0.010 A 
ATOM     82  C   UNL A   1      48.965  26.058  32.589  1.00  0.00     0.020 A 
ATOM     83  C   UNL A   1      49.740  27.009  30.491  1.00  0.00     0.020 A 
ATOM     84  C   UNL A   1      49.990  26.303  31.669  1.00  0.00     0.054 A 
BRANCH  84  85
ATOM     85  S   UNL A   1      51.646  25.654  32.024  1.00  0.00     0.124 S 
ATOM     86  O   UNL A   1      51.979  26.327  33.278  1.00  0.00    -0.237 OA
ATOM     87  O   UNL A   1      51.405  24.217  32.127  1.00  0.00    -0.237 OA
ATOM     88  O   UNL A   1      52.439  26.070  30.869  1.00  0.00    -0.744 OA
ENDBRANCH  84  85
ENDBRANCH  58  79
ENDBRANCH  32  33
ENDBRANCH  24  27
ENDBRANCH  22  23
ENDBRANCH   1  22
TORSDOF 15
ENDMDL
MODEL 2
REMARK VINA RESULT:      -9.5      3.004     10.689
REMARK SMILES O=C(C[C@@H]1[NH2+]CCc2c(Br)cccc21)NCCCCNC(=O)c1ccc(-c2c3nc(c(-c4ccc(S(=O)(=O)[O-])cc4)c4ccc([nH]4)c(-c4ccc(S(=O)(=O)[O-])cc4)c4nc(c(-c5ccc(S(=O)(=O)[O-])cc5)c5ccc2[nH]5)C=C4)C=C3)cc1
REMARK SMILES IDX 18 1 17 2 16 3 15 4 1 5 2 6 3 8 4 9 5 10 14 11 6 12 8 15
REMARK SMILES IDX 13 16 7 17 9 18 12 19 10 20 11 21 19 22 20 23 21 24 22 26
REMARK SMILES IDX 23 27 24 28 82 29 25 30 81 31 26 32 27 33 28 34 75 35 29 36
REMARK SMILES IDX 80 37 74 38 76 39 30 40 79 41 73 42 72 43 31 45 61 46 42 47
REMARK SMILES IDX 60 48 43 49 46 50 59 51 77 52 44 53 45 54 58 56 78 57 47 58
REMARK SMILES IDX 32 59 33 60 41 61 34 62 40 63 35 64 36 65 37 66 38 67 39 68
REMARK SMILES IDX 62 69 63 70 71 71 64 72 70 73 65 74 66 75 67 76 68 77 69 78
REMARK SMILES IDX 48 79 49 80 57 81 50 82 56 83 51 84 52 85 53 86 54 87 55 88
REMARK H PARENT 15 7 5 13 5 14 20 25 76 44 46 55
REMARK Flexibility Score: inf
ROOT
ATOM      1  C   UNL A   1      44.641  19.082  24.610  1.00  0.00     0.023 C 
ENDROOT
BRANCH   1   2
ATOM      2  C   UNL A   1      45.078  20.495  24.199  1.00  0.00     0.023 C 
BRANCH   2   3
ATOM      3  C   UNL A   1      46.166  21.133  25.061  1.00  0.00     0.116 C 
BRANCH   3   4
ATOM      4  N   UNL A   1      45.744  22.362  25.705  1.00  0.00    -0.356 N 
ATOM      5  O   UNL A   1      46.273  23.717  23.928  1.00  0.00    -0.275 OA
ATOM      6  C   UNL A   1      45.756  23.568  25.030  1.00  0.00     0.226 C 
ATOM      7  H   UNL A   1      45.444  22.337  26.642  1.00  0.00     0.163 HD
BRANCH   6   8
ATOM      8  C   UNL A   1      45.056  24.692  25.766  1.00  0.00     0.170 C 
BRANCH   8   9
ATOM      9  C   UNL A   1      45.329  26.107  25.204  1.00  0.00     0.223 C 
ATOM     10  N   UNL A   1      46.723  26.564  25.318  1.00  0.00    -0.339 N 
ATOM     11  C   UNL A   1      44.307  27.155  25.622  1.00  0.00     0.014 A 
ATOM     12  C   UNL A   1      46.999  27.258  26.569  1.00  0.00     0.265 C 
ATOM     13  H   UNL A   1      46.920  27.199  24.545  1.00  0.00     0.346 HD
ATOM     14  H   UNL A   1      47.317  25.735  25.294  1.00  0.00     0.346 HD
ATOM     15  C   UNL A   1      44.662  28.259  26.429  1.00  0.00    -0.019 A 
ATOM     16  C   UNL A   1      42.981  27.036  25.168  1.00  0.00     0.010 A 
ATOM     17  C   UNL A   1      46.110  28.477  26.796  1.00  0.00     0.098 C 
ATOM     18  C   UNL A   1      43.670  29.193  26.783  1.00  0.00     0.021 A 
ATOM     19  C   UNL A   1      42.015  27.978  25.514  1.00  0.00     0.002 A 
ATOM     20  Br  UNL A   1      44.045  30.710  27.869  1.00  0.00    -0.051 Br
ATOM     21  C   UNL A   1      42.357  29.050  26.330  1.00  0.00     0.016 A 
ENDBRANCH   8   9
ENDBRANCH   6   8
ENDBRANCH   3   4
ENDBRANCH   2   3
ENDBRANCH   1   2
BRANCH   1  22
ATOM     22  C   UNL A   1      43.787  19.000  25.872  1.00  0.00     0.116 C 
BRANCH  22  23
ATOM     23  N   UNL A   1      42.371  18.856  25.575  1.00  0.00    -0.352 N 
ATOM     24  C   UNL A   1      41.312  19.652  25.949  1.00  0.00     0.251 C 
ATOM     25  H   UNL A   1      42.135  18.074  25.026  1.00  0.00     0.163 HD
ATOM     26  O   UNL A   1      40.163  19.269  25.753  1.00  0.00    -0.269 OA
BRANCH  24  27
ATOM     27  C   UNL A   1      41.553  20.956  26.606  1.00  0.00     0.039 A 
ATOM     28  C   UNL A   1      41.978  22.036  25.827  1.00  0.00     0.014 A 
ATOM     29  C   UNL A   1      41.390  21.108  27.986  1.00  0.00     0.014 A 
ATOM     30  C   UNL A   1      42.179  23.285  26.421  1.00  0.00     0.010 A 
ATOM     31  C   UNL A   1      41.540  22.366  28.569  1.00  0.00     0.010 A 
ATOM     32  C   UNL A   1      41.938  23.466  27.793  1.00  0.00    -0.014 A 
BRANCH  32  33
ATOM     33  C   UNL A   1      42.120  24.794  28.431  1.00  0.00     0.031 A 
ATOM     34  C   UNL A   1      43.405  25.116  29.143  1.00  0.00     0.074 A 
ATOM     35  C   UNL A   1      41.124  25.701  28.396  1.00  0.00     0.049 A 
ATOM     36  N   UNL A   1      43.737  26.207  29.784  1.00  0.00    -0.248 NA
ATOM     37  C   UNL A   1      44.448  24.077  29.143  1.00  0.00     0.031 C 
ATOM     38  C   UNL A   1      39.825  25.506  27.747  1.00  0.00     0.029 A 
ATOM     39  N   UNL A   1      41.046  26.967  28.920  1.00  0.00    -0.354 N 
ATOM     40  C   UNL A   1      45.022  25.988  30.260  1.00  0.00     0.074 A 
ATOM     41  C   UNL A   1      45.396  24.644  29.875  1.00  0.00     0.031 C 
ATOM     42  C   UNL A   1      39.091  26.621  27.894  1.00  0.00     0.029 A 
ATOM     43  C   UNL A   1      39.849  27.597  28.673  1.00  0.00     0.049 A 
ATOM     44  H   UNL A   1      41.780  27.387  29.425  1.00  0.00     0.167 HD
ATOM     45  C   UNL A   1      45.829  26.836  30.938  1.00  0.00     0.031 A 
ATOM     46  C   UNL A   1      39.407  28.818  29.033  1.00  0.00     0.031 A 
ATOM     47  C   UNL A   1      45.463  28.175  31.317  1.00  0.00     0.049 A 
ATOM     48  C   UNL A   1      40.304  29.728  29.825  1.00  0.00     0.074 A 
ATOM     49  C   UNL A   1      46.231  29.116  31.978  1.00  0.00     0.029 A 
ATOM     50  N   UNL A   1      44.232  28.761  31.071  1.00  0.00    -0.354 N 
ATOM     51  N   UNL A   1      41.529  29.512  30.241  1.00  0.00    -0.248 NA
ATOM     52  C   UNL A   1      39.767  31.047  30.192  1.00  0.00     0.031 C 
ATOM     53  C   UNL A   1      45.448  30.257  32.175  1.00  0.00     0.029 A 
ATOM     54  C   UNL A   1      44.212  30.044  31.586  1.00  0.00     0.049 A 
ATOM     55  H   UNL A   1      43.484  28.328  30.598  1.00  0.00     0.167 HD
ATOM     56  C   UNL A   1      41.915  30.672  30.901  1.00  0.00     0.074 A 
ATOM     57  C   UNL A   1      40.799  31.592  30.825  1.00  0.00     0.031 C 
ATOM     58  C   UNL A   1      43.094  30.950  31.508  1.00  0.00     0.031 A 
BRANCH  45  59
ATOM     59  C   UNL A   1      47.202  26.352  31.312  1.00  0.00    -0.014 A 
ATOM     60  C   UNL A   1      47.449  25.812  32.587  1.00  0.00     0.010 A 
ATOM     61  C   UNL A   1      48.232  26.354  30.354  1.00  0.00     0.010 A 
ATOM     62  C   UNL A   1      48.708  25.294  32.902  1.00  0.00     0.020 A 
ATOM     63  C   UNL A   1      49.485  25.817  30.658  1.00  0.00     0.020 A 
ATOM     64  C   UNL A   1      49.715  25.292  31.932  1.00  0.00     0.054 A 
BRANCH  64  65
ATOM     65  S   UNL A   1      51.324  24.575  32.362  1.00  0.00     0.124 S 
ATOM     66  O   UNL A   1      51.438  24.910  33.781  1.00  0.00    -0.237 OA
ATOM     67  O   UNL A   1      51.126  23.160  32.064  1.00  0.00    -0.237 OA
ATOM     68  O   UNL A   1      52.263  25.273  31.486  1.00  0.00    -0.744 OA
ENDBRANCH  64  65
ENDBRANCH  45  59
BRANCH  46  69
ATOM     69  C   UNL A   1      38.042  29.250  28.626  1.00  0.00    -0.014 A 
ATOM     70  C   UNL A   1      37.807  29.739  27.329  1.00  0.00     0.010 A 
ATOM     71  C   UNL A   1      36.961  29.121  29.518  1.00  0.00     0.010 A 
ATOM     72  C   UNL A   1      36.512  30.083  26.929  1.00  0.00     0.020 A 
ATOM     73  C   UNL A   1      35.663  29.445  29.113  1.00  0.00     0.020 A 
ATOM     74  C   UNL A   1      35.446  29.919  27.819  1.00  0.00     0.054 A 
BRANCH  74  75
ATOM     75  S   UNL A   1      33.768  30.305  27.246  1.00  0.00     0.124 S 
ATOM     76  O   UNL A   1      32.958  29.341  27.985  1.00  0.00    -0.237 OA
ATOM     77  O   UNL A   1      33.620  31.700  27.652  1.00  0.00    -0.237 OA
ATOM     78  O   UNL A   1      33.837  30.086  25.803  1.00  0.00    -0.744 OA
ENDBRANCH  74  75
ENDBRANCH  46  69
BRANCH  58  79
ATOM     79  C   UNL A   1      43.270  32.306  32.135  1.00  0.00    -0.014 A 
ATOM     80  C   UNL A   1      42.996  32.512  33.498  1.00  0.00     0.010 A 
ATOM     81  C   UNL A   1      43.836  33.350  31.380  1.00  0.00     0.010 A 
ATOM     82  C   UNL A   1      43.286  33.741  34.095  1.00  0.00     0.020 A 
ATOM     83  C   UNL A   1      44.147  34.573  31.979  1.00  0.00     0.020 A 
ATOM     84  C   UNL A   1      43.871  34.760  33.335  1.00  0.00     0.054 A 
BRANCH  84  85
ATOM     85  S   UNL A   1      44.296  36.319  34.157  1.00  0.00     0.124 S 
ATOM     86  O   UNL A   1      45.503  36.727  33.441  1.00  0.00    -0.237 OA
ATOM     87  O   UNL A   1      43.112  37.138  33.909  1.00  0.00    -0.237 OA
ATOM     88  O   UNL A   1      44.504  35.933  35.552  1.00  0.00    -0.744 OA
ENDBRANCH  84  85
ENDBRANCH  58  79
ENDBRANCH  32  33
ENDBRANCH  24  27
ENDBRANCH  22  23
ENDBRANCH   1  22
TORSDOF 15
ENDMDL
MODEL 3
REMARK VINA RESULT:      -9.4      3.403      5.735
REMARK SMILES O=C(C[C@@H]1[NH2+]CCc2c(Br)cccc21)NCCCCNC(=O)c1ccc(-c2c3nc(c(-c4ccc(S(=O)(=O)[O-])cc4)c4ccc([nH]4)c(-c4ccc(S(=O)(=O)[O-])cc4)c4nc(c(-c5ccc(S(=O)(=O)[O-])cc5)c5ccc2[nH]5)C=C4)C=C3)cc1
REMARK SMILES IDX 18 1 17 2 16 3 15 4 1 5 2 6 3 8 4 9 5 10 14 11 6 12 8 15
REMARK SMILES IDX 13 16 7 17 9 18 12 19 10 20 11 21 19 22 20 23 21 24 22 26
REMARK SMILES IDX 23 27 24 28 82 29 25 30 81 31 26 32 27 33 28 34 75 35 29 36
REMARK SMILES IDX 80 37 74 38 76 39 30 40 79 41 73 42 72 43 31 45 61 46 42 47
REMARK SMILES IDX 60 48 43 49 46 50 59 51 77 52 44 53 45 54 58 56 78 57 47 58
REMARK SMILES IDX 32 59 33 60 41 61 34 62 40 63 35 64 36 65 37 66 38 67 39 68
REMARK SMILES IDX 62 69 63 70 71 71 64 72 70 73 65 74 66 75 67 76 68 77 69 78
REMARK SMILES IDX 48 79 49 80 57 81 50 82 56 83 51 84 52 85 53 86 54 87 55 88
REMARK H PARENT 15 7 5 13 5 14 20 25 76 44 46 55
REMARK Flexibility Score: inf
ROOT
ATOM      1  C   UNL A   1      33.856  27.723  26.010  1.00  0.00     0.023 C 
ENDROOT
BRANCH   1   2
ATOM      2  C   UNL A   1      32.868  27.991  24.867  1.00  0.00     0.023 C 
BRANCH   2   3
ATOM      3  C   UNL A   1      31.431  27.531  25.105  1.00  0.00     0.116 C 
BRANCH   3   4
ATOM      4  N   UNL A   1      31.214  26.131  24.797  1.00  0.00    -0.356 N 
ATOM      5  O   UNL A   1      31.410  25.410  26.968  1.00  0.00    -0.275 OA
ATOM      6  C   UNL A   1      31.136  25.179  25.795  1.00  0.00     0.226 C 
ATOM      7  H   UNL A   1      31.122  25.853  23.857  1.00  0.00     0.163 HD
BRANCH   6   8
ATOM      8  C   UNL A   1      30.664  23.822  25.316  1.00  0.00     0.170 C 
BRANCH   8   9
ATOM      9  C   UNL A   1      31.703  22.685  25.452  1.00  0.00     0.223 C 
ATOM     10  N   UNL A   1      31.813  22.101  26.799  1.00  0.00    -0.339 N 
ATOM     11  C   UNL A   1      33.049  22.984  24.806  1.00  0.00     0.014 A 
ATOM     12  C   UNL A   1      32.788  22.781  27.642  1.00  0.00     0.265 C 
ATOM     13  H   UNL A   1      32.092  21.123  26.706  1.00  0.00     0.346 HD
ATOM     14  H   UNL A   1      30.903  22.199  27.247  1.00  0.00     0.346 HD
ATOM     15  C   UNL A   1      34.232  23.097  25.569  1.00  0.00    -0.019 A 
ATOM     16  C   UNL A   1      33.118  23.123  23.407  1.00  0.00     0.010 A 
ATOM     17  C   UNL A   1      34.193  22.802  27.049  1.00  0.00     0.098 C 
ATOM     18  C   UNL A   1      35.444  23.377  24.911  1.00  0.00     0.021 A 
ATOM     19  C   UNL A   1      34.329  23.383  22.770  1.00  0.00     0.002 A 
ATOM     20  Br  UNL A   1      37.091  23.554  25.848  1.00  0.00    -0.051 Br
ATOM     21  C   UNL A   1      35.490  23.522  23.522  1.00  0.00     0.016 A 
ENDBRANCH   8   9
ENDBRANCH   6   8
ENDBRANCH   3   4
ENDBRANCH   2   3
ENDBRANCH   1   2
BRANCH   1  22
ATOM     22  C   UNL A   1      33.463  28.303  27.366  1.00  0.00     0.116 C 
BRANCH  22  23
ATOM     23  N   UNL A   1      33.468  29.756  27.371  1.00  0.00    -0.352 N 
ATOM     24  C   UNL A   1      34.440  30.628  27.808  1.00  0.00     0.251 C 
ATOM     25  H   UNL A   1      32.657  30.180  27.009  1.00  0.00     0.163 HD
ATOM     26  O   UNL A   1      34.189  31.825  27.898  1.00  0.00    -0.269 OA
BRANCH  24  27
ATOM     27  C   UNL A   1      35.777  30.123  28.191  1.00  0.00     0.039 A 
ATOM     28  C   UNL A   1      36.792  30.105  27.230  1.00  0.00     0.014 A 
ATOM     29  C   UNL A   1      36.024  29.644  29.481  1.00  0.00     0.014 A 
ATOM     30  C   UNL A   1      38.072  29.665  27.580  1.00  0.00     0.010 A 
ATOM     31  C   UNL A   1      37.314  29.255  29.843  1.00  0.00     0.010 A 
ATOM     32  C   UNL A   1      38.349  29.259  28.895  1.00  0.00    -0.014 A 
BRANCH  32  33
ATOM     33  C   UNL A   1      39.712  28.817  29.287  1.00  0.00     0.031 A 
ATOM     34  C   UNL A   1      40.607  29.741  30.066  1.00  0.00     0.074 A 
ATOM     35  C   UNL A   1      40.157  27.599  28.920  1.00  0.00     0.049 A 
ATOM     36  N   UNL A   1      41.835  29.545  30.471  1.00  0.00    -0.248 NA
ATOM     37  C   UNL A   1      40.055  31.056  30.430  1.00  0.00     0.031 C 
ATOM     38  C   UNL A   1      39.390  26.614  28.153  1.00  0.00     0.029 A 
ATOM     39  N   UNL A   1      41.363  26.982  29.141  1.00  0.00    -0.354 N 
ATOM     40  C   UNL A   1      42.201  30.708  31.137  1.00  0.00     0.074 A 
ATOM     41  C   UNL A   1      41.084  31.622  31.044  1.00  0.00     0.031 C 
ATOM     42  C   UNL A   1      40.137  25.510  27.988  1.00  0.00     0.029 A 
ATOM     43  C   UNL A   1      41.445  25.718  28.606  1.00  0.00     0.049 A 
ATOM     44  H   UNL A   1      42.100  27.404  29.638  1.00  0.00     0.167 HD
ATOM     45  C   UNL A   1      43.356  30.981  31.787  1.00  0.00     0.031 A 
ATOM     46  C   UNL A   1      42.455  24.826  28.607  1.00  0.00     0.031 A 
ATOM     47  C   UNL A   1      44.466  30.071  31.887  1.00  0.00     0.049 A 
ATOM     48  C   UNL A   1      43.746  25.169  29.298  1.00  0.00     0.074 A 
ATOM     49  C   UNL A   1      45.663  30.254  32.554  1.00  0.00     0.029 A 
ATOM     50  N   UNL A   1      44.516  28.814  31.307  1.00  0.00    -0.354 N 
ATOM     51  N   UNL A   1      44.062  26.264  29.946  1.00  0.00    -0.248 NA
ATOM     52  C   UNL A   1      44.814  24.159  29.263  1.00  0.00     0.031 C 
ATOM     53  C   UNL A   1      46.459  29.126  32.339  1.00  0.00     0.029 A 
ATOM     54  C   UNL A   1      45.733  28.219  31.583  1.00  0.00     0.049 A 
ATOM     55  H   UNL A   1      43.792  28.406  30.778  1.00  0.00     0.167 HD
ATOM     56  C   UNL A   1      45.356  26.067  30.414  1.00  0.00     0.074 A 
ATOM     57  C   UNL A   1      45.765  24.747  29.980  1.00  0.00     0.031 C 
ATOM     58  C   UNL A   1      46.131  26.905  31.144  1.00  0.00     0.031 A 
BRANCH  45  59
ATOM     59  C   UNL A   1      43.484  32.320  32.457  1.00  0.00    -0.014 A 
ATOM     60  C   UNL A   1      43.896  33.450  31.728  1.00  0.00     0.010 A 
ATOM     61  C   UNL A   1      43.105  32.470  33.804  1.00  0.00     0.010 A 
ATOM     62  C   UNL A   1      43.940  34.706  32.339  1.00  0.00     0.020 A 
ATOM     63  C   UNL A   1      43.127  33.728  34.411  1.00  0.00     0.020 A 
ATOM     64  C   UNL A   1      43.547  34.838  33.675  1.00  0.00     0.054 A 
BRANCH  64  65
ATOM     65  S   UNL A   1      43.577  36.489  34.422  1.00  0.00     0.124 S 
ATOM     66  O   UNL A   1      44.362  37.250  33.452  1.00  0.00    -0.237 OA
ATOM     67  O   UNL A   1      42.159  36.829  34.489  1.00  0.00    -0.237 OA
ATOM     68  O   UNL A   1      44.230  36.276  35.713  1.00  0.00    -0.744 OA
ENDBRANCH  64  65
ENDBRANCH  45  59
BRANCH  46  69
ATOM     69  C   UNL A   1      42.269  23.511  27.936  1.00  0.00    -0.014 A 
ATOM     70  C   UNL A   1      42.694  23.322  26.610  1.00  0.00     0.010 A 
ATOM     71  C   UNL A   1      41.715  22.426  28.641  1.00  0.00     0.010 A 
ATOM     72  C   UNL A   1      42.576  22.067  26.003  1.00  0.00     0.020 A 
ATOM     73  C   UNL A   1      41.615  21.167  28.044  1.00  0.00     0.020 A 
ATOM     74  C   UNL A   1      42.052  20.994  26.730  1.00  0.00     0.054 A 
BRANCH  74  75
ATOM     75  S   UNL A   1      41.979  19.362  25.940  1.00  0.00     0.124 S 
ATOM     76  O   UNL A   1      40.556  19.221  25.648  1.00  0.00    -0.237 OA
ATOM     77  O   UNL A   1      42.848  19.545  24.780  1.00  0.00    -0.237 OA
ATOM     78  O   UNL A   1      42.500  18.460  26.964  1.00  0.00    -0.744 OA
ENDBRANCH  74  75
ENDBRANCH  46  69
BRANCH  58  79
ATOM     79  C   UNL A   1      47.502  26.437  31.547  1.00  0.00    -0.014 A 
ATOM     80  C   UNL A   1      47.695  25.696  32.726  1.00  0.00     0.010 A 
ATOM     81  C   UNL A   1      48.586  26.632  30.671  1.00  0.00     0.010 A 
ATOM     82  C   UNL A   1      48.950  25.158  33.020  1.00  0.00     0.020 A 
ATOM     83  C   UNL A   1      49.837  26.077  30.952  1.00  0.00     0.020 A 
ATOM     84  C   UNL A   1      50.010  25.342  32.126  1.00  0.00     0.054 A 
BRANCH  84  85
ATOM     85  S   UNL A   1      51.608  24.573  32.507  1.00  0.00     0.124 S 
ATOM     86  O   UNL A   1      52.501  25.230  31.555  1.00  0.00    -0.237 OA
ATOM     87  O   UNL A   1      51.806  24.939  33.907  1.00  0.00    -0.237 OA
ATOM     88  O   UNL A   1      51.379  23.151  32.262  1.00  0.00    -0.744 OA
ENDBRANCH  84  85
ENDBRANCH  58  79
ENDBRANCH  32  33
ENDBRANCH  24  27
ENDBRANCH  22  23
ENDBRANCH   1  22
TORSDOF 15
ENDMDL
