MODEL 1
REMARK VINA RESULT:     -11.7      0.000      0.000
REMARK SMILES CC(C)Cc1cc2c(cc1Cl)C=C(C(=O)NCCCCNC(=O)c1ccc(-c3c4nc(c(-c5ccc(S(=O)(=O)[O-])cc5)c5ccc([nH]5)c(-c5ccc(S(=O)(=O)[O-])cc5)c5nc(c(-c6ccc(S(=O)(=O)[O-])cc6)c6ccc3[nH]6)C=C5)C=C4)cc1)[C@H](C(F)(F)F)O2
REMARK SMILES IDX 19 1 18 2 17 3 16 4 14 5 15 6 13 8 5 9 6 10 10 11 7 12 9 13
REMARK SMILES IDX 11 14 8 15 89 16 12 17 84 18 4 19 2 20 1 21 3 22 85 23 86 24
REMARK SMILES IDX 87 25 88 26 20 27 21 28 22 29 23 31 24 32 25 33 83 34 26 35
REMARK SMILES IDX 82 36 27 37 28 38 29 39 76 40 30 41 81 42 75 43 77 44 31 45
REMARK SMILES IDX 80 46 74 47 73 48 32 50 62 51 43 52 61 53 44 54 47 55 60 56
REMARK SMILES IDX 78 57 45 58 46 59 59 61 79 62 48 63 33 64 34 65 42 66 35 67
REMARK SMILES IDX 41 68 36 69 37 70 38 71 39 72 40 73 63 74 64 75 72 76 65 77
REMARK SMILES IDX 71 78 66 79 67 80 68 81 69 82 70 83 49 84 50 85 58 86 51 87
REMARK SMILES IDX 57 88 52 89 53 90 54 91 55 92 56 93
REMARK H PARENT 16 7 21 30 77 49 47 60
REMARK Flexibility Score: inf
ROOT
ATOM      1  C   UNL A   1      31.924  28.396  27.029  1.00  0.00     0.023 C 
ENDROOT
BRANCH   1   2
ATOM      2  C   UNL A   1      31.655  28.460  25.526  1.00  0.00     0.023 C 
BRANCH   2   3
ATOM      3  C   UNL A   1      32.779  27.912  24.652  1.00  0.00     0.116 C 
BRANCH   3   4
ATOM      4  N   UNL A   1      32.292  27.462  23.360  1.00  0.00    -0.352 N 
ATOM      5  C   UNL A   1      31.928  26.292  22.788  1.00  0.00     0.251 C 
ATOM      6  O   UNL A   1      31.523  26.389  21.624  1.00  0.00    -0.270 OA
ATOM      7  H   UNL A   1      32.205  28.213  22.729  1.00  0.00     0.163 HD
BRANCH   5   8
ATOM      8  C   UNL A   1      31.966  24.948  23.439  1.00  0.00     0.067 C 
ATOM      9  C   UNL A   1      33.455  20.387  25.028  1.00  0.00    -0.025 A 
ATOM     10  C   UNL A   1      32.208  21.004  24.825  1.00  0.00     0.052 A 
ATOM     11  C   UNL A   1      34.618  21.121  24.735  1.00  0.00     0.045 A 
ATOM     12  C   UNL A   1      32.134  22.305  24.336  1.00  0.00     0.128 A 
ATOM     13  C   UNL A   1      34.533  22.419  24.217  1.00  0.00     0.032 A 
ATOM     14  Cl  UNL A   1      36.200  20.466  24.969  1.00  0.00    -0.084 Cl
ATOM     15  C   UNL A   1      33.288  23.010  24.007  1.00  0.00     0.019 A 
ATOM     16  O   UNL A   1      30.884  22.829  24.158  1.00  0.00    -0.475 OA
ATOM     17  C   UNL A   1      33.160  24.325  23.394  1.00  0.00     0.025 C 
ATOM     18  C   UNL A   1      30.825  24.287  24.160  1.00  0.00     0.314 C 
BRANCH   9  19
ATOM     19  C   UNL A   1      33.467  18.951  25.504  1.00  0.00     0.040 C 
BRANCH  19  20
ATOM     20  C   UNL A   1      32.479  18.052  24.730  1.00  0.00    -0.013 C 
ATOM     21  C   UNL A   1      32.795  17.992  23.234  1.00  0.00     0.008 C 
ATOM     22  C   UNL A   1      32.492  16.639  25.316  1.00  0.00     0.008 C 
ENDBRANCH  19  20
ENDBRANCH   9  19
BRANCH  18  23
ATOM     23  C   UNL A   1      30.622  24.810  25.595  1.00  0.00     0.429 C 
ATOM     24  F   UNL A   1      29.785  25.870  25.651  1.00  0.00    -0.167 F 
ATOM     25  F   UNL A   1      30.087  23.838  26.378  1.00  0.00    -0.167 F 
ATOM     26  F   UNL A   1      31.777  25.197  26.183  1.00  0.00    -0.167 F 
ENDBRANCH  18  23
ENDBRANCH   5   8
ENDBRANCH   3   4
ENDBRANCH   2   3
ENDBRANCH   1   2
BRANCH   1  27
ATOM     27  C   UNL A   1      33.314  28.846  27.458  1.00  0.00     0.116 C 
BRANCH  27  28
ATOM     28  N   UNL A   1      33.405  30.260  27.796  1.00  0.00    -0.352 N 
ATOM     29  C   UNL A   1      34.521  30.943  28.225  1.00  0.00     0.251 C 
ATOM     30  H   UNL A   1      32.576  30.786  27.708  1.00  0.00     0.163 HD
ATOM     31  O   UNL A   1      34.463  32.129  28.530  1.00  0.00    -0.269 OA
BRANCH  29  32
ATOM     32  C   UNL A   1      35.775  30.182  28.363  1.00  0.00     0.039 A 
ATOM     33  C   UNL A   1      36.093  29.592  29.589  1.00  0.00     0.014 A 
ATOM     34  C   UNL A   1      36.697  30.208  27.315  1.00  0.00     0.014 A 
ATOM     35  C   UNL A   1      37.395  29.171  29.820  1.00  0.00     0.010 A 
ATOM     36  C   UNL A   1      37.986  29.721  27.529  1.00  0.00     0.010 A 
ATOM     37  C   UNL A   1      38.358  29.251  28.799  1.00  0.00    -0.014 A 
BRANCH  37  38
ATOM     38  C   UNL A   1      39.760  28.862  29.086  1.00  0.00     0.031 A 
ATOM     39  C   UNL A   1      40.654  29.766  29.891  1.00  0.00     0.074 A 
ATOM     40  C   UNL A   1      40.203  27.661  28.674  1.00  0.00     0.049 A 
ATOM     41  N   UNL A   1      41.908  29.595  30.218  1.00  0.00    -0.248 NA
ATOM     42  C   UNL A   1      40.067  31.017  30.401  1.00  0.00     0.031 C 
ATOM     43  C   UNL A   1      39.404  26.679  27.937  1.00  0.00     0.029 A 
ATOM     44  N   UNL A   1      41.415  27.045  28.846  1.00  0.00    -0.354 N 
ATOM     45  C   UNL A   1      42.269  30.719  30.951  1.00  0.00     0.074 A 
ATOM     46  C   UNL A   1      41.105  31.575  31.014  1.00  0.00     0.031 C 
ATOM     47  C   UNL A   1      40.126  25.560  27.777  1.00  0.00     0.029 A 
ATOM     48  C   UNL A   1      41.460  25.772  28.330  1.00  0.00     0.049 A 
ATOM     49  H   UNL A   1      42.180  27.473  29.295  1.00  0.00     0.167 HD
ATOM     50  C   UNL A   1      43.461  31.004  31.524  1.00  0.00     0.031 A 
ATOM     51  C   UNL A   1      42.466  24.877  28.288  1.00  0.00     0.031 A 
ATOM     52  C   UNL A   1      44.609  30.139  31.472  1.00  0.00     0.049 A 
ATOM     53  C   UNL A   1      43.802  25.252  28.849  1.00  0.00     0.074 A 
ATOM     54  C   UNL A   1      45.860  30.341  32.028  1.00  0.00     0.029 A 
ATOM     55  N   UNL A   1      44.647  28.910  30.832  1.00  0.00    -0.354 N 
ATOM     56  N   UNL A   1      44.139  26.342  29.494  1.00  0.00    -0.248 NA
ATOM     57  C   UNL A   1      44.902  24.299  28.650  1.00  0.00     0.031 C 
ATOM     58  C   UNL A   1      46.668  29.253  31.686  1.00  0.00     0.029 A 
ATOM     59  C   UNL A   1      45.908  28.355  30.953  1.00  0.00     0.049 A 
ATOM     60  H   UNL A   1      43.888  28.494  30.361  1.00  0.00     0.167 HD
ATOM     61  C   UNL A   1      45.495  26.217  29.765  1.00  0.00     0.074 A 
ATOM     62  C   UNL A   1      45.912  24.934  29.234  1.00  0.00     0.031 C 
ATOM     63  C   UNL A   1      46.316  27.092  30.393  1.00  0.00     0.031 A 
BRANCH  50  64
ATOM     64  C   UNL A   1      43.607  32.316  32.245  1.00  0.00    -0.014 A 
ATOM     65  C   UNL A   1      43.280  32.400  33.610  1.00  0.00     0.010 A 
ATOM     66  C   UNL A   1      43.973  33.483  31.553  1.00  0.00     0.010 A 
ATOM     67  C   UNL A   1      43.302  33.630  34.272  1.00  0.00     0.020 A 
ATOM     68  C   UNL A   1      44.013  34.715  32.216  1.00  0.00     0.020 A 
ATOM     69  C   UNL A   1      43.660  34.782  33.567  1.00  0.00     0.054 A 
BRANCH  69  70
ATOM     70  S   UNL A   1      43.693  36.375  34.437  1.00  0.00     0.124 S 
ATOM     71  O   UNL A   1      42.275  36.631  34.664  1.00  0.00    -0.237 OA
ATOM     72  O   UNL A   1      44.481  36.076  35.631  1.00  0.00    -0.237 OA
ATOM     73  O   UNL A   1      44.347  37.266  33.481  1.00  0.00    -0.744 OA
ENDBRANCH  69  70
ENDBRANCH  50  64
BRANCH  51  74
ATOM     74  C   UNL A   1      42.211  23.554  27.664  1.00  0.00    -0.014 A 
ATOM     75  C   UNL A   1      41.739  22.483  28.445  1.00  0.00     0.010 A 
ATOM     76  C   UNL A   1      42.575  23.324  26.327  1.00  0.00     0.010 A 
ATOM     77  C   UNL A   1      41.705  21.188  27.922  1.00  0.00     0.020 A 
ATOM     78  C   UNL A   1      42.520  22.032  25.794  1.00  0.00     0.020 A 
ATOM     79  C   UNL A   1      42.120  20.968  26.607  1.00  0.00     0.054 A 
BRANCH  79  80
ATOM     80  S   UNL A   1      42.159  19.272  25.966  1.00  0.00     0.124 S 
ATOM     81  O   UNL A   1      42.716  18.539  27.100  1.00  0.00    -0.237 OA
ATOM     82  O   UNL A   1      40.753  19.002  25.673  1.00  0.00    -0.237 OA
ATOM     83  O   UNL A   1      43.027  19.373  24.797  1.00  0.00    -0.744 OA
ENDBRANCH  79  80
ENDBRANCH  51  74
BRANCH  63  84
ATOM     84  C   UNL A   1      47.767  26.730  30.517  1.00  0.00    -0.014 A 
ATOM     85  C   UNL A   1      48.229  26.059  31.663  1.00  0.00     0.010 A 
ATOM     86  C   UNL A   1      48.691  27.183  29.560  1.00  0.00     0.010 A 
ATOM     87  C   UNL A   1      49.598  25.878  31.869  1.00  0.00     0.020 A 
ATOM     88  C   UNL A   1      50.061  26.990  29.756  1.00  0.00     0.020 A 
ATOM     89  C   UNL A   1      50.507  26.360  30.921  1.00  0.00     0.054 A 
BRANCH  89  90
ATOM     90  S   UNL A   1      52.283  26.161  31.226  1.00  0.00     0.124 S 
ATOM     91  O   UNL A   1      52.334  24.870  31.907  1.00  0.00    -0.237 OA
ATOM     92  O   UNL A   1      52.848  26.186  29.879  1.00  0.00    -0.237 OA
ATOM     93  O   UNL A   1      52.619  27.318  32.053  1.00  0.00    -0.744 OA
ENDBRANCH  89  90
ENDBRANCH  63  84
ENDBRANCH  37  38
ENDBRANCH  29  32
ENDBRANCH  27  28
ENDBRANCH   1  27
TORSDOF 17
ENDMDL
MODEL 2
REMARK VINA RESULT:     -11.3      1.478      8.170
REMARK SMILES CC(C)Cc1cc2c(cc1Cl)C=C(C(=O)NCCCCNC(=O)c1ccc(-c3c4nc(c(-c5ccc(S(=O)(=O)[O-])cc5)c5ccc([nH]5)c(-c5ccc(S(=O)(=O)[O-])cc5)c5nc(c(-c6ccc(S(=O)(=O)[O-])cc6)c6ccc3[nH]6)C=C5)C=C4)cc1)[C@H](C(F)(F)F)O2
REMARK SMILES IDX 19 1 18 2 17 3 16 4 14 5 15 6 13 8 5 9 6 10 10 11 7 12 9 13
REMARK SMILES IDX 11 14 8 15 89 16 12 17 84 18 4 19 2 20 1 21 3 22 85 23 86 24
REMARK SMILES IDX 87 25 88 26 20 27 21 28 22 29 23 31 24 32 25 33 83 34 26 35
REMARK SMILES IDX 82 36 27 37 28 38 29 39 76 40 30 41 81 42 75 43 77 44 31 45
REMARK SMILES IDX 80 46 74 47 73 48 32 50 62 51 43 52 61 53 44 54 47 55 60 56
REMARK SMILES IDX 78 57 45 58 46 59 59 61 79 62 48 63 33 64 34 65 42 66 35 67
REMARK SMILES IDX 41 68 36 69 37 70 38 71 39 72 40 73 63 74 64 75 72 76 65 77
REMARK SMILES IDX 71 78 66 79 67 80 68 81 69 82 70 83 49 84 50 85 58 86 51 87
REMARK SMILES IDX 57 88 52 89 53 90 54 91 55 92 56 93
REMARK H PARENT 16 7 21 30 77 49 47 60
REMARK Flexibility Score: inf
ROOT
ATOM      1  C   UNL A   1      32.471  28.498  26.554  1.00  0.00     0.023 C 
ENDROOT
BRANCH   1   2
ATOM      2  C   UNL A   1      31.888  27.121  26.871  1.00  0.00     0.023 C 
BRANCH   2   3
ATOM      3  C   UNL A   1      30.806  26.647  25.905  1.00  0.00     0.116 C 
BRANCH   3   4
ATOM      4  N   UNL A   1      31.289  26.584  24.537  1.00  0.00    -0.352 N 
ATOM      5  C   UNL A   1      31.841  25.658  23.720  1.00  0.00     0.251 C 
ATOM      6  O   UNL A   1      32.068  26.053  22.571  1.00  0.00    -0.270 OA
ATOM      7  H   UNL A   1      31.188  27.451  24.082  1.00  0.00     0.163 HD
BRANCH   5   8
ATOM      8  C   UNL A   1      32.170  24.248  24.087  1.00  0.00     0.067 C 
ATOM      9  C   UNL A   1      32.520  19.206  24.076  1.00  0.00    -0.025 A 
ATOM     10  C   UNL A   1      32.613  20.201  25.065  1.00  0.00     0.052 A 
ATOM     11  C   UNL A   1      32.255  19.603  22.753  1.00  0.00     0.045 A 
ATOM     12  C   UNL A   1      32.436  21.542  24.739  1.00  0.00     0.128 A 
ATOM     13  C   UNL A   1      32.049  20.952  22.439  1.00  0.00     0.032 A 
ATOM     14  Cl  UNL A   1      32.142  18.465  21.458  1.00  0.00    -0.084 Cl
ATOM     15  C   UNL A   1      32.130  21.925  23.436  1.00  0.00     0.019 A 
ATOM     16  O   UNL A   1      32.533  22.446  25.760  1.00  0.00    -0.475 OA
ATOM     17  C   UNL A   1      31.842  23.326  23.162  1.00  0.00     0.025 C 
ATOM     18  C   UNL A   1      32.863  23.805  25.346  1.00  0.00     0.314 C 
BRANCH   9  19
ATOM     19  C   UNL A   1      32.664  17.763  24.505  1.00  0.00     0.040 C 
BRANCH  19  20
ATOM     20  C   UNL A   1      34.105  17.231  24.355  1.00  0.00    -0.013 C 
ATOM     21  C   UNL A   1      34.484  16.251  25.468  1.00  0.00     0.008 C 
ATOM     22  C   UNL A   1      34.271  16.554  22.994  1.00  0.00     0.008 C 
ENDBRANCH  19  20
ENDBRANCH   9  19
BRANCH  18  23
ATOM     23  C   UNL A   1      34.392  23.992  25.301  1.00  0.00     0.429 C 
ATOM     24  F   UNL A   1      34.927  23.641  24.111  1.00  0.00    -0.167 F 
ATOM     25  F   UNL A   1      34.712  25.295  25.513  1.00  0.00    -0.167 F 
ATOM     26  F   UNL A   1      35.039  23.270  26.245  1.00  0.00    -0.167 F 
ENDBRANCH  18  23
ENDBRANCH   5   8
ENDBRANCH   3   4
ENDBRANCH   2   3
ENDBRANCH   1   2
BRANCH   1  27
ATOM     27  C   UNL A   1      33.746  28.852  27.306  1.00  0.00     0.116 C 
BRANCH  27  28
ATOM     28  N   UNL A   1      33.716  30.160  27.948  1.00  0.00    -0.352 N 
ATOM     29  C   UNL A   1      34.753  30.792  28.596  1.00  0.00     0.251 C 
ATOM     30  H   UNL A   1      32.859  30.644  27.916  1.00  0.00     0.163 HD
ATOM     31  O   UNL A   1      34.593  31.876  29.146  1.00  0.00    -0.269 OA
BRANCH  29  32
ATOM     32  C   UNL A   1      36.048  30.091  28.657  1.00  0.00     0.039 A 
ATOM     33  C   UNL A   1      36.470  29.526  29.863  1.00  0.00     0.014 A 
ATOM     34  C   UNL A   1      36.899  30.151  27.552  1.00  0.00     0.014 A 
ATOM     35  C   UNL A   1      37.803  29.167  30.012  1.00  0.00     0.010 A 
ATOM     36  C   UNL A   1      38.221  29.726  27.686  1.00  0.00     0.010 A 
ATOM     37  C   UNL A   1      38.694  29.284  28.931  1.00  0.00    -0.014 A 
BRANCH  37  38
ATOM     38  C   UNL A   1      40.128  28.963  29.130  1.00  0.00     0.031 A 
ATOM     39  C   UNL A   1      40.677  27.624  28.719  1.00  0.00     0.074 A 
ATOM     40  C   UNL A   1      40.948  29.910  29.622  1.00  0.00     0.049 A 
ATOM     41  N   UNL A   1      41.896  27.169  28.838  1.00  0.00    -0.248 NA
ATOM     42  C   UNL A   1      39.742  26.676  28.087  1.00  0.00     0.031 C 
ATOM     43  C   UNL A   1      40.535  31.264  30.000  1.00  0.00     0.029 A 
ATOM     44  N   UNL A   1      42.298  29.894  29.855  1.00  0.00    -0.354 N 
ATOM     45  C   UNL A   1      41.875  25.880  28.319  1.00  0.00     0.074 A 
ATOM     46  C   UNL A   1      40.519  25.617  27.892  1.00  0.00     0.031 C 
ATOM     47  C   UNL A   1      41.619  31.968  30.355  1.00  0.00     0.029 A 
ATOM     48  C   UNL A   1      42.790  31.096  30.305  1.00  0.00     0.049 A 
ATOM     49  H   UNL A   1      42.861  29.099  29.714  1.00  0.00     0.167 HD
ATOM     50  C   UNL A   1      42.898  25.001  28.204  1.00  0.00     0.031 A 
ATOM     51  C   UNL A   1      44.038  31.458  30.657  1.00  0.00     0.031 A 
ATOM     52  C   UNL A   1      44.249  25.276  28.615  1.00  0.00     0.049 A 
ATOM     53  C   UNL A   1      45.135  30.440  30.606  1.00  0.00     0.074 A 
ATOM     54  C   UNL A   1      45.355  24.449  28.533  1.00  0.00     0.029 A 
ATOM     55  N   UNL A   1      44.678  26.467  29.180  1.00  0.00    -0.354 N 
ATOM     56  N   UNL A   1      45.085  29.208  30.159  1.00  0.00    -0.248 NA
ATOM     57  C   UNL A   1      46.445  30.842  31.134  1.00  0.00     0.031 C 
ATOM     58  C   UNL A   1      46.445  25.124  29.089  1.00  0.00     0.029 A 
ATOM     59  C   UNL A   1      46.026  26.387  29.480  1.00  0.00     0.049 A 
ATOM     60  H   UNL A   1      44.107  27.253  29.344  1.00  0.00     0.167 HD
ATOM     61  C   UNL A   1      46.352  28.680  30.368  1.00  0.00     0.074 A 
ATOM     62  C   UNL A   1      47.154  29.733  30.960  1.00  0.00     0.031 C 
ATOM     63  C   UNL A   1      46.803  27.432  30.097  1.00  0.00     0.031 A 
BRANCH  50  64
ATOM     64  C   UNL A   1      42.606  23.642  27.629  1.00  0.00    -0.014 A 
ATOM     65  C   UNL A   1      42.042  22.647  28.448  1.00  0.00     0.010 A 
ATOM     66  C   UNL A   1      42.977  23.320  26.313  1.00  0.00     0.010 A 
ATOM     67  C   UNL A   1      41.865  21.347  27.967  1.00  0.00     0.020 A 
ATOM     68  C   UNL A   1      42.787  22.023  25.822  1.00  0.00     0.020 A 
ATOM     69  C   UNL A   1      42.247  21.042  26.658  1.00  0.00     0.054 A 
BRANCH  69  70
ATOM     70  S   UNL A   1      42.007  19.352  26.039  1.00  0.00     0.124 S 
ATOM     71  O   UNL A   1      42.867  19.331  24.861  1.00  0.00    -0.237 OA
ATOM     72  O   UNL A   1      42.451  18.530  27.162  1.00  0.00    -0.237 OA
ATOM     73  O   UNL A   1      40.571  19.294  25.770  1.00  0.00    -0.744 OA
ENDBRANCH  69  70
ENDBRANCH  50  64
BRANCH  51  74
ATOM     74  C   UNL A   1      44.273  32.855  31.102  1.00  0.00    -0.014 A 
ATOM     75  C   UNL A   1      44.723  33.823  30.186  1.00  0.00     0.010 A 
ATOM     76  C   UNL A   1      44.187  33.182  32.465  1.00  0.00     0.010 A 
ATOM     77  C   UNL A   1      45.153  35.074  30.634  1.00  0.00     0.020 A 
ATOM     78  C   UNL A   1      44.597  34.442  32.913  1.00  0.00     0.020 A 
ATOM     79  C   UNL A   1      45.110  35.366  31.999  1.00  0.00     0.054 A 
BRANCH  79  80
ATOM     80  S   UNL A   1      45.756  36.957  32.581  1.00  0.00     0.124 S 
ATOM     81  O   UNL A   1      46.882  37.170  31.676  1.00  0.00    -0.237 OA
ATOM     82  O   UNL A   1      44.621  37.857  32.395  1.00  0.00    -0.237 OA
ATOM     83  O   UNL A   1      46.112  36.689  33.972  1.00  0.00    -0.744 OA
ENDBRANCH  79  80
ENDBRANCH  51  74
BRANCH  63  84
ATOM     84  C   UNL A   1      48.218  27.099  30.467  1.00  0.00    -0.014 A 
ATOM     85  C   UNL A   1      48.514  26.614  31.753  1.00  0.00     0.010 A 
ATOM     86  C   UNL A   1      49.268  27.404  29.584  1.00  0.00     0.010 A 
ATOM     87  C   UNL A   1      49.841  26.473  32.164  1.00  0.00     0.020 A 
ATOM     88  C   UNL A   1      50.596  27.248  29.986  1.00  0.00     0.020 A 
ATOM     89  C   UNL A   1      50.874  26.807  31.283  1.00  0.00     0.054 A 
BRANCH  89  90
ATOM     90  S   UNL A   1      52.592  26.664  31.848  1.00  0.00     0.124 S 
ATOM     91  O   UNL A   1      52.545  25.456  32.667  1.00  0.00    -0.237 OA
ATOM     92  O   UNL A   1      53.336  26.549  30.596  1.00  0.00    -0.237 OA
ATOM     93  O   UNL A   1      52.814  27.909  32.582  1.00  0.00    -0.744 OA
ENDBRANCH  89  90
ENDBRANCH  63  84
ENDBRANCH  37  38
ENDBRANCH  29  32
ENDBRANCH  27  28
ENDBRANCH   1  27
TORSDOF 17
ENDMDL
MODEL 3
REMARK VINA RESULT:     -11.3      4.743     10.559
REMARK SMILES CC(C)Cc1cc2c(cc1Cl)C=C(C(=O)NCCCCNC(=O)c1ccc(-c3c4nc(c(-c5ccc(S(=O)(=O)[O-])cc5)c5ccc([nH]5)c(-c5ccc(S(=O)(=O)[O-])cc5)c5nc(c(-c6ccc(S(=O)(=O)[O-])cc6)c6ccc3[nH]6)C=C5)C=C4)cc1)[C@H](C(F)(F)F)O2
REMARK SMILES IDX 19 1 18 2 17 3 16 4 14 5 15 6 13 8 5 9 6 10 10 11 7 12 9 13
REMARK SMILES IDX 11 14 8 15 89 16 12 17 84 18 4 19 2 20 1 21 3 22 85 23 86 24
REMARK SMILES IDX 87 25 88 26 20 27 21 28 22 29 23 31 24 32 25 33 83 34 26 35
REMARK SMILES IDX 82 36 27 37 28 38 29 39 76 40 30 41 81 42 75 43 77 44 31 45
REMARK SMILES IDX 80 46 74 47 73 48 32 50 62 51 43 52 61 53 44 54 47 55 60 56
REMARK SMILES IDX 78 57 45 58 46 59 59 61 79 62 48 63 33 64 34 65 42 66 35 67
REMARK SMILES IDX 41 68 36 69 37 70 38 71 39 72 40 73 63 74 64 75 72 76 65 77
REMARK SMILES IDX 71 78 66 79 67 80 68 81 69 82 70 83 49 84 50 85 58 86 51 87
REMARK SMILES IDX 57 88 52 89 53 90 54 91 55 92 56 93
REMARK H PARENT 16 7 21 30 77 49 47 60
REMARK Flexibility Score: inf
ROOT
ATOM      1  C   UNL A   1      38.429  23.360  26.327  1.00  0.00     0.023 C 
ENDROOT
BRANCH   1   2
ATOM      2  C   UNL A   1      37.004  23.696  25.889  1.00  0.00     0.023 C 
BRANCH   2   3
ATOM      3  C   UNL A   1      36.166  22.494  25.463  1.00  0.00     0.116 C 
BRANCH   3   4
ATOM      4  N   UNL A   1      35.273  22.053  26.519  1.00  0.00    -0.352 N 
ATOM      5  C   UNL A   1      34.081  22.431  27.035  1.00  0.00     0.251 C 
ATOM      6  O   UNL A   1      33.660  21.709  27.946  1.00  0.00    -0.270 OA
ATOM      7  H   UNL A   1      35.634  21.266  26.988  1.00  0.00     0.163 HD
BRANCH   5   8
ATOM      8  C   UNL A   1      33.266  23.602  26.593  1.00  0.00     0.067 C 
ATOM      9  C   UNL A   1      31.857  28.100  24.769  1.00  0.00    -0.025 A 
ATOM     10  C   UNL A   1      31.273  27.158  25.635  1.00  0.00     0.052 A 
ATOM     11  C   UNL A   1      33.134  27.827  24.249  1.00  0.00     0.045 A 
ATOM     12  C   UNL A   1      31.953  25.991  25.973  1.00  0.00     0.128 A 
ATOM     13  C   UNL A   1      33.823  26.665  24.618  1.00  0.00     0.032 A 
ATOM     14  Cl  UNL A   1      33.933  28.906  23.161  1.00  0.00    -0.084 Cl
ATOM     15  C   UNL A   1      33.235  25.748  25.489  1.00  0.00     0.019 A 
ATOM     16  O   UNL A   1      31.320  25.131  26.827  1.00  0.00    -0.475 OA
ATOM     17  C   UNL A   1      33.953  24.570  25.958  1.00  0.00     0.025 C 
ATOM     18  C   UNL A   1      31.777  23.748  26.753  1.00  0.00     0.314 C 
BRANCH   9  19
ATOM     19  C   UNL A   1      31.092  29.375  24.488  1.00  0.00     0.040 C 
BRANCH  19  20
ATOM     20  C   UNL A   1      29.839  29.144  23.617  1.00  0.00    -0.013 C 
ATOM     21  C   UNL A   1      29.058  30.437  23.364  1.00  0.00     0.008 C 
ATOM     22  C   UNL A   1      30.242  28.517  22.281  1.00  0.00     0.008 C 
ENDBRANCH  19  20
ENDBRANCH   9  19
BRANCH  18  23
ATOM     23  C   UNL A   1      30.968  22.975  25.695  1.00  0.00     0.429 C 
ATOM     24  F   UNL A   1      30.303  23.790  24.846  1.00  0.00    -0.167 F 
ATOM     25  F   UNL A   1      31.796  22.205  24.942  1.00  0.00    -0.167 F 
ATOM     26  F   UNL A   1      30.047  22.146  26.238  1.00  0.00    -0.167 F 
ENDBRANCH  18  23
ENDBRANCH   5   8
ENDBRANCH   3   4
ENDBRANCH   2   3
ENDBRANCH   1   2
BRANCH   1  27
ATOM     27  C   UNL A   1      39.203  24.510  26.957  1.00  0.00     0.116 C 
BRANCH  27  28
ATOM     28  N   UNL A   1      40.184  25.123  26.072  1.00  0.00    -0.352 N 
ATOM     29  C   UNL A   1      40.759  26.367  26.202  1.00  0.00     0.251 C 
ATOM     30  H   UNL A   1      40.467  24.588  25.294  1.00  0.00     0.163 HD
ATOM     31  O   UNL A   1      41.540  26.798  25.361  1.00  0.00    -0.269 OA
BRANCH  29  32
ATOM     32  C   UNL A   1      40.356  27.188  27.358  1.00  0.00     0.039 A 
ATOM     33  C   UNL A   1      40.666  28.549  27.379  1.00  0.00     0.014 A 
ATOM     34  C   UNL A   1      39.820  26.552  28.479  1.00  0.00     0.014 A 
ATOM     35  C   UNL A   1      40.591  29.242  28.580  1.00  0.00     0.010 A 
ATOM     36  C   UNL A   1      39.682  27.270  29.668  1.00  0.00     0.010 A 
ATOM     37  C   UNL A   1      40.118  28.602  29.739  1.00  0.00    -0.014 A 
BRANCH  37  38
ATOM     38  C   UNL A   1      40.113  29.337  31.027  1.00  0.00     0.031 A 
ATOM     39  C   UNL A   1      41.259  29.198  31.992  1.00  0.00     0.074 A 
ATOM     40  C   UNL A   1      39.101  30.183  31.292  1.00  0.00     0.049 A 
ATOM     41  N   UNL A   1      41.409  29.749  33.168  1.00  0.00    -0.248 NA
ATOM     42  C   UNL A   1      42.384  28.338  31.585  1.00  0.00     0.031 C 
ATOM     43  C   UNL A   1      37.967  30.441  30.403  1.00  0.00     0.029 A 
ATOM     44  N   UNL A   1      38.879  31.007  32.365  1.00  0.00    -0.354 N 
ATOM     45  C   UNL A   1      42.628  29.290  33.652  1.00  0.00     0.074 A 
ATOM     46  C   UNL A   1      43.176  28.405  32.648  1.00  0.00     0.031 C 
ATOM     47  C   UNL A   1      37.204  31.406  30.935  1.00  0.00     0.029 A 
ATOM     48  C   UNL A   1      37.751  31.780  32.236  1.00  0.00     0.049 A 
ATOM     49  H   UNL A   1      39.471  31.041  33.152  1.00  0.00     0.167 HD
ATOM     50  C   UNL A   1      43.235  29.588  34.824  1.00  0.00     0.031 A 
ATOM     51  C   UNL A   1      37.202  32.679  33.076  1.00  0.00     0.031 A 
ATOM     52  C   UNL A   1      42.691  30.483  35.810  1.00  0.00     0.049 A 
ATOM     53  C   UNL A   1      37.845  32.924  34.406  1.00  0.00     0.074 A 
ATOM     54  C   UNL A   1      43.237  30.852  37.027  1.00  0.00     0.029 A 
ATOM     55  N   UNL A   1      41.483  31.152  35.692  1.00  0.00    -0.354 N 
ATOM     56  N   UNL A   1      38.973  32.441  34.868  1.00  0.00    -0.248 NA
ATOM     57  C   UNL A   1      37.131  33.803  35.342  1.00  0.00     0.031 C 
ATOM     58  C   UNL A   1      42.337  31.710  37.665  1.00  0.00     0.029 A 
ATOM     59  C   UNL A   1      41.251  31.908  36.827  1.00  0.00     0.049 A 
ATOM     60  H   UNL A   1      40.880  31.098  34.915  1.00  0.00     0.167 HD
ATOM     61  C   UNL A   1      39.098  32.943  36.157  1.00  0.00     0.074 A 
ATOM     62  C   UNL A   1      37.942  33.786  36.393  1.00  0.00     0.031 C 
ATOM     63  C   UNL A   1      40.081  32.717  37.060  1.00  0.00     0.031 A 
BRANCH  50  64
ATOM     64  C   UNL A   1      44.552  28.928  35.130  1.00  0.00    -0.014 A 
ATOM     65  C   UNL A   1      44.573  27.712  35.835  1.00  0.00     0.010 A 
ATOM     66  C   UNL A   1      45.766  29.557  34.808  1.00  0.00     0.010 A 
ATOM     67  C   UNL A   1      45.786  27.139  36.227  1.00  0.00     0.020 A 
ATOM     68  C   UNL A   1      46.984  28.979  35.183  1.00  0.00     0.020 A 
ATOM     69  C   UNL A   1      46.985  27.782  35.905  1.00  0.00     0.054 A 
BRANCH  69  70
ATOM     70  S   UNL A   1      48.556  27.026  36.411  1.00  0.00     0.124 S 
ATOM     71  O   UNL A   1      49.407  27.283  35.254  1.00  0.00    -0.237 OA
ATOM     72  O   UNL A   1      48.896  27.767  37.623  1.00  0.00    -0.237 OA
ATOM     73  O   UNL A   1      48.199  25.626  36.630  1.00  0.00    -0.744 OA
ENDBRANCH  69  70
ENDBRANCH  50  64
BRANCH  51  74
ATOM     74  C   UNL A   1      35.963  33.380  32.653  1.00  0.00    -0.014 A 
ATOM     75  C   UNL A   1      36.039  34.506  31.814  1.00  0.00     0.010 A 
ATOM     76  C   UNL A   1      34.724  33.012  33.203  1.00  0.00     0.010 A 
ATOM     77  C   UNL A   1      34.911  35.298  31.589  1.00  0.00     0.020 A 
ATOM     78  C   UNL A   1      33.588  33.790  32.961  1.00  0.00     0.020 A 
ATOM     79  C   UNL A   1      33.697  34.947  32.186  1.00  0.00     0.054 A 
BRANCH  79  80
ATOM     80  S   UNL A   1      32.260  36.031  31.963  1.00  0.00     0.124 S 
ATOM     81  O   UNL A   1      31.199  35.250  32.593  1.00  0.00    -0.237 OA
ATOM     82  O   UNL A   1      32.654  37.245  32.674  1.00  0.00    -0.237 OA
ATOM     83  O   UNL A   1      32.162  36.167  30.512  1.00  0.00    -0.744 OA
ENDBRANCH  79  80
ENDBRANCH  51  74
BRANCH  63  84
ATOM     84  C   UNL A   1      39.953  33.352  38.414  1.00  0.00    -0.014 A 
ATOM     85  C   UNL A   1      39.211  32.712  39.423  1.00  0.00     0.010 A 
ATOM     86  C   UNL A   1      40.449  34.648  38.635  1.00  0.00     0.010 A 
ATOM     87  C   UNL A   1      38.936  33.374  40.621  1.00  0.00     0.020 A 
ATOM     88  C   UNL A   1      40.189  35.307  39.839  1.00  0.00     0.020 A 
ATOM     89  C   UNL A   1      39.413  34.675  40.814  1.00  0.00     0.054 A 
BRANCH  89  90
ATOM     90  S   UNL A   1      39.007  35.539  42.356  1.00  0.00     0.124 S 
ATOM     91  O   UNL A   1      39.377  36.916  42.042  1.00  0.00    -0.237 OA
ATOM     92  O   UNL A   1      37.575  35.289  42.500  1.00  0.00    -0.237 OA
ATOM     93  O   UNL A   1      39.848  34.876  43.350  1.00  0.00    -0.744 OA
ENDBRANCH  89  90
ENDBRANCH  63  84
ENDBRANCH  37  38
ENDBRANCH  29  32
ENDBRANCH  27  28
ENDBRANCH   1  27
TORSDOF 17
ENDMDL
