MODEL 1
REMARK VINA RESULT:     -13.4      0.000      0.000
REMARK SMILES O=C1C[C@@H](c2cccc(O)c2)c2c(c(C(=O)NCCCCNC(=O)c3ccc(-c4c5nc(c(-c6ccc(S(=O)(=O)[O-])cc6)c6ccc([nH]6)c(-c6ccc(S(=O)(=O)[O-])cc6)c6nc(c(-c7ccc(S(=O)(=O)[O-])cc7)c7ccc4[nH]7)C=C6)C=C5)cc3)cn2-c2cccc(C(F)(F)F)c2)N1
REMARK SMILES IDX 20 1 19 2 18 3 17 4 15 5 16 6 14 8 1 9 2 10 3 11 97 12 4 13
REMARK SMILES IDX 13 14 12 16 86 17 85 18 5 19 6 20 11 21 7 22 9 23 8 24 10 25
REMARK SMILES IDX 87 27 88 28 96 29 89 30 91 31 90 32 92 33 93 34 94 35 95 36
REMARK SMILES IDX 21 37 22 38 23 39 24 41 25 42 26 43 84 44 27 45 83 46 28 47
REMARK SMILES IDX 29 48 30 49 77 50 31 51 82 52 76 53 78 54 32 55 81 56 75 57
REMARK SMILES IDX 74 58 33 60 63 61 44 62 62 63 45 64 48 65 61 66 79 67 46 68
REMARK SMILES IDX 47 69 60 71 80 72 49 73 34 74 35 75 43 76 36 77 42 78 37 79
REMARK SMILES IDX 38 80 39 81 40 82 41 83 64 84 65 85 73 86 66 87 72 88 67 89
REMARK SMILES IDX 68 90 69 91 70 92 71 93 50 94 51 95 59 96 52 97 58 98 53 99
REMARK SMILES IDX 54 100 55 101 56 102 57 103
REMARK H PARENT 17 7 97 15 10 26 22 40 78 59 48 70
REMARK Flexibility Score: inf
ROOT
ATOM      1  C   UNL A   1      37.158  23.477  25.085  1.00  0.00     0.023 C 
ENDROOT
BRANCH   1   2
ATOM      2  C   UNL A   1      36.856  22.200  24.281  1.00  0.00     0.023 C 
BRANCH   2   3
ATOM      3  C   UNL A   1      35.547  22.231  23.486  1.00  0.00     0.116 C 
BRANCH   3   4
ATOM      4  N   UNL A   1      34.394  21.909  24.302  1.00  0.00    -0.352 N 
ATOM      5  C   UNL A   1      33.433  22.659  24.929  1.00  0.00     0.254 C 
ATOM      6  O   UNL A   1      32.608  22.033  25.601  1.00  0.00    -0.269 OA
ATOM      7  H   UNL A   1      34.274  20.941  24.433  1.00  0.00     0.163 HD
BRANCH   5   8
ATOM      8  C   UNL A   1      33.364  24.118  24.862  1.00  0.00     0.081 A 
ATOM      9  O   UNL A   1      32.736  24.902  20.167  1.00  0.00    -0.275 OA
ATOM     10  C   UNL A   1      33.006  25.299  21.300  1.00  0.00     0.225 C 
ATOM     11  C   UNL A   1      33.395  26.749  21.566  1.00  0.00     0.115 C 
ATOM     12  N   UNL A   1      33.068  24.437  22.367  1.00  0.00    -0.324 N 
ATOM     13  C   UNL A   1      32.922  27.289  22.931  1.00  0.00     0.078 C 
ATOM     14  C   UNL A   1      33.185  24.875  23.667  1.00  0.00     0.076 A 
ATOM     15  H   UNL A   1      33.028  23.468  22.196  1.00  0.00     0.170 HD
ATOM     16  C   UNL A   1      33.087  26.215  23.968  1.00  0.00     0.055 A 
ATOM     17  N   UNL A   1      33.242  26.345  25.329  1.00  0.00    -0.317 N 
ATOM     18  C   UNL A   1      33.457  25.079  25.851  1.00  0.00     0.107 A 
BRANCH  13  19
ATOM     19  C   UNL A   1      31.502  27.828  22.848  1.00  0.00    -0.035 A 
ATOM     20  C   UNL A   1      30.398  27.096  23.318  1.00  0.00     0.005 A 
ATOM     21  C   UNL A   1      31.286  29.124  22.352  1.00  0.00     0.050 A 
ATOM     22  C   UNL A   1      29.124  27.664  23.337  1.00  0.00     0.004 A 
ATOM     23  C   UNL A   1      30.018  29.691  22.409  1.00  0.00     0.115 A 
ATOM     24  C   UNL A   1      28.933  28.972  22.898  1.00  0.00     0.046 A 
BRANCH  23  25
ATOM     25  O   UNL A   1      29.890  30.992  22.023  1.00  0.00    -0.508 OA
ATOM     26  H   UNL A   1      30.611  31.582  22.118  1.00  0.00     0.293 HD
ENDBRANCH  23  25
ENDBRANCH  13  19
BRANCH  17  27
ATOM     27  C   UNL A   1      33.094  27.476  26.165  1.00  0.00     0.046 A 
ATOM     28  C   UNL A   1      31.814  27.994  26.392  1.00  0.00     0.026 A 
ATOM     29  C   UNL A   1      34.222  28.191  26.572  1.00  0.00     0.039 A 
ATOM     30  C   UNL A   1      31.664  29.202  27.072  1.00  0.00     0.003 A 
ATOM     31  C   UNL A   1      34.082  29.414  27.247  1.00  0.00     0.058 A 
ATOM     32  C   UNL A   1      32.791  29.906  27.501  1.00  0.00     0.013 A 
BRANCH  31  33
ATOM     33  C   UNL A   1      35.290  30.218  27.663  1.00  0.00     0.416 C 
ATOM     34  F   UNL A   1      35.125  31.554  27.437  1.00  0.00    -0.166 F 
ATOM     35  F   UNL A   1      35.567  30.102  28.991  1.00  0.00    -0.166 F 
ATOM     36  F   UNL A   1      36.438  29.883  27.011  1.00  0.00    -0.166 F 
ENDBRANCH  31  33
ENDBRANCH  17  27
ENDBRANCH   5   8
ENDBRANCH   3   4
ENDBRANCH   2   3
ENDBRANCH   1   2
BRANCH   1  37
ATOM     37  C   UNL A   1      37.720  23.244  26.485  1.00  0.00     0.116 C 
BRANCH  37  38
ATOM     38  N   UNL A   1      38.910  22.393  26.498  1.00  0.00    -0.352 N 
ATOM     39  C   UNL A   1      40.240  22.789  26.473  1.00  0.00     0.251 C 
ATOM     40  H   UNL A   1      38.748  21.422  26.527  1.00  0.00     0.163 HD
ATOM     41  O   UNL A   1      41.115  22.038  26.077  1.00  0.00    -0.269 OA
BRANCH  39  42
ATOM     42  C   UNL A   1      40.570  24.138  26.969  1.00  0.00     0.039 A 
ATOM     43  C   UNL A   1      40.031  25.297  26.408  1.00  0.00     0.014 A 
ATOM     44  C   UNL A   1      41.421  24.205  28.067  1.00  0.00     0.014 A 
ATOM     45  C   UNL A   1      40.298  26.521  27.022  1.00  0.00     0.010 A 
ATOM     46  C   UNL A   1      41.532  25.373  28.769  1.00  0.00     0.010 A 
ATOM     47  C   UNL A   1      41.036  26.545  28.215  1.00  0.00    -0.014 A 
BRANCH  47  48
ATOM     48  C   UNL A   1      41.220  27.775  28.976  1.00  0.00     0.031 A 
ATOM     49  C   UNL A   1      42.307  28.656  28.470  1.00  0.00     0.074 A 
ATOM     50  C   UNL A   1      40.324  28.202  29.894  1.00  0.00     0.049 A 
ATOM     51  N   UNL A   1      43.430  28.927  29.047  1.00  0.00    -0.248 NA
ATOM     52  C   UNL A   1      42.201  29.181  27.098  1.00  0.00     0.031 C 
ATOM     53  C   UNL A   1      39.028  27.612  30.254  1.00  0.00     0.029 A 
ATOM     54  N   UNL A   1      40.328  29.351  30.617  1.00  0.00    -0.354 N 
ATOM     55  C   UNL A   1      44.076  29.836  28.217  1.00  0.00     0.074 A 
ATOM     56  C   UNL A   1      43.376  29.798  26.957  1.00  0.00     0.031 C 
ATOM     57  C   UNL A   1      38.278  28.527  30.908  1.00  0.00     0.029 A 
ATOM     58  C   UNL A   1      39.099  29.694  31.170  1.00  0.00     0.049 A 
ATOM     59  H   UNL A   1      41.137  29.898  30.739  1.00  0.00     0.167 HD
ATOM     60  C   UNL A   1      44.978  30.734  28.705  1.00  0.00     0.031 A 
ATOM     61  C   UNL A   1      38.773  30.873  31.762  1.00  0.00     0.031 A 
ATOM     62  C   UNL A   1      45.382  30.406  30.049  1.00  0.00     0.049 A 
ATOM     63  C   UNL A   1      40.053  31.519  32.153  1.00  0.00     0.074 A 
ATOM     64  C   UNL A   1      45.962  29.296  30.633  1.00  0.00     0.029 A 
ATOM     65  N   UNL A   1      44.784  31.101  31.075  1.00  0.00    -0.354 N 
ATOM     66  N   UNL A   1      40.862  31.014  33.043  1.00  0.00    -0.248 NA
ATOM     67  C   UNL A   1      40.666  32.436  31.204  1.00  0.00     0.031 C 
ATOM     68  C   UNL A   1      45.245  29.115  31.852  1.00  0.00     0.029 A 
ATOM     69  C   UNL A   1      44.348  30.176  31.992  1.00  0.00     0.049 A 
ATOM     70  H   UNL A   1      44.687  32.079  31.139  1.00  0.00     0.167 HD
ATOM     71  C   UNL A   1      42.132  31.187  32.510  1.00  0.00     0.074 A 
ATOM     72  C   UNL A   1      41.953  32.142  31.414  1.00  0.00     0.031 C 
ATOM     73  C   UNL A   1      43.157  30.330  32.804  1.00  0.00     0.031 A 
BRANCH  60  74
ATOM     74  C   UNL A   1      45.198  32.100  28.110  1.00  0.00    -0.014 A 
ATOM     75  C   UNL A   1      46.501  32.497  27.753  1.00  0.00     0.010 A 
ATOM     76  C   UNL A   1      44.204  33.101  28.119  1.00  0.00     0.010 A 
ATOM     77  C   UNL A   1      46.797  33.835  27.453  1.00  0.00     0.020 A 
ATOM     78  C   UNL A   1      44.478  34.428  27.781  1.00  0.00     0.020 A 
ATOM     79  C   UNL A   1      45.781  34.791  27.475  1.00  0.00     0.054 A 
BRANCH  79  80
ATOM     80  S   UNL A   1      46.182  36.525  27.148  1.00  0.00     0.124 S 
ATOM     81  O   UNL A   1      46.895  36.903  28.366  1.00  0.00    -0.237 OA
ATOM     82  O   UNL A   1      46.996  36.431  25.939  1.00  0.00    -0.237 OA
ATOM     83  O   UNL A   1      44.875  37.151  26.966  1.00  0.00    -0.744 OA
ENDBRANCH  79  80
ENDBRANCH  60  74
BRANCH  61  84
ATOM     84  C   UNL A   1      37.479  31.604  31.685  1.00  0.00    -0.014 A 
ATOM     85  C   UNL A   1      36.652  31.757  32.815  1.00  0.00     0.010 A 
ATOM     86  C   UNL A   1      37.186  32.400  30.557  1.00  0.00     0.010 A 
ATOM     87  C   UNL A   1      35.616  32.711  32.837  1.00  0.00     0.020 A 
ATOM     88  C   UNL A   1      36.154  33.347  30.568  1.00  0.00     0.020 A 
ATOM     89  C   UNL A   1      35.389  33.517  31.718  1.00  0.00     0.054 A 
BRANCH  89  90
ATOM     90  S   UNL A   1      34.179  34.874  31.813  1.00  0.00     0.124 S 
ATOM     91  O   UNL A   1      34.918  35.899  32.544  1.00  0.00    -0.237 OA
ATOM     92  O   UNL A   1      33.919  35.165  30.406  1.00  0.00    -0.237 OA
ATOM     93  O   UNL A   1      33.056  34.282  32.537  1.00  0.00    -0.744 OA
ENDBRANCH  89  90
ENDBRANCH  61  84
BRANCH  73  94
ATOM     94  C   UNL A   1      42.966  29.311  33.911  1.00  0.00    -0.014 A 
ATOM     95  C   UNL A   1      43.260  29.550  35.269  1.00  0.00     0.010 A 
ATOM     96  C   UNL A   1      42.301  28.119  33.578  1.00  0.00     0.010 A 
ATOM     97  C   UNL A   1      42.921  28.609  36.256  1.00  0.00     0.020 A 
ATOM     98  C   UNL A   1      41.942  27.187  34.556  1.00  0.00     0.020 A 
ATOM     99  C   UNL A   1      42.264  27.431  35.891  1.00  0.00     0.054 A 
BRANCH  99 100
ATOM    100  S   UNL A   1      41.793  26.229  37.168  1.00  0.00     0.124 S 
ATOM    101  O   UNL A   1      41.877  24.958  36.454  1.00  0.00    -0.237 OA
ATOM    102  O   UNL A   1      42.805  26.437  38.201  1.00  0.00    -0.237 OA
ATOM    103  O   UNL A   1      40.440  26.634  37.549  1.00  0.00    -0.744 OA
ENDBRANCH  99 100
ENDBRANCH  73  94
ENDBRANCH  47  48
ENDBRANCH  39  42
ENDBRANCH  37  38
ENDBRANCH   1  37
TORSDOF 18
ENDMDL
MODEL 2
REMARK VINA RESULT:     -13.4      3.004      9.381
REMARK SMILES O=C1C[C@@H](c2cccc(O)c2)c2c(c(C(=O)NCCCCNC(=O)c3ccc(-c4c5nc(c(-c6ccc(S(=O)(=O)[O-])cc6)c6ccc([nH]6)c(-c6ccc(S(=O)(=O)[O-])cc6)c6nc(c(-c7ccc(S(=O)(=O)[O-])cc7)c7ccc4[nH]7)C=C6)C=C5)cc3)cn2-c2cccc(C(F)(F)F)c2)N1
REMARK SMILES IDX 20 1 19 2 18 3 17 4 15 5 16 6 14 8 1 9 2 10 3 11 97 12 4 13
REMARK SMILES IDX 13 14 12 16 86 17 85 18 5 19 6 20 11 21 7 22 9 23 8 24 10 25
REMARK SMILES IDX 87 27 88 28 96 29 89 30 91 31 90 32 92 33 93 34 94 35 95 36
REMARK SMILES IDX 21 37 22 38 23 39 24 41 25 42 26 43 84 44 27 45 83 46 28 47
REMARK SMILES IDX 29 48 30 49 77 50 31 51 82 52 76 53 78 54 32 55 81 56 75 57
REMARK SMILES IDX 74 58 33 60 63 61 44 62 62 63 45 64 48 65 61 66 79 67 46 68
REMARK SMILES IDX 47 69 60 71 80 72 49 73 34 74 35 75 43 76 36 77 42 78 37 79
REMARK SMILES IDX 38 80 39 81 40 82 41 83 64 84 65 85 73 86 66 87 72 88 67 89
REMARK SMILES IDX 68 90 69 91 70 92 71 93 50 94 51 95 59 96 52 97 58 98 53 99
REMARK SMILES IDX 54 100 55 101 56 102 57 103
REMARK H PARENT 17 7 97 15 10 26 22 40 78 59 48 70
REMARK Flexibility Score: inf
ROOT
ATOM      1  C   UNL A   1      32.410  28.859  26.775  1.00  0.00     0.023 C 
ENDROOT
BRANCH   1   2
ATOM      2  C   UNL A   1      31.705  29.606  25.629  1.00  0.00     0.023 C 
BRANCH   2   3
ATOM      3  C   UNL A   1      31.735  28.889  24.276  1.00  0.00     0.116 C 
BRANCH   3   4
ATOM      4  N   UNL A   1      30.591  28.024  24.080  1.00  0.00    -0.352 N 
ATOM      5  C   UNL A   1      30.394  26.671  24.174  1.00  0.00     0.254 C 
ATOM      6  O   UNL A   1      29.267  26.263  23.877  1.00  0.00    -0.269 OA
ATOM      7  H   UNL A   1      29.776  28.515  23.826  1.00  0.00     0.163 HD
BRANCH   5   8
ATOM      8  C   UNL A   1      31.433  25.720  24.568  1.00  0.00     0.081 A 
ATOM      9  O   UNL A   1      29.010  22.642  27.343  1.00  0.00    -0.275 OA
ATOM     10  C   UNL A   1      30.065  23.110  26.919  1.00  0.00     0.225 C 
ATOM     11  C   UNL A   1      31.417  22.619  27.426  1.00  0.00     0.115 C 
ATOM     12  N   UNL A   1      30.080  24.167  26.043  1.00  0.00    -0.324 N 
ATOM     13  C   UNL A   1      32.532  22.629  26.361  1.00  0.00     0.078 C 
ATOM     14  C   UNL A   1      31.230  24.590  25.414  1.00  0.00     0.076 A 
ATOM     15  H   UNL A   1      29.238  24.641  25.857  1.00  0.00     0.170 HD
ATOM     16  C   UNL A   1      32.396  23.864  25.519  1.00  0.00     0.055 A 
ATOM     17  N   UNL A   1      33.360  24.526  24.794  1.00  0.00    -0.317 N 
ATOM     18  C   UNL A   1      32.781  25.669  24.265  1.00  0.00     0.107 A 
BRANCH  13  19
ATOM     19  C   UNL A   1      32.524  21.345  25.544  1.00  0.00    -0.035 A 
ATOM     20  C   UNL A   1      32.303  21.345  24.157  1.00  0.00     0.005 A 
ATOM     21  C   UNL A   1      32.814  20.126  26.178  1.00  0.00     0.050 A 
ATOM     22  C   UNL A   1      32.419  20.168  23.417  1.00  0.00     0.004 A 
ATOM     23  C   UNL A   1      32.963  18.966  25.425  1.00  0.00     0.115 A 
ATOM     24  C   UNL A   1      32.767  18.976  24.048  1.00  0.00     0.046 A 
BRANCH  23  25
ATOM     25  O   UNL A   1      33.360  17.836  26.076  1.00  0.00    -0.508 OA
ATOM     26  H   UNL A   1      34.223  17.497  25.941  1.00  0.00     0.293 HD
ENDBRANCH  23  25
ENDBRANCH  13  19
BRANCH  17  27
ATOM     27  C   UNL A   1      34.681  24.144  24.463  1.00  0.00     0.046 A 
ATOM     28  C   UNL A   1      34.912  23.451  23.268  1.00  0.00     0.026 A 
ATOM     29  C   UNL A   1      35.697  24.262  25.413  1.00  0.00     0.039 A 
ATOM     30  C   UNL A   1      36.175  22.921  23.007  1.00  0.00     0.003 A 
ATOM     31  C   UNL A   1      36.969  23.721  25.165  1.00  0.00     0.058 A 
ATOM     32  C   UNL A   1      37.199  23.059  23.947  1.00  0.00     0.013 A 
BRANCH  31  33
ATOM     33  C   UNL A   1      38.068  23.808  26.195  1.00  0.00     0.416 C 
ATOM     34  F   UNL A   1      37.611  24.253  27.402  1.00  0.00    -0.166 F 
ATOM     35  F   UNL A   1      38.649  22.602  26.446  1.00  0.00    -0.166 F 
ATOM     36  F   UNL A   1      39.083  24.651  25.862  1.00  0.00    -0.166 F 
ENDBRANCH  31  33
ENDBRANCH  17  27
ENDBRANCH   5   8
ENDBRANCH   3   4
ENDBRANCH   2   3
ENDBRANCH   1   2
BRANCH   1  37
ATOM     37  C   UNL A   1      33.859  29.272  27.024  1.00  0.00     0.116 C 
BRANCH  37  38
ATOM     38  N   UNL A   1      34.058  30.722  27.018  1.00  0.00    -0.352 N 
ATOM     39  C   UNL A   1      34.997  31.455  27.729  1.00  0.00     0.251 C 
ATOM     40  H   UNL A   1      33.451  31.240  26.440  1.00  0.00     0.163 HD
ATOM     41  O   UNL A   1      34.822  32.636  27.974  1.00  0.00    -0.269 OA
BRANCH  39  42
ATOM     42  C   UNL A   1      36.233  30.770  28.152  1.00  0.00     0.039 A 
ATOM     43  C   UNL A   1      36.473  29.421  27.886  1.00  0.00     0.014 A 
ATOM     44  C   UNL A   1      37.185  31.551  28.800  1.00  0.00     0.014 A 
ATOM     45  C   UNL A   1      37.721  28.889  28.210  1.00  0.00     0.010 A 
ATOM     46  C   UNL A   1      38.460  31.080  28.949  1.00  0.00     0.010 A 
ATOM     47  C   UNL A   1      38.716  29.735  28.726  1.00  0.00    -0.014 A 
BRANCH  47  48
ATOM     48  C   UNL A   1      40.079  29.267  28.944  1.00  0.00     0.031 A 
ATOM     49  C   UNL A   1      40.445  29.081  30.374  1.00  0.00     0.074 A 
ATOM     50  C   UNL A   1      40.855  28.797  27.942  1.00  0.00     0.049 A 
ATOM     51  N   UNL A   1      41.290  29.772  31.063  1.00  0.00    -0.248 NA
ATOM     52  C   UNL A   1      39.678  28.110  31.173  1.00  0.00     0.031 C 
ATOM     53  C   UNL A   1      40.506  28.596  26.529  1.00  0.00     0.029 A 
ATOM     54  N   UNL A   1      42.102  28.265  28.008  1.00  0.00    -0.354 N 
ATOM     55  C   UNL A   1      41.330  29.182  32.321  1.00  0.00     0.074 A 
ATOM     56  C   UNL A   1      40.186  28.306  32.392  1.00  0.00     0.031 C 
ATOM     57  C   UNL A   1      41.401  27.762  25.954  1.00  0.00     0.029 A 
ATOM     58  C   UNL A   1      42.476  27.518  26.897  1.00  0.00     0.049 A 
ATOM     59  H   UNL A   1      42.695  28.400  28.782  1.00  0.00     0.167 HD
ATOM     60  C   UNL A   1      42.435  29.264  33.116  1.00  0.00     0.031 A 
ATOM     61  C   UNL A   1      43.571  26.721  26.782  1.00  0.00     0.031 A 
ATOM     62  C   UNL A   1      43.362  30.258  32.637  1.00  0.00     0.049 A 
ATOM     63  C   UNL A   1      44.530  27.166  27.826  1.00  0.00     0.074 A 
ATOM     64  C   UNL A   1      43.270  31.614  32.386  1.00  0.00     0.029 A 
ATOM     65  N   UNL A   1      44.445  29.815  31.912  1.00  0.00    -0.354 N 
ATOM     66  N   UNL A   1      45.085  28.346  27.826  1.00  0.00    -0.248 NA
ATOM     67  C   UNL A   1      44.476  26.504  29.121  1.00  0.00     0.031 C 
ATOM     68  C   UNL A   1      43.952  31.799  31.148  1.00  0.00     0.029 A 
ATOM     69  C   UNL A   1      44.507  30.574  30.769  1.00  0.00     0.049 A 
ATOM     70  H   UNL A   1      45.060  29.089  32.166  1.00  0.00     0.167 HD
ATOM     71  C   UNL A   1      45.045  28.760  29.151  1.00  0.00     0.074 A 
ATOM     72  C   UNL A   1      44.733  27.549  29.914  1.00  0.00     0.031 C 
ATOM     73  C   UNL A   1      44.975  30.083  29.488  1.00  0.00     0.031 A 
BRANCH  60  74
ATOM     74  C   UNL A   1      42.840  28.191  34.092  1.00  0.00    -0.014 A 
ATOM     75  C   UNL A   1      42.971  28.512  35.457  1.00  0.00     0.010 A 
ATOM     76  C   UNL A   1      43.339  26.938  33.678  1.00  0.00     0.010 A 
ATOM     77  C   UNL A   1      43.599  27.635  36.353  1.00  0.00     0.020 A 
ATOM     78  C   UNL A   1      43.926  26.038  34.569  1.00  0.00     0.020 A 
ATOM     79  C   UNL A   1      44.076  26.404  35.899  1.00  0.00     0.054 A 
BRANCH  79  80
ATOM     80  S   UNL A   1      44.940  25.305  37.047  1.00  0.00     0.124 S 
ATOM     81  O   UNL A   1      46.338  25.629  36.781  1.00  0.00    -0.237 OA
ATOM     82  O   UNL A   1      44.422  25.742  38.341  1.00  0.00    -0.237 OA
ATOM     83  O   UNL A   1      44.514  23.971  36.630  1.00  0.00    -0.744 OA
ENDBRANCH  79  80
ENDBRANCH  60  74
BRANCH  61  84
ATOM     84  C   UNL A   1      43.677  25.413  26.080  1.00  0.00    -0.014 A 
ATOM     85  C   UNL A   1      44.782  25.105  25.261  1.00  0.00     0.010 A 
ATOM     86  C   UNL A   1      42.821  24.351  26.438  1.00  0.00     0.010 A 
ATOM     87  C   UNL A   1      45.053  23.779  24.873  1.00  0.00     0.020 A 
ATOM     88  C   UNL A   1      43.080  23.029  26.051  1.00  0.00     0.020 A 
ATOM     89  C   UNL A   1      44.210  22.745  25.290  1.00  0.00     0.054 A 
BRANCH  89  90
ATOM     90  S   UNL A   1      44.664  21.016  24.947  1.00  0.00     0.124 S 
ATOM     91  O   UNL A   1      46.031  20.947  25.453  1.00  0.00    -0.237 OA
ATOM     92  O   UNL A   1      43.669  20.269  25.712  1.00  0.00    -0.237 OA
ATOM     93  O   UNL A   1      44.532  20.908  23.496  1.00  0.00    -0.744 OA
ENDBRANCH  89  90
ENDBRANCH  61  84
BRANCH  73  94
ATOM     94  C   UNL A   1      45.179  31.127  28.406  1.00  0.00    -0.014 A 
ATOM     95  C   UNL A   1      44.152  31.621  27.576  1.00  0.00     0.010 A 
ATOM     96  C   UNL A   1      46.436  31.754  28.348  1.00  0.00     0.010 A 
ATOM     97  C   UNL A   1      44.388  32.691  26.696  1.00  0.00     0.020 A 
ATOM     98  C   UNL A   1      46.673  32.832  27.490  1.00  0.00     0.020 A 
ATOM     99  C   UNL A   1      45.651  33.289  26.659  1.00  0.00     0.054 A 
BRANCH  99 100
ATOM    100  S   UNL A   1      45.950  34.695  25.549  1.00  0.00     0.124 S 
ATOM    101  O   UNL A   1      45.530  35.835  26.359  1.00  0.00    -0.237 OA
ATOM    102  O   UNL A   1      47.385  34.604  25.288  1.00  0.00    -0.237 OA
ATOM    103  O   UNL A   1      45.101  34.413  24.392  1.00  0.00    -0.744 OA
ENDBRANCH  99 100
ENDBRANCH  73  94
ENDBRANCH  47  48
ENDBRANCH  39  42
ENDBRANCH  37  38
ENDBRANCH   1  37
TORSDOF 18
ENDMDL
MODEL 3
REMARK VINA RESULT:     -11.3      5.064      8.278
REMARK SMILES O=C1C[C@@H](c2cccc(O)c2)c2c(c(C(=O)NCCCCNC(=O)c3ccc(-c4c5nc(c(-c6ccc(S(=O)(=O)[O-])cc6)c6ccc([nH]6)c(-c6ccc(S(=O)(=O)[O-])cc6)c6nc(c(-c7ccc(S(=O)(=O)[O-])cc7)c7ccc4[nH]7)C=C6)C=C5)cc3)cn2-c2cccc(C(F)(F)F)c2)N1
REMARK SMILES IDX 20 1 19 2 18 3 17 4 15 5 16 6 14 8 1 9 2 10 3 11 97 12 4 13
REMARK SMILES IDX 13 14 12 16 86 17 85 18 5 19 6 20 11 21 7 22 9 23 8 24 10 25
REMARK SMILES IDX 87 27 88 28 96 29 89 30 91 31 90 32 92 33 93 34 94 35 95 36
REMARK SMILES IDX 21 37 22 38 23 39 24 41 25 42 26 43 84 44 27 45 83 46 28 47
REMARK SMILES IDX 29 48 30 49 77 50 31 51 82 52 76 53 78 54 32 55 81 56 75 57
REMARK SMILES IDX 74 58 33 60 63 61 44 62 62 63 45 64 48 65 61 66 79 67 46 68
REMARK SMILES IDX 47 69 60 71 80 72 49 73 34 74 35 75 43 76 36 77 42 78 37 79
REMARK SMILES IDX 38 80 39 81 40 82 41 83 64 84 65 85 73 86 66 87 72 88 67 89
REMARK SMILES IDX 68 90 69 91 70 92 71 93 50 94 51 95 59 96 52 97 58 98 53 99
REMARK SMILES IDX 54 100 55 101 56 102 57 103
REMARK H PARENT 17 7 97 15 10 26 22 40 78 59 48 70
REMARK Flexibility Score: inf
ROOT
ATOM      1  C   UNL A   1      46.239  27.473  33.345  1.00  0.00     0.023 C 
ENDROOT
BRANCH   1   2
ATOM      2  C   UNL A   1      46.984  26.962  32.100  1.00  0.00     0.023 C 
BRANCH   2   3
ATOM      3  C   UNL A   1      46.245  27.169  30.774  1.00  0.00     0.116 C 
BRANCH   3   4
ATOM      4  N   UNL A   1      45.272  26.129  30.513  1.00  0.00    -0.352 N 
ATOM      5  C   UNL A   1      43.976  26.129  30.067  1.00  0.00     0.254 C 
ATOM      6  O   UNL A   1      43.420  25.029  30.012  1.00  0.00    -0.269 OA
ATOM      7  H   UNL A   1      45.617  25.225  30.695  1.00  0.00     0.163 HD
BRANCH   5   8
ATOM      8  C   UNL A   1      43.242  27.337  29.692  1.00  0.00     0.081 A 
ATOM      9  O   UNL A   1      40.355  25.745  26.202  1.00  0.00    -0.275 OA
ATOM     10  C   UNL A   1      40.882  26.661  26.831  1.00  0.00     0.225 C 
ATOM     11  C   UNL A   1      40.656  28.121  26.455  1.00  0.00     0.115 C 
ATOM     12  N   UNL A   1      41.780  26.415  27.840  1.00  0.00    -0.324 N 
ATOM     13  C   UNL A   1      40.640  29.088  27.656  1.00  0.00     0.078 C 
ATOM     14  C   UNL A   1      42.243  27.406  28.677  1.00  0.00     0.076 A 
ATOM     15  H   UNL A   1      42.107  25.496  27.970  1.00  0.00     0.170 HD
ATOM     16  C   UNL A   1      41.699  28.671  28.635  1.00  0.00     0.055 A 
ATOM     17  N   UNL A   1      42.357  29.433  29.574  1.00  0.00    -0.317 N 
ATOM     18  C   UNL A   1      43.317  28.632  30.171  1.00  0.00     0.107 A 
BRANCH  13  19
ATOM     19  C   UNL A   1      39.254  29.174  28.276  1.00  0.00    -0.035 A 
ATOM     20  C   UNL A   1      38.973  28.655  29.551  1.00  0.00     0.005 A 
ATOM     21  C   UNL A   1      38.234  29.852  27.587  1.00  0.00     0.050 A 
ATOM     22  C   UNL A   1      37.725  28.853  30.141  1.00  0.00     0.004 A 
ATOM     23  C   UNL A   1      37.006  30.074  28.201  1.00  0.00     0.115 A 
ATOM     24  C   UNL A   1      36.741  29.580  29.473  1.00  0.00     0.046 A 
BRANCH  23  25
ATOM     25  O   UNL A   1      36.095  30.838  27.534  1.00  0.00    -0.508 OA
ATOM     26  H   UNL A   1      35.480  31.358  28.013  1.00  0.00     0.293 HD
ENDBRANCH  23  25
ENDBRANCH  13  19
BRANCH  17  27
ATOM     27  C   UNL A   1      42.101  30.748  30.029  1.00  0.00     0.046 A 
ATOM     28  C   UNL A   1      40.945  30.997  30.778  1.00  0.00     0.026 A 
ATOM     29  C   UNL A   1      42.870  31.810  29.552  1.00  0.00     0.039 A 
ATOM     30  C   UNL A   1      40.590  32.309  31.091  1.00  0.00     0.003 A 
ATOM     31  C   UNL A   1      42.515  33.135  29.851  1.00  0.00     0.058 A 
ATOM     32  C   UNL A   1      41.373  33.372  30.634  1.00  0.00     0.013 A 
BRANCH  31  33
ATOM     33  C   UNL A   1      43.314  34.297  29.314  1.00  0.00     0.416 C 
ATOM     34  F   UNL A   1      44.533  34.409  29.919  1.00  0.00    -0.166 F 
ATOM     35  F   UNL A   1      43.575  34.185  27.983  1.00  0.00    -0.166 F 
ATOM     36  F   UNL A   1      42.719  35.511  29.479  1.00  0.00    -0.166 F 
ENDBRANCH  31  33
ENDBRANCH  17  27
ENDBRANCH   5   8
ENDBRANCH   3   4
ENDBRANCH   2   3
ENDBRANCH   1   2
BRANCH   1  37
ATOM     37  C   UNL A   1      46.200  26.501  34.522  1.00  0.00     0.116 C 
BRANCH  37  38
ATOM     38  N   UNL A   1      45.324  25.350  34.295  1.00  0.00    -0.352 N 
ATOM     39  C   UNL A   1      43.979  25.230  34.612  1.00  0.00     0.251 C 
ATOM     40  H   UNL A   1      45.740  24.567  33.866  1.00  0.00     0.163 HD
ATOM     41  O   UNL A   1      43.462  24.136  34.764  1.00  0.00    -0.269 OA
BRANCH  39  42
ATOM     42  C   UNL A   1      43.182  26.465  34.729  1.00  0.00     0.039 A 
ATOM     43  C   UNL A   1      42.979  27.115  35.949  1.00  0.00     0.014 A 
ATOM     44  C   UNL A   1      42.669  26.988  33.547  1.00  0.00     0.014 A 
ATOM     45  C   UNL A   1      42.321  28.345  35.947  1.00  0.00     0.010 A 
ATOM     46  C   UNL A   1      42.190  28.268  33.524  1.00  0.00     0.010 A 
ATOM     47  C   UNL A   1      41.945  28.922  34.723  1.00  0.00    -0.014 A 
BRANCH  47  48
ATOM     48  C   UNL A   1      41.388  30.267  34.652  1.00  0.00     0.031 A 
ATOM     49  C   UNL A   1      42.403  31.352  34.584  1.00  0.00     0.074 A 
ATOM     50  C   UNL A   1      40.078  30.498  34.409  1.00  0.00     0.049 A 
ATOM     51  N   UNL A   1      42.667  32.238  35.486  1.00  0.00    -0.248 NA
ATOM     52  C   UNL A   1      43.335  31.368  33.443  1.00  0.00     0.031 C 
ATOM     53  C   UNL A   1      39.016  29.528  34.111  1.00  0.00     0.029 A 
ATOM     54  N   UNL A   1      39.439  31.684  34.244  1.00  0.00    -0.354 N 
ATOM     55  C   UNL A   1      43.642  33.063  34.937  1.00  0.00     0.074 A 
ATOM     56  C   UNL A   1      44.151  32.370  33.780  1.00  0.00     0.031 C 
ATOM     57  C   UNL A   1      37.962  30.166  33.554  1.00  0.00     0.029 A 
ATOM     58  C   UNL A   1      38.199  31.596  33.622  1.00  0.00     0.049 A 
ATOM     59  H   UNL A   1      39.825  32.540  34.542  1.00  0.00     0.167 HD
ATOM     60  C   UNL A   1      43.782  34.362  35.326  1.00  0.00     0.031 A 
ATOM     61  C   UNL A   1      37.445  32.627  33.158  1.00  0.00     0.031 A 
ATOM     62  C   UNL A   1      43.047  34.637  36.535  1.00  0.00     0.049 A 
ATOM     63  C   UNL A   1      37.921  33.848  33.857  1.00  0.00     0.074 A 
ATOM     64  C   UNL A   1      43.066  34.107  37.811  1.00  0.00     0.029 A 
ATOM     65  N   UNL A   1      41.825  35.258  36.405  1.00  0.00    -0.354 N 
ATOM     66  N   UNL A   1      37.807  34.021  35.145  1.00  0.00    -0.248 NA
ATOM     67  C   UNL A   1      38.964  34.632  33.214  1.00  0.00     0.031 C 
ATOM     68  C   UNL A   1      41.691  33.982  38.170  1.00  0.00     0.029 A 
ATOM     69  C   UNL A   1      40.922  34.535  37.144  1.00  0.00     0.049 A 
ATOM     70  H   UNL A   1      41.636  36.069  35.878  1.00  0.00     0.167 HD
ATOM     71  C   UNL A   1      39.018  34.574  35.539  1.00  0.00     0.074 A 
ATOM     72  C   UNL A   1      39.659  35.004  34.294  1.00  0.00     0.031 C 
ATOM     73  C   UNL A   1      39.524  34.374  36.794  1.00  0.00     0.031 A 
BRANCH  60  74
ATOM     74  C   UNL A   1      44.267  35.457  34.414  1.00  0.00    -0.014 A 
ATOM     75  C   UNL A   1      45.116  36.458  34.924  1.00  0.00     0.010 A 
ATOM     76  C   UNL A   1      43.717  35.676  33.132  1.00  0.00     0.010 A 
ATOM     77  C   UNL A   1      45.373  37.631  34.201  1.00  0.00     0.020 A 
ATOM     78  C   UNL A   1      44.001  36.821  32.385  1.00  0.00     0.020 A 
ATOM     79  C   UNL A   1      44.808  37.805  32.936  1.00  0.00     0.054 A 
BRANCH  79  80
ATOM     80  S   UNL A   1      45.095  39.348  32.037  1.00  0.00     0.124 S 
ATOM     81  O   UNL A   1      44.822  38.948  30.659  1.00  0.00    -0.237 OA
ATOM     82  O   UNL A   1      44.115  40.246  32.643  1.00  0.00    -0.237 OA
ATOM     83  O   UNL A   1      46.489  39.664  32.334  1.00  0.00    -0.744 OA
ENDBRANCH  79  80
ENDBRANCH  60  74
BRANCH  61  84
ATOM     84  C   UNL A   1      36.610  32.663  31.926  1.00  0.00    -0.014 A 
ATOM     85  C   UNL A   1      35.221  32.435  31.972  1.00  0.00     0.010 A 
ATOM     86  C   UNL A   1      37.138  33.203  30.735  1.00  0.00     0.010 A 
ATOM     87  C   UNL A   1      34.387  32.792  30.894  1.00  0.00     0.020 A 
ATOM     88  C   UNL A   1      36.317  33.556  29.655  1.00  0.00     0.020 A 
ATOM     89  C   UNL A   1      34.941  33.372  29.749  1.00  0.00     0.054 A 
BRANCH  89  90
ATOM     90  S   UNL A   1      33.848  34.004  28.438  1.00  0.00     0.124 S 
ATOM     91  O   UNL A   1      34.694  34.993  27.778  1.00  0.00    -0.237 OA
ATOM     92  O   UNL A   1      33.556  32.802  27.662  1.00  0.00    -0.237 OA
ATOM     93  O   UNL A   1      32.710  34.552  29.175  1.00  0.00    -0.744 OA
ENDBRANCH  89  90
ENDBRANCH  61  84
BRANCH  73  94
ATOM     94  C   UNL A   1      38.641  33.732  37.847  1.00  0.00    -0.014 A 
ATOM     95  C   UNL A   1      38.029  32.469  37.707  1.00  0.00     0.010 A 
ATOM     96  C   UNL A   1      38.569  34.367  39.099  1.00  0.00     0.010 A 
ATOM     97  C   UNL A   1      37.345  31.877  38.783  1.00  0.00     0.020 A 
ATOM     98  C   UNL A   1      37.908  33.775  40.179  1.00  0.00     0.020 A 
ATOM     99  C   UNL A   1      37.288  32.537  40.013  1.00  0.00     0.054 A 
BRANCH  99 100
ATOM    100  S   UNL A   1      36.435  31.759  41.415  1.00  0.00     0.124 S 
ATOM    101  O   UNL A   1      36.300  32.866  42.358  1.00  0.00    -0.237 OA
ATOM    102  O   UNL A   1      35.188  31.288  40.816  1.00  0.00    -0.237 OA
ATOM    103  O   UNL A   1      37.349  30.698  41.836  1.00  0.00    -0.744 OA
ENDBRANCH  99 100
ENDBRANCH  73  94
ENDBRANCH  47  48
ENDBRANCH  39  42
ENDBRANCH  37  38
ENDBRANCH   1  37
TORSDOF 18
ENDMDL
