MODEL 1
REMARK VINA RESULT:     -10.3      0.000      0.000
REMARK SMILES [NH3+][C@H](Cc1ccc2nsnc2c1)C(=O)NCCCCNC(=O)c1ccc(-c2c3nc(c(-c4ccc(S(=O)(=O)[O-])cc4)c4ccc([nH]4)c(-c4ccc(S(=O)(=O)[O-])cc4)c4nc(c(-c5ccc(S(=O)(=O)[O-])cc5)c5ccc2[nH]5)C=C4)C=C3)cc1
REMARK SMILES IDX 18 1 17 2 16 3 15 4 13 5 14 6 2 8 1 9 3 13 4 14 5 15 12 16
REMARK SMILES IDX 6 17 11 18 7 19 10 20 8 21 9 22 19 23 20 24 21 25 22 27
REMARK SMILES IDX 23 28 24 29 82 30 25 31 81 32 26 33 27 34 28 35 75 36 29 37
REMARK SMILES IDX 80 38 74 39 76 40 30 41 79 42 73 43 72 44 31 46 61 47 42 48
REMARK SMILES IDX 60 49 43 50 46 51 59 52 77 53 44 54 45 55 58 57 78 58 47 59
REMARK SMILES IDX 32 60 33 61 41 62 34 63 40 64 35 65 36 66 37 67 38 68 39 69
REMARK SMILES IDX 62 70 63 71 71 72 64 73 70 74 65 75 66 76 67 77 68 78 69 79
REMARK SMILES IDX 48 80 49 81 57 82 50 83 56 84 51 85 52 86 53 87 54 88 55 89
REMARK H PARENT 15 7 1 10 1 11 1 12 20 26 76 45 46 56
REMARK Flexibility Score: inf
ROOT
ATOM      1  C   UNL A   1      34.501  33.901  27.938  1.00  0.00     0.023 C 
ENDROOT
BRANCH   1   2
ATOM      2  C   UNL A   1      33.454  34.919  28.385  1.00  0.00     0.023 C 
BRANCH   2   3
ATOM      3  C   UNL A   1      33.987  36.201  29.017  1.00  0.00     0.116 C 
BRANCH   3   4
ATOM      4  N   UNL A   1      33.158  36.700  30.096  1.00  0.00    -0.351 N 
ATOM      5  C   UNL A   1      32.927  36.269  31.365  1.00  0.00     0.278 C 
ATOM      6  O   UNL A   1      32.110  36.919  32.029  1.00  0.00    -0.268 OA
ATOM      7  H   UNL A   1      32.659  37.516  29.863  1.00  0.00     0.163 HD
BRANCH   5   8
ATOM      8  C   UNL A   1      33.632  35.048  31.991  1.00  0.00     0.275 C 
BRANCH   8   9
ATOM      9  N   UNL A   1      32.733  34.369  32.963  1.00  0.00    -0.347 N 
ATOM     10  H   UNL A   1      33.078  33.425  33.141  1.00  0.00     0.345 HD
ATOM     11  H   UNL A   1      31.791  34.321  32.578  1.00  0.00     0.345 HD
ATOM     12  H   UNL A   1      32.719  34.895  33.836  1.00  0.00     0.345 HD
ENDBRANCH   8   9
BRANCH   8  13
ATOM     13  C   UNL A   1      35.094  35.186  32.491  1.00  0.00     0.111 C 
BRANCH  13  14
ATOM     14  C   UNL A   1      35.929  33.976  32.872  1.00  0.00    -0.039 A 
ATOM     15  C   UNL A   1      36.559  33.157  31.897  1.00  0.00     0.006 A 
ATOM     16  C   UNL A   1      36.059  33.698  34.260  1.00  0.00     0.035 A 
ATOM     17  C   UNL A   1      37.465  32.121  32.211  1.00  0.00     0.032 A 
ATOM     18  C   UNL A   1      36.979  32.686  34.631  1.00  0.00     0.105 A 
ATOM     19  C   UNL A   1      37.709  31.895  33.584  1.00  0.00     0.104 A 
ATOM     20  N   UNL A   1      37.320  32.356  35.886  1.00  0.00    -0.173 NA
ATOM     21  N   UNL A   1      38.578  31.016  34.102  1.00  0.00    -0.173 NA
ATOM     22  S   UNL A   1      38.491  31.182  35.753  1.00  0.00     0.069 S 
ENDBRANCH  13  14
ENDBRANCH   8  13
ENDBRANCH   5   8
ENDBRANCH   3   4
ENDBRANCH   2   3
ENDBRANCH   1   2
BRANCH   1  23
ATOM     23  C   UNL A   1      34.652  32.719  28.882  1.00  0.00     0.116 C 
BRANCH  23  24
ATOM     24  N   UNL A   1      33.923  31.553  28.404  1.00  0.00    -0.352 N 
ATOM     25  C   UNL A   1      34.390  30.326  28.000  1.00  0.00     0.251 C 
ATOM     26  H   UNL A   1      32.945  31.660  28.366  1.00  0.00     0.163 HD
ATOM     27  O   UNL A   1      33.637  29.558  27.410  1.00  0.00    -0.269 OA
BRANCH  25  28
ATOM     28  C   UNL A   1      35.791  29.935  28.271  1.00  0.00     0.039 A 
ATOM     29  C   UNL A   1      36.738  30.036  27.249  1.00  0.00     0.014 A 
ATOM     30  C   UNL A   1      36.164  29.438  29.521  1.00  0.00     0.014 A 
ATOM     31  C   UNL A   1      38.068  29.684  27.497  1.00  0.00     0.010 A 
ATOM     32  C   UNL A   1      37.501  29.183  29.796  1.00  0.00     0.010 A 
ATOM     33  C   UNL A   1      38.464  29.278  28.781  1.00  0.00    -0.014 A 
BRANCH  33  34
ATOM     34  C   UNL A   1      39.865  28.896  29.086  1.00  0.00     0.031 A 
ATOM     35  C   UNL A   1      40.789  29.906  29.718  1.00  0.00     0.074 A 
ATOM     36  C   UNL A   1      40.328  27.683  28.724  1.00  0.00     0.049 A 
ATOM     37  N   UNL A   1      42.073  29.820  29.951  1.00  0.00    -0.248 NA
ATOM     38  C   UNL A   1      40.198  31.201  30.100  1.00  0.00     0.031 C 
ATOM     39  C   UNL A   1      39.545  26.636  28.063  1.00  0.00     0.029 A 
ATOM     40  N   UNL A   1      41.577  27.129  28.855  1.00  0.00    -0.354 N 
ATOM     41  C   UNL A   1      42.448  31.060  30.459  1.00  0.00     0.074 A 
ATOM     42  C   UNL A   1      41.268  31.894  30.457  1.00  0.00     0.031 C 
ATOM     43  C   UNL A   1      40.322  25.557  27.878  1.00  0.00     0.029 A 
ATOM     44  C   UNL A   1      41.665  25.848  28.366  1.00  0.00     0.049 A 
ATOM     45  H   UNL A   1      42.336  27.605  29.261  1.00  0.00     0.167 HD
ATOM     46  C   UNL A   1      43.661  31.462  30.906  1.00  0.00     0.031 A 
ATOM     47  C   UNL A   1      42.714  25.004  28.315  1.00  0.00     0.031 A 
ATOM     48  C   UNL A   1      44.817  30.610  30.956  1.00  0.00     0.049 A 
ATOM     49  C   UNL A   1      44.040  25.454  28.864  1.00  0.00     0.074 A 
ATOM     50  C   UNL A   1      46.073  30.889  31.464  1.00  0.00     0.029 A 
ATOM     51  N   UNL A   1      44.852  29.303  30.492  1.00  0.00    -0.354 N 
ATOM     52  N   UNL A   1      44.362  26.613  29.389  1.00  0.00    -0.248 NA
ATOM     53  C   UNL A   1      45.139  24.481  28.824  1.00  0.00     0.031 C 
ATOM     54  C   UNL A   1      46.879  29.760  31.278  1.00  0.00     0.029 A 
ATOM     55  C   UNL A   1      46.110  28.764  30.693  1.00  0.00     0.049 A 
ATOM     56  H   UNL A   1      44.094  28.828  30.080  1.00  0.00     0.167 HD
ATOM     57  C   UNL A   1      45.695  26.499  29.766  1.00  0.00     0.074 A 
ATOM     58  C   UNL A   1      46.114  25.156  29.420  1.00  0.00     0.031 C 
ATOM     59  C   UNL A   1      46.502  27.423  30.345  1.00  0.00     0.031 A 
BRANCH  46  60
ATOM     60  C   UNL A   1      43.792  32.886  31.380  1.00  0.00    -0.014 A 
ATOM     61  C   UNL A   1      43.656  33.216  32.741  1.00  0.00     0.010 A 
ATOM     62  C   UNL A   1      44.071  33.908  30.454  1.00  0.00     0.010 A 
ATOM     63  C   UNL A   1      43.745  34.546  33.160  1.00  0.00     0.020 A 
ATOM     64  C   UNL A   1      44.191  35.236  30.874  1.00  0.00     0.020 A 
ATOM     65  C   UNL A   1      44.005  35.549  32.222  1.00  0.00     0.054 A 
BRANCH  65  66
ATOM     66  S   UNL A   1      44.126  37.267  32.794  1.00  0.00     0.124 S 
ATOM     67  O   UNL A   1      42.995  37.357  33.714  1.00  0.00    -0.237 OA
ATOM     68  O   UNL A   1      45.446  37.306  33.418  1.00  0.00    -0.237 OA
ATOM     69  O   UNL A   1      43.997  38.049  31.568  1.00  0.00    -0.744 OA
ENDBRANCH  65  66
ENDBRANCH  46  60
BRANCH  47  70
ATOM     70  C   UNL A   1      42.541  23.635  27.758  1.00  0.00    -0.014 A 
ATOM     71  C   UNL A   1      42.860  23.373  26.414  1.00  0.00     0.010 A 
ATOM     72  C   UNL A   1      42.081  22.582  28.570  1.00  0.00     0.010 A 
ATOM     73  C   UNL A   1      42.705  22.088  25.886  1.00  0.00     0.020 A 
ATOM     74  C   UNL A   1      41.949  21.290  28.051  1.00  0.00     0.020 A 
ATOM     75  C   UNL A   1      42.251  21.055  26.709  1.00  0.00     0.054 A 
BRANCH  75  76
ATOM     76  S   UNL A   1      42.110  19.383  26.016  1.00  0.00     0.124 S 
ATOM     77  O   UNL A   1      40.678  19.284  25.752  1.00  0.00    -0.237 OA
ATOM     78  O   UNL A   1      42.967  19.455  24.834  1.00  0.00    -0.237 OA
ATOM     79  O   UNL A   1      42.611  18.526  27.087  1.00  0.00    -0.744 OA
ENDBRANCH  75  76
ENDBRANCH  47  70
BRANCH  59  80
ATOM     80  C   UNL A   1      47.906  27.001  30.676  1.00  0.00    -0.014 A 
ATOM     81  C   UNL A   1      48.949  27.163  29.748  1.00  0.00     0.010 A 
ATOM     82  C   UNL A   1      48.193  26.492  31.955  1.00  0.00     0.010 A 
ATOM     83  C   UNL A   1      50.254  26.797  30.085  1.00  0.00     0.020 A 
ATOM     84  C   UNL A   1      49.501  26.149  32.304  1.00  0.00     0.020 A 
ATOM     85  C   UNL A   1      50.521  26.291  31.362  1.00  0.00     0.054 A 
BRANCH  85  86
ATOM     86  S   UNL A   1      52.231  25.870  31.795  1.00  0.00     0.124 S 
ATOM     87  O   UNL A   1      52.946  26.206  30.567  1.00  0.00    -0.237 OA
ATOM     88  O   UNL A   1      52.499  26.743  32.936  1.00  0.00    -0.237 OA
ATOM     89  O   UNL A   1      52.167  24.444  32.111  1.00  0.00    -0.744 OA
ENDBRANCH  85  86
ENDBRANCH  59  80
ENDBRANCH  33  34
ENDBRANCH  25  28
ENDBRANCH  23  24
ENDBRANCH   1  23
TORSDOF 17
ENDMDL
MODEL 2
REMARK VINA RESULT:     -10.0      3.173     11.622
REMARK SMILES [NH3+][C@H](Cc1ccc2nsnc2c1)C(=O)NCCCCNC(=O)c1ccc(-c2c3nc(c(-c4ccc(S(=O)(=O)[O-])cc4)c4ccc([nH]4)c(-c4ccc(S(=O)(=O)[O-])cc4)c4nc(c(-c5ccc(S(=O)(=O)[O-])cc5)c5ccc2[nH]5)C=C4)C=C3)cc1
REMARK SMILES IDX 18 1 17 2 16 3 15 4 13 5 14 6 2 8 1 9 3 13 4 14 5 15 12 16
REMARK SMILES IDX 6 17 11 18 7 19 10 20 8 21 9 22 19 23 20 24 21 25 22 27
REMARK SMILES IDX 23 28 24 29 82 30 25 31 81 32 26 33 27 34 28 35 75 36 29 37
REMARK SMILES IDX 80 38 74 39 76 40 30 41 79 42 73 43 72 44 31 46 61 47 42 48
REMARK SMILES IDX 60 49 43 50 46 51 59 52 77 53 44 54 45 55 58 57 78 58 47 59
REMARK SMILES IDX 32 60 33 61 41 62 34 63 40 64 35 65 36 66 37 67 38 68 39 69
REMARK SMILES IDX 62 70 63 71 71 72 64 73 70 74 65 75 66 76 67 77 68 78 69 79
REMARK SMILES IDX 48 80 49 81 57 82 50 83 56 84 51 85 52 86 53 87 54 88 55 89
REMARK H PARENT 15 7 1 10 1 11 1 12 20 26 76 45 46 56
REMARK Flexibility Score: inf
ROOT
ATOM      1  C   UNL A   1      41.415  21.700  27.660  1.00  0.00     0.023 C 
ENDROOT
BRANCH   1   2
ATOM      2  C   UNL A   1      42.427  22.623  28.336  1.00  0.00     0.023 C 
BRANCH   2   3
ATOM      3  C   UNL A   1      43.500  23.224  27.432  1.00  0.00     0.116 C 
BRANCH   3   4
ATOM      4  N   UNL A   1      44.482  22.258  26.982  1.00  0.00    -0.351 N 
ATOM      5  C   UNL A   1      45.271  22.182  25.878  1.00  0.00     0.278 C 
ATOM      6  O   UNL A   1      45.987  21.179  25.779  1.00  0.00    -0.268 OA
ATOM      7  H   UNL A   1      44.602  21.503  27.603  1.00  0.00     0.163 HD
BRANCH   5   8
ATOM      8  C   UNL A   1      45.313  23.270  24.785  1.00  0.00     0.275 C 
BRANCH   8   9
ATOM      9  N   UNL A   1      45.336  22.651  23.433  1.00  0.00    -0.347 N 
ATOM     10  H   UNL A   1      46.303  22.562  23.117  1.00  0.00     0.345 HD
ATOM     11  H   UNL A   1      44.818  23.237  22.781  1.00  0.00     0.345 HD
ATOM     12  H   UNL A   1      44.907  21.726  23.476  1.00  0.00     0.345 HD
ENDBRANCH   8   9
BRANCH   8  13
ATOM     13  C   UNL A   1      46.293  24.463  24.936  1.00  0.00     0.111 C 
BRANCH  13  14
ATOM     14  C   UNL A   1      45.803  25.873  25.219  1.00  0.00    -0.039 A 
ATOM     15  C   UNL A   1      44.437  26.157  25.485  1.00  0.00     0.006 A 
ATOM     16  C   UNL A   1      46.781  26.905  25.212  1.00  0.00     0.035 A 
ATOM     17  C   UNL A   1      43.966  27.421  25.902  1.00  0.00     0.032 A 
ATOM     18  C   UNL A   1      46.367  28.187  25.651  1.00  0.00     0.105 A 
ATOM     19  C   UNL A   1      44.934  28.444  26.021  1.00  0.00     0.104 A 
ATOM     20  N   UNL A   1      47.163  29.254  25.819  1.00  0.00    -0.173 NA
ATOM     21  N   UNL A   1      44.722  29.691  26.464  1.00  0.00    -0.173 NA
ATOM     22  S   UNL A   1      46.194  30.461  26.431  1.00  0.00     0.069 S 
ENDBRANCH  13  14
ENDBRANCH   8  13
ENDBRANCH   5   8
ENDBRANCH   3   4
ENDBRANCH   2   3
ENDBRANCH   1   2
BRANCH   1  23
ATOM     23  C   UNL A   1      41.252  21.951  26.170  1.00  0.00     0.116 C 
BRANCH  23  24
ATOM     24  N   UNL A   1      39.851  22.095  25.800  1.00  0.00    -0.352 N 
ATOM     25  C   UNL A   1      38.936  23.052  26.167  1.00  0.00     0.251 C 
ATOM     26  H   UNL A   1      39.507  21.401  25.191  1.00  0.00     0.163 HD
ATOM     27  O   UNL A   1      37.745  22.867  25.938  1.00  0.00    -0.269 OA
BRANCH  25  28
ATOM     28  C   UNL A   1      39.383  24.292  26.838  1.00  0.00     0.039 A 
ATOM     29  C   UNL A   1      40.094  25.247  26.106  1.00  0.00     0.014 A 
ATOM     30  C   UNL A   1      39.132  24.499  28.195  1.00  0.00     0.014 A 
ATOM     31  C   UNL A   1      40.509  26.429  26.725  1.00  0.00     0.010 A 
ATOM     32  C   UNL A   1      39.455  25.714  28.784  1.00  0.00     0.010 A 
ATOM     33  C   UNL A   1      40.171  26.683  28.064  1.00  0.00    -0.014 A 
BRANCH  33  34
ATOM     34  C   UNL A   1      40.591  27.925  28.759  1.00  0.00     0.031 A 
ATOM     35  C   UNL A   1      41.966  28.002  29.373  1.00  0.00     0.074 A 
ATOM     36  C   UNL A   1      39.720  28.940  28.912  1.00  0.00     0.049 A 
ATOM     37  N   UNL A   1      42.484  28.937  30.126  1.00  0.00    -0.248 NA
ATOM     38  C   UNL A   1      42.863  26.855  29.142  1.00  0.00     0.031 C 
ATOM     39  C   UNL A   1      38.345  28.966  28.406  1.00  0.00     0.029 A 
ATOM     40  N   UNL A   1      39.860  30.149  29.548  1.00  0.00    -0.354 N 
ATOM     41  C   UNL A   1      43.741  28.470  30.496  1.00  0.00     0.074 A 
ATOM     42  C   UNL A   1      43.890  27.151  29.924  1.00  0.00     0.031 C 
ATOM     43  C   UNL A   1      37.782  30.143  28.721  1.00  0.00     0.029 A 
ATOM     44  C   UNL A   1      38.737  30.938  29.486  1.00  0.00     0.049 A 
ATOM     45  H   UNL A   1      40.688  30.423  30.004  1.00  0.00     0.167 HD
ATOM     46  C   UNL A   1      44.696  29.092  31.228  1.00  0.00     0.031 A 
ATOM     47  C   UNL A   1      38.503  32.164  29.993  1.00  0.00     0.031 A 
ATOM     48  C   UNL A   1      44.562  30.425  31.748  1.00  0.00     0.049 A 
ATOM     49  C   UNL A   1      39.596  32.856  30.761  1.00  0.00     0.074 A 
ATOM     50  C   UNL A   1      45.496  31.180  32.434  1.00  0.00     0.029 A 
ATOM     51  N   UNL A   1      43.424  31.208  31.625  1.00  0.00    -0.354 N 
ATOM     52  N   UNL A   1      40.797  32.420  31.056  1.00  0.00    -0.248 NA
ATOM     53  C   UNL A   1      39.304  34.208  31.254  1.00  0.00     0.031 C 
ATOM     54  C   UNL A   1      44.911  32.410  32.754  1.00  0.00     0.029 A 
ATOM     55  C   UNL A   1      43.627  32.435  32.229  1.00  0.00     0.049 A 
ATOM     56  H   UNL A   1      42.593  30.931  31.174  1.00  0.00     0.167 HD
ATOM     57  C   UNL A   1      41.416  33.455  31.747  1.00  0.00     0.074 A 
ATOM     58  C   UNL A   1      40.459  34.542  31.815  1.00  0.00     0.031 C 
ATOM     59  C   UNL A   1      42.662  33.503  32.279  1.00  0.00     0.031 A 
BRANCH  46  60
ATOM     60  C   UNL A   1      45.967  28.332  31.504  1.00  0.00    -0.014 A 
ATOM     61  C   UNL A   1      47.051  28.377  30.609  1.00  0.00     0.010 A 
ATOM     62  C   UNL A   1      46.087  27.576  32.684  1.00  0.00     0.010 A 
ATOM     63  C   UNL A   1      48.211  27.639  30.861  1.00  0.00     0.020 A 
ATOM     64  C   UNL A   1      47.257  26.860  32.956  1.00  0.00     0.020 A 
ATOM     65  C   UNL A   1      48.304  26.879  32.031  1.00  0.00     0.054 A 
BRANCH  65  66
ATOM     66  S   UNL A   1      49.823  25.938  32.340  1.00  0.00     0.124 S 
ATOM     67  O   UNL A   1      49.294  24.637  32.741  1.00  0.00    -0.237 OA
ATOM     68  O   UNL A   1      50.491  25.969  31.042  1.00  0.00    -0.237 OA
ATOM     69  O   UNL A   1      50.489  26.694  33.397  1.00  0.00    -0.744 OA
ENDBRANCH  65  66
ENDBRANCH  46  60
BRANCH  47  70
ATOM     70  C   UNL A   1      37.193  32.830  29.755  1.00  0.00    -0.014 A 
ATOM     71  C   UNL A   1      36.299  33.030  30.822  1.00  0.00     0.010 A 
ATOM     72  C   UNL A   1      36.843  33.288  28.472  1.00  0.00     0.010 A 
ATOM     73  C   UNL A   1      35.070  33.660  30.607  1.00  0.00     0.020 A 
ATOM     74  C   UNL A   1      35.624  33.940  28.259  1.00  0.00     0.020 A 
ATOM     75  C   UNL A   1      34.741  34.112  29.326  1.00  0.00     0.054 A 
BRANCH  75  76
ATOM     76  S   UNL A   1      33.163  34.976  29.082  1.00  0.00     0.124 S 
ATOM     77  O   UNL A   1      32.568  34.902  30.414  1.00  0.00    -0.237 OA
ATOM     78  O   UNL A   1      33.592  36.305  28.654  1.00  0.00    -0.237 OA
ATOM     79  O   UNL A   1      32.496  34.184  28.052  1.00  0.00    -0.744 OA
ENDBRANCH  75  76
ENDBRANCH  47  70
BRANCH  59  80
ATOM     80  C   UNL A   1      43.077  34.783  32.948  1.00  0.00    -0.014 A 
ATOM     81  C   UNL A   1      42.928  34.958  34.335  1.00  0.00     0.010 A 
ATOM     82  C   UNL A   1      43.679  35.800  32.186  1.00  0.00     0.010 A 
ATOM     83  C   UNL A   1      43.351  36.141  34.945  1.00  0.00     0.020 A 
ATOM     84  C   UNL A   1      44.126  36.974  32.796  1.00  0.00     0.020 A 
ATOM     85  C   UNL A   1      43.946  37.143  34.170  1.00  0.00     0.054 A 
BRANCH  85  86
ATOM     86  S   UNL A   1      44.534  38.650  34.990  1.00  0.00     0.124 S 
ATOM     87  O   UNL A   1      43.793  39.689  34.280  1.00  0.00    -0.237 OA
ATOM     88  O   UNL A   1      44.138  38.435  36.380  1.00  0.00    -0.237 OA
ATOM     89  O   UNL A   1      45.975  38.635  34.750  1.00  0.00    -0.744 OA
ENDBRANCH  85  86
ENDBRANCH  59  80
ENDBRANCH  33  34
ENDBRANCH  25  28
ENDBRANCH  23  24
ENDBRANCH   1  23
TORSDOF 17
ENDMDL
MODEL 3
REMARK VINA RESULT:     -10.0      4.459     13.059
REMARK SMILES [NH3+][C@H](Cc1ccc2nsnc2c1)C(=O)NCCCCNC(=O)c1ccc(-c2c3nc(c(-c4ccc(S(=O)(=O)[O-])cc4)c4ccc([nH]4)c(-c4ccc(S(=O)(=O)[O-])cc4)c4nc(c(-c5ccc(S(=O)(=O)[O-])cc5)c5ccc2[nH]5)C=C4)C=C3)cc1
REMARK SMILES IDX 18 1 17 2 16 3 15 4 13 5 14 6 2 8 1 9 3 13 4 14 5 15 12 16
REMARK SMILES IDX 6 17 11 18 7 19 10 20 8 21 9 22 19 23 20 24 21 25 22 27
REMARK SMILES IDX 23 28 24 29 82 30 25 31 81 32 26 33 27 34 28 35 75 36 29 37
REMARK SMILES IDX 80 38 74 39 76 40 30 41 79 42 73 43 72 44 31 46 61 47 42 48
REMARK SMILES IDX 60 49 43 50 46 51 59 52 77 53 44 54 45 55 58 57 78 58 47 59
REMARK SMILES IDX 32 60 33 61 41 62 34 63 40 64 35 65 36 66 37 67 38 68 39 69
REMARK SMILES IDX 62 70 63 71 71 72 64 73 70 74 65 75 66 76 67 77 68 78 69 79
REMARK SMILES IDX 48 80 49 81 57 82 50 83 56 84 51 85 52 86 53 87 54 88 55 89
REMARK H PARENT 15 7 1 10 1 11 1 12 20 26 76 45 46 56
REMARK Flexibility Score: inf
ROOT
ATOM      1  C   UNL A   1      42.346  21.632  27.941  1.00  0.00     0.023 C 
ENDROOT
BRANCH   1   2
ATOM      2  C   UNL A   1      42.429  21.163  26.490  1.00  0.00     0.023 C 
BRANCH   2   3
ATOM      3  C   UNL A   1      42.140  19.685  26.241  1.00  0.00     0.116 C 
BRANCH   3   4
ATOM      4  N   UNL A   1      43.336  18.879  26.103  1.00  0.00    -0.351 N 
ATOM      5  C   UNL A   1      44.436  18.979  25.310  1.00  0.00     0.278 C 
ATOM      6  O   UNL A   1      45.277  18.079  25.416  1.00  0.00    -0.268 OA
ATOM      7  H   UNL A   1      43.357  18.101  26.706  1.00  0.00     0.163 HD
BRANCH   5   8
ATOM      8  C   UNL A   1      44.672  20.141  24.323  1.00  0.00     0.275 C 
BRANCH   8   9
ATOM      9  N   UNL A   1      44.658  19.645  22.921  1.00  0.00    -0.347 N 
ATOM     10  H   UNL A   1      45.603  19.688  22.537  1.00  0.00     0.345 HD
ATOM     11  H   UNL A   1      44.036  20.225  22.361  1.00  0.00     0.345 HD
ATOM     12  H   UNL A   1      44.330  18.679  22.906  1.00  0.00     0.345 HD
ENDBRANCH   8   9
BRANCH   8  13
ATOM     13  C   UNL A   1      45.802  21.164  24.607  1.00  0.00     0.111 C 
BRANCH  13  14
ATOM     14  C   UNL A   1      45.505  22.593  25.025  1.00  0.00    -0.039 A 
ATOM     15  C   UNL A   1      44.384  23.308  24.523  1.00  0.00     0.006 A 
ATOM     16  C   UNL A   1      46.402  23.190  25.952  1.00  0.00     0.035 A 
ATOM     17  C   UNL A   1      43.986  24.576  24.999  1.00  0.00     0.032 A 
ATOM     18  C   UNL A   1      46.035  24.452  26.483  1.00  0.00     0.105 A 
ATOM     19  C   UNL A   1      44.792  25.148  26.010  1.00  0.00     0.104 A 
ATOM     20  N   UNL A   1      46.690  25.119  27.445  1.00  0.00    -0.173 NA
ATOM     21  N   UNL A   1      44.562  26.303  26.649  1.00  0.00    -0.173 NA
ATOM     22  S   UNL A   1      45.790  26.485  27.753  1.00  0.00     0.069 S 
ENDBRANCH  13  14
ENDBRANCH   8  13
ENDBRANCH   5   8
ENDBRANCH   3   4
ENDBRANCH   2   3
ENDBRANCH   1   2
BRANCH   1  23
ATOM     23  C   UNL A   1      41.898  23.076  28.095  1.00  0.00     0.116 C 
BRANCH  23  24
ATOM     24  N   UNL A   1      41.236  23.565  26.894  1.00  0.00    -0.352 N 
ATOM     25  C   UNL A   1      40.431  24.664  26.716  1.00  0.00     0.251 C 
ATOM     26  H   UNL A   1      41.391  23.026  26.084  1.00  0.00     0.163 HD
ATOM     27  O   UNL A   1      39.780  24.774  25.682  1.00  0.00    -0.269 OA
BRANCH  25  28
ATOM     28  C   UNL A   1      40.346  25.704  27.765  1.00  0.00     0.039 A 
ATOM     29  C   UNL A   1      39.343  25.616  28.734  1.00  0.00     0.014 A 
ATOM     30  C   UNL A   1      41.233  26.781  27.775  1.00  0.00     0.014 A 
ATOM     31  C   UNL A   1      39.261  26.585  29.738  1.00  0.00     0.010 A 
ATOM     32  C   UNL A   1      41.215  27.686  28.828  1.00  0.00     0.010 A 
ATOM     33  C   UNL A   1      40.213  27.614  29.807  1.00  0.00    -0.014 A 
BRANCH  33  34
ATOM     34  C   UNL A   1      40.163  28.662  30.857  1.00  0.00     0.031 A 
ATOM     35  C   UNL A   1      41.077  28.560  32.052  1.00  0.00     0.074 A 
ATOM     36  C   UNL A   1      39.249  29.649  30.782  1.00  0.00     0.049 A 
ATOM     37  N   UNL A   1      41.108  29.292  33.135  1.00  0.00    -0.248 NA
ATOM     38  C   UNL A   1      42.059  27.461  32.045  1.00  0.00     0.031 C 
ATOM     39  C   UNL A   1      38.277  29.829  29.701  1.00  0.00     0.029 A 
ATOM     40  N   UNL A   1      38.983  30.686  31.641  1.00  0.00    -0.354 N 
ATOM     41  C   UNL A   1      42.074  28.715  33.953  1.00  0.00     0.074 A 
ATOM     42  C   UNL A   1      42.572  27.547  33.263  1.00  0.00     0.031 C 
ATOM     43  C   UNL A   1      37.545  30.928  29.945  1.00  0.00     0.029 A 
ATOM     44  C   UNL A   1      37.965  31.506  31.217  1.00  0.00     0.049 A 
ATOM     45  H   UNL A   1      39.475  30.828  32.481  1.00  0.00     0.167 HD
ATOM     46  C   UNL A   1      42.521  29.132  35.161  1.00  0.00     0.031 A 
ATOM     47  C   UNL A   1      37.429  32.600  31.791  1.00  0.00     0.031 A 
ATOM     48  C   UNL A   1      42.060  30.325  35.816  1.00  0.00     0.049 A 
ATOM     49  C   UNL A   1      37.977  33.074  33.110  1.00  0.00     0.074 A 
ATOM     50  C   UNL A   1      42.502  30.882  37.002  1.00  0.00     0.029 A 
ATOM     51  N   UNL A   1      41.059  31.153  35.330  1.00  0.00    -0.354 N 
ATOM     52  N   UNL A   1      38.927  32.545  33.844  1.00  0.00    -0.248 NA
ATOM     53  C   UNL A   1      37.387  34.296  33.671  1.00  0.00     0.031 C 
ATOM     54  C   UNL A   1      41.744  32.033  37.250  1.00  0.00     0.029 A 
ATOM     55  C   UNL A   1      40.861  32.213  36.196  1.00  0.00     0.049 A 
ATOM     56  H   UNL A   1      40.561  31.008  34.493  1.00  0.00     0.167 HD
ATOM     57  C   UNL A   1      39.068  33.385  34.942  1.00  0.00     0.074 A 
ATOM     58  C   UNL A   1      38.114  34.462  34.769  1.00  0.00     0.031 C 
ATOM     59  C   UNL A   1      39.909  33.276  35.999  1.00  0.00     0.031 A 
BRANCH  46  60
ATOM     60  C   UNL A   1      43.566  28.289  35.845  1.00  0.00    -0.014 A 
ATOM     61  C   UNL A   1      43.204  27.225  36.691  1.00  0.00     0.010 A 
ATOM     62  C   UNL A   1      44.931  28.553  35.626  1.00  0.00     0.010 A 
ATOM     63  C   UNL A   1      44.184  26.475  37.346  1.00  0.00     0.020 A 
ATOM     64  C   UNL A   1      45.915  27.785  36.256  1.00  0.00     0.020 A 
ATOM     65  C   UNL A   1      45.534  26.764  37.130  1.00  0.00     0.054 A 
BRANCH  65  66
ATOM     66  S   UNL A   1      46.787  25.769  37.984  1.00  0.00     0.124 S 
ATOM     67  O   UNL A   1      46.794  26.372  39.314  1.00  0.00    -0.237 OA
ATOM     68  O   UNL A   1      46.232  24.420  37.911  1.00  0.00    -0.237 OA
ATOM     69  O   UNL A   1      47.997  25.984  37.194  1.00  0.00    -0.744 OA
ENDBRANCH  65  66
ENDBRANCH  46  60
BRANCH  47  70
ATOM     70  C   UNL A   1      36.340  33.345  31.102  1.00  0.00    -0.014 A 
ATOM     71  C   UNL A   1      35.108  33.550  31.747  1.00  0.00     0.010 A 
ATOM     72  C   UNL A   1      36.535  33.871  29.813  1.00  0.00     0.010 A 
ATOM     73  C   UNL A   1      34.082  34.253  31.108  1.00  0.00     0.020 A 
ATOM     74  C   UNL A   1      35.519  34.596  29.180  1.00  0.00     0.020 A 
ATOM     75  C   UNL A   1      34.295  34.772  29.829  1.00  0.00     0.054 A 
BRANCH  75  76
ATOM     76  S   UNL A   1      32.969  35.729  29.041  1.00  0.00     0.124 S 
ATOM     77  O   UNL A   1      32.366  34.738  28.155  1.00  0.00    -0.237 OA
ATOM     78  O   UNL A   1      32.152  36.138  30.181  1.00  0.00    -0.237 OA
ATOM     79  O   UNL A   1      33.681  36.816  28.374  1.00  0.00    -0.744 OA
ENDBRANCH  75  76
ENDBRANCH  47  70
BRANCH  59  80
ATOM     80  C   UNL A   1      39.863  34.367  37.033  1.00  0.00    -0.014 A 
ATOM     81  C   UNL A   1      40.615  35.545  36.877  1.00  0.00     0.010 A 
ATOM     82  C   UNL A   1      39.010  34.234  38.142  1.00  0.00     0.010 A 
ATOM     83  C   UNL A   1      40.533  36.562  37.830  1.00  0.00     0.020 A 
ATOM     84  C   UNL A   1      38.907  35.259  39.084  1.00  0.00     0.020 A 
ATOM     85  C   UNL A   1      39.679  36.412  38.929  1.00  0.00     0.054 A 
BRANCH  85  86
ATOM     86  S   UNL A   1      39.550  37.767  40.128  1.00  0.00     0.124 S 
ATOM     87  O   UNL A   1      39.389  37.043  41.386  1.00  0.00    -0.237 OA
ATOM     88  O   UNL A   1      40.824  38.465  39.964  1.00  0.00    -0.237 OA
ATOM     89  O   UNL A   1      38.376  38.513  39.682  1.00  0.00    -0.744 OA
ENDBRANCH  85  86
ENDBRANCH  59  80
ENDBRANCH  33  34
ENDBRANCH  25  28
ENDBRANCH  23  24
ENDBRANCH   1  23
TORSDOF 17
ENDMDL
