MODEL 1
REMARK VINA RESULT:     -11.4      0.000      0.000
REMARK SMILES O=C(NCCCCNC(=O)c1ccc(-c2c3nc(c(-c4ccc(S(=O)(=O)[O-])cc4)c4ccc([nH]4)c(-c4ccc(S(=O)(=O)[O-])cc4)c4nc(c(-c5ccc(S(=O)(=O)[O-])cc5)c5ccc2[nH]5)C=C4)C=C3)cc1)C1=Cc2cc(Cl)ccc2O[C@@H]1C(F)(F)F
REMARK SMILES IDX 6 1 5 2 4 3 3 4 1 5 2 6 71 8 72 9 81 10 73 11 80 12 74 13
REMARK SMILES IDX 79 14 75 15 78 16 76 17 77 18 82 19 83 20 84 21 85 22 7 23
REMARK SMILES IDX 8 24 9 25 10 27 11 28 12 29 70 30 13 31 69 32 14 33 15 34
REMARK SMILES IDX 16 35 63 36 17 37 68 38 62 39 64 40 18 41 67 42 61 43 60 44
REMARK SMILES IDX 19 46 49 47 30 48 48 49 31 50 34 51 47 52 65 53 32 54 33 55
REMARK SMILES IDX 46 57 66 58 35 59 20 60 21 61 29 62 22 63 28 64 23 65 24 66
REMARK SMILES IDX 25 67 26 68 27 69 50 70 51 71 59 72 52 73 58 74 53 75 54 76
REMARK SMILES IDX 55 77 56 78 57 79 36 80 37 81 45 82 38 83 44 84 39 85 40 86
REMARK SMILES IDX 41 87 42 88 43 89
REMARK H PARENT 3 7 8 26 64 45 34 56
REMARK Flexibility Score: inf
ROOT
ATOM      1  C   UNL A   1      32.057  28.480  26.466  1.00  0.00     0.023 C 
ENDROOT
BRANCH   1   2
ATOM      2  C   UNL A   1      31.392  27.276  27.124  1.00  0.00     0.023 C 
BRANCH   2   3
ATOM      3  C   UNL A   1      30.638  26.345  26.179  1.00  0.00     0.116 C 
BRANCH   3   4
ATOM      4  N   UNL A   1      30.984  24.934  26.306  1.00  0.00    -0.352 N 
ATOM      5  O   UNL A   1      32.327  23.128  26.407  1.00  0.00    -0.270 OA
ATOM      6  C   UNL A   1      32.154  24.281  26.015  1.00  0.00     0.251 C 
ATOM      7  H   UNL A   1      30.264  24.360  26.655  1.00  0.00     0.163 HD
BRANCH   6   8
ATOM      8  C   UNL A   1      33.280  24.971  25.322  1.00  0.00     0.067 C 
ATOM      9  C   UNL A   1      34.496  25.000  25.884  1.00  0.00     0.025 C 
ATOM     10  C   UNL A   1      33.147  25.005  23.821  1.00  0.00     0.314 C 
ATOM     11  C   UNL A   1      35.529  24.297  25.113  1.00  0.00     0.019 A 
ATOM     12  O   UNL A   1      34.075  24.110  23.157  1.00  0.00    -0.475 OA
ATOM     13  C   UNL A   1      36.660  23.834  25.796  1.00  0.00     0.032 A 
ATOM     14  C   UNL A   1      35.221  23.791  23.841  1.00  0.00     0.128 A 
ATOM     15  C   UNL A   1      37.433  22.820  25.232  1.00  0.00     0.041 A 
ATOM     16  C   UNL A   1      36.023  22.808  23.268  1.00  0.00     0.048 A 
ATOM     17  Cl  UNL A   1      38.721  22.136  26.141  1.00  0.00    -0.084 Cl
ATOM     18  C   UNL A   1      37.115  22.302  23.976  1.00  0.00     0.024 A 
BRANCH  10  19
ATOM     19  C   UNL A   1      33.301  26.448  23.302  1.00  0.00     0.429 C 
ATOM     20  F   UNL A   1      33.796  26.472  22.041  1.00  0.00    -0.167 F 
ATOM     21  F   UNL A   1      32.115  27.102  23.268  1.00  0.00    -0.167 F 
ATOM     22  F   UNL A   1      34.136  27.189  24.071  1.00  0.00    -0.167 F 
ENDBRANCH  10  19
ENDBRANCH   6   8
ENDBRANCH   3   4
ENDBRANCH   2   3
ENDBRANCH   1   2
BRANCH   1  23
ATOM     23  C   UNL A   1      33.410  28.912  27.031  1.00  0.00     0.116 C 
BRANCH  23  24
ATOM     24  N   UNL A   1      33.453  30.265  27.568  1.00  0.00    -0.352 N 
ATOM     25  C   UNL A   1      34.507  30.929  28.174  1.00  0.00     0.251 C 
ATOM     26  H   UNL A   1      32.617  30.779  27.488  1.00  0.00     0.163 HD
ATOM     27  O   UNL A   1      34.368  32.066  28.577  1.00  0.00    -0.269 OA
BRANCH  25  28
ATOM     28  C   UNL A   1      35.791  30.213  28.375  1.00  0.00     0.039 A 
ATOM     29  C   UNL A   1      36.742  30.244  27.352  1.00  0.00     0.014 A 
ATOM     30  C   UNL A   1      36.082  29.582  29.586  1.00  0.00     0.014 A 
ATOM     31  C   UNL A   1      38.025  29.743  27.589  1.00  0.00     0.010 A 
ATOM     32  C   UNL A   1      37.384  29.159  29.847  1.00  0.00     0.010 A 
ATOM     33  C   UNL A   1      38.375  29.251  28.858  1.00  0.00    -0.014 A 
BRANCH  33  34
ATOM     34  C   UNL A   1      39.779  28.881  29.177  1.00  0.00     0.031 A 
ATOM     35  C   UNL A   1      40.693  29.854  29.872  1.00  0.00     0.074 A 
ATOM     36  C   UNL A   1      40.257  27.685  28.775  1.00  0.00     0.049 A 
ATOM     37  N   UNL A   1      41.943  29.702  30.224  1.00  0.00    -0.248 NA
ATOM     38  C   UNL A   1      40.137  31.179  30.186  1.00  0.00     0.031 C 
ATOM     39  C   UNL A   1      39.499  26.672  28.035  1.00  0.00     0.029 A 
ATOM     40  N   UNL A   1      41.496  27.114  28.936  1.00  0.00    -0.354 N 
ATOM     41  C   UNL A   1      42.330  30.915  30.780  1.00  0.00     0.074 A 
ATOM     42  C   UNL A   1      41.196  31.807  30.673  1.00  0.00     0.031 C 
ATOM     43  C   UNL A   1      40.271  25.590  27.850  1.00  0.00     0.029 A 
ATOM     44  C   UNL A   1      41.588  25.840  28.427  1.00  0.00     0.049 A 
ATOM     45  H   UNL A   1      42.247  27.575  29.375  1.00  0.00     0.167 HD
ATOM     46  C   UNL A   1      43.514  31.253  31.346  1.00  0.00     0.031 A 
ATOM     47  C   UNL A   1      42.611  24.964  28.436  1.00  0.00     0.031 A 
ATOM     48  C   UNL A   1      44.638  30.363  31.468  1.00  0.00     0.049 A 
ATOM     49  C   UNL A   1      43.906  25.352  29.091  1.00  0.00     0.074 A 
ATOM     50  C   UNL A   1      45.852  30.587  32.095  1.00  0.00     0.029 A 
ATOM     51  N   UNL A   1      44.687  29.078  30.951  1.00  0.00    -0.354 N 
ATOM     52  N   UNL A   1      44.223  26.476  29.688  1.00  0.00    -0.248 NA
ATOM     53  C   UNL A   1      44.976  24.344  29.087  1.00  0.00     0.031 C 
ATOM     54  C   UNL A   1      46.651  29.451  31.918  1.00  0.00     0.029 A 
ATOM     55  C   UNL A   1      45.917  28.502  31.222  1.00  0.00     0.049 A 
ATOM     56  H   UNL A   1      43.954  28.637  30.461  1.00  0.00     0.167 HD
ATOM     57  C   UNL A   1      45.522  26.301  30.155  1.00  0.00     0.074 A 
ATOM     58  C   UNL A   1      45.924  24.959  29.781  1.00  0.00     0.031 C 
ATOM     59  C   UNL A   1      46.308  27.172  30.835  1.00  0.00     0.031 A 
BRANCH  46  60
ATOM     60  C   UNL A   1      43.647  32.660  31.868  1.00  0.00    -0.014 A 
ATOM     61  C   UNL A   1      43.320  32.976  33.199  1.00  0.00     0.010 A 
ATOM     62  C   UNL A   1      44.102  33.682  31.015  1.00  0.00     0.010 A 
ATOM     63  C   UNL A   1      43.385  34.297  33.650  1.00  0.00     0.020 A 
ATOM     64  C   UNL A   1      44.195  35.000  31.470  1.00  0.00     0.020 A 
ATOM     65  C   UNL A   1      43.810  35.303  32.778  1.00  0.00     0.054 A 
BRANCH  65  66
ATOM     66  S   UNL A   1      43.870  37.013  33.381  1.00  0.00     0.124 S 
ATOM     67  O   UNL A   1      43.922  37.768  32.131  1.00  0.00    -0.237 OA
ATOM     68  O   UNL A   1      42.625  37.133  34.135  1.00  0.00    -0.237 OA
ATOM     69  O   UNL A   1      45.088  37.053  34.185  1.00  0.00    -0.744 OA
ENDBRANCH  65  66
ENDBRANCH  46  60
BRANCH  47  70
ATOM     70  C   UNL A   1      42.430  23.606  27.853  1.00  0.00    -0.014 A 
ATOM     71  C   UNL A   1      42.820  23.355  26.525  1.00  0.00     0.010 A 
ATOM     72  C   UNL A   1      41.892  22.558  28.619  1.00  0.00     0.010 A 
ATOM     73  C   UNL A   1      42.663  22.082  25.969  1.00  0.00     0.020 A 
ATOM     74  C   UNL A   1      41.754  21.278  28.072  1.00  0.00     0.020 A 
ATOM     75  C   UNL A   1      42.134  21.051  26.748  1.00  0.00     0.054 A 
BRANCH  75  76
ATOM     76  S   UNL A   1      41.999  19.390  26.027  1.00  0.00     0.124 S 
ATOM     77  O   UNL A   1      42.549  18.553  27.088  1.00  0.00    -0.237 OA
ATOM     78  O   UNL A   1      40.562  19.260  25.798  1.00  0.00    -0.237 OA
ATOM     79  O   UNL A   1      42.809  19.480  24.814  1.00  0.00    -0.744 OA
ENDBRANCH  75  76
ENDBRANCH  47  70
BRANCH  59  80
ATOM     80  C   UNL A   1      47.673  26.686  31.243  1.00  0.00    -0.014 A 
ATOM     81  C   UNL A   1      48.785  26.841  30.395  1.00  0.00     0.010 A 
ATOM     82  C   UNL A   1      47.847  26.083  32.501  1.00  0.00     0.010 A 
ATOM     83  C   UNL A   1      50.038  26.360  30.781  1.00  0.00     0.020 A 
ATOM     84  C   UNL A   1      49.105  25.624  32.901  1.00  0.00     0.020 A 
ATOM     85  C   UNL A   1      50.189  25.749  32.029  1.00  0.00     0.054 A 
BRANCH  85  86
ATOM     86  S   UNL A   1      51.829  25.147  32.520  1.00  0.00     0.124 S 
ATOM     87  O   UNL A   1      51.742  23.728  32.186  1.00  0.00    -0.237 OA
ATOM     88  O   UNL A   1      52.727  25.936  31.680  1.00  0.00    -0.237 OA
ATOM     89  O   UNL A   1      51.894  25.449  33.948  1.00  0.00    -0.744 OA
ENDBRANCH  85  86
ENDBRANCH  59  80
ENDBRANCH  33  34
ENDBRANCH  25  28
ENDBRANCH  23  24
ENDBRANCH   1  23
TORSDOF 15
ENDMDL
MODEL 2
REMARK VINA RESULT:     -11.1      0.813      8.265
REMARK SMILES O=C(NCCCCNC(=O)c1ccc(-c2c3nc(c(-c4ccc(S(=O)(=O)[O-])cc4)c4ccc([nH]4)c(-c4ccc(S(=O)(=O)[O-])cc4)c4nc(c(-c5ccc(S(=O)(=O)[O-])cc5)c5ccc2[nH]5)C=C4)C=C3)cc1)C1=Cc2cc(Cl)ccc2O[C@@H]1C(F)(F)F
REMARK SMILES IDX 6 1 5 2 4 3 3 4 1 5 2 6 71 8 72 9 81 10 73 11 80 12 74 13
REMARK SMILES IDX 79 14 75 15 78 16 76 17 77 18 82 19 83 20 84 21 85 22 7 23
REMARK SMILES IDX 8 24 9 25 10 27 11 28 12 29 70 30 13 31 69 32 14 33 15 34
REMARK SMILES IDX 16 35 63 36 17 37 68 38 62 39 64 40 18 41 67 42 61 43 60 44
REMARK SMILES IDX 19 46 49 47 30 48 48 49 31 50 34 51 47 52 65 53 32 54 33 55
REMARK SMILES IDX 46 57 66 58 35 59 20 60 21 61 29 62 22 63 28 64 23 65 24 66
REMARK SMILES IDX 25 67 26 68 27 69 50 70 51 71 59 72 52 73 58 74 53 75 54 76
REMARK SMILES IDX 55 77 56 78 57 79 36 80 37 81 45 82 38 83 44 84 39 85 40 86
REMARK SMILES IDX 41 87 42 88 43 89
REMARK H PARENT 3 7 8 26 64 45 34 56
REMARK Flexibility Score: inf
ROOT
ATOM      1  C   UNL A   1      32.394  28.238  26.183  1.00  0.00     0.023 C 
ENDROOT
BRANCH   1   2
ATOM      2  C   UNL A   1      31.391  27.418  26.988  1.00  0.00     0.023 C 
BRANCH   2   3
ATOM      3  C   UNL A   1      30.684  26.307  26.217  1.00  0.00     0.116 C 
BRANCH   3   4
ATOM      4  N   UNL A   1      31.062  24.955  26.609  1.00  0.00    -0.352 N 
ATOM      5  O   UNL A   1      32.424  23.184  26.901  1.00  0.00    -0.270 OA
ATOM      6  C   UNL A   1      32.175  24.220  26.286  1.00  0.00     0.251 C 
ATOM      7  H   UNL A   1      30.418  24.497  27.196  1.00  0.00     0.163 HD
BRANCH   6   8
ATOM      8  C   UNL A   1      33.159  24.700  25.274  1.00  0.00     0.067 C 
ATOM      9  C   UNL A   1      34.406  25.017  25.650  1.00  0.00     0.025 C 
ATOM     10  C   UNL A   1      32.905  24.188  23.879  1.00  0.00     0.314 C 
ATOM     11  C   UNL A   1      35.445  24.164  25.059  1.00  0.00     0.019 A 
ATOM     12  O   UNL A   1      33.869  23.187  23.466  1.00  0.00    -0.475 OA
ATOM     13  C   UNL A   1      36.671  24.061  25.728  1.00  0.00     0.032 A 
ATOM     14  C   UNL A   1      35.094  23.218  24.085  1.00  0.00     0.128 A 
ATOM     15  C   UNL A   1      37.502  22.973  25.466  1.00  0.00     0.041 A 
ATOM     16  C   UNL A   1      35.950  22.158  23.802  1.00  0.00     0.048 A 
ATOM     17  Cl  UNL A   1      38.926  22.754  26.404  1.00  0.00    -0.084 Cl
ATOM     18  C   UNL A   1      37.145  22.019  24.513  1.00  0.00     0.024 A 
BRANCH  10  19
ATOM     19  C   UNL A   1      32.857  25.359  22.879  1.00  0.00     0.429 C 
ATOM     20  F   UNL A   1      32.094  25.059  21.801  1.00  0.00    -0.167 F 
ATOM     21  F   UNL A   1      32.330  26.476  23.433  1.00  0.00    -0.167 F 
ATOM     22  F   UNL A   1      34.087  25.693  22.415  1.00  0.00    -0.167 F 
ENDBRANCH  10  19
ENDBRANCH   6   8
ENDBRANCH   3   4
ENDBRANCH   2   3
ENDBRANCH   1   2
BRANCH   1  23
ATOM     23  C   UNL A   1      33.669  28.667  26.908  1.00  0.00     0.116 C 
BRANCH  23  24
ATOM     24  N   UNL A   1      33.609  29.975  27.545  1.00  0.00    -0.352 N 
ATOM     25  C   UNL A   1      34.608  30.668  28.208  1.00  0.00     0.251 C 
ATOM     26  H   UNL A   1      32.737  30.430  27.496  1.00  0.00     0.163 HD
ATOM     27  O   UNL A   1      34.383  31.759  28.694  1.00  0.00    -0.269 OA
BRANCH  25  28
ATOM     28  C   UNL A   1      35.942  30.037  28.367  1.00  0.00     0.039 A 
ATOM     29  C   UNL A   1      36.851  30.120  27.310  1.00  0.00     0.014 A 
ATOM     30  C   UNL A   1      36.316  29.436  29.570  1.00  0.00     0.014 A 
ATOM     31  C   UNL A   1      38.172  29.703  27.503  1.00  0.00     0.010 A 
ATOM     32  C   UNL A   1      37.650  29.098  29.786  1.00  0.00     0.010 A 
ATOM     33  C   UNL A   1      38.597  29.245  28.761  1.00  0.00    -0.014 A 
BRANCH  33  34
ATOM     34  C   UNL A   1      40.032  28.967  29.032  1.00  0.00     0.031 A 
ATOM     35  C   UNL A   1      40.642  27.641  28.667  1.00  0.00     0.074 A 
ATOM     36  C   UNL A   1      40.777  29.890  29.676  1.00  0.00     0.049 A 
ATOM     37  N   UNL A   1      41.871  27.226  28.832  1.00  0.00    -0.248 NA
ATOM     38  C   UNL A   1      39.746  26.642  28.064  1.00  0.00     0.031 C 
ATOM     39  C   UNL A   1      40.296  31.193  30.145  1.00  0.00     0.029 A 
ATOM     40  N   UNL A   1      42.099  29.878  30.044  1.00  0.00    -0.354 N 
ATOM     41  C   UNL A   1      41.893  25.914  28.375  1.00  0.00     0.074 A 
ATOM     42  C   UNL A   1      40.542  25.587  27.972  1.00  0.00     0.031 C 
ATOM     43  C   UNL A   1      41.317  31.870  30.692  1.00  0.00     0.029 A 
ATOM     44  C   UNL A   1      42.518  31.042  30.645  1.00  0.00     0.049 A 
ATOM     45  H   UNL A   1      42.693  29.107  29.892  1.00  0.00     0.167 HD
ATOM     46  C   UNL A   1      42.943  25.062  28.280  1.00  0.00     0.031 A 
ATOM     47  C   UNL A   1      43.733  31.410  31.094  1.00  0.00     0.031 A 
ATOM     48  C   UNL A   1      44.290  25.390  28.665  1.00  0.00     0.049 A 
ATOM     49  C   UNL A   1      44.887  30.459  30.957  1.00  0.00     0.074 A 
ATOM     50  C   UNL A   1      45.435  24.623  28.535  1.00  0.00     0.029 A 
ATOM     51  N   UNL A   1      44.673  26.583  29.258  1.00  0.00    -0.354 N 
ATOM     52  N   UNL A   1      44.904  29.252  30.443  1.00  0.00    -0.248 NA
ATOM     53  C   UNL A   1      46.192  30.927  31.446  1.00  0.00     0.031 C 
ATOM     54  C   UNL A   1      46.504  25.337  29.090  1.00  0.00     0.029 A 
ATOM     55  C   UNL A   1      46.033  26.567  29.522  1.00  0.00     0.049 A 
ATOM     56  H   UNL A   1      44.067  27.332  29.463  1.00  0.00     0.167 HD
ATOM     57  C   UNL A   1      46.226  28.827  30.522  1.00  0.00     0.074 A 
ATOM     58  C   UNL A   1      46.978  29.911  31.122  1.00  0.00     0.031 C 
ATOM     59  C   UNL A   1      46.767  27.647  30.129  1.00  0.00     0.031 A 
BRANCH  46  60
ATOM     60  C   UNL A   1      42.660  23.684  27.743  1.00  0.00    -0.014 A 
ATOM     61  C   UNL A   1      42.289  22.631  28.599  1.00  0.00     0.010 A 
ATOM     62  C   UNL A   1      42.769  23.435  26.363  1.00  0.00     0.010 A 
ATOM     63  C   UNL A   1      42.095  21.342  28.095  1.00  0.00     0.020 A 
ATOM     64  C   UNL A   1      42.548  22.154  25.850  1.00  0.00     0.020 A 
ATOM     65  C   UNL A   1      42.237  21.109  26.724  1.00  0.00     0.054 A 
BRANCH  65  66
ATOM     66  S   UNL A   1      41.997  19.425  26.095  1.00  0.00     0.124 S 
ATOM     67  O   UNL A   1      42.835  19.431  24.899  1.00  0.00    -0.237 OA
ATOM     68  O   UNL A   1      42.481  18.597  27.196  1.00  0.00    -0.237 OA
ATOM     69  O   UNL A   1      40.559  19.351  25.849  1.00  0.00    -0.744 OA
ENDBRANCH  65  66
ENDBRANCH  46  60
BRANCH  47  70
ATOM     70  C   UNL A   1      43.932  32.770  31.666  1.00  0.00    -0.014 A 
ATOM     71  C   UNL A   1      43.779  32.979  33.048  1.00  0.00     0.010 A 
ATOM     72  C   UNL A   1      44.293  33.851  30.845  1.00  0.00     0.010 A 
ATOM     73  C   UNL A   1      43.972  34.250  33.598  1.00  0.00     0.020 A 
ATOM     74  C   UNL A   1      44.508  35.119  31.395  1.00  0.00     0.020 A 
ATOM     75  C   UNL A   1      44.339  35.312  32.767  1.00  0.00     0.054 A 
BRANCH  75  76
ATOM     76  S   UNL A   1      44.648  36.938  33.511  1.00  0.00     0.124 S 
ATOM     77  O   UNL A   1      45.702  36.637  34.473  1.00  0.00    -0.237 OA
ATOM     78  O   UNL A   1      45.051  37.741  32.359  1.00  0.00    -0.237 OA
ATOM     79  O   UNL A   1      43.355  37.299  34.088  1.00  0.00    -0.744 OA
ENDBRANCH  75  76
ENDBRANCH  47  70
BRANCH  59  80
ATOM     80  C   UNL A   1      48.251  27.481  30.312  1.00  0.00    -0.014 A 
ATOM     81  C   UNL A   1      49.155  27.833  29.293  1.00  0.00     0.010 A 
ATOM     82  C   UNL A   1      48.749  26.983  31.529  1.00  0.00     0.010 A 
ATOM     83  C   UNL A   1      50.527  27.647  29.472  1.00  0.00     0.020 A 
ATOM     84  C   UNL A   1      50.123  26.820  31.721  1.00  0.00     0.020 A 
ATOM     85  C   UNL A   1      51.003  27.135  30.683  1.00  0.00     0.054 A 
BRANCH  85  86
ATOM     86  S   UNL A   1      52.790  26.918  30.904  1.00  0.00     0.124 S 
ATOM     87  O   UNL A   1      52.873  25.532  31.359  1.00  0.00    -0.237 OA
ATOM     88  O   UNL A   1      53.315  27.170  29.564  1.00  0.00    -0.237 OA
ATOM     89  O   UNL A   1      53.140  27.925  31.903  1.00  0.00    -0.744 OA
ENDBRANCH  85  86
ENDBRANCH  59  80
ENDBRANCH  33  34
ENDBRANCH  25  28
ENDBRANCH  23  24
ENDBRANCH   1  23
TORSDOF 15
ENDMDL
MODEL 3
REMARK VINA RESULT:     -11.0      1.816      2.336
REMARK SMILES O=C(NCCCCNC(=O)c1ccc(-c2c3nc(c(-c4ccc(S(=O)(=O)[O-])cc4)c4ccc([nH]4)c(-c4ccc(S(=O)(=O)[O-])cc4)c4nc(c(-c5ccc(S(=O)(=O)[O-])cc5)c5ccc2[nH]5)C=C4)C=C3)cc1)C1=Cc2cc(Cl)ccc2O[C@@H]1C(F)(F)F
REMARK SMILES IDX 6 1 5 2 4 3 3 4 1 5 2 6 71 8 72 9 81 10 73 11 80 12 74 13
REMARK SMILES IDX 79 14 75 15 78 16 76 17 77 18 82 19 83 20 84 21 85 22 7 23
REMARK SMILES IDX 8 24 9 25 10 27 11 28 12 29 70 30 13 31 69 32 14 33 15 34
REMARK SMILES IDX 16 35 63 36 17 37 68 38 62 39 64 40 18 41 67 42 61 43 60 44
REMARK SMILES IDX 19 46 49 47 30 48 48 49 31 50 34 51 47 52 65 53 32 54 33 55
REMARK SMILES IDX 46 57 66 58 35 59 20 60 21 61 29 62 22 63 28 64 23 65 24 66
REMARK SMILES IDX 25 67 26 68 27 69 50 70 51 71 59 72 52 73 58 74 53 75 54 76
REMARK SMILES IDX 55 77 56 78 57 79 36 80 37 81 45 82 38 83 44 84 39 85 40 86
REMARK SMILES IDX 41 87 42 88 43 89
REMARK H PARENT 3 7 8 26 64 45 34 56
REMARK Flexibility Score: inf
ROOT
ATOM      1  C   UNL A   1      32.077  28.412  26.320  1.00  0.00     0.023 C 
ENDROOT
BRANCH   1   2
ATOM      2  C   UNL A   1      31.349  27.221  26.936  1.00  0.00     0.023 C 
BRANCH   2   3
ATOM      3  C   UNL A   1      30.616  26.318  25.949  1.00  0.00     0.116 C 
BRANCH   3   4
ATOM      4  N   UNL A   1      29.953  25.166  26.551  1.00  0.00    -0.352 N 
ATOM      5  O   UNL A   1      29.777  23.100  27.432  1.00  0.00    -0.270 OA
ATOM      6  C   UNL A   1      30.385  23.872  26.691  1.00  0.00     0.251 C 
ATOM      7  H   UNL A   1      29.055  25.346  26.911  1.00  0.00     0.163 HD
BRANCH   6   8
ATOM      8  C   UNL A   1      31.644  23.396  26.050  1.00  0.00     0.067 C 
ATOM      9  C   UNL A   1      31.679  23.167  24.730  1.00  0.00     0.025 C 
ATOM     10  C   UNL A   1      32.898  23.825  26.768  1.00  0.00     0.314 C 
ATOM     11  C   UNL A   1      32.596  24.044  23.992  1.00  0.00     0.019 A 
ATOM     12  O   UNL A   1      33.628  24.855  26.055  1.00  0.00    -0.475 OA
ATOM     13  C   UNL A   1      32.358  24.247  22.627  1.00  0.00     0.032 A 
ATOM     14  C   UNL A   1      33.434  24.921  24.698  1.00  0.00     0.128 A 
ATOM     15  C   UNL A   1      32.904  25.364  21.997  1.00  0.00     0.041 A 
ATOM     16  C   UNL A   1      34.007  26.011  24.049  1.00  0.00     0.048 A 
ATOM     17  Cl  UNL A   1      32.479  25.705  20.367  1.00  0.00    -0.084 Cl
ATOM     18  C   UNL A   1      33.720  26.249  22.702  1.00  0.00     0.024 A 
BRANCH  10  19
ATOM     19  C   UNL A   1      33.797  22.606  27.052  1.00  0.00     0.429 C 
ATOM     20  F   UNL A   1      34.409  22.710  28.256  1.00  0.00    -0.167 F 
ATOM     21  F   UNL A   1      33.090  21.451  27.072  1.00  0.00    -0.167 F 
ATOM     22  F   UNL A   1      34.772  22.453  26.122  1.00  0.00    -0.167 F 
ENDBRANCH  10  19
ENDBRANCH   6   8
ENDBRANCH   3   4
ENDBRANCH   2   3
ENDBRANCH   1   2
BRANCH   1  23
ATOM     23  C   UNL A   1      33.394  28.826  26.975  1.00  0.00     0.116 C 
BRANCH  23  24
ATOM     24  N   UNL A   1      33.403  30.161  27.557  1.00  0.00    -0.352 N 
ATOM     25  C   UNL A   1      34.438  30.829  28.190  1.00  0.00     0.251 C 
ATOM     26  H   UNL A   1      32.555  30.658  27.489  1.00  0.00     0.163 HD
ATOM     27  O   UNL A   1      34.270  31.948  28.630  1.00  0.00    -0.269 OA
BRANCH  25  28
ATOM     28  C   UNL A   1      35.737  30.136  28.375  1.00  0.00     0.039 A 
ATOM     29  C   UNL A   1      36.649  30.131  27.318  1.00  0.00     0.014 A 
ATOM     30  C   UNL A   1      36.081  29.564  29.602  1.00  0.00     0.014 A 
ATOM     31  C   UNL A   1      37.946  29.654  27.528  1.00  0.00     0.010 A 
ATOM     32  C   UNL A   1      37.396  29.167  29.833  1.00  0.00     0.010 A 
ATOM     33  C   UNL A   1      38.348  29.225  28.804  1.00  0.00    -0.014 A 
BRANCH  33  34
ATOM     34  C   UNL A   1      39.768  28.884  29.087  1.00  0.00     0.031 A 
ATOM     35  C   UNL A   1      40.683  29.883  29.741  1.00  0.00     0.074 A 
ATOM     36  C   UNL A   1      40.256  27.691  28.688  1.00  0.00     0.049 A 
ATOM     37  N   UNL A   1      41.946  29.758  30.058  1.00  0.00    -0.248 NA
ATOM     38  C   UNL A   1      40.113  31.202  30.054  1.00  0.00     0.031 C 
ATOM     39  C   UNL A   1      39.495  26.654  27.984  1.00  0.00     0.029 A 
ATOM     40  N   UNL A   1      41.509  27.145  28.820  1.00  0.00    -0.354 N 
ATOM     41  C   UNL A   1      42.327  30.986  30.586  1.00  0.00     0.074 A 
ATOM     42  C   UNL A   1      41.174  31.856  30.501  1.00  0.00     0.031 C 
ATOM     43  C   UNL A   1      40.281  25.584  27.791  1.00  0.00     0.029 A 
ATOM     44  C   UNL A   1      41.610  25.865  28.326  1.00  0.00     0.049 A 
ATOM     45  H   UNL A   1      42.264  27.625  29.230  1.00  0.00     0.167 HD
ATOM     46  C   UNL A   1      43.521  31.353  31.113  1.00  0.00     0.031 A 
ATOM     47  C   UNL A   1      42.648  25.008  28.317  1.00  0.00     0.031 A 
ATOM     48  C   UNL A   1      44.664  30.485  31.214  1.00  0.00     0.049 A 
ATOM     49  C   UNL A   1      43.955  25.428  28.928  1.00  0.00     0.074 A 
ATOM     50  C   UNL A   1      45.891  30.739  31.801  1.00  0.00     0.029 A 
ATOM     51  N   UNL A   1      44.721  29.194  30.713  1.00  0.00    -0.354 N 
ATOM     52  N   UNL A   1      44.268  26.566  29.500  1.00  0.00    -0.248 NA
ATOM     53  C   UNL A   1      45.042  24.440  28.907  1.00  0.00     0.031 C 
ATOM     54  C   UNL A   1      46.705  29.616  31.617  1.00  0.00     0.029 A 
ATOM     55  C   UNL A   1      45.969  28.645  30.956  1.00  0.00     0.049 A 
ATOM     56  H   UNL A   1      43.982  28.734  30.250  1.00  0.00     0.167 HD
ATOM     57  C   UNL A   1      45.583  26.421  29.931  1.00  0.00     0.074 A 
ATOM     58  C   UNL A   1      45.998  25.082  29.564  1.00  0.00     0.031 C 
ATOM     59  C   UNL A   1      46.372  27.315  30.575  1.00  0.00     0.031 A 
BRANCH  46  60
ATOM     60  C   UNL A   1      43.643  32.769  31.611  1.00  0.00    -0.014 A 
ATOM     61  C   UNL A   1      44.076  33.805  30.763  1.00  0.00     0.010 A 
ATOM     62  C   UNL A   1      43.322  33.070  32.947  1.00  0.00     0.010 A 
ATOM     63  C   UNL A   1      44.247  35.100  31.257  1.00  0.00     0.020 A 
ATOM     64  C   UNL A   1      43.466  34.371  33.439  1.00  0.00     0.020 A 
ATOM     65  C   UNL A   1      43.953  35.373  32.596  1.00  0.00     0.054 A 
BRANCH  65  66
ATOM     66  S   UNL A   1      44.199  37.058  33.219  1.00  0.00     0.124 S 
ATOM     67  O   UNL A   1      44.345  37.816  31.978  1.00  0.00    -0.237 OA
ATOM     68  O   UNL A   1      42.971  37.310  33.967  1.00  0.00    -0.237 OA
ATOM     69  O   UNL A   1      45.409  36.952  34.030  1.00  0.00    -0.744 OA
ENDBRANCH  65  66
ENDBRANCH  46  60
BRANCH  47  70
ATOM     70  C   UNL A   1      42.475  23.640  27.757  1.00  0.00    -0.014 A 
ATOM     71  C   UNL A   1      42.959  23.340  26.471  1.00  0.00     0.010 A 
ATOM     72  C   UNL A   1      41.850  22.628  28.507  1.00  0.00     0.010 A 
ATOM     73  C   UNL A   1      42.811  22.057  25.939  1.00  0.00     0.020 A 
ATOM     74  C   UNL A   1      41.720  21.337  27.986  1.00  0.00     0.020 A 
ATOM     75  C   UNL A   1      42.194  21.062  26.702  1.00  0.00     0.054 A 
BRANCH  75  76
ATOM     76  S   UNL A   1      42.070  19.385  26.017  1.00  0.00     0.124 S 
ATOM     77  O   UNL A   1      40.634  19.255  25.790  1.00  0.00    -0.237 OA
ATOM     78  O   UNL A   1      42.895  19.472  24.815  1.00  0.00    -0.237 OA
ATOM     79  O   UNL A   1      42.617  18.543  27.078  1.00  0.00    -0.744 OA
ENDBRANCH  75  76
ENDBRANCH  47  70
BRANCH  59  80
ATOM     80  C   UNL A   1      47.757  26.860  30.950  1.00  0.00    -0.014 A 
ATOM     81  C   UNL A   1      48.858  27.112  30.111  1.00  0.00     0.010 A 
ATOM     82  C   UNL A   1      47.961  26.187  32.167  1.00  0.00     0.010 A 
ATOM     83  C   UNL A   1      50.131  26.659  30.464  1.00  0.00     0.020 A 
ATOM     84  C   UNL A   1      49.238  25.755  32.535  1.00  0.00     0.020 A 
ATOM     85  C   UNL A   1      50.312  25.977  31.671  1.00  0.00     0.054 A 
BRANCH  85  86
ATOM     86  S   UNL A   1      51.976  25.412  32.120  1.00  0.00     0.124 S 
ATOM     87  O   UNL A   1      51.773  23.975  32.290  1.00  0.00    -0.237 OA
ATOM     88  O   UNL A   1      52.774  25.799  30.959  1.00  0.00    -0.237 OA
ATOM     89  O   UNL A   1      52.272  26.149  33.346  1.00  0.00    -0.744 OA
ENDBRANCH  85  86
ENDBRANCH  59  80
ENDBRANCH  33  34
ENDBRANCH  25  28
ENDBRANCH  23  24
ENDBRANCH   1  23
TORSDOF 15
ENDMDL
