MODEL 1
REMARK VINA RESULT:     -14.3      0.000      0.000
REMARK SMILES Cc1ccc(-c2cnnc(-n3nc(C)c4c3NC(=O)C[C@@H]4c3ccc(C(=O)NCCCCNC(=O)c4ccc(-c5c6nc(c(-c7ccc(S(=O)(=O)[O-])cc7)c7ccc([nH]7)c(-c7ccc(S(=O)(=O)[O-])cc7)c7nc(c(-c8ccc(S(=O)(=O)[O-])cc8)c8ccc5[nH]8)C=C7)C=C6)cc4)cc3)n2)cc1
REMARK SMILES IDX 30 1 29 2 28 3 26 4 27 5 25 7 22 8 23 9 97 10 24 11 96 12
REMARK SMILES IDX 21 13 11 14 12 15 16 16 13 17 15 18 17 19 14 20 18 21 20 23
REMARK SMILES IDX 19 24 10 25 6 26 7 27 98 28 8 29 9 30 5 31 1 32 2 33 3 34
REMARK SMILES IDX 100 35 4 36 99 37 31 38 32 39 33 40 34 41 35 43 36 44 37 45
REMARK SMILES IDX 95 46 38 47 94 48 39 49 40 50 41 51 88 52 42 53 93 54 87 55
REMARK SMILES IDX 89 56 43 57 92 58 86 59 85 60 44 62 74 63 55 64 73 65 56 66
REMARK SMILES IDX 59 67 72 68 90 69 57 70 58 71 71 73 91 74 60 75 45 76 46 77
REMARK SMILES IDX 54 78 47 79 53 80 48 81 49 82 50 83 51 84 52 85 75 86 76 87
REMARK SMILES IDX 84 88 77 89 83 90 78 91 79 92 80 93 81 94 82 95 61 96 62 97
REMARK SMILES IDX 70 98 63 99 69 100 64 101 65 102 66 103 67 104 68 105
REMARK H PARENT 28 6 17 22 33 42 89 61 59 72
REMARK Flexibility Score: inf
ROOT
ATOM      1  C   UNL A   1      32.695  29.671  24.610  1.00  0.00     0.023 C 
ENDROOT
BRANCH   1   2
ATOM      2  C   UNL A   1      31.192  29.764  24.918  1.00  0.00     0.116 C 
BRANCH   2   3
ATOM      3  N   UNL A   1      30.346  29.666  23.729  1.00  0.00    -0.352 N 
ATOM      4  C   UNL A   1      29.867  28.571  23.056  1.00  0.00     0.251 C 
ATOM      5  O   UNL A   1      29.014  28.702  22.181  1.00  0.00    -0.269 OA
ATOM      6  H   UNL A   1      30.075  30.532  23.349  1.00  0.00     0.163 HD
BRANCH   4   7
ATOM      7  C   UNL A   1      30.327  27.213  23.403  1.00  0.00     0.039 A 
ATOM      8  C   UNL A   1      31.339  24.735  24.254  1.00  0.00    -0.040 A 
ATOM      9  C   UNL A   1      30.275  25.356  24.938  1.00  0.00     0.005 A 
ATOM     10  C   UNL A   1      31.779  25.307  23.052  1.00  0.00     0.005 A 
ATOM     11  C   UNL A   1      29.770  26.585  24.517  1.00  0.00     0.014 A 
ATOM     12  C   UNL A   1      31.276  26.540  22.635  1.00  0.00     0.014 A 
BRANCH   8  13
ATOM     13  C   UNL A   1      31.960  23.516  24.896  1.00  0.00     0.064 C 
ATOM     14  N   UNL A   1      35.538  22.960  24.891  1.00  0.00    -0.180 N 
ATOM     15  N   UNL A   1      35.591  24.234  25.363  1.00  0.00    -0.168 NA
ATOM     16  C   UNL A   1      34.292  22.712  24.347  1.00  0.00     0.143 A 
ATOM     17  C   UNL A   1      34.316  24.625  25.447  1.00  0.00     0.066 A 
ATOM     18  C   UNL A   1      33.444  23.640  24.914  1.00  0.00     0.026 A 
ATOM     19  N   UNL A   1      33.822  21.742  23.486  1.00  0.00    -0.310 N 
ATOM     20  C   UNL A   1      34.017  25.966  26.014  1.00  0.00     0.069 C 
ATOM     21  C   UNL A   1      32.414  21.649  23.245  1.00  0.00     0.226 C 
ATOM     22  H   UNL A   1      34.445  21.122  23.044  1.00  0.00     0.171 HD
ATOM     23  C   UNL A   1      31.490  22.188  24.308  1.00  0.00     0.113 C 
ATOM     24  O   UNL A   1      32.061  20.985  22.285  1.00  0.00    -0.275 OA
BRANCH  14  25
ATOM     25  C   UNL A   1      36.541  22.005  25.231  1.00  0.00     0.272 A 
ATOM     26  C   UNL A   1      38.688  21.444  25.776  1.00  0.00     0.095 A 
ATOM     27  C   UNL A   1      38.458  20.164  25.296  1.00  0.00     0.164 A 
ATOM     28  N   UNL A   1      37.739  22.418  25.721  1.00  0.00    -0.208 NA
ATOM     29  N   UNL A   1      37.258  19.806  24.828  1.00  0.00    -0.153 NA
ATOM     30  N   UNL A   1      36.279  20.734  24.830  1.00  0.00    -0.109 NA
BRANCH  26  31
ATOM     31  C   UNL A   1      39.948  21.742  26.468  1.00  0.00     0.002 A 
ATOM     32  C   UNL A   1      43.404  22.363  29.002  1.00  0.00     0.044 C 
ATOM     33  C   UNL A   1      42.218  22.169  28.105  1.00  0.00    -0.051 A 
ATOM     34  C   UNL A   1      42.144  21.047  27.274  1.00  0.00     0.004 A 
ATOM     35  C   UNL A   1      41.169  23.093  28.089  1.00  0.00     0.004 A 
ATOM     36  C   UNL A   1      41.022  20.835  26.466  1.00  0.00     0.011 A 
ATOM     37  C   UNL A   1      40.051  22.884  27.276  1.00  0.00     0.011 A 
ENDBRANCH  26  31
ENDBRANCH  14  25
ENDBRANCH   8  13
ENDBRANCH   4   7
ENDBRANCH   2   3
ENDBRANCH   1   2
BRANCH   1  38
ATOM     38  C   UNL A   1      33.553  29.065  25.721  1.00  0.00     0.023 C 
BRANCH  38  39
ATOM     39  C   UNL A   1      33.173  29.553  27.112  1.00  0.00     0.116 C 
BRANCH  39  40
ATOM     40  N   UNL A   1      33.630  30.900  27.417  1.00  0.00    -0.352 N 
ATOM     41  C   UNL A   1      34.736  31.281  28.170  1.00  0.00     0.251 C 
ATOM     42  H   UNL A   1      33.090  31.633  27.044  1.00  0.00     0.163 HD
ATOM     43  O   UNL A   1      34.890  32.395  28.612  1.00  0.00    -0.269 OA
BRANCH  41  44
ATOM     44  C   UNL A   1      35.846  30.301  28.245  1.00  0.00     0.039 A 
ATOM     45  C   UNL A   1      36.065  29.721  29.502  1.00  0.00     0.014 A 
ATOM     46  C   UNL A   1      36.813  30.252  27.248  1.00  0.00     0.014 A 
ATOM     47  C   UNL A   1      37.347  29.310  29.838  1.00  0.00     0.010 A 
ATOM     48  C   UNL A   1      38.107  29.962  27.618  1.00  0.00     0.010 A 
ATOM     49  C   UNL A   1      38.374  29.555  28.929  1.00  0.00    -0.014 A 
BRANCH  49  50
ATOM     50  C   UNL A   1      39.778  29.425  29.278  1.00  0.00     0.031 A 
ATOM     51  C   UNL A   1      40.479  28.199  28.859  1.00  0.00     0.074 A 
ATOM     52  C   UNL A   1      40.396  30.414  29.958  1.00  0.00     0.049 A 
ATOM     53  N   UNL A   1      41.505  27.694  29.449  1.00  0.00    -0.248 NA
ATOM     54  C   UNL A   1      39.981  27.383  27.755  1.00  0.00     0.031 C 
ATOM     55  C   UNL A   1      41.822  30.531  30.239  1.00  0.00     0.029 A 
ATOM     56  N   UNL A   1      39.806  31.399  30.759  1.00  0.00    -0.354 N 
ATOM     57  C   UNL A   1      41.972  26.675  28.645  1.00  0.00     0.074 A 
ATOM     58  C   UNL A   1      40.930  26.450  27.676  1.00  0.00     0.031 C 
ATOM     59  C   UNL A   1      41.973  31.273  31.349  1.00  0.00     0.029 A 
ATOM     60  C   UNL A   1      40.641  31.534  31.877  1.00  0.00     0.049 A 
ATOM     61  H   UNL A   1      38.976  31.894  30.576  1.00  0.00     0.167 HD
ATOM     62  C   UNL A   1      43.261  26.252  28.781  1.00  0.00     0.031 A 
ATOM     63  C   UNL A   1      40.236  31.248  33.150  1.00  0.00     0.031 A 
ATOM     64  C   UNL A   1      43.885  26.860  29.956  1.00  0.00     0.049 A 
ATOM     65  C   UNL A   1      41.055  30.137  33.771  1.00  0.00     0.074 A 
ATOM     66  C   UNL A   1      44.712  27.960  30.112  1.00  0.00     0.029 A 
ATOM     67  N   UNL A   1      43.387  26.560  31.221  1.00  0.00    -0.354 N 
ATOM     68  N   UNL A   1      41.754  29.274  33.081  1.00  0.00    -0.248 NA
ATOM     69  C   UNL A   1      41.160  29.919  35.209  1.00  0.00     0.031 C 
ATOM     70  C   UNL A   1      44.590  28.407  31.455  1.00  0.00     0.029 A 
ATOM     71  C   UNL A   1      43.735  27.548  32.125  1.00  0.00     0.049 A 
ATOM     72  H   UNL A   1      42.861  25.757  31.442  1.00  0.00     0.167 HD
ATOM     73  C   UNL A   1      42.426  28.441  33.938  1.00  0.00     0.074 A 
ATOM     74  C   UNL A   1      42.012  28.879  35.261  1.00  0.00     0.031 C 
ATOM     75  C   UNL A   1      43.291  27.473  33.511  1.00  0.00     0.031 A 
BRANCH  62  76
ATOM     76  C   UNL A   1      44.015  25.593  27.641  1.00  0.00    -0.014 A 
ATOM     77  C   UNL A   1      43.355  25.342  26.421  1.00  0.00     0.010 A 
ATOM     78  C   UNL A   1      45.332  25.101  27.737  1.00  0.00     0.010 A 
ATOM     79  C   UNL A   1      43.929  24.547  25.413  1.00  0.00     0.020 A 
ATOM     80  C   UNL A   1      45.901  24.270  26.762  1.00  0.00     0.020 A 
ATOM     81  C   UNL A   1      45.188  23.984  25.606  1.00  0.00     0.054 A 
BRANCH  81  82
ATOM     82  S   UNL A   1      45.877  22.879  24.347  1.00  0.00     0.124 S 
ATOM     83  O   UNL A   1      44.707  22.561  23.532  1.00  0.00    -0.237 OA
ATOM     84  O   UNL A   1      46.882  23.724  23.708  1.00  0.00    -0.237 OA
ATOM     85  O   UNL A   1      46.409  21.760  25.122  1.00  0.00    -0.744 OA
ENDBRANCH  81  82
ENDBRANCH  62  76
BRANCH  63  86
ATOM     86  C   UNL A   1      38.808  31.558  33.444  1.00  0.00    -0.014 A 
ATOM     87  C   UNL A   1      38.497  32.889  33.795  1.00  0.00     0.010 A 
ATOM     88  C   UNL A   1      37.767  30.718  33.011  1.00  0.00     0.010 A 
ATOM     89  C   UNL A   1      37.218  33.410  33.577  1.00  0.00     0.020 A 
ATOM     90  C   UNL A   1      36.482  31.242  32.784  1.00  0.00     0.020 A 
ATOM     91  C   UNL A   1      36.238  32.601  33.007  1.00  0.00     0.054 A 
BRANCH  91  92
ATOM     92  S   UNL A   1      34.682  33.377  32.468  1.00  0.00     0.124 S 
ATOM     93  O   UNL A   1      34.197  32.446  31.451  1.00  0.00    -0.237 OA
ATOM     94  O   UNL A   1      33.908  33.398  33.710  1.00  0.00    -0.237 OA
ATOM     95  O   UNL A   1      35.115  34.676  31.968  1.00  0.00    -0.744 OA
ENDBRANCH  91  92
ENDBRANCH  63  86
BRANCH  75  96
ATOM     96  C   UNL A   1      43.896  26.408  34.392  1.00  0.00    -0.014 A 
ATOM     97  C   UNL A   1      43.146  25.420  35.047  1.00  0.00     0.010 A 
ATOM     98  C   UNL A   1      45.306  26.299  34.460  1.00  0.00     0.010 A 
ATOM     99  C   UNL A   1      43.768  24.410  35.792  1.00  0.00     0.020 A 
ATOM    100  C   UNL A   1      45.937  25.269  35.160  1.00  0.00     0.020 A 
ATOM    101  C   UNL A   1      45.161  24.343  35.846  1.00  0.00     0.054 A 
BRANCH 101 102
ATOM    102  S   UNL A   1      45.961  22.997  36.754  1.00  0.00     0.124 S 
ATOM    103  O   UNL A   1      45.502  23.244  38.119  1.00  0.00    -0.237 OA
ATOM    104  O   UNL A   1      45.415  21.801  36.116  1.00  0.00    -0.237 OA
ATOM    105  O   UNL A   1      47.384  23.226  36.517  1.00  0.00    -0.744 OA
ENDBRANCH 101 102
ENDBRANCH  75  96
ENDBRANCH  49  50
ENDBRANCH  41  44
ENDBRANCH  39  40
ENDBRANCH  38  39
ENDBRANCH   1  38
TORSDOF 17
ENDMDL
MODEL 2
REMARK VINA RESULT:     -13.9      2.502      3.933
REMARK SMILES Cc1ccc(-c2cnnc(-n3nc(C)c4c3NC(=O)C[C@@H]4c3ccc(C(=O)NCCCCNC(=O)c4ccc(-c5c6nc(c(-c7ccc(S(=O)(=O)[O-])cc7)c7ccc([nH]7)c(-c7ccc(S(=O)(=O)[O-])cc7)c7nc(c(-c8ccc(S(=O)(=O)[O-])cc8)c8ccc5[nH]8)C=C7)C=C6)cc4)cc3)n2)cc1
REMARK SMILES IDX 30 1 29 2 28 3 26 4 27 5 25 7 22 8 23 9 97 10 24 11 96 12
REMARK SMILES IDX 21 13 11 14 12 15 16 16 13 17 15 18 17 19 14 20 18 21 20 23
REMARK SMILES IDX 19 24 10 25 6 26 7 27 98 28 8 29 9 30 5 31 1 32 2 33 3 34
REMARK SMILES IDX 100 35 4 36 99 37 31 38 32 39 33 40 34 41 35 43 36 44 37 45
REMARK SMILES IDX 95 46 38 47 94 48 39 49 40 50 41 51 88 52 42 53 93 54 87 55
REMARK SMILES IDX 89 56 43 57 92 58 86 59 85 60 44 62 74 63 55 64 73 65 56 66
REMARK SMILES IDX 59 67 72 68 90 69 57 70 58 71 71 73 91 74 60 75 45 76 46 77
REMARK SMILES IDX 54 78 47 79 53 80 48 81 49 82 50 83 51 84 52 85 75 86 76 87
REMARK SMILES IDX 84 88 77 89 83 90 78 91 79 92 80 93 81 94 82 95 61 96 62 97
REMARK SMILES IDX 70 98 63 99 69 100 64 101 65 102 66 103 67 104 68 105
REMARK H PARENT 28 6 17 22 33 42 89 61 59 72
REMARK Flexibility Score: inf
ROOT
ATOM      1  C   UNL A   1      32.904  31.082  26.410  1.00  0.00     0.023 C 
ENDROOT
BRANCH   1   2
ATOM      2  C   UNL A   1      31.386  30.904  26.573  1.00  0.00     0.116 C 
BRANCH   2   3
ATOM      3  N   UNL A   1      30.605  31.606  25.555  1.00  0.00    -0.352 N 
ATOM      4  C   UNL A   1      30.055  31.161  24.379  1.00  0.00     0.251 C 
ATOM      5  O   UNL A   1      29.273  31.870  23.749  1.00  0.00    -0.269 OA
ATOM      6  H   UNL A   1      30.447  32.558  25.747  1.00  0.00     0.163 HD
BRANCH   4   7
ATOM      7  C   UNL A   1      30.352  29.807  23.873  1.00  0.00     0.039 A 
ATOM      8  C   UNL A   1      30.917  27.151  23.157  1.00  0.00    -0.040 A 
ATOM      9  C   UNL A   1      29.608  27.545  23.498  1.00  0.00     0.005 A 
ATOM     10  C   UNL A   1      31.900  28.143  23.038  1.00  0.00     0.005 A 
ATOM     11  C   UNL A   1      29.325  28.864  23.852  1.00  0.00     0.014 A 
ATOM     12  C   UNL A   1      31.616  29.461  23.398  1.00  0.00     0.014 A 
BRANCH   8  13
ATOM     13  C   UNL A   1      31.175  25.671  22.991  1.00  0.00     0.064 C 
ATOM     14  N   UNL A   1      34.075  24.056  24.437  1.00  0.00    -0.180 N 
ATOM     15  N   UNL A   1      33.675  24.681  25.577  1.00  0.00    -0.168 NA
ATOM     16  C   UNL A   1      33.447  24.624  23.345  1.00  0.00     0.143 A 
ATOM     17  C   UNL A   1      32.569  25.347  25.236  1.00  0.00     0.066 A 
ATOM     18  C   UNL A   1      32.322  25.247  23.841  1.00  0.00     0.026 A 
ATOM     19  N   UNL A   1      33.712  24.594  21.992  1.00  0.00    -0.310 N 
ATOM     20  C   UNL A   1      31.825  26.084  26.292  1.00  0.00     0.069 C 
ATOM     21  C   UNL A   1      32.756  25.148  21.083  1.00  0.00     0.226 C 
ATOM     22  H   UNL A   1      34.548  24.197  21.655  1.00  0.00     0.171 HD
ATOM     23  C   UNL A   1      31.321  25.218  21.541  1.00  0.00     0.113 C 
ATOM     24  O   UNL A   1      33.136  25.360  19.943  1.00  0.00    -0.275 OA
BRANCH  14  25
ATOM     25  C   UNL A   1      34.783  22.819  24.484  1.00  0.00     0.272 A 
ATOM     26  C   UNL A   1      34.894  20.574  24.895  1.00  0.00     0.095 A 
ATOM     27  C   UNL A   1      36.260  20.695  25.094  1.00  0.00     0.164 A 
ATOM     28  N   UNL A   1      34.106  21.649  24.620  1.00  0.00    -0.208 NA
ATOM     29  N   UNL A   1      36.881  21.869  24.944  1.00  0.00    -0.153 NA
ATOM     30  N   UNL A   1      36.132  22.937  24.599  1.00  0.00    -0.109 NA
BRANCH  26  31
ATOM     31  C   UNL A   1      34.281  19.240  24.866  1.00  0.00     0.002 A 
ATOM     32  C   UNL A   1      32.740  15.220  25.327  1.00  0.00     0.044 C 
ATOM     33  C   UNL A   1      33.269  16.611  25.137  1.00  0.00    -0.051 A 
ATOM     34  C   UNL A   1      32.492  17.711  25.513  1.00  0.00     0.004 A 
ATOM     35  C   UNL A   1      34.538  16.831  24.596  1.00  0.00     0.004 A 
ATOM     36  C   UNL A   1      32.993  19.011  25.380  1.00  0.00     0.011 A 
ATOM     37  C   UNL A   1      35.035  18.131  24.457  1.00  0.00     0.011 A 
ENDBRANCH  26  31
ENDBRANCH  14  25
ENDBRANCH   8  13
ENDBRANCH   4   7
ENDBRANCH   2   3
ENDBRANCH   1   2
BRANCH   1  38
ATOM     38  C   UNL A   1      33.717  29.788  26.414  1.00  0.00     0.023 C 
BRANCH  38  39
ATOM     39  C   UNL A   1      34.650  29.663  27.610  1.00  0.00     0.116 C 
BRANCH  39  40
ATOM     40  N   UNL A   1      35.469  30.841  27.853  1.00  0.00    -0.352 N 
ATOM     41  C   UNL A   1      36.746  30.900  28.402  1.00  0.00     0.251 C 
ATOM     42  H   UNL A   1      35.070  31.704  27.597  1.00  0.00     0.163 HD
ATOM     43  O   UNL A   1      37.241  31.916  28.829  1.00  0.00    -0.269 OA
BRANCH  41  44
ATOM     44  C   UNL A   1      37.577  29.681  28.258  1.00  0.00     0.039 A 
ATOM     45  C   UNL A   1      37.700  28.886  29.406  1.00  0.00     0.014 A 
ATOM     46  C   UNL A   1      38.456  29.548  27.189  1.00  0.00     0.014 A 
ATOM     47  C   UNL A   1      38.852  28.132  29.581  1.00  0.00     0.010 A 
ATOM     48  C   UNL A   1      39.651  28.903  27.413  1.00  0.00     0.010 A 
ATOM     49  C   UNL A   1      39.866  28.254  28.633  1.00  0.00    -0.014 A 
BRANCH  49  50
ATOM     50  C   UNL A   1      41.207  27.739  28.849  1.00  0.00     0.031 A 
ATOM     51  C   UNL A   1      41.477  26.344  28.460  1.00  0.00     0.074 A 
ATOM     52  C   UNL A   1      42.156  28.536  29.384  1.00  0.00     0.049 A 
ATOM     53  N   UNL A   1      42.381  25.591  28.983  1.00  0.00    -0.248 NA
ATOM     54  C   UNL A   1      40.641  25.657  27.480  1.00  0.00     0.031 C 
ATOM     55  C   UNL A   1      43.580  28.248  29.510  1.00  0.00     0.029 A 
ATOM     56  N   UNL A   1      41.968  29.687  30.160  1.00  0.00    -0.354 N 
ATOM     57  C   UNL A   1      42.442  24.444  28.219  1.00  0.00     0.074 A 
ATOM     58  C   UNL A   1      41.270  24.486  27.380  1.00  0.00     0.031 C 
ATOM     59  C   UNL A   1      44.065  28.965  30.537  1.00  0.00     0.029 A 
ATOM     60  C   UNL A   1      42.934  29.626  31.174  1.00  0.00     0.049 A 
ATOM     61  H   UNL A   1      41.297  30.392  30.021  1.00  0.00     0.167 HD
ATOM     62  C   UNL A   1      43.564  23.672  28.258  1.00  0.00     0.031 A 
ATOM     63  C   UNL A   1      42.618  29.530  32.499  1.00  0.00     0.031 A 
ATOM     64  C   UNL A   1      44.470  24.127  29.313  1.00  0.00     0.049 A 
ATOM     65  C   UNL A   1      43.157  28.259  33.121  1.00  0.00     0.074 A 
ATOM     66  C   UNL A   1      45.587  24.946  29.298  1.00  0.00     0.029 A 
ATOM     67  N   UNL A   1      44.061  24.044  30.641  1.00  0.00    -0.354 N 
ATOM     68  N   UNL A   1      43.496  27.199  32.435  1.00  0.00    -0.248 NA
ATOM     69  C   UNL A   1      43.366  28.088  34.555  1.00  0.00     0.031 C 
ATOM     70  C   UNL A   1      45.756  25.471  30.607  1.00  0.00     0.029 A 
ATOM     71  C   UNL A   1      44.779  24.930  31.425  1.00  0.00     0.049 A 
ATOM     72  H   UNL A   1      43.359  23.440  30.977  1.00  0.00     0.167 HD
ATOM     73  C   UNL A   1      44.002  26.248  33.283  1.00  0.00     0.074 A 
ATOM     74  C   UNL A   1      43.888  26.849  34.603  1.00  0.00     0.031 C 
ATOM     75  C   UNL A   1      44.500  25.052  32.850  1.00  0.00     0.031 A 
BRANCH  62  76
ATOM     76  C   UNL A   1      43.960  22.770  27.104  1.00  0.00    -0.014 A 
ATOM     77  C   UNL A   1      43.067  21.773  26.660  1.00  0.00     0.010 A 
ATOM     78  C   UNL A   1      45.227  22.775  26.488  1.00  0.00     0.010 A 
ATOM     79  C   UNL A   1      43.457  20.775  25.749  1.00  0.00     0.020 A 
ATOM     80  C   UNL A   1      45.647  21.762  25.614  1.00  0.00     0.020 A 
ATOM     81  C   UNL A   1      44.761  20.755  25.258  1.00  0.00     0.054 A 
BRANCH  81  82
ATOM     82  S   UNL A   1      45.285  19.408  24.166  1.00  0.00     0.124 S 
ATOM     83  O   UNL A   1      44.599  19.729  22.917  1.00  0.00    -0.237 OA
ATOM     84  O   UNL A   1      46.736  19.568  24.149  1.00  0.00    -0.237 OA
ATOM     85  O   UNL A   1      44.801  18.206  24.842  1.00  0.00    -0.744 OA
ENDBRANCH  81  82
ENDBRANCH  62  76
BRANCH  63  86
ATOM     86  C   UNL A   1      41.382  30.254  32.909  1.00  0.00    -0.014 A 
ATOM     87  C   UNL A   1      40.387  29.505  33.573  1.00  0.00     0.010 A 
ATOM     88  C   UNL A   1      41.350  31.656  33.017  1.00  0.00     0.010 A 
ATOM     89  C   UNL A   1      39.480  30.122  34.441  1.00  0.00     0.020 A 
ATOM     90  C   UNL A   1      40.445  32.278  33.894  1.00  0.00     0.020 A 
ATOM     91  C   UNL A   1      39.562  31.498  34.648  1.00  0.00     0.054 A 
BRANCH  91  92
ATOM     92  S   UNL A   1      38.572  32.228  35.990  1.00  0.00     0.124 S 
ATOM     93  O   UNL A   1      39.264  33.490  36.246  1.00  0.00    -0.237 OA
ATOM     94  O   UNL A   1      37.258  32.359  35.360  1.00  0.00    -0.237 OA
ATOM     95  O   UNL A   1      38.670  31.236  37.053  1.00  0.00    -0.744 OA
ENDBRANCH  91  92
ENDBRANCH  63  86
BRANCH  75  96
ATOM     96  C   UNL A   1      44.879  23.900  33.747  1.00  0.00    -0.014 A 
ATOM     97  C   UNL A   1      44.053  22.789  33.980  1.00  0.00     0.010 A 
ATOM     98  C   UNL A   1      46.190  23.851  34.278  1.00  0.00     0.010 A 
ATOM     99  C   UNL A   1      44.487  21.712  34.764  1.00  0.00     0.020 A 
ATOM    100  C   UNL A   1      46.650  22.762  35.020  1.00  0.00     0.020 A 
ATOM    101  C   UNL A   1      45.784  21.707  35.281  1.00  0.00     0.054 A 
BRANCH 101 102
ATOM    102  S   UNL A   1      46.363  20.283  36.236  1.00  0.00     0.124 S 
ATOM    103  O   UNL A   1      45.943  20.639  37.588  1.00  0.00    -0.237 OA
ATOM    104  O   UNL A   1      45.641  19.166  35.629  1.00  0.00    -0.237 OA
ATOM    105  O   UNL A   1      47.805  20.283  36.004  1.00  0.00    -0.744 OA
ENDBRANCH 101 102
ENDBRANCH  75  96
ENDBRANCH  49  50
ENDBRANCH  41  44
ENDBRANCH  39  40
ENDBRANCH  38  39
ENDBRANCH   1  38
TORSDOF 17
ENDMDL
MODEL 3
REMARK VINA RESULT:     -11.8      3.779     10.701
REMARK SMILES Cc1ccc(-c2cnnc(-n3nc(C)c4c3NC(=O)C[C@@H]4c3ccc(C(=O)NCCCCNC(=O)c4ccc(-c5c6nc(c(-c7ccc(S(=O)(=O)[O-])cc7)c7ccc([nH]7)c(-c7ccc(S(=O)(=O)[O-])cc7)c7nc(c(-c8ccc(S(=O)(=O)[O-])cc8)c8ccc5[nH]8)C=C7)C=C6)cc4)cc3)n2)cc1
REMARK SMILES IDX 30 1 29 2 28 3 26 4 27 5 25 7 22 8 23 9 97 10 24 11 96 12
REMARK SMILES IDX 21 13 11 14 12 15 16 16 13 17 15 18 17 19 14 20 18 21 20 23
REMARK SMILES IDX 19 24 10 25 6 26 7 27 98 28 8 29 9 30 5 31 1 32 2 33 3 34
REMARK SMILES IDX 100 35 4 36 99 37 31 38 32 39 33 40 34 41 35 43 36 44 37 45
REMARK SMILES IDX 95 46 38 47 94 48 39 49 40 50 41 51 88 52 42 53 93 54 87 55
REMARK SMILES IDX 89 56 43 57 92 58 86 59 85 60 44 62 74 63 55 64 73 65 56 66
REMARK SMILES IDX 59 67 72 68 90 69 57 70 58 71 71 73 91 74 60 75 45 76 46 77
REMARK SMILES IDX 54 78 47 79 53 80 48 81 49 82 50 83 51 84 52 85 75 86 76 87
REMARK SMILES IDX 84 88 77 89 83 90 78 91 79 92 80 93 81 94 82 95 61 96 62 97
REMARK SMILES IDX 70 98 63 99 69 100 64 101 65 102 66 103 67 104 68 105
REMARK H PARENT 28 6 17 22 33 42 89 61 59 72
REMARK Flexibility Score: inf
ROOT
ATOM      1  C   UNL A   1      47.115  26.864  25.785  1.00  0.00     0.023 C 
ENDROOT
BRANCH   1   2
ATOM      2  C   UNL A   1      47.044  25.753  26.846  1.00  0.00     0.116 C 
BRANCH   2   3
ATOM      3  N   UNL A   1      47.165  24.407  26.287  1.00  0.00    -0.352 N 
ATOM      4  C   UNL A   1      46.220  23.436  26.069  1.00  0.00     0.251 C 
ATOM      5  O   UNL A   1      46.496  22.434  25.415  1.00  0.00    -0.269 OA
ATOM      6  H   UNL A   1      48.079  24.156  26.023  1.00  0.00     0.163 HD
BRANCH   4   7
ATOM      7  C   UNL A   1      44.842  23.601  26.571  1.00  0.00     0.039 A 
ATOM      8  C   UNL A   1      42.182  23.665  27.471  1.00  0.00    -0.040 A 
ATOM      9  C   UNL A   1      43.206  23.129  28.277  1.00  0.00     0.005 A 
ATOM     10  C   UNL A   1      42.543  24.302  26.275  1.00  0.00     0.005 A 
ATOM     11  C   UNL A   1      44.527  23.098  27.833  1.00  0.00     0.014 A 
ATOM     12  C   UNL A   1      43.865  24.264  25.830  1.00  0.00     0.014 A 
BRANCH   8  13
ATOM     13  C   UNL A   1      40.758  23.471  27.938  1.00  0.00     0.064 C 
ATOM     14  N   UNL A   1      38.170  22.227  25.731  1.00  0.00    -0.180 N 
ATOM     15  N   UNL A   1      39.072  21.244  25.465  1.00  0.00    -0.168 NA
ATOM     16  C   UNL A   1      38.804  23.290  26.347  1.00  0.00     0.143 A 
ATOM     17  C   UNL A   1      40.134  21.533  26.222  1.00  0.00     0.066 A 
ATOM     18  C   UNL A   1      39.961  22.774  26.891  1.00  0.00     0.026 A 
ATOM     19  N   UNL A   1      38.449  24.610  26.536  1.00  0.00    -0.310 N 
ATOM     20  C   UNL A   1      41.286  20.594  26.225  1.00  0.00     0.069 C 
ATOM     21  C   UNL A   1      39.257  25.433  27.383  1.00  0.00     0.226 C 
ATOM     22  H   UNL A   1      37.650  24.981  26.095  1.00  0.00     0.171 HD
ATOM     23  C   UNL A   1      40.082  24.744  28.439  1.00  0.00     0.113 C 
ATOM     24  O   UNL A   1      39.085  26.639  27.307  1.00  0.00    -0.275 OA
BRANCH  14  25
ATOM     25  C   UNL A   1      36.768  21.984  25.647  1.00  0.00     0.272 A 
ATOM     26  C   UNL A   1      34.978  20.684  25.076  1.00  0.00     0.095 A 
ATOM     27  C   UNL A   1      34.195  21.824  24.997  1.00  0.00     0.164 A 
ATOM     28  N   UNL A   1      36.307  20.737  25.368  1.00  0.00    -0.208 NA
ATOM     29  N   UNL A   1      34.697  23.030  25.285  1.00  0.00    -0.153 NA
ATOM     30  N   UNL A   1      35.994  23.100  25.649  1.00  0.00    -0.109 NA
BRANCH  26  31
ATOM     31  C   UNL A   1      34.349  19.363  24.953  1.00  0.00     0.002 A 
ATOM     32  C   UNL A   1      32.723  15.354  25.149  1.00  0.00     0.044 C 
ATOM     33  C   UNL A   1      33.282  16.742  25.051  1.00  0.00    -0.051 A 
ATOM     34  C   UNL A   1      32.500  17.840  25.423  1.00  0.00     0.004 A 
ATOM     35  C   UNL A   1      34.586  16.963  24.599  1.00  0.00     0.004 A 
ATOM     36  C   UNL A   1      33.027  19.135  25.376  1.00  0.00     0.011 A 
ATOM     37  C   UNL A   1      35.110  18.258  24.545  1.00  0.00     0.011 A 
ENDBRANCH  26  31
ENDBRANCH  14  25
ENDBRANCH   8  13
ENDBRANCH   4   7
ENDBRANCH   2   3
ENDBRANCH   1   2
BRANCH   1  38
ATOM     38  C   UNL A   1      46.037  27.943  25.898  1.00  0.00     0.023 C 
BRANCH  38  39
ATOM     39  C   UNL A   1      46.540  29.237  26.521  1.00  0.00     0.116 C 
BRANCH  39  40
ATOM     40  N   UNL A   1      45.754  30.411  26.175  1.00  0.00    -0.352 N 
ATOM     41  C   UNL A   1      44.459  30.726  26.577  1.00  0.00     0.251 C 
ATOM     42  H   UNL A   1      46.191  31.064  25.583  1.00  0.00     0.163 HD
ATOM     43  O   UNL A   1      43.777  31.561  26.033  1.00  0.00    -0.269 OA
BRANCH  41  44
ATOM     44  C   UNL A   1      44.007  30.126  27.856  1.00  0.00     0.039 A 
ATOM     45  C   UNL A   1      42.973  29.185  27.758  1.00  0.00     0.014 A 
ATOM     46  C   UNL A   1      44.327  30.726  29.069  1.00  0.00     0.014 A 
ATOM     47  C   UNL A   1      42.100  29.033  28.825  1.00  0.00     0.010 A 
ATOM     48  C   UNL A   1      43.395  30.670  30.081  1.00  0.00     0.010 A 
ATOM     49  C   UNL A   1      42.255  29.874  29.925  1.00  0.00    -0.014 A 
BRANCH  49  50
ATOM     50  C   UNL A   1      41.251  29.997  30.966  1.00  0.00     0.031 A 
ATOM     51  C   UNL A   1      40.336  31.151  30.906  1.00  0.00     0.074 A 
ATOM     52  C   UNL A   1      41.176  29.068  31.942  1.00  0.00     0.049 A 
ATOM     53  N   UNL A   1      39.747  31.684  31.919  1.00  0.00    -0.248 NA
ATOM     54  C   UNL A   1      40.097  31.861  29.652  1.00  0.00     0.031 C 
ATOM     55  C   UNL A   1      40.136  28.937  32.957  1.00  0.00     0.029 A 
ATOM     56  N   UNL A   1      42.182  28.191  32.367  1.00  0.00    -0.354 N 
ATOM     57  C   UNL A   1      38.841  32.598  31.423  1.00  0.00     0.074 A 
ATOM     58  C   UNL A   1      39.181  32.752  30.031  1.00  0.00     0.031 C 
ATOM     59  C   UNL A   1      40.664  28.312  34.023  1.00  0.00     0.029 A 
ATOM     60  C   UNL A   1      42.089  28.149  33.765  1.00  0.00     0.049 A 
ATOM     61  H   UNL A   1      42.822  27.704  31.800  1.00  0.00     0.167 HD
ATOM     62  C   UNL A   1      37.795  32.994  32.203  1.00  0.00     0.031 A 
ATOM     63  C   UNL A   1      43.086  28.579  34.592  1.00  0.00     0.031 A 
ATOM     64  C   UNL A   1      37.949  32.494  33.569  1.00  0.00     0.049 A 
ATOM     65  C   UNL A   1      42.638  29.724  35.475  1.00  0.00     0.074 A 
ATOM     66  C   UNL A   1      37.427  31.392  34.226  1.00  0.00     0.029 A 
ATOM     67  N   UNL A   1      39.019  32.941  34.339  1.00  0.00    -0.354 N 
ATOM     68  N   UNL A   1      41.611  30.489  35.212  1.00  0.00    -0.248 NA
ATOM     69  C   UNL A   1      43.302  30.089  36.722  1.00  0.00     0.031 C 
ATOM     70  C   UNL A   1      38.285  31.093  35.319  1.00  0.00     0.029 A 
ATOM     71  C   UNL A   1      39.292  32.043  35.356  1.00  0.00     0.049 A 
ATOM     72  H   UNL A   1      39.514  33.778  34.182  1.00  0.00     0.167 HD
ATOM     73  C   UNL A   1      41.435  31.386  36.233  1.00  0.00     0.074 A 
ATOM     74  C   UNL A   1      42.528  31.102  37.150  1.00  0.00     0.031 C 
ATOM     75  C   UNL A   1      40.400  32.277  36.273  1.00  0.00     0.031 A 
BRANCH  62  76
ATOM     76  C   UNL A   1      36.497  33.506  31.607  1.00  0.00    -0.014 A 
ATOM     77  C   UNL A   1      36.191  33.229  30.259  1.00  0.00     0.010 A 
ATOM     78  C   UNL A   1      35.591  34.350  32.279  1.00  0.00     0.010 A 
ATOM     79  C   UNL A   1      35.120  33.852  29.595  1.00  0.00     0.020 A 
ATOM     80  C   UNL A   1      34.545  35.014  31.621  1.00  0.00     0.020 A 
ATOM     81  C   UNL A   1      34.323  34.771  30.273  1.00  0.00     0.054 A 
BRANCH  81  82
ATOM     82  S   UNL A   1      33.009  35.645  29.383  1.00  0.00     0.124 S 
ATOM     83  O   UNL A   1      32.498  34.615  28.484  1.00  0.00    -0.237 OA
ATOM     84  O   UNL A   1      32.112  36.043  30.465  1.00  0.00    -0.237 OA
ATOM     85  O   UNL A   1      33.711  36.745  28.723  1.00  0.00    -0.744 OA
ENDBRANCH  81  82
ENDBRANCH  62  76
BRANCH  63  86
ATOM     86  C   UNL A   1      44.470  28.345  34.089  1.00  0.00    -0.014 A 
ATOM     87  C   UNL A   1      44.913  27.007  34.021  1.00  0.00     0.010 A 
ATOM     88  C   UNL A   1      45.157  29.318  33.343  1.00  0.00     0.010 A 
ATOM     89  C   UNL A   1      45.912  26.625  33.120  1.00  0.00     0.020 A 
ATOM     90  C   UNL A   1      46.156  28.935  32.430  1.00  0.00     0.020 A 
ATOM     91  C   UNL A   1      46.477  27.582  32.281  1.00  0.00     0.054 A 
BRANCH  91  92
ATOM     92  S   UNL A   1      47.554  27.016  30.927  1.00  0.00     0.124 S 
ATOM     93  O   UNL A   1      47.164  25.616  30.773  1.00  0.00    -0.237 OA
ATOM     94  O   UNL A   1      47.149  27.896  29.830  1.00  0.00    -0.237 OA
ATOM     95  O   UNL A   1      48.895  27.235  31.454  1.00  0.00    -0.744 OA
ENDBRANCH  91  92
ENDBRANCH  63  86
BRANCH  75  96
ATOM     96  C   UNL A   1      40.275  33.409  37.261  1.00  0.00    -0.014 A 
ATOM     97  C   UNL A   1      41.209  34.450  37.376  1.00  0.00     0.010 A 
ATOM     98  C   UNL A   1      39.087  33.521  38.024  1.00  0.00     0.010 A 
ATOM     99  C   UNL A   1      41.003  35.517  38.261  1.00  0.00     0.020 A 
ATOM    100  C   UNL A   1      38.850  34.604  38.873  1.00  0.00     0.020 A 
ATOM    101  C   UNL A   1      39.825  35.586  39.006  1.00  0.00     0.054 A 
BRANCH 101 102
ATOM    102  S   UNL A   1      39.533  37.000  40.097  1.00  0.00     0.124 S 
ATOM    103  O   UNL A   1      40.891  37.341  40.512  1.00  0.00    -0.237 OA
ATOM    104  O   UNL A   1      38.887  37.968  39.212  1.00  0.00    -0.237 OA
ATOM    105  O   UNL A   1      38.674  36.451  41.142  1.00  0.00    -0.744 OA
ENDBRANCH 101 102
ENDBRANCH  75  96
ENDBRANCH  49  50
ENDBRANCH  41  44
ENDBRANCH  39  40
ENDBRANCH  38  39
ENDBRANCH   1  38
TORSDOF 17
ENDMDL
