MODEL 1
REMARK VINA RESULT:     -12.2      0.000      0.000
REMARK SMILES COc1cccc(-c2ccc(Nc3cccc(C(=O)NCCCCNC(=O)c4ccc(-c5c6nc(c(-c7ccc(S(=O)(=O)[O-])cc7)c7ccc([nH]7)c(-c7ccc(S(=O)(=O)[O-])cc7)c7nc(c(-c8ccc(S(=O)(=O)[O-])cc8)c8ccc5[nH]8)C=C7)C=C6)cc4)c3)nn2)c1
REMARK SMILES IDX 22 1 21 2 20 3 18 4 19 5 17 7 13 8 14 9 88 10 15 11 16 12
REMARK SMILES IDX 12 13 11 15 8 16 9 17 90 18 10 19 89 20 7 21 3 22 4 23 91 24
REMARK SMILES IDX 5 25 6 26 2 27 1 28 23 29 24 30 25 31 26 32 27 34 28 35
REMARK SMILES IDX 29 36 87 37 30 38 86 39 31 40 32 41 33 42 80 43 34 44 85 45
REMARK SMILES IDX 79 46 81 47 35 48 84 49 78 50 77 51 36 53 66 54 47 55 65 56
REMARK SMILES IDX 48 57 51 58 64 59 82 60 49 61 50 62 63 64 83 65 52 66 37 67
REMARK SMILES IDX 38 68 46 69 39 70 45 71 40 72 41 73 42 74 43 75 44 76 67 77
REMARK SMILES IDX 68 78 76 79 69 80 75 81 70 82 71 83 72 84 73 85 74 86 53 87
REMARK SMILES IDX 54 88 62 89 55 90 61 91 56 92 57 93 58 94 59 95 60 96
REMARK H PARENT 20 6 12 14 25 33 81 52 51 63
REMARK Flexibility Score: inf
ROOT
ATOM      1  C   UNL A   1      33.452  30.301  27.111  1.00  0.00     0.023 C 
ENDROOT
BRANCH   1   2
ATOM      2  C   UNL A   1      32.468  30.195  25.951  1.00  0.00     0.116 C 
BRANCH   2   3
ATOM      3  N   UNL A   1      33.051  29.735  24.700  1.00  0.00    -0.352 N 
ATOM      4  C   UNL A   1      32.556  28.889  23.729  1.00  0.00     0.251 C 
ATOM      5  O   UNL A   1      33.252  28.632  22.749  1.00  0.00    -0.269 OA
ATOM      6  H   UNL A   1      33.952  30.087  24.515  1.00  0.00     0.163 HD
BRANCH   4   7
ATOM      7  C   UNL A   1      31.236  28.219  23.872  1.00  0.00     0.041 A 
ATOM      8  C   UNL A   1      29.883  26.355  24.665  1.00  0.00     0.040 A 
ATOM      9  C   UNL A   1      28.838  26.795  23.843  1.00  0.00     0.026 A 
ATOM     10  C   UNL A   1      31.037  27.144  24.739  1.00  0.00     0.040 A 
ATOM     11  C   UNL A   1      28.966  27.963  23.085  1.00  0.00     0.003 A 
ATOM     12  C   UNL A   1      30.173  28.661  23.079  1.00  0.00     0.014 A 
BRANCH   8  13
ATOM     13  N   UNL A   1      29.791  25.115  25.321  1.00  0.00    -0.339 N 
ATOM     14  H   UNL A   1      29.021  25.009  25.924  1.00  0.00     0.168 HD
BRANCH  13  15
ATOM     15  C   UNL A   1      30.650  24.009  25.229  1.00  0.00     0.153 A 
ATOM     16  C   UNL A   1      32.258  21.771  25.055  1.00  0.00     0.093 A 
ATOM     17  C   UNL A   1      31.978  22.309  26.303  1.00  0.00     0.035 A 
ATOM     18  N   UNL A   1      31.737  22.335  23.946  1.00  0.00    -0.148 NA
ATOM     19  C   UNL A   1      31.171  23.447  26.388  1.00  0.00     0.051 A 
ATOM     20  N   UNL A   1      30.924  23.442  24.039  1.00  0.00    -0.132 NA
BRANCH  16  21
ATOM     21  C   UNL A   1      33.157  20.633  24.834  1.00  0.00     0.006 A 
ATOM     22  C   UNL A   1      33.572  18.312  24.220  1.00  0.00     0.119 A 
ATOM     23  C   UNL A   1      34.932  18.476  24.480  1.00  0.00     0.046 A 
ATOM     24  C   UNL A   1      32.685  19.376  24.414  1.00  0.00     0.056 A 
ATOM     25  C   UNL A   1      35.420  19.715  24.882  1.00  0.00     0.005 A 
ATOM     26  C   UNL A   1      34.540  20.784  25.049  1.00  0.00     0.011 A 
BRANCH  22  27
ATOM     27  O   UNL A   1      33.180  17.058  23.836  1.00  0.00    -0.497 OA
ATOM     28  C   UNL A   1      33.221  16.096  24.890  1.00  0.00     0.278 C 
ENDBRANCH  22  27
ENDBRANCH  16  21
ENDBRANCH  13  15
ENDBRANCH   8  13
ENDBRANCH   4   7
ENDBRANCH   2   3
ENDBRANCH   1   2
BRANCH   1  29
ATOM     29  C   UNL A   1      34.425  29.142  27.287  1.00  0.00     0.023 C 
BRANCH  29  30
ATOM     30  C   UNL A   1      35.714  29.451  28.040  1.00  0.00     0.116 C 
BRANCH  30  31
ATOM     31  N   UNL A   1      35.513  29.861  29.423  1.00  0.00    -0.352 N 
ATOM     32  C   UNL A   1      36.437  30.061  30.428  1.00  0.00     0.251 C 
ATOM     33  H   UNL A   1      34.576  30.019  29.680  1.00  0.00     0.163 HD
ATOM     34  O   UNL A   1      36.064  30.354  31.554  1.00  0.00    -0.269 OA
BRANCH  32  35
ATOM     35  C   UNL A   1      37.881  29.872  30.144  1.00  0.00     0.039 A 
ATOM     36  C   UNL A   1      38.655  29.137  31.047  1.00  0.00     0.014 A 
ATOM     37  C   UNL A   1      38.462  30.381  28.981  1.00  0.00     0.014 A 
ATOM     38  C   UNL A   1      39.984  28.832  30.734  1.00  0.00     0.010 A 
ATOM     39  C   UNL A   1      39.759  30.010  28.634  1.00  0.00     0.010 A 
ATOM     40  C   UNL A   1      40.532  29.224  29.502  1.00  0.00    -0.014 A 
BRANCH  40  41
ATOM     41  C   UNL A   1      41.899  28.807  29.090  1.00  0.00     0.031 A 
ATOM     42  C   UNL A   1      43.026  29.806  29.077  1.00  0.00     0.074 A 
ATOM     43  C   UNL A   1      42.114  27.549  28.652  1.00  0.00     0.049 A 
ATOM     44  N   UNL A   1      44.261  29.650  28.672  1.00  0.00    -0.248 NA
ATOM     45  C   UNL A   1      42.717  31.163  29.554  1.00  0.00     0.031 C 
ATOM     46  C   UNL A   1      41.100  26.495  28.567  1.00  0.00     0.029 A 
ATOM     47  N   UNL A   1      43.256  26.947  28.183  1.00  0.00    -0.354 N 
ATOM     48  C   UNL A   1      44.868  30.891  28.824  1.00  0.00     0.074 A 
ATOM     49  C   UNL A   1      43.853  31.800  29.315  1.00  0.00     0.031 C 
ATOM     50  C   UNL A   1      41.670  25.371  28.101  1.00  0.00     0.029 A 
ATOM     51  C   UNL A   1      43.078  25.632  27.818  1.00  0.00     0.049 A 
ATOM     52  H   UNL A   1      44.121  27.412  28.114  1.00  0.00     0.167 HD
ATOM     53  C   UNL A   1      46.156  31.243  28.594  1.00  0.00     0.031 A 
ATOM     54  C   UNL A   1      43.946  24.737  27.307  1.00  0.00     0.031 A 
ATOM     55  C   UNL A   1      47.171  30.339  28.124  1.00  0.00     0.049 A 
ATOM     56  C   UNL A   1      45.374  25.147  27.070  1.00  0.00     0.074 A 
ATOM     57  C   UNL A   1      48.516  30.587  27.918  1.00  0.00     0.029 A 
ATOM     58  N   UNL A   1      46.954  29.011  27.792  1.00  0.00    -0.354 N 
ATOM     59  N   UNL A   1      45.941  26.311  27.278  1.00  0.00    -0.248 NA
ATOM     60  C   UNL A   1      46.280  24.119  26.540  1.00  0.00     0.031 C 
ATOM     61  C   UNL A   1      49.107  29.419  27.424  1.00  0.00     0.029 A 
ATOM     62  C   UNL A   1      48.137  28.429  27.367  1.00  0.00     0.049 A 
ATOM     63  H   UNL A   1      46.087  28.548  27.849  1.00  0.00     0.167 HD
ATOM     64  C   UNL A   1      47.276  26.148  26.928  1.00  0.00     0.074 A 
ATOM     65  C   UNL A   1      47.435  24.770  26.508  1.00  0.00     0.031 C 
ATOM     66  C   UNL A   1      48.282  27.058  26.955  1.00  0.00     0.031 A 
BRANCH  53  67
ATOM     67  C   UNL A   1      46.538  32.677  28.852  1.00  0.00    -0.014 A 
ATOM     68  C   UNL A   1      47.041  33.077  30.103  1.00  0.00     0.010 A 
ATOM     69  C   UNL A   1      46.419  33.629  27.825  1.00  0.00     0.010 A 
ATOM     70  C   UNL A   1      47.374  34.413  30.337  1.00  0.00     0.020 A 
ATOM     71  C   UNL A   1      46.776  34.963  28.046  1.00  0.00     0.020 A 
ATOM     72  C   UNL A   1      47.233  35.350  29.308  1.00  0.00     0.054 A 
BRANCH  72  73
ATOM     73  S   UNL A   1      47.686  37.075  29.635  1.00  0.00     0.124 S 
ATOM     74  O   UNL A   1      48.536  36.944  30.815  1.00  0.00    -0.237 OA
ATOM     75  O   UNL A   1      48.373  37.467  28.407  1.00  0.00    -0.237 OA
ATOM     76  O   UNL A   1      46.401  37.733  29.862  1.00  0.00    -0.744 OA
ENDBRANCH  72  73
ENDBRANCH  53  67
BRANCH  54  77
ATOM     77  C   UNL A   1      43.494  23.351  27.005  1.00  0.00    -0.014 A 
ATOM     78  C   UNL A   1      43.437  22.898  25.675  1.00  0.00     0.010 A 
ATOM     79  C   UNL A   1      43.131  22.475  28.043  1.00  0.00     0.010 A 
ATOM     80  C   UNL A   1      43.009  21.599  25.387  1.00  0.00     0.020 A 
ATOM     81  C   UNL A   1      42.727  21.167  27.761  1.00  0.00     0.020 A 
ATOM     82  C   UNL A   1      42.657  20.741  26.432  1.00  0.00     0.054 A 
BRANCH  82  83
ATOM     83  S   UNL A   1      42.160  19.041  26.041  1.00  0.00     0.124 S 
ATOM     84  O   UNL A   1      42.945  18.764  24.842  1.00  0.00    -0.237 OA
ATOM     85  O   UNL A   1      42.557  18.309  27.241  1.00  0.00    -0.237 OA
ATOM     86  O   UNL A   1      40.717  19.146  25.836  1.00  0.00    -0.744 OA
ENDBRANCH  82  83
ENDBRANCH  54  77
BRANCH  66  87
ATOM     87  C   UNL A   1      49.653  26.587  26.551  1.00  0.00    -0.014 A 
ATOM     88  C   UNL A   1      50.494  25.929  27.464  1.00  0.00     0.010 A 
ATOM     89  C   UNL A   1      50.081  26.760  25.223  1.00  0.00     0.010 A 
ATOM     90  C   UNL A   1      51.753  25.475  27.062  1.00  0.00     0.020 A 
ATOM     91  C   UNL A   1      51.329  26.287  24.811  1.00  0.00     0.020 A 
ATOM     92  C   UNL A   1      52.164  25.658  25.737  1.00  0.00     0.054 A 
BRANCH  92  93
ATOM     93  S   UNL A   1      53.783  25.020  25.226  1.00  0.00     0.124 S 
ATOM     94  O   UNL A   1      54.639  25.444  26.330  1.00  0.00    -0.237 OA
ATOM     95  O   UNL A   1      53.547  23.581  25.130  1.00  0.00    -0.237 OA
ATOM     96  O   UNL A   1      54.031  25.690  23.951  1.00  0.00    -0.744 OA
ENDBRANCH  92  93
ENDBRANCH  66  87
ENDBRANCH  40  41
ENDBRANCH  32  35
ENDBRANCH  30  31
ENDBRANCH  29  30
ENDBRANCH   1  29
TORSDOF 18
ENDMDL
MODEL 2
REMARK VINA RESULT:     -12.1      6.239     12.159
REMARK SMILES COc1cccc(-c2ccc(Nc3cccc(C(=O)NCCCCNC(=O)c4ccc(-c5c6nc(c(-c7ccc(S(=O)(=O)[O-])cc7)c7ccc([nH]7)c(-c7ccc(S(=O)(=O)[O-])cc7)c7nc(c(-c8ccc(S(=O)(=O)[O-])cc8)c8ccc5[nH]8)C=C7)C=C6)cc4)c3)nn2)c1
REMARK SMILES IDX 22 1 21 2 20 3 18 4 19 5 17 7 13 8 14 9 88 10 15 11 16 12
REMARK SMILES IDX 12 13 11 15 8 16 9 17 90 18 10 19 89 20 7 21 3 22 4 23 91 24
REMARK SMILES IDX 5 25 6 26 2 27 1 28 23 29 24 30 25 31 26 32 27 34 28 35
REMARK SMILES IDX 29 36 87 37 30 38 86 39 31 40 32 41 33 42 80 43 34 44 85 45
REMARK SMILES IDX 79 46 81 47 35 48 84 49 78 50 77 51 36 53 66 54 47 55 65 56
REMARK SMILES IDX 48 57 51 58 64 59 82 60 49 61 50 62 63 64 83 65 52 66 37 67
REMARK SMILES IDX 38 68 46 69 39 70 45 71 40 72 41 73 42 74 43 75 44 76 67 77
REMARK SMILES IDX 68 78 76 79 69 80 75 81 70 82 71 83 72 84 73 85 74 86 53 87
REMARK SMILES IDX 54 88 62 89 55 90 61 91 56 92 57 93 58 94 59 95 60 96
REMARK H PARENT 20 6 12 14 25 33 81 52 51 63
REMARK Flexibility Score: inf
ROOT
ATOM      1  C   UNL A   1      37.798  22.262  25.237  1.00  0.00     0.023 C 
ENDROOT
BRANCH   1   2
ATOM      2  C   UNL A   1      36.759  21.148  25.282  1.00  0.00     0.116 C 
BRANCH   2   3
ATOM      3  N   UNL A   1      35.724  21.322  26.289  1.00  0.00    -0.352 N 
ATOM      4  C   UNL A   1      34.352  21.408  26.171  1.00  0.00     0.251 C 
ATOM      5  O   UNL A   1      33.674  21.573  27.183  1.00  0.00    -0.269 OA
ATOM      6  H   UNL A   1      36.059  21.391  27.212  1.00  0.00     0.163 HD
BRANCH   4   7
ATOM      7  C   UNL A   1      33.676  21.384  24.847  1.00  0.00     0.041 A 
ATOM      8  C   UNL A   1      32.787  22.550  22.902  1.00  0.00     0.040 A 
ATOM      9  C   UNL A   1      32.110  21.380  22.538  1.00  0.00     0.026 A 
ATOM     10  C   UNL A   1      33.646  22.497  24.005  1.00  0.00     0.040 A 
ATOM     11  C   UNL A   1      32.256  20.207  23.286  1.00  0.00     0.003 A 
ATOM     12  C   UNL A   1      33.018  20.215  24.453  1.00  0.00     0.014 A 
BRANCH   8  13
ATOM     13  N   UNL A   1      32.533  23.753  22.219  1.00  0.00    -0.339 N 
ATOM     14  H   UNL A   1      32.547  23.696  21.237  1.00  0.00     0.168 HD
BRANCH  13  15
ATOM     15  C   UNL A   1      32.262  25.023  22.752  1.00  0.00     0.153 A 
ATOM     16  C   UNL A   1      31.732  27.560  23.705  1.00  0.00     0.093 A 
ATOM     17  C   UNL A   1      33.049  27.139  23.596  1.00  0.00     0.035 A 
ATOM     18  N   UNL A   1      30.729  26.736  23.337  1.00  0.00    -0.148 NA
ATOM     19  C   UNL A   1      33.315  25.851  23.120  1.00  0.00     0.051 A 
ATOM     20  N   UNL A   1      30.999  25.478  22.849  1.00  0.00    -0.132 NA
BRANCH  16  21
ATOM     21  C   UNL A   1      31.328  28.853  24.266  1.00  0.00     0.006 A 
ATOM     22  C   UNL A   1      29.941  30.857  24.261  1.00  0.00     0.119 A 
ATOM     23  C   UNL A   1      30.637  31.353  25.362  1.00  0.00     0.046 A 
ATOM     24  C   UNL A   1      30.295  29.625  23.701  1.00  0.00     0.056 A 
ATOM     25  C   UNL A   1      31.650  30.598  25.944  1.00  0.00     0.005 A 
ATOM     26  C   UNL A   1      31.984  29.357  25.404  1.00  0.00     0.011 A 
BRANCH  22  27
ATOM     27  O   UNL A   1      28.965  31.670  23.750  1.00  0.00    -0.497 OA
ATOM     28  C   UNL A   1      27.750  30.986  23.442  1.00  0.00     0.278 C 
ENDBRANCH  22  27
ENDBRANCH  16  21
ENDBRANCH  13  15
ENDBRANCH   8  13
ENDBRANCH   4   7
ENDBRANCH   2   3
ENDBRANCH   1   2
BRANCH   1  29
ATOM     29  C   UNL A   1      37.411  23.582  25.894  1.00  0.00     0.023 C 
BRANCH  29  30
ATOM     30  C   UNL A   1      38.508  24.291  26.679  1.00  0.00     0.116 C 
BRANCH  30  31
ATOM     31  N   UNL A   1      39.791  24.349  25.994  1.00  0.00    -0.352 N 
ATOM     32  C   UNL A   1      40.931  25.059  26.312  1.00  0.00     0.251 C 
ATOM     33  H   UNL A   1      39.855  23.798  25.180  1.00  0.00     0.163 HD
ATOM     34  O   UNL A   1      41.903  25.020  25.571  1.00  0.00    -0.269 OA
BRANCH  32  35
ATOM     35  C   UNL A   1      40.952  25.904  27.531  1.00  0.00     0.039 A 
ATOM     36  C   UNL A   1      41.918  26.910  27.636  1.00  0.00     0.014 A 
ATOM     37  C   UNL A   1      40.008  25.734  28.544  1.00  0.00     0.014 A 
ATOM     38  C   UNL A   1      41.873  27.804  28.711  1.00  0.00     0.010 A 
ATOM     39  C   UNL A   1      39.916  26.672  29.570  1.00  0.00     0.010 A 
ATOM     40  C   UNL A   1      40.841  27.724  29.661  1.00  0.00    -0.014 A 
BRANCH  40  41
ATOM     41  C   UNL A   1      40.697  28.736  30.741  1.00  0.00     0.031 A 
ATOM     42  C   UNL A   1      41.551  28.652  31.978  1.00  0.00     0.074 A 
ATOM     43  C   UNL A   1      39.743  29.685  30.648  1.00  0.00     0.049 A 
ATOM     44  N   UNL A   1      41.512  29.391  33.059  1.00  0.00    -0.248 NA
ATOM     45  C   UNL A   1      42.560  27.582  32.019  1.00  0.00     0.031 C 
ATOM     46  C   UNL A   1      38.815  29.850  29.527  1.00  0.00     0.029 A 
ATOM     47  N   UNL A   1      39.388  30.687  31.519  1.00  0.00    -0.354 N 
ATOM     48  C   UNL A   1      42.472  28.862  33.913  1.00  0.00     0.074 A 
ATOM     49  C   UNL A   1      43.046  27.713  33.244  1.00  0.00     0.031 C 
ATOM     50  C   UNL A   1      38.016  30.903  29.766  1.00  0.00     0.029 A 
ATOM     51  C   UNL A   1      38.347  31.466  31.071  1.00  0.00     0.049 A 
ATOM     52  H   UNL A   1      39.837  30.833  32.383  1.00  0.00     0.167 HD
ATOM     53  C   UNL A   1      42.858  29.300  35.136  1.00  0.00     0.031 A 
ATOM     54  C   UNL A   1      37.721  32.511  31.647  1.00  0.00     0.031 A 
ATOM     55  C   UNL A   1      42.304  30.453  35.795  1.00  0.00     0.049 A 
ATOM     56  C   UNL A   1      38.173  32.987  33.000  1.00  0.00     0.074 A 
ATOM     57  C   UNL A   1      42.670  31.009  37.007  1.00  0.00     0.029 A 
ATOM     58  N   UNL A   1      41.270  31.228  35.295  1.00  0.00    -0.354 N 
ATOM     59  N   UNL A   1      39.126  32.509  33.765  1.00  0.00    -0.248 NA
ATOM     60  C   UNL A   1      37.474  34.151  33.563  1.00  0.00     0.031 C 
ATOM     61  C   UNL A   1      41.831  32.100  37.260  1.00  0.00     0.029 A 
ATOM     62  C   UNL A   1      40.973  32.250  36.181  1.00  0.00     0.049 A 
ATOM     63  H   UNL A   1      40.812  31.075  34.436  1.00  0.00     0.167 HD
ATOM     64  C   UNL A   1      39.156  33.329  34.887  1.00  0.00     0.074 A 
ATOM     65  C   UNL A   1      38.137  34.340  34.696  1.00  0.00     0.031 C 
ATOM     66  C   UNL A   1      39.959  33.251  35.977  1.00  0.00     0.031 A 
BRANCH  53  67
ATOM     67  C   UNL A   1      43.938  28.523  35.839  1.00  0.00    -0.014 A 
ATOM     68  C   UNL A   1      43.617  27.499  36.749  1.00  0.00     0.010 A 
ATOM     69  C   UNL A   1      45.290  28.799  35.568  1.00  0.00     0.010 A 
ATOM     70  C   UNL A   1      44.628  26.797  37.410  1.00  0.00     0.020 A 
ATOM     71  C   UNL A   1      46.305  28.081  36.207  1.00  0.00     0.020 A 
ATOM     72  C   UNL A   1      45.967  27.098  37.139  1.00  0.00     0.054 A 
BRANCH  72  73
ATOM     73  S   UNL A   1      47.259  26.162  38.002  1.00  0.00     0.124 S 
ATOM     74  O   UNL A   1      46.516  25.582  39.117  1.00  0.00    -0.237 OA
ATOM     75  O   UNL A   1      47.704  25.213  36.984  1.00  0.00    -0.237 OA
ATOM     76  O   UNL A   1      48.239  27.182  38.368  1.00  0.00    -0.744 OA
ENDBRANCH  72  73
ENDBRANCH  53  67
BRANCH  54  77
ATOM     77  C   UNL A   1      36.611  33.199  30.933  1.00  0.00    -0.014 A 
ATOM     78  C   UNL A   1      35.298  33.133  31.432  1.00  0.00     0.010 A 
ATOM     79  C   UNL A   1      36.861  33.932  29.759  1.00  0.00     0.010 A 
ATOM     80  C   UNL A   1      34.252  33.774  30.763  1.00  0.00     0.020 A 
ATOM     81  C   UNL A   1      35.821  34.594  29.100  1.00  0.00     0.020 A 
ATOM     82  C   UNL A   1      34.520  34.502  29.600  1.00  0.00     0.054 A 
BRANCH  82  83
ATOM     83  S   UNL A   1      33.158  35.373  28.778  1.00  0.00     0.124 S 
ATOM     84  O   UNL A   1      33.872  36.350  27.962  1.00  0.00    -0.237 OA
ATOM     85  O   UNL A   1      32.492  34.300  28.043  1.00  0.00    -0.237 OA
ATOM     86  O   UNL A   1      32.387  35.926  29.889  1.00  0.00    -0.744 OA
ENDBRANCH  82  83
ENDBRANCH  54  77
BRANCH  66  87
ATOM     87  C   UNL A   1      39.794  34.308  37.035  1.00  0.00    -0.014 A 
ATOM     88  C   UNL A   1      39.047  34.061  38.200  1.00  0.00     0.010 A 
ATOM     89  C   UNL A   1      40.441  35.547  36.884  1.00  0.00     0.010 A 
ATOM     90  C   UNL A   1      38.929  35.046  39.184  1.00  0.00     0.020 A 
ATOM     91  C   UNL A   1      40.345  36.526  37.876  1.00  0.00     0.020 A 
ATOM     92  C   UNL A   1      39.578  36.274  39.015  1.00  0.00     0.054 A 
BRANCH  92  93
ATOM     93  S   UNL A   1      39.449  37.521  40.326  1.00  0.00     0.124 S 
ATOM     94  O   UNL A   1      38.805  36.767  41.399  1.00  0.00    -0.237 OA
ATOM     95  O   UNL A   1      40.843  37.885  40.564  1.00  0.00    -0.237 OA
ATOM     96  O   UNL A   1      38.631  38.571  39.725  1.00  0.00    -0.744 OA
ENDBRANCH  92  93
ENDBRANCH  66  87
ENDBRANCH  40  41
ENDBRANCH  32  35
ENDBRANCH  30  31
ENDBRANCH  29  30
ENDBRANCH   1  29
TORSDOF 18
ENDMDL
MODEL 3
REMARK VINA RESULT:     -11.8      3.106      5.737
REMARK SMILES COc1cccc(-c2ccc(Nc3cccc(C(=O)NCCCCNC(=O)c4ccc(-c5c6nc(c(-c7ccc(S(=O)(=O)[O-])cc7)c7ccc([nH]7)c(-c7ccc(S(=O)(=O)[O-])cc7)c7nc(c(-c8ccc(S(=O)(=O)[O-])cc8)c8ccc5[nH]8)C=C7)C=C6)cc4)c3)nn2)c1
REMARK SMILES IDX 22 1 21 2 20 3 18 4 19 5 17 7 13 8 14 9 88 10 15 11 16 12
REMARK SMILES IDX 12 13 11 15 8 16 9 17 90 18 10 19 89 20 7 21 3 22 4 23 91 24
REMARK SMILES IDX 5 25 6 26 2 27 1 28 23 29 24 30 25 31 26 32 27 34 28 35
REMARK SMILES IDX 29 36 87 37 30 38 86 39 31 40 32 41 33 42 80 43 34 44 85 45
REMARK SMILES IDX 79 46 81 47 35 48 84 49 78 50 77 51 36 53 66 54 47 55 65 56
REMARK SMILES IDX 48 57 51 58 64 59 82 60 49 61 50 62 63 64 83 65 52 66 37 67
REMARK SMILES IDX 38 68 46 69 39 70 45 71 40 72 41 73 42 74 43 75 44 76 67 77
REMARK SMILES IDX 68 78 76 79 69 80 75 81 70 82 71 83 72 84 73 85 74 86 53 87
REMARK SMILES IDX 54 88 62 89 55 90 61 91 56 92 57 93 58 94 59 95 60 96
REMARK H PARENT 20 6 12 14 25 33 81 52 51 63
REMARK Flexibility Score: inf
ROOT
ATOM      1  C   UNL A   1      33.755  25.275  26.111  1.00  0.00     0.023 C 
ENDROOT
BRANCH   1   2
ATOM      2  C   UNL A   1      34.978  24.927  25.271  1.00  0.00     0.116 C 
BRANCH   2   3
ATOM      3  N   UNL A   1      35.752  23.797  25.762  1.00  0.00    -0.352 N 
ATOM      4  C   UNL A   1      35.625  22.443  25.527  1.00  0.00     0.251 C 
ATOM      5  O   UNL A   1      36.403  21.666  26.076  1.00  0.00    -0.269 OA
ATOM      6  H   UNL A   1      36.492  24.039  26.364  1.00  0.00     0.163 HD
BRANCH   4   7
ATOM      7  C   UNL A   1      34.527  21.893  24.689  1.00  0.00     0.041 A 
ATOM      8  C   UNL A   1      32.680  22.224  23.135  1.00  0.00     0.040 A 
ATOM      9  C   UNL A   1      32.259  20.914  23.393  1.00  0.00     0.026 A 
ATOM     10  C   UNL A   1      33.876  22.657  23.718  1.00  0.00     0.040 A 
ATOM     11  C   UNL A   1      32.992  20.081  24.245  1.00  0.00     0.003 A 
ATOM     12  C   UNL A   1      34.111  20.578  24.912  1.00  0.00     0.014 A 
BRANCH   8  13
ATOM     13  N   UNL A   1      31.869  23.090  22.381  1.00  0.00    -0.339 N 
ATOM     14  H   UNL A   1      31.557  22.737  21.517  1.00  0.00     0.168 HD
BRANCH  13  15
ATOM     15  C   UNL A   1      31.444  24.391  22.697  1.00  0.00     0.153 A 
ATOM     16  C   UNL A   1      30.691  26.958  23.378  1.00  0.00     0.093 A 
ATOM     17  C   UNL A   1      30.246  25.895  24.149  1.00  0.00     0.035 A 
ATOM     18  N   UNL A   1      31.493  26.732  22.316  1.00  0.00    -0.148 NA
ATOM     19  C   UNL A   1      30.622  24.595  23.798  1.00  0.00     0.051 A 
ATOM     20  N   UNL A   1      31.876  25.451  21.990  1.00  0.00    -0.132 NA
BRANCH  16  21
ATOM     21  C   UNL A   1      30.298  28.354  23.599  1.00  0.00     0.006 A 
ATOM     22  C   UNL A   1      28.928  30.304  23.091  1.00  0.00     0.119 A 
ATOM     23  C   UNL A   1      29.627  31.053  24.036  1.00  0.00     0.046 A 
ATOM     24  C   UNL A   1      29.272  28.968  22.857  1.00  0.00     0.056 A 
ATOM     25  C   UNL A   1      30.634  30.459  24.790  1.00  0.00     0.005 A 
ATOM     26  C   UNL A   1      30.958  29.119  24.577  1.00  0.00     0.011 A 
BRANCH  22  27
ATOM     27  O   UNL A   1      27.959  30.972  22.391  1.00  0.00    -0.497 OA
ATOM     28  C   UNL A   1      28.009  30.745  20.982  1.00  0.00     0.278 C 
ENDBRANCH  22  27
ENDBRANCH  16  21
ENDBRANCH  13  15
ENDBRANCH   8  13
ENDBRANCH   4   7
ENDBRANCH   2   3
ENDBRANCH   1   2
BRANCH   1  29
ATOM     29  C   UNL A   1      33.314  26.733  26.104  1.00  0.00     0.023 C 
BRANCH  29  30
ATOM     30  C   UNL A   1      34.336  27.750  26.600  1.00  0.00     0.116 C 
BRANCH  30  31
ATOM     31  N   UNL A   1      33.766  29.038  26.969  1.00  0.00    -0.352 N 
ATOM     32  C   UNL A   1      34.338  30.095  27.647  1.00  0.00     0.251 C 
ATOM     33  H   UNL A   1      32.830  29.175  26.694  1.00  0.00     0.163 HD
ATOM     34  O   UNL A   1      33.671  31.083  27.914  1.00  0.00    -0.269 OA
BRANCH  32  35
ATOM     35  C   UNL A   1      35.752  30.004  28.088  1.00  0.00     0.039 A 
ATOM     36  C   UNL A   1      36.024  29.615  29.404  1.00  0.00     0.014 A 
ATOM     37  C   UNL A   1      36.802  30.263  27.206  1.00  0.00     0.014 A 
ATOM     38  C   UNL A   1      37.346  29.393  29.802  1.00  0.00     0.010 A 
ATOM     39  C   UNL A   1      38.110  29.964  27.580  1.00  0.00     0.010 A 
ATOM     40  C   UNL A   1      38.397  29.517  28.879  1.00  0.00    -0.014 A 
BRANCH  40  41
ATOM     41  C   UNL A   1      39.796  29.166  29.241  1.00  0.00     0.031 A 
ATOM     42  C   UNL A   1      40.684  30.181  29.912  1.00  0.00     0.074 A 
ATOM     43  C   UNL A   1      40.297  27.962  28.896  1.00  0.00     0.049 A 
ATOM     44  N   UNL A   1      41.951  30.087  30.228  1.00  0.00    -0.248 NA
ATOM     45  C   UNL A   1      40.077  31.479  30.245  1.00  0.00     0.031 C 
ATOM     46  C   UNL A   1      39.561  26.904  28.200  1.00  0.00     0.029 A 
ATOM     47  N   UNL A   1      41.549  27.428  29.075  1.00  0.00    -0.354 N 
ATOM     48  C   UNL A   1      42.297  31.317  30.774  1.00  0.00     0.074 A 
ATOM     49  C   UNL A   1      41.118  32.155  30.706  1.00  0.00     0.031 C 
ATOM     50  C   UNL A   1      40.366  25.842  28.034  1.00  0.00     0.029 A 
ATOM     51  C   UNL A   1      41.684  26.153  28.576  1.00  0.00     0.049 A 
ATOM     52  H   UNL A   1      42.283  27.912  29.519  1.00  0.00     0.167 HD
ATOM     53  C   UNL A   1      43.480  31.711  31.302  1.00  0.00     0.031 A 
ATOM     54  C   UNL A   1      42.749  25.328  28.549  1.00  0.00     0.031 A 
ATOM     55  C   UNL A   1      44.647  30.875  31.390  1.00  0.00     0.049 A 
ATOM     56  C   UNL A   1      44.050  25.783  29.152  1.00  0.00     0.074 A 
ATOM     57  C   UNL A   1      45.873  31.166  31.961  1.00  0.00     0.029 A 
ATOM     58  N   UNL A   1      44.732  29.583  30.896  1.00  0.00    -0.354 N 
ATOM     59  N   UNL A   1      44.338  26.931  29.719  1.00  0.00    -0.248 NA
ATOM     60  C   UNL A   1      45.167  24.828  29.121  1.00  0.00     0.031 C 
ATOM     61  C   UNL A   1      46.714  30.062  31.780  1.00  0.00     0.029 A 
ATOM     62  C   UNL A   1      45.995  29.067  31.136  1.00  0.00     0.049 A 
ATOM     63  H   UNL A   1      44.003  29.102  30.441  1.00  0.00     0.167 HD
ATOM     64  C   UNL A   1      45.660  26.825  30.134  1.00  0.00     0.074 A 
ATOM     65  C   UNL A   1      46.112  25.499  29.766  1.00  0.00     0.031 C 
ATOM     66  C   UNL A   1      46.430  27.745  30.767  1.00  0.00     0.031 A 
BRANCH  53  67
ATOM     67  C   UNL A   1      43.566  33.119  31.831  1.00  0.00    -0.014 A 
ATOM     68  C   UNL A   1      43.259  33.408  33.174  1.00  0.00     0.010 A 
ATOM     69  C   UNL A   1      43.986  34.161  30.985  1.00  0.00     0.010 A 
ATOM     70  C   UNL A   1      43.324  34.720  33.647  1.00  0.00     0.020 A 
ATOM     71  C   UNL A   1      44.078  35.472  31.462  1.00  0.00     0.020 A 
ATOM     72  C   UNL A   1      43.727  35.745  32.786  1.00  0.00     0.054 A 
BRANCH  72  73
ATOM     73  S   UNL A   1      43.816  37.438  33.432  1.00  0.00     0.124 S 
ATOM     74  O   UNL A   1      45.010  37.376  34.271  1.00  0.00    -0.237 OA
ATOM     75  O   UNL A   1      43.944  38.240  32.218  1.00  0.00    -0.237 OA
ATOM     76  O   UNL A   1      42.555  37.601  34.152  1.00  0.00    -0.744 OA
ENDBRANCH  72  73
ENDBRANCH  53  67
BRANCH  54  77
ATOM     77  C   UNL A   1      42.625  23.971  27.950  1.00  0.00    -0.014 A 
ATOM     78  C   UNL A   1      42.203  22.885  28.737  1.00  0.00     0.010 A 
ATOM     79  C   UNL A   1      42.914  23.760  26.591  1.00  0.00     0.010 A 
ATOM     80  C   UNL A   1      42.089  21.608  28.179  1.00  0.00     0.020 A 
ATOM     81  C   UNL A   1      42.778  22.490  26.023  1.00  0.00     0.020 A 
ATOM     82  C   UNL A   1      42.376  21.418  26.825  1.00  0.00     0.054 A 
BRANCH  82  83
ATOM     83  S   UNL A   1      42.167  19.765  26.108  1.00  0.00     0.124 S 
ATOM     84  O   UNL A   1      42.511  18.901  27.232  1.00  0.00    -0.237 OA
ATOM     85  O   UNL A   1      40.759  19.765  25.717  1.00  0.00    -0.237 OA
ATOM     86  O   UNL A   1      43.113  19.755  24.994  1.00  0.00    -0.744 OA
ENDBRANCH  82  83
ENDBRANCH  54  77
BRANCH  66  87
ATOM     87  C   UNL A   1      47.832  27.340  31.134  1.00  0.00    -0.014 A 
ATOM     88  C   UNL A   1      48.911  27.587  30.268  1.00  0.00     0.010 A 
ATOM     89  C   UNL A   1      48.077  26.753  32.388  1.00  0.00     0.010 A 
ATOM     90  C   UNL A   1      50.209  27.229  30.639  1.00  0.00     0.020 A 
ATOM     91  C   UNL A   1      49.377  26.414  32.773  1.00  0.00     0.020 A 
ATOM     92  C   UNL A   1      50.434  26.643  31.890  1.00  0.00     0.054 A 
BRANCH  92  93
ATOM     93  S   UNL A   1      52.134  26.228  32.370  1.00  0.00     0.124 S 
ATOM     94  O   UNL A   1      52.645  27.520  32.821  1.00  0.00    -0.237 OA
ATOM     95  O   UNL A   1      51.939  25.229  33.417  1.00  0.00    -0.237 OA
ATOM     96  O   UNL A   1      52.727  25.720  31.135  1.00  0.00    -0.744 OA
ENDBRANCH  92  93
ENDBRANCH  66  87
ENDBRANCH  40  41
ENDBRANCH  32  35
ENDBRANCH  30  31
ENDBRANCH  29  30
ENDBRANCH   1  29
TORSDOF 18
ENDMDL
