MODEL 1
REMARK VINA RESULT:     -11.8      0.000      0.000
REMARK SMILES CCCc1cc2c(cc1Cl)C=C(C(=O)NCCCCNC(=O)c1ccc(-c3c4nc(c(-c5ccc(S(=O)(=O)[O-])cc5)c5ccc([nH]5)c(-c5ccc(S(=O)(=O)[O-])cc5)c5nc(c(-c6ccc(S(=O)(=O)[O-])cc6)c6ccc3[nH]6)C=C5)C=C4)cc1)[C@H](C(F)(F)F)O2
REMARK SMILES IDX 18 1 17 2 16 3 15 4 13 5 14 6 12 8 4 9 5 10 9 11 6 12 8 13
REMARK SMILES IDX 10 14 7 15 88 16 11 17 83 18 3 19 2 20 1 21 84 22 85 23
REMARK SMILES IDX 86 24 87 25 19 26 20 27 21 28 22 30 23 31 24 32 82 33 25 34
REMARK SMILES IDX 81 35 26 36 27 37 28 38 75 39 29 40 80 41 74 42 76 43 30 44
REMARK SMILES IDX 79 45 73 46 72 47 31 49 61 50 42 51 60 52 43 53 46 54 59 55
REMARK SMILES IDX 77 56 44 57 45 58 58 60 78 61 47 62 32 63 33 64 41 65 34 66
REMARK SMILES IDX 40 67 35 68 36 69 37 70 38 71 39 72 62 73 63 74 71 75 64 76
REMARK SMILES IDX 70 77 65 78 66 79 67 80 68 81 69 82 48 83 49 84 57 85 50 86
REMARK SMILES IDX 56 87 51 88 52 89 53 90 54 91 55 92
REMARK H PARENT 15 7 20 29 76 48 46 59
REMARK Flexibility Score: inf
ROOT
ATOM      1  C   UNL A   1      36.496  22.640  23.989  1.00  0.00     0.023 C 
ENDROOT
BRANCH   1   2
ATOM      2  C   UNL A   1      36.087  21.200  24.298  1.00  0.00     0.023 C 
BRANCH   2   3
ATOM      3  C   UNL A   1      34.649  21.040  24.791  1.00  0.00     0.116 C 
BRANCH   3   4
ATOM      4  N   UNL A   1      34.546  21.203  26.230  1.00  0.00    -0.352 N 
ATOM      5  C   UNL A   1      33.953  22.066  27.089  1.00  0.00     0.251 C 
ATOM      6  O   UNL A   1      34.052  21.769  28.284  1.00  0.00    -0.270 OA
ATOM      7  H   UNL A   1      35.039  20.498  26.710  1.00  0.00     0.163 HD
BRANCH   5   8
ATOM      8  C   UNL A   1      33.219  23.307  26.704  1.00  0.00     0.067 C 
ATOM      9  C   UNL A   1      31.919  27.812  24.833  1.00  0.00    -0.026 A 
ATOM     10  C   UNL A   1      31.375  26.944  25.793  1.00  0.00     0.052 A 
ATOM     11  C   UNL A   1      33.182  27.491  24.299  1.00  0.00     0.045 A 
ATOM     12  C   UNL A   1      32.028  25.766  26.141  1.00  0.00     0.128 A 
ATOM     13  C   UNL A   1      33.869  26.338  24.710  1.00  0.00     0.032 A 
ATOM     14  Cl  UNL A   1      33.967  28.488  23.123  1.00  0.00    -0.084 Cl
ATOM     15  C   UNL A   1      33.285  25.464  25.627  1.00  0.00     0.019 A 
ATOM     16  O   UNL A   1      31.376  24.932  27.009  1.00  0.00    -0.475 OA
ATOM     17  C   UNL A   1      33.956  24.252  26.086  1.00  0.00     0.025 C 
ATOM     18  C   UNL A   1      31.740  23.526  26.865  1.00  0.00     0.314 C 
BRANCH   9  19
ATOM     19  C   UNL A   1      31.126  29.039  24.440  1.00  0.00     0.037 C 
BRANCH  19  20
ATOM     20  C   UNL A   1      30.405  28.940  23.086  1.00  0.00     0.001 C 
ATOM     21  C   UNL A   1      29.177  28.037  23.088  1.00  0.00     0.004 C 
ENDBRANCH  19  20
ENDBRANCH   9  19
BRANCH  18  22
ATOM     22  C   UNL A   1      30.899  22.850  25.764  1.00  0.00     0.429 C 
ATOM     23  F   UNL A   1      31.611  21.982  25.010  1.00  0.00    -0.167 F 
ATOM     24  F   UNL A   1      29.850  22.160  26.264  1.00  0.00    -0.167 F 
ATOM     25  F   UNL A   1      30.391  23.786  24.923  1.00  0.00    -0.167 F 
ENDBRANCH  18  22
ENDBRANCH   5   8
ENDBRANCH   3   4
ENDBRANCH   2   3
ENDBRANCH   1   2
BRANCH   1  26
ATOM     26  C   UNL A   1      37.397  23.291  25.029  1.00  0.00     0.116 C 
BRANCH  26  27
ATOM     27  N   UNL A   1      38.483  22.442  25.500  1.00  0.00    -0.352 N 
ATOM     28  C   UNL A   1      39.513  22.797  26.347  1.00  0.00     0.251 C 
ATOM     29  H   UNL A   1      38.481  21.510  25.179  1.00  0.00     0.163 HD
ATOM     30  O   UNL A   1      40.403  22.010  26.629  1.00  0.00    -0.269 OA
BRANCH  28  31
ATOM     31  C   UNL A   1      39.536  24.187  26.849  1.00  0.00     0.039 A 
ATOM     32  C   UNL A   1      40.165  25.181  26.099  1.00  0.00     0.014 A 
ATOM     33  C   UNL A   1      39.077  24.446  28.142  1.00  0.00     0.014 A 
ATOM     34  C   UNL A   1      40.507  26.377  26.714  1.00  0.00     0.010 A 
ATOM     35  C   UNL A   1      39.348  25.685  28.728  1.00  0.00     0.010 A 
ATOM     36  C   UNL A   1      40.121  26.635  28.042  1.00  0.00    -0.014 A 
BRANCH  36  37
ATOM     37  C   UNL A   1      40.571  27.890  28.697  1.00  0.00     0.031 A 
ATOM     38  C   UNL A   1      42.022  28.101  29.043  1.00  0.00     0.074 A 
ATOM     39  C   UNL A   1      39.678  28.877  28.900  1.00  0.00     0.049 A 
ATOM     40  N   UNL A   1      42.589  29.146  29.591  1.00  0.00    -0.248 NA
ATOM     41  C   UNL A   1      42.960  27.007  28.737  1.00  0.00     0.031 C 
ATOM     42  C   UNL A   1      38.254  28.801  28.567  1.00  0.00     0.029 A 
ATOM     43  N   UNL A   1      39.838  30.148  29.389  1.00  0.00    -0.354 N 
ATOM     44  C   UNL A   1      43.938  28.829  29.715  1.00  0.00     0.074 A 
ATOM     45  C   UNL A   1      44.106  27.488  29.203  1.00  0.00     0.031 C 
ATOM     46  C   UNL A   1      37.689  29.996  28.787  1.00  0.00     0.029 A 
ATOM     47  C   UNL A   1      38.689  30.900  29.348  1.00  0.00     0.049 A 
ATOM     48  H   UNL A   1      40.694  30.489  29.735  1.00  0.00     0.167 HD
ATOM     49  C   UNL A   1      44.943  29.591  30.205  1.00  0.00     0.031 A 
ATOM     50  C   UNL A   1      38.454  32.172  29.724  1.00  0.00     0.031 A 
ATOM     51  C   UNL A   1      44.773  30.935  30.694  1.00  0.00     0.049 A 
ATOM     52  C   UNL A   1      39.574  32.982  30.302  1.00  0.00     0.074 A 
ATOM     53  C   UNL A   1      45.736  31.785  31.212  1.00  0.00     0.029 A 
ATOM     54  N   UNL A   1      43.574  31.629  30.714  1.00  0.00    -0.354 N 
ATOM     55  N   UNL A   1      40.833  32.648  30.449  1.00  0.00    -0.248 NA
ATOM     56  C   UNL A   1      39.245  34.332  30.778  1.00  0.00     0.031 C 
ATOM     57  C   UNL A   1      45.108  32.975  31.588  1.00  0.00     0.029 A 
ATOM     58  C   UNL A   1      43.766  32.888  31.254  1.00  0.00     0.049 A 
ATOM     59  H   UNL A   1      42.712  31.277  30.392  1.00  0.00     0.167 HD
ATOM     60  C   UNL A   1      41.448  33.743  31.042  1.00  0.00     0.074 A 
ATOM     61  C   UNL A   1      40.428  34.760  31.202  1.00  0.00     0.031 C 
ATOM     62  C   UNL A   1      42.739  33.886  31.424  1.00  0.00     0.031 A 
BRANCH  49  63
ATOM     63  C   UNL A   1      46.328  29.001  30.258  1.00  0.00    -0.014 A 
ATOM     64  C   UNL A   1      46.751  28.321  31.415  1.00  0.00     0.010 A 
ATOM     65  C   UNL A   1      47.247  29.214  29.215  1.00  0.00     0.010 A 
ATOM     66  C   UNL A   1      48.072  27.882  31.539  1.00  0.00     0.020 A 
ATOM     67  C   UNL A   1      48.564  28.758  29.326  1.00  0.00     0.020 A 
ATOM     68  C   UNL A   1      48.972  28.112  30.496  1.00  0.00     0.054 A 
BRANCH  68  69
ATOM     69  S   UNL A   1      50.687  27.543  30.673  1.00  0.00     0.124 S 
ATOM     70  O   UNL A   1      51.006  27.946  32.038  1.00  0.00    -0.237 OA
ATOM     71  O   UNL A   1      50.574  26.104  30.449  1.00  0.00    -0.237 OA
ATOM     72  O   UNL A   1      51.395  28.272  29.622  1.00  0.00    -0.744 OA
ENDBRANCH  68  69
ENDBRANCH  49  63
BRANCH  50  73
ATOM     73  C   UNL A   1      37.088  32.730  29.547  1.00  0.00    -0.014 A 
ATOM     74  C   UNL A   1      36.694  33.259  28.303  1.00  0.00     0.010 A 
ATOM     75  C   UNL A   1      36.220  32.844  30.647  1.00  0.00     0.010 A 
ATOM     76  C   UNL A   1      35.488  33.951  28.178  1.00  0.00     0.020 A 
ATOM     77  C   UNL A   1      34.999  33.513  30.518  1.00  0.00     0.020 A 
ATOM     78  C   UNL A   1      34.658  34.092  29.292  1.00  0.00     0.054 A 
BRANCH  78  79
ATOM     79  S   UNL A   1      33.131  35.058  29.131  1.00  0.00     0.124 S 
ATOM     80  O   UNL A   1      33.647  36.364  28.728  1.00  0.00    -0.237 OA
ATOM     81  O   UNL A   1      32.394  34.329  28.104  1.00  0.00    -0.237 OA
ATOM     82  O   UNL A   1      32.551  34.999  30.470  1.00  0.00    -0.744 OA
ENDBRANCH  78  79
ENDBRANCH  50  73
BRANCH  62  83
ATOM     83  C   UNL A   1      43.142  35.180  32.074  1.00  0.00    -0.014 A 
ATOM     84  C   UNL A   1      42.795  35.428  33.414  1.00  0.00     0.010 A 
ATOM     85  C   UNL A   1      43.751  36.197  31.319  1.00  0.00     0.010 A 
ATOM     86  C   UNL A   1      43.023  36.683  33.983  1.00  0.00     0.020 A 
ATOM     87  C   UNL A   1      44.001  37.448  31.891  1.00  0.00     0.020 A 
ATOM     88  C   UNL A   1      43.612  37.689  33.212  1.00  0.00     0.054 A 
BRANCH  88  89
ATOM     89  S   UNL A   1      43.876  39.324  33.954  1.00  0.00     0.124 S 
ATOM     90  O   UNL A   1      45.062  39.794  33.245  1.00  0.00    -0.237 OA
ATOM     91  O   UNL A   1      42.634  40.026  33.639  1.00  0.00    -0.237 OA
ATOM     92  O   UNL A   1      44.071  39.027  35.372  1.00  0.00    -0.744 OA
ENDBRANCH  88  89
ENDBRANCH  62  83
ENDBRANCH  36  37
ENDBRANCH  28  31
ENDBRANCH  26  27
ENDBRANCH   1  26
TORSDOF 17
ENDMDL
MODEL 2
REMARK VINA RESULT:     -11.8      3.165      9.439
REMARK SMILES CCCc1cc2c(cc1Cl)C=C(C(=O)NCCCCNC(=O)c1ccc(-c3c4nc(c(-c5ccc(S(=O)(=O)[O-])cc5)c5ccc([nH]5)c(-c5ccc(S(=O)(=O)[O-])cc5)c5nc(c(-c6ccc(S(=O)(=O)[O-])cc6)c6ccc3[nH]6)C=C5)C=C4)cc1)[C@H](C(F)(F)F)O2
REMARK SMILES IDX 18 1 17 2 16 3 15 4 13 5 14 6 12 8 4 9 5 10 9 11 6 12 8 13
REMARK SMILES IDX 10 14 7 15 88 16 11 17 83 18 3 19 2 20 1 21 84 22 85 23
REMARK SMILES IDX 86 24 87 25 19 26 20 27 21 28 22 30 23 31 24 32 82 33 25 34
REMARK SMILES IDX 81 35 26 36 27 37 28 38 75 39 29 40 80 41 74 42 76 43 30 44
REMARK SMILES IDX 79 45 73 46 72 47 31 49 61 50 42 51 60 52 43 53 46 54 59 55
REMARK SMILES IDX 77 56 44 57 45 58 58 60 78 61 47 62 32 63 33 64 41 65 34 66
REMARK SMILES IDX 40 67 35 68 36 69 37 70 38 71 39 72 62 73 63 74 71 75 64 76
REMARK SMILES IDX 70 77 65 78 66 79 67 80 68 81 69 82 48 83 49 84 57 85 50 86
REMARK SMILES IDX 56 87 51 88 52 89 53 90 54 91 55 92
REMARK H PARENT 15 7 20 29 76 48 46 59
REMARK Flexibility Score: inf
ROOT
ATOM      1  C   UNL A   1      32.027  28.541  27.084  1.00  0.00     0.023 C 
ENDROOT
BRANCH   1   2
ATOM      2  C   UNL A   1      31.404  29.551  26.119  1.00  0.00     0.023 C 
BRANCH   2   3
ATOM      3  C   UNL A   1      31.326  29.076  24.668  1.00  0.00     0.116 C 
BRANCH   3   4
ATOM      4  N   UNL A   1      32.570  29.304  23.954  1.00  0.00    -0.352 N 
ATOM      5  C   UNL A   1      33.520  28.546  23.357  1.00  0.00     0.251 C 
ATOM      6  O   UNL A   1      34.402  29.179  22.767  1.00  0.00    -0.270 OA
ATOM      7  H   UNL A   1      32.779  30.264  23.887  1.00  0.00     0.163 HD
BRANCH   5   8
ATOM      8  C   UNL A   1      33.574  27.055  23.365  1.00  0.00     0.067 C 
ATOM      9  C   UNL A   1      33.780  22.198  24.728  1.00  0.00    -0.026 A 
ATOM     10  C   UNL A   1      34.003  22.902  23.534  1.00  0.00     0.052 A 
ATOM     11  C   UNL A   1      33.558  22.947  25.899  1.00  0.00     0.045 A 
ATOM     12  C   UNL A   1      33.925  24.290  23.498  1.00  0.00     0.128 A 
ATOM     13  C   UNL A   1      33.554  24.351  25.870  1.00  0.00     0.032 A 
ATOM     14  Cl  UNL A   1      33.288  22.200  27.436  1.00  0.00    -0.084 Cl
ATOM     15  C   UNL A   1      33.726  25.027  24.662  1.00  0.00     0.019 A 
ATOM     16  O   UNL A   1      34.055  24.885  22.273  1.00  0.00    -0.475 OA
ATOM     17  C   UNL A   1      33.729  26.484  24.577  1.00  0.00     0.025 C 
ATOM     18  C   UNL A   1      33.375  26.172  22.164  1.00  0.00     0.314 C 
BRANCH   9  19
ATOM     19  C   UNL A   1      33.804  20.686  24.688  1.00  0.00     0.037 C 
BRANCH  19  20
ATOM     20  C   UNL A   1      32.537  20.032  24.111  1.00  0.00     0.001 C 
ATOM     21  C   UNL A   1      32.523  18.510  24.178  1.00  0.00     0.004 C 
ENDBRANCH  19  20
ENDBRANCH   9  19
BRANCH  18  22
ATOM     22  C   UNL A   1      31.893  25.981  21.785  1.00  0.00     0.429 C 
ATOM     23  F   UNL A   1      31.339  24.882  22.345  1.00  0.00    -0.167 F 
ATOM     24  F   UNL A   1      31.126  27.033  22.149  1.00  0.00    -0.167 F 
ATOM     25  F   UNL A   1      31.768  25.849  20.439  1.00  0.00    -0.167 F 
ENDBRANCH  18  22
ENDBRANCH   5   8
ENDBRANCH   3   4
ENDBRANCH   2   3
ENDBRANCH   1   2
BRANCH   1  26
ATOM     26  C   UNL A   1      33.385  28.940  27.646  1.00  0.00     0.116 C 
BRANCH  26  27
ATOM     27  N   UNL A   1      33.533  30.366  27.906  1.00  0.00    -0.352 N 
ATOM     28  C   UNL A   1      34.690  31.035  28.248  1.00  0.00     0.251 C 
ATOM     29  H   UNL A   1      32.717  30.912  27.829  1.00  0.00     0.163 HD
ATOM     30  O   UNL A   1      34.682  32.230  28.499  1.00  0.00    -0.269 OA
BRANCH  28  31
ATOM     31  C   UNL A   1      35.931  30.240  28.364  1.00  0.00     0.039 A 
ATOM     32  C   UNL A   1      36.253  29.637  29.580  1.00  0.00     0.014 A 
ATOM     33  C   UNL A   1      36.840  30.248  27.304  1.00  0.00     0.014 A 
ATOM     34  C   UNL A   1      37.556  29.213  29.800  1.00  0.00     0.010 A 
ATOM     35  C   UNL A   1      38.126  29.739  27.502  1.00  0.00     0.010 A 
ATOM     36  C   UNL A   1      38.513  29.279  28.770  1.00  0.00    -0.014 A 
BRANCH  36  37
ATOM     37  C   UNL A   1      39.918  28.892  29.061  1.00  0.00     0.031 A 
ATOM     38  C   UNL A   1      40.802  29.775  29.902  1.00  0.00     0.074 A 
ATOM     39  C   UNL A   1      40.367  27.695  28.636  1.00  0.00     0.049 A 
ATOM     40  N   UNL A   1      42.041  29.576  30.275  1.00  0.00    -0.248 NA
ATOM     41  C   UNL A   1      40.230  31.041  30.391  1.00  0.00     0.031 C 
ATOM     42  C   UNL A   1      39.586  26.738  27.849  1.00  0.00     0.029 A 
ATOM     43  N   UNL A   1      41.564  27.061  28.840  1.00  0.00    -0.354 N 
ATOM     44  C   UNL A   1      42.402  30.694  31.018  1.00  0.00     0.074 A 
ATOM     45  C   UNL A   1      41.260  31.580  31.031  1.00  0.00     0.031 C 
ATOM     46  C   UNL A   1      40.295  25.610  27.705  1.00  0.00     0.029 A 
ATOM     47  C   UNL A   1      41.606  25.789  28.321  1.00  0.00     0.049 A 
ATOM     48  H   UNL A   1      42.321  27.474  29.314  1.00  0.00     0.167 HD
ATOM     49  C   UNL A   1      43.577  30.954  31.638  1.00  0.00     0.031 A 
ATOM     50  C   UNL A   1      42.587  24.866  28.327  1.00  0.00     0.031 A 
ATOM     51  C   UNL A   1      44.704  30.058  31.639  1.00  0.00     0.049 A 
ATOM     52  C   UNL A   1      43.894  25.192  28.985  1.00  0.00     0.074 A 
ATOM     53  C   UNL A   1      45.940  30.237  32.239  1.00  0.00     0.029 A 
ATOM     54  N   UNL A   1      44.734  28.815  31.026  1.00  0.00    -0.354 N 
ATOM     55  N   UNL A   1      44.228  26.274  29.646  1.00  0.00    -0.248 NA
ATOM     56  C   UNL A   1      44.960  24.186  28.887  1.00  0.00     0.031 C 
ATOM     57  C   UNL A   1      46.730  29.122  31.949  1.00  0.00     0.029 A 
ATOM     58  C   UNL A   1      45.970  28.224  31.217  1.00  0.00     0.049 A 
ATOM     59  H   UNL A   1      43.985  28.411  30.530  1.00  0.00     0.167 HD
ATOM     60  C   UNL A   1      45.547  26.083  30.039  1.00  0.00     0.074 A 
ATOM     61  C   UNL A   1      45.941  24.773  29.563  1.00  0.00     0.031 C 
ATOM     62  C   UNL A   1      46.356  26.925  30.724  1.00  0.00     0.031 A 
BRANCH  49  63
ATOM     63  C   UNL A   1      43.730  32.264  32.363  1.00  0.00    -0.014 A 
ATOM     64  C   UNL A   1      43.597  32.304  33.763  1.00  0.00     0.010 A 
ATOM     65  C   UNL A   1      43.891  33.470  31.657  1.00  0.00     0.010 A 
ATOM     66  C   UNL A   1      43.602  33.525  34.444  1.00  0.00     0.020 A 
ATOM     67  C   UNL A   1      43.917  34.691  32.336  1.00  0.00     0.020 A 
ATOM     68  C   UNL A   1      43.753  34.712  33.724  1.00  0.00     0.054 A 
BRANCH  68  69
ATOM     69  S   UNL A   1      43.750  36.291  34.620  1.00  0.00     0.124 S 
ATOM     70  O   UNL A   1      43.744  35.855  36.012  1.00  0.00    -0.237 OA
ATOM     71  O   UNL A   1      44.984  36.924  34.160  1.00  0.00    -0.237 OA
ATOM     72  O   UNL A   1      42.522  36.938  34.159  1.00  0.00    -0.744 OA
ENDBRANCH  68  69
ENDBRANCH  49  63
BRANCH  50  73
ATOM     73  C   UNL A   1      42.336  23.549  27.685  1.00  0.00    -0.014 A 
ATOM     74  C   UNL A   1      41.776  22.493  28.429  1.00  0.00     0.010 A 
ATOM     75  C   UNL A   1      42.762  23.311  26.367  1.00  0.00     0.010 A 
ATOM     76  C   UNL A   1      41.711  21.206  27.891  1.00  0.00     0.020 A 
ATOM     77  C   UNL A   1      42.672  22.028  25.816  1.00  0.00     0.020 A 
ATOM     78  C   UNL A   1      42.179  20.978  26.596  1.00  0.00     0.054 A 
BRANCH  78  79
ATOM     79  S   UNL A   1      42.155  19.287  25.939  1.00  0.00     0.124 S 
ATOM     80  O   UNL A   1      42.700  18.526  27.060  1.00  0.00    -0.237 OA
ATOM     81  O   UNL A   1      40.739  19.068  25.660  1.00  0.00    -0.237 OA
ATOM     82  O   UNL A   1      43.014  19.369  24.761  1.00  0.00    -0.744 OA
ENDBRANCH  78  79
ENDBRANCH  50  73
BRANCH  62  83
ATOM     83  C   UNL A   1      47.765  26.479  30.998  1.00  0.00    -0.014 A 
ATOM     84  C   UNL A   1      48.062  25.783  32.183  1.00  0.00     0.010 A 
ATOM     85  C   UNL A   1      48.813  26.862  30.142  1.00  0.00     0.010 A 
ATOM     86  C   UNL A   1      49.386  25.502  32.525  1.00  0.00     0.020 A 
ATOM     87  C   UNL A   1      50.138  26.563  30.470  1.00  0.00     0.020 A 
ATOM     88  C   UNL A   1      50.417  25.906  31.672  1.00  0.00     0.054 A 
BRANCH  88  89
ATOM     89  S   UNL A   1      52.134  25.559  32.142  1.00  0.00     0.124 S 
ATOM     90  O   UNL A   1      52.857  25.875  30.914  1.00  0.00    -0.237 OA
ATOM     91  O   UNL A   1      52.356  26.477  33.257  1.00  0.00    -0.237 OA
ATOM     92  O   UNL A   1      52.109  24.144  32.508  1.00  0.00    -0.744 OA
ENDBRANCH  88  89
ENDBRANCH  62  83
ENDBRANCH  36  37
ENDBRANCH  28  31
ENDBRANCH  26  27
ENDBRANCH   1  26
TORSDOF 17
ENDMDL
MODEL 3
REMARK VINA RESULT:     -11.7      3.204      8.780
REMARK SMILES CCCc1cc2c(cc1Cl)C=C(C(=O)NCCCCNC(=O)c1ccc(-c3c4nc(c(-c5ccc(S(=O)(=O)[O-])cc5)c5ccc([nH]5)c(-c5ccc(S(=O)(=O)[O-])cc5)c5nc(c(-c6ccc(S(=O)(=O)[O-])cc6)c6ccc3[nH]6)C=C5)C=C4)cc1)[C@H](C(F)(F)F)O2
REMARK SMILES IDX 18 1 17 2 16 3 15 4 13 5 14 6 12 8 4 9 5 10 9 11 6 12 8 13
REMARK SMILES IDX 10 14 7 15 88 16 11 17 83 18 3 19 2 20 1 21 84 22 85 23
REMARK SMILES IDX 86 24 87 25 19 26 20 27 21 28 22 30 23 31 24 32 82 33 25 34
REMARK SMILES IDX 81 35 26 36 27 37 28 38 75 39 29 40 80 41 74 42 76 43 30 44
REMARK SMILES IDX 79 45 73 46 72 47 31 49 61 50 42 51 60 52 43 53 46 54 59 55
REMARK SMILES IDX 77 56 44 57 45 58 58 60 78 61 47 62 32 63 33 64 41 65 34 66
REMARK SMILES IDX 40 67 35 68 36 69 37 70 38 71 39 72 62 73 63 74 71 75 64 76
REMARK SMILES IDX 70 77 65 78 66 79 67 80 68 81 69 82 48 83 49 84 57 85 50 86
REMARK SMILES IDX 56 87 51 88 52 89 53 90 54 91 55 92
REMARK H PARENT 15 7 20 29 76 48 46 59
REMARK Flexibility Score: inf
ROOT
ATOM      1  C   UNL A   1      32.504  28.620  26.973  1.00  0.00     0.023 C 
ENDROOT
BRANCH   1   2
ATOM      2  C   UNL A   1      31.617  29.506  26.098  1.00  0.00     0.023 C 
BRANCH   2   3
ATOM      3  C   UNL A   1      31.467  29.025  24.654  1.00  0.00     0.116 C 
BRANCH   3   4
ATOM      4  N   UNL A   1      32.690  29.206  23.892  1.00  0.00    -0.352 N 
ATOM      5  C   UNL A   1      33.601  28.413  23.281  1.00  0.00     0.251 C 
ATOM      6  O   UNL A   1      34.475  29.011  22.644  1.00  0.00    -0.270 OA
ATOM      7  H   UNL A   1      32.916  30.160  23.792  1.00  0.00     0.163 HD
BRANCH   5   8
ATOM      8  C   UNL A   1      33.624  26.922  23.326  1.00  0.00     0.067 C 
ATOM      9  C   UNL A   1      33.806  22.098  24.804  1.00  0.00    -0.026 A 
ATOM     10  C   UNL A   1      33.972  22.765  23.580  1.00  0.00     0.052 A 
ATOM     11  C   UNL A   1      33.671  22.882  25.966  1.00  0.00     0.045 A 
ATOM     12  C   UNL A   1      33.922  24.154  23.512  1.00  0.00     0.128 A 
ATOM     13  C   UNL A   1      33.696  24.284  25.899  1.00  0.00     0.032 A 
ATOM     14  Cl  UNL A   1      33.479  22.180  27.535  1.00  0.00    -0.084 Cl
ATOM     15  C   UNL A   1      33.809  24.925  24.665  1.00  0.00     0.019 A 
ATOM     16  O   UNL A   1      33.991  24.714  22.266  1.00  0.00    -0.475 OA
ATOM     17  C   UNL A   1      33.839  26.378  24.541  1.00  0.00     0.025 C 
ATOM     18  C   UNL A   1      33.333  26.013  22.163  1.00  0.00     0.314 C 
BRANCH   9  19
ATOM     19  C   UNL A   1      33.795  20.585  24.803  1.00  0.00     0.037 C 
BRANCH  19  20
ATOM     20  C   UNL A   1      32.579  19.946  24.113  1.00  0.00     0.001 C 
ATOM     21  C   UNL A   1      32.512  18.427  24.228  1.00  0.00     0.004 C 
ENDBRANCH  19  20
ENDBRANCH   9  19
BRANCH  18  22
ATOM     22  C   UNL A   1      31.828  25.847  21.878  1.00  0.00     0.429 C 
ATOM     23  F   UNL A   1      31.063  26.767  22.509  1.00  0.00    -0.167 F 
ATOM     24  F   UNL A   1      31.537  25.937  20.561  1.00  0.00    -0.167 F 
ATOM     25  F   UNL A   1      31.406  24.625  22.293  1.00  0.00    -0.167 F 
ENDBRANCH  18  22
ENDBRANCH   5   8
ENDBRANCH   3   4
ENDBRANCH   2   3
ENDBRANCH   1   2
BRANCH   1  26
ATOM     26  C   UNL A   1      33.897  29.171  27.245  1.00  0.00     0.116 C 
BRANCH  26  27
ATOM     27  N   UNL A   1      33.914  30.427  27.984  1.00  0.00    -0.352 N 
ATOM     28  C   UNL A   1      34.963  30.955  28.706  1.00  0.00     0.251 C 
ATOM     29  H   UNL A   1      33.083  30.956  27.965  1.00  0.00     0.163 HD
ATOM     30  O   UNL A   1      34.841  31.995  29.335  1.00  0.00    -0.269 OA
BRANCH  28  31
ATOM     31  C   UNL A   1      36.223  30.183  28.745  1.00  0.00     0.039 A 
ATOM     32  C   UNL A   1      36.631  29.588  29.939  1.00  0.00     0.014 A 
ATOM     33  C   UNL A   1      37.065  30.207  27.631  1.00  0.00     0.014 A 
ATOM     34  C   UNL A   1      37.953  29.189  30.078  1.00  0.00     0.010 A 
ATOM     35  C   UNL A   1      38.370  29.722  27.750  1.00  0.00     0.010 A 
ATOM     36  C   UNL A   1      38.843  29.271  28.992  1.00  0.00    -0.014 A 
BRANCH  36  37
ATOM     37  C   UNL A   1      40.270  28.910  29.196  1.00  0.00     0.031 A 
ATOM     38  C   UNL A   1      40.795  27.568  28.759  1.00  0.00     0.074 A 
ATOM     39  C   UNL A   1      41.111  29.835  29.696  1.00  0.00     0.049 A 
ATOM     40  N   UNL A   1      42.016  27.103  28.836  1.00  0.00    -0.248 NA
ATOM     41  C   UNL A   1      39.836  26.625  28.160  1.00  0.00     0.031 C 
ATOM     42  C   UNL A   1      40.723  31.183  30.114  1.00  0.00     0.029 A 
ATOM     43  N   UNL A   1      42.467  29.802  29.896  1.00  0.00    -0.354 N 
ATOM     44  C   UNL A   1      41.969  25.812  28.319  1.00  0.00     0.074 A 
ATOM     45  C   UNL A   1      40.595  25.557  27.947  1.00  0.00     0.031 C 
ATOM     46  C   UNL A   1      41.823  31.872  30.447  1.00  0.00     0.029 A 
ATOM     47  C   UNL A   1      42.985  30.995  30.339  1.00  0.00     0.049 A 
ATOM     48  H   UNL A   1      43.017  29.001  29.738  1.00  0.00     0.167 HD
ATOM     49  C   UNL A   1      42.980  24.926  28.164  1.00  0.00     0.031 A 
ATOM     50  C   UNL A   1      44.250  31.351  30.635  1.00  0.00     0.031 A 
ATOM     51  C   UNL A   1      44.349  25.194  28.517  1.00  0.00     0.049 A 
ATOM     52  C   UNL A   1      45.347  30.339  30.493  1.00  0.00     0.074 A 
ATOM     53  C   UNL A   1      45.445  24.355  28.397  1.00  0.00     0.029 A 
ATOM     54  N   UNL A   1      44.817  26.388  29.044  1.00  0.00    -0.354 N 
ATOM     55  N   UNL A   1      45.272  29.111  30.042  1.00  0.00    -0.248 NA
ATOM     56  C   UNL A   1      46.693  30.751  30.913  1.00  0.00     0.031 C 
ATOM     57  C   UNL A   1      46.564  25.026  28.895  1.00  0.00     0.029 A 
ATOM     58  C   UNL A   1      46.179  26.301  29.272  1.00  0.00     0.049 A 
ATOM     59  H   UNL A   1      44.262  27.181  29.227  1.00  0.00     0.167 HD
ATOM     60  C   UNL A   1      46.559  28.598  30.128  1.00  0.00     0.074 A 
ATOM     61  C   UNL A   1      47.399  29.657  30.651  1.00  0.00     0.031 C 
ATOM     62  C   UNL A   1      47.000  27.358  29.810  1.00  0.00     0.031 A 
BRANCH  49  63
ATOM     63  C   UNL A   1      42.660  23.568  27.598  1.00  0.00    -0.014 A 
ATOM     64  C   UNL A   1      42.215  22.545  28.454  1.00  0.00     0.010 A 
ATOM     65  C   UNL A   1      42.905  23.270  26.245  1.00  0.00     0.010 A 
ATOM     66  C   UNL A   1      42.039  21.242  27.976  1.00  0.00     0.020 A 
ATOM     67  C   UNL A   1      42.710  21.973  25.759  1.00  0.00     0.020 A 
ATOM     68  C   UNL A   1      42.298  20.964  26.632  1.00  0.00     0.054 A 
BRANCH  68  69
ATOM     69  S   UNL A   1      42.073  19.268  26.027  1.00  0.00     0.124 S 
ATOM     70  O   UNL A   1      42.540  18.473  27.157  1.00  0.00    -0.237 OA
ATOM     71  O   UNL A   1      40.637  19.208  25.762  1.00  0.00    -0.237 OA
ATOM     72  O   UNL A   1      42.918  19.220  24.834  1.00  0.00    -0.744 OA
ENDBRANCH  68  69
ENDBRANCH  49  63
BRANCH  50  73
ATOM     73  C   UNL A   1      44.515  32.742  31.088  1.00  0.00    -0.014 A 
ATOM     74  C   UNL A   1      44.881  33.733  30.157  1.00  0.00     0.010 A 
ATOM     75  C   UNL A   1      44.520  33.052  32.458  1.00  0.00     0.010 A 
ATOM     76  C   UNL A   1      45.312  34.988  30.591  1.00  0.00     0.020 A 
ATOM     77  C   UNL A   1      44.925  34.318  32.895  1.00  0.00     0.020 A 
ATOM     78  C   UNL A   1      45.351  35.265  31.960  1.00  0.00     0.054 A 
BRANCH  78  79
ATOM     79  S   UNL A   1      45.984  36.873  32.511  1.00  0.00     0.124 S 
ATOM     80  O   UNL A   1      47.187  37.014  31.695  1.00  0.00    -0.237 OA
ATOM     81  O   UNL A   1      44.890  37.781  32.181  1.00  0.00    -0.237 OA
ATOM     82  O   UNL A   1      46.215  36.674  33.939  1.00  0.00    -0.744 OA
ENDBRANCH  78  79
ENDBRANCH  50  73
BRANCH  62  83
ATOM     83  C   UNL A   1      48.455  27.051  30.027  1.00  0.00    -0.014 A 
ATOM     84  C   UNL A   1      48.901  26.634  31.294  1.00  0.00     0.010 A 
ATOM     85  C   UNL A   1      49.396  27.297  29.012  1.00  0.00     0.010 A 
ATOM     86  C   UNL A   1      50.266  26.497  31.554  1.00  0.00     0.020 A 
ATOM     87  C   UNL A   1      50.762  27.140  29.261  1.00  0.00     0.020 A 
ATOM     88  C   UNL A   1      51.189  26.765  30.538  1.00  0.00     0.054 A 
BRANCH  88  89
ATOM     89  S   UNL A   1      52.960  26.611  30.897  1.00  0.00     0.124 S 
ATOM     90  O   UNL A   1      53.006  25.390  31.694  1.00  0.00    -0.237 OA
ATOM     91  O   UNL A   1      53.553  26.515  29.564  1.00  0.00    -0.237 OA
ATOM     92  O   UNL A   1      53.270  27.843  31.619  1.00  0.00    -0.744 OA
ENDBRANCH  88  89
ENDBRANCH  62  83
ENDBRANCH  36  37
ENDBRANCH  28  31
ENDBRANCH  26  27
ENDBRANCH   1  26
TORSDOF 17
ENDMDL
