MODEL 1
REMARK VINA RESULT:     -11.4      0.000      0.000
REMARK SMILES O=C(NCCCCNC(=O)[C@@H]1CN(c2nccc(N3CCC(O)CC3)n2)CC[NH2+]1)c1ccc(-c2c3nc(c(-c4ccc(S(=O)(=O)[O-])cc4)c4ccc([nH]4)c(-c4ccc(S(=O)(=O)[O-])cc4)c4nc(c(-c5ccc(S(=O)(=O)[O-])cc5)c5ccc2[nH]5)C=C4)C=C3)cc1
REMARK SMILES IDX 5 1 4 2 3 3 1 4 2 5 30 7 31 8 89 9 32 10 88 11 33 12 34 13
REMARK SMILES IDX 35 14 82 15 36 16 87 17 81 18 83 19 37 20 86 21 80 22 79 23
REMARK SMILES IDX 38 25 68 26 49 27 67 28 50 29 53 30 66 31 84 32 51 33 52 34
REMARK SMILES IDX 65 36 85 37 54 38 39 39 40 40 48 41 41 42 47 43 42 44 43 45
REMARK SMILES IDX 44 46 45 47 46 48 69 49 70 50 78 51 71 52 77 53 72 54 73 55
REMARK SMILES IDX 74 56 75 57 76 58 55 59 56 60 64 61 57 62 63 63 58 64 59 65
REMARK SMILES IDX 60 66 61 67 62 68 6 69 7 70 8 71 9 72 10 74 11 75 12 76
REMARK SMILES IDX 29 77 13 78 28 79 27 82 14 83 15 84 26 85 16 86 18 87 17 88
REMARK SMILES IDX 19 89 20 90 25 91 21 92 24 93 22 94 23 95
REMARK H PARENT 3 6 83 24 53 35 8 73 29 80 29 81 23 96
REMARK Flexibility Score: inf
ROOT
ATOM      1  C   UNL A   1      33.792  28.279  25.762  1.00  0.00     0.023 C 
ENDROOT
BRANCH   1   2
ATOM      2  C   UNL A   1      33.966  28.484  27.266  1.00  0.00     0.116 C 
BRANCH   2   3
ATOM      3  N   UNL A   1      33.712  29.850  27.696  1.00  0.00    -0.352 N 
ATOM      4  O   UNL A   1      34.197  31.800  28.727  1.00  0.00    -0.269 OA
ATOM      5  C   UNL A   1      34.584  30.708  28.322  1.00  0.00     0.251 C 
ATOM      6  H   UNL A   1      32.810  30.201  27.517  1.00  0.00     0.163 HD
BRANCH   5   7
ATOM      7  C   UNL A   1      35.982  30.282  28.528  1.00  0.00     0.039 A 
ATOM      8  C   UNL A   1      36.919  30.415  27.498  1.00  0.00     0.014 A 
ATOM      9  C   UNL A   1      36.354  29.738  29.760  1.00  0.00     0.014 A 
ATOM     10  C   UNL A   1      38.205  29.917  27.670  1.00  0.00     0.010 A 
ATOM     11  C   UNL A   1      37.664  29.293  29.950  1.00  0.00     0.010 A 
ATOM     12  C   UNL A   1      38.595  29.371  28.903  1.00  0.00    -0.014 A 
BRANCH  12  13
ATOM     13  C   UNL A   1      40.015  29.002  29.120  1.00  0.00     0.031 A 
ATOM     14  C   UNL A   1      40.549  27.664  28.700  1.00  0.00     0.074 A 
ATOM     15  C   UNL A   1      40.815  29.904  29.723  1.00  0.00     0.049 A 
ATOM     16  N   UNL A   1      41.759  27.188  28.843  1.00  0.00    -0.248 NA
ATOM     17  C   UNL A   1      39.614  26.738  28.040  1.00  0.00     0.031 C 
ATOM     18  C   UNL A   1      40.388  31.228  30.190  1.00  0.00     0.029 A 
ATOM     19  N   UNL A   1      42.144  29.851  30.050  1.00  0.00    -0.354 N 
ATOM     20  C   UNL A   1      41.730  25.903  28.316  1.00  0.00     0.074 A 
ATOM     21  C   UNL A   1      40.378  25.668  27.853  1.00  0.00     0.031 C 
ATOM     22  C   UNL A   1      41.440  31.866  30.725  1.00  0.00     0.029 A 
ATOM     23  C   UNL A   1      42.595  30.979  30.694  1.00  0.00     0.049 A 
ATOM     24  H   UNL A   1      42.720  29.080  29.843  1.00  0.00     0.167 HD
ATOM     25  C   UNL A   1      42.740  25.004  28.234  1.00  0.00     0.031 A 
ATOM     26  C   UNL A   1      43.795  31.259  31.233  1.00  0.00     0.031 A 
ATOM     27  C   UNL A   1      44.083  25.257  28.688  1.00  0.00     0.049 A 
ATOM     28  C   UNL A   1      44.884  30.229  31.151  1.00  0.00     0.074 A 
ATOM     29  C   UNL A   1      45.195  24.439  28.576  1.00  0.00     0.029 A 
ATOM     30  N   UNL A   1      44.494  26.400  29.356  1.00  0.00    -0.354 N 
ATOM     31  N   UNL A   1      44.854  29.049  30.581  1.00  0.00    -0.248 NA
ATOM     32  C   UNL A   1      46.161  30.563  31.794  1.00  0.00     0.031 C 
ATOM     33  C   UNL A   1      46.264  25.063  29.226  1.00  0.00     0.029 A 
ATOM     34  C   UNL A   1      45.830  26.290  29.702  1.00  0.00     0.049 A 
ATOM     35  H   UNL A   1      43.922  27.176  29.554  1.00  0.00     0.167 HD
ATOM     36  C   UNL A   1      46.109  28.497  30.797  1.00  0.00     0.074 A 
ATOM     37  C   UNL A   1      46.884  29.485  31.522  1.00  0.00     0.031 C 
ATOM     38  C   UNL A   1      46.577  27.277  30.438  1.00  0.00     0.031 A 
BRANCH  25  39
ATOM     39  C   UNL A   1      42.447  23.648  27.651  1.00  0.00    -0.014 A 
ATOM     40  C   UNL A   1      42.749  23.348  26.312  1.00  0.00     0.010 A 
ATOM     41  C   UNL A   1      41.968  22.625  28.492  1.00  0.00     0.010 A 
ATOM     42  C   UNL A   1      42.570  22.051  25.822  1.00  0.00     0.020 A 
ATOM     43  C   UNL A   1      41.804  21.323  28.009  1.00  0.00     0.020 A 
ATOM     44  C   UNL A   1      42.102  21.045  26.674  1.00  0.00     0.054 A 
BRANCH  44  45
ATOM     45  S   UNL A   1      41.944  19.356  26.029  1.00  0.00     0.124 S 
ATOM     46  O   UNL A   1      42.482  18.563  27.130  1.00  0.00    -0.237 OA
ATOM     47  O   UNL A   1      40.504  19.230  25.811  1.00  0.00    -0.237 OA
ATOM     48  O   UNL A   1      42.755  19.370  24.815  1.00  0.00    -0.744 OA
ENDBRANCH  44  45
ENDBRANCH  25  39
BRANCH  26  49
ATOM     49  C   UNL A   1      44.002  32.544  31.951  1.00  0.00    -0.014 A 
ATOM     50  C   UNL A   1      44.465  33.683  31.272  1.00  0.00     0.010 A 
ATOM     51  C   UNL A   1      43.723  32.630  33.328  1.00  0.00     0.010 A 
ATOM     52  C   UNL A   1      44.665  34.881  31.964  1.00  0.00     0.020 A 
ATOM     53  C   UNL A   1      43.895  33.833  34.015  1.00  0.00     0.020 A 
ATOM     54  C   UNL A   1      44.381  34.948  33.331  1.00  0.00     0.054 A 
BRANCH  54  55
ATOM     55  S   UNL A   1      44.611  36.520  34.205  1.00  0.00     0.124 S 
ATOM     56  O   UNL A   1      45.939  36.924  33.755  1.00  0.00    -0.237 OA
ATOM     57  O   UNL A   1      43.501  37.328  33.707  1.00  0.00    -0.237 OA
ATOM     58  O   UNL A   1      44.512  36.142  35.613  1.00  0.00    -0.744 OA
ENDBRANCH  54  55
ENDBRANCH  26  49
BRANCH  38  59
ATOM     59  C   UNL A   1      47.987  26.944  30.832  1.00  0.00    -0.014 A 
ATOM     60  C   UNL A   1      48.251  26.246  32.024  1.00  0.00     0.010 A 
ATOM     61  C   UNL A   1      49.054  27.293  29.985  1.00  0.00     0.010 A 
ATOM     62  C   UNL A   1      49.564  25.922  32.374  1.00  0.00     0.020 A 
ATOM     63  C   UNL A   1      50.365  26.948  30.320  1.00  0.00     0.020 A 
ATOM     64  C   UNL A   1      50.612  26.276  31.519  1.00  0.00     0.054 A 
BRANCH  64  65
ATOM     65  S   UNL A   1      52.304  25.801  31.972  1.00  0.00     0.124 S 
ATOM     66  O   UNL A   1      52.606  26.743  33.045  1.00  0.00    -0.237 OA
ATOM     67  O   UNL A   1      52.149  24.408  32.382  1.00  0.00    -0.237 OA
ATOM     68  O   UNL A   1      53.059  25.999  30.737  1.00  0.00    -0.744 OA
ENDBRANCH  64  65
ENDBRANCH  38  59
ENDBRANCH  12  13
ENDBRANCH   5   7
ENDBRANCH   2   3
ENDBRANCH   1   2
BRANCH   1  69
ATOM     69  C   UNL A   1      32.906  29.314  25.058  1.00  0.00     0.023 C 
BRANCH  69  70
ATOM     70  C   UNL A   1      32.936  29.222  23.535  1.00  0.00     0.116 C 
BRANCH  70  71
ATOM     71  N   UNL A   1      31.606  29.105  22.970  1.00  0.00    -0.351 N 
ATOM     72  C   UNL A   1      30.876  28.086  22.445  1.00  0.00     0.280 C 
ATOM     73  H   UNL A   1      31.120  29.961  22.964  1.00  0.00     0.163 HD
ATOM     74  O   UNL A   1      29.728  28.398  22.097  1.00  0.00    -0.268 OA
BRANCH  72  75
ATOM     75  C   UNL A   1      31.375  26.643  22.209  1.00  0.00     0.292 C 
ATOM     76  C   UNL A   1      31.928  25.891  23.424  1.00  0.00     0.195 C 
ATOM     77  N   UNL A   1      32.325  26.603  21.047  1.00  0.00    -0.333 N 
ATOM     78  N   UNL A   1      32.243  24.508  23.058  1.00  0.00    -0.329 N 
ATOM     79  C   UNL A   1      32.637  25.183  20.742  1.00  0.00     0.283 C 
ATOM     80  H   UNL A   1      33.183  27.100  21.286  1.00  0.00     0.347 HD
ATOM     81  H   UNL A   1      31.902  27.050  20.234  1.00  0.00     0.347 HD
ATOM     82  C   UNL A   1      33.173  24.364  21.948  1.00  0.00     0.181 C 
BRANCH  78  83
ATOM     83  C   UNL A   1      32.356  23.691  24.159  1.00  0.00     0.227 A 
ATOM     84  N   UNL A   1      31.258  23.220  24.762  1.00  0.00    -0.221 NA
ATOM     85  N   UNL A   1      33.603  23.347  24.511  1.00  0.00    -0.196 NA
ATOM     86  C   UNL A   1      31.461  22.308  25.728  1.00  0.00     0.119 A 
ATOM     87  C   UNL A   1      33.784  22.463  25.502  1.00  0.00     0.134 A 
ATOM     88  C   UNL A   1      32.705  21.879  26.126  1.00  0.00     0.067 A 
BRANCH  87  89
ATOM     89  N   UNL A   1      35.075  22.204  25.918  1.00  0.00    -0.356 N 
ATOM     90  C   UNL A   1      35.698  20.915  25.655  1.00  0.00     0.121 C 
ATOM     91  C   UNL A   1      35.909  23.341  26.292  1.00  0.00     0.121 C 
ATOM     92  C   UNL A   1      36.880  21.077  24.699  1.00  0.00     0.053 C 
ATOM     93  C   UNL A   1      37.083  23.507  25.338  1.00  0.00     0.053 C 
ATOM     94  C   UNL A   1      37.830  22.193  25.130  1.00  0.00     0.118 C 
BRANCH  94  95
ATOM     95  O   UNL A   1      38.544  21.821  26.310  1.00  0.00    -0.393 OA
ATOM     96  H   UNL A   1      38.510  22.549  26.951  1.00  0.00     0.210 HD
ENDBRANCH  94  95
ENDBRANCH  87  89
ENDBRANCH  78  83
ENDBRANCH  72  75
ENDBRANCH  70  71
ENDBRANCH  69  70
ENDBRANCH   1  69
TORSDOF 17
ENDMDL
MODEL 2
REMARK VINA RESULT:     -11.1      3.295      9.381
REMARK SMILES O=C(NCCCCNC(=O)[C@@H]1CN(c2nccc(N3CCC(O)CC3)n2)CC[NH2+]1)c1ccc(-c2c3nc(c(-c4ccc(S(=O)(=O)[O-])cc4)c4ccc([nH]4)c(-c4ccc(S(=O)(=O)[O-])cc4)c4nc(c(-c5ccc(S(=O)(=O)[O-])cc5)c5ccc2[nH]5)C=C4)C=C3)cc1
REMARK SMILES IDX 5 1 4 2 3 3 1 4 2 5 30 7 31 8 89 9 32 10 88 11 33 12 34 13
REMARK SMILES IDX 35 14 82 15 36 16 87 17 81 18 83 19 37 20 86 21 80 22 79 23
REMARK SMILES IDX 38 25 68 26 49 27 67 28 50 29 53 30 66 31 84 32 51 33 52 34
REMARK SMILES IDX 65 36 85 37 54 38 39 39 40 40 48 41 41 42 47 43 42 44 43 45
REMARK SMILES IDX 44 46 45 47 46 48 69 49 70 50 78 51 71 52 77 53 72 54 73 55
REMARK SMILES IDX 74 56 75 57 76 58 55 59 56 60 64 61 57 62 63 63 58 64 59 65
REMARK SMILES IDX 60 66 61 67 62 68 6 69 7 70 8 71 9 72 10 74 11 75 12 76
REMARK SMILES IDX 29 77 13 78 28 79 27 82 14 83 15 84 26 85 16 86 18 87 17 88
REMARK SMILES IDX 19 89 20 90 25 91 21 92 24 93 22 94 23 95
REMARK H PARENT 3 6 83 24 53 35 8 73 29 80 29 81 23 96
REMARK Flexibility Score: inf
ROOT
ATOM      1  C   UNL A   1      38.317  19.985  25.030  1.00  0.00     0.023 C 
ENDROOT
BRANCH   1   2
ATOM      2  C   UNL A   1      39.418  20.340  26.027  1.00  0.00     0.116 C 
BRANCH   2   3
ATOM      3  N   UNL A   1      40.464  19.333  26.114  1.00  0.00    -0.352 N 
ATOM      4  O   UNL A   1      42.592  18.594  26.278  1.00  0.00    -0.269 OA
ATOM      5  C   UNL A   1      41.805  19.533  26.339  1.00  0.00     0.251 C 
ATOM      6  H   UNL A   1      40.179  18.397  25.998  1.00  0.00     0.163 HD
BRANCH   5   7
ATOM      7  C   UNL A   1      42.285  20.900  26.623  1.00  0.00     0.039 A 
ATOM      8  C   UNL A   1      42.474  21.321  27.943  1.00  0.00     0.014 A 
ATOM      9  C   UNL A   1      42.540  21.767  25.558  1.00  0.00     0.014 A 
ATOM     10  C   UNL A   1      42.829  22.640  28.200  1.00  0.00     0.010 A 
ATOM     11  C   UNL A   1      42.954  23.075  25.818  1.00  0.00     0.010 A 
ATOM     12  C   UNL A   1      43.092  23.523  27.141  1.00  0.00    -0.014 A 
BRANCH  12  13
ATOM     13  C   UNL A   1      43.631  24.873  27.434  1.00  0.00     0.031 A 
ATOM     14  C   UNL A   1      42.744  25.981  27.921  1.00  0.00     0.074 A 
ATOM     15  C   UNL A   1      44.948  25.082  27.235  1.00  0.00     0.049 A 
ATOM     16  N   UNL A   1      43.064  27.219  28.198  1.00  0.00    -0.248 NA
ATOM     17  C   UNL A   1      41.320  25.670  28.122  1.00  0.00     0.031 C 
ATOM     18  C   UNL A   1      45.895  24.075  26.743  1.00  0.00     0.029 A 
ATOM     19  N   UNL A   1      45.718  26.200  27.416  1.00  0.00    -0.354 N 
ATOM     20  C   UNL A   1      41.883  27.843  28.581  1.00  0.00     0.074 A 
ATOM     21  C   UNL A   1      40.835  26.848  28.497  1.00  0.00     0.031 C 
ATOM     22  C   UNL A   1      47.120  24.617  26.681  1.00  0.00     0.029 A 
ATOM     23  C   UNL A   1      47.036  26.018  27.069  1.00  0.00     0.049 A 
ATOM     24  H   UNL A   1      45.363  27.049  27.763  1.00  0.00     0.167 HD
ATOM     25  C   UNL A   1      41.698  29.129  28.963  1.00  0.00     0.031 A 
ATOM     26  C   UNL A   1      48.060  26.890  27.030  1.00  0.00     0.031 A 
ATOM     27  C   UNL A   1      42.754  30.104  29.054  1.00  0.00     0.049 A 
ATOM     28  C   UNL A   1      47.813  28.315  27.430  1.00  0.00     0.074 A 
ATOM     29  C   UNL A   1      42.679  31.411  29.506  1.00  0.00     0.029 A 
ATOM     30  N   UNL A   1      44.068  29.890  28.670  1.00  0.00    -0.354 N 
ATOM     31  N   UNL A   1      46.703  28.865  27.861  1.00  0.00    -0.248 NA
ATOM     32  C   UNL A   1      48.950  29.239  27.328  1.00  0.00     0.031 C 
ATOM     33  C   UNL A   1      43.934  32.003  29.342  1.00  0.00     0.029 A 
ATOM     34  C   UNL A   1      44.803  31.052  28.832  1.00  0.00     0.049 A 
ATOM     35  H   UNL A   1      44.427  29.038  28.333  1.00  0.00     0.167 HD
ATOM     36  C   UNL A   1      47.008  30.200  28.081  1.00  0.00     0.074 A 
ATOM     37  C   UNL A   1      48.413  30.369  27.766  1.00  0.00     0.031 C 
ATOM     38  C   UNL A   1      46.195  31.202  28.496  1.00  0.00     0.031 A 
BRANCH  25  39
ATOM     39  C   UNL A   1      40.302  29.584  29.295  1.00  0.00    -0.014 A 
ATOM     40  C   UNL A   1      39.914  29.838  30.622  1.00  0.00     0.010 A 
ATOM     41  C   UNL A   1      39.402  29.869  28.251  1.00  0.00     0.010 A 
ATOM     42  C   UNL A   1      38.648  30.364  30.898  1.00  0.00     0.020 A 
ATOM     43  C   UNL A   1      38.142  30.410  28.522  1.00  0.00     0.020 A 
ATOM     44  C   UNL A   1      37.770  30.649  29.847  1.00  0.00     0.054 A 
BRANCH  44  45
ATOM     45  S   UNL A   1      36.160  31.394  30.230  1.00  0.00     0.124 S 
ATOM     46  O   UNL A   1      36.485  32.817  30.253  1.00  0.00    -0.237 OA
ATOM     47  O   UNL A   1      35.331  30.958  29.109  1.00  0.00    -0.237 OA
ATOM     48  O   UNL A   1      35.808  30.814  31.523  1.00  0.00    -0.744 OA
ENDBRANCH  44  45
ENDBRANCH  25  39
BRANCH  26  49
ATOM     49  C   UNL A   1      49.390  26.448  26.535  1.00  0.00    -0.014 A 
ATOM     50  C   UNL A   1      49.775  26.673  25.204  1.00  0.00     0.010 A 
ATOM     51  C   UNL A   1      50.284  25.802  27.410  1.00  0.00     0.010 A 
ATOM     52  C   UNL A   1      51.025  26.241  24.750  1.00  0.00     0.020 A 
ATOM     53  C   UNL A   1      51.544  25.395  26.967  1.00  0.00     0.020 A 
ATOM     54  C   UNL A   1      51.900  25.603  25.634  1.00  0.00     0.054 A 
BRANCH  54  55
ATOM     55  S   UNL A   1      53.532  25.082  25.040  1.00  0.00     0.124 S 
ATOM     56  O   UNL A   1      53.473  23.635  25.227  1.00  0.00    -0.237 OA
ATOM     57  O   UNL A   1      53.529  25.542  23.653  1.00  0.00    -0.237 OA
ATOM     58  O   UNL A   1      54.456  25.793  25.921  1.00  0.00    -0.744 OA
ENDBRANCH  54  55
ENDBRANCH  26  49
BRANCH  38  59
ATOM     59  C   UNL A   1      46.807  32.568  28.624  1.00  0.00    -0.014 A 
ATOM     60  C   UNL A   1      46.748  33.482  27.557  1.00  0.00     0.010 A 
ATOM     61  C   UNL A   1      47.408  32.958  29.835  1.00  0.00     0.010 A 
ATOM     62  C   UNL A   1      47.301  34.757  27.691  1.00  0.00     0.020 A 
ATOM     63  C   UNL A   1      47.940  34.241  29.980  1.00  0.00     0.020 A 
ATOM     64  C   UNL A   1      47.894  35.128  28.902  1.00  0.00     0.054 A 
BRANCH  64  65
ATOM     65  S   UNL A   1      48.562  36.806  29.067  1.00  0.00     0.124 S 
ATOM     66  O   UNL A   1      49.954  36.544  29.422  1.00  0.00    -0.237 OA
ATOM     67  O   UNL A   1      48.348  37.371  27.738  1.00  0.00    -0.237 OA
ATOM     68  O   UNL A   1      47.749  37.398  30.128  1.00  0.00    -0.744 OA
ENDBRANCH  64  65
ENDBRANCH  38  59
ENDBRANCH  12  13
ENDBRANCH   5   7
ENDBRANCH   2   3
ENDBRANCH   1   2
BRANCH   1  69
ATOM     69  C   UNL A   1      37.345  21.123  24.694  1.00  0.00     0.023 C 
BRANCH  69  70
ATOM     70  C   UNL A   1      36.058  21.101  25.513  1.00  0.00     0.116 C 
BRANCH  70  71
ATOM     71  N   UNL A   1      35.142  20.072  25.061  1.00  0.00    -0.351 N 
ATOM     72  C   UNL A   1      33.842  20.055  24.667  1.00  0.00     0.280 C 
ATOM     73  H   UNL A   1      35.557  19.180  25.034  1.00  0.00     0.163 HD
ATOM     74  O   UNL A   1      33.424  18.945  24.306  1.00  0.00    -0.268 OA
BRANCH  72  75
ATOM     75  C   UNL A   1      32.873  21.259  24.690  1.00  0.00     0.292 C 
ATOM     76  C   UNL A   1      33.489  22.652  24.527  1.00  0.00     0.195 C 
ATOM     77  N   UNL A   1      31.975  21.183  25.892  1.00  0.00    -0.333 N 
ATOM     78  N   UNL A   1      32.433  23.663  24.450  1.00  0.00    -0.329 N 
ATOM     79  C   UNL A   1      30.948  22.249  25.781  1.00  0.00     0.283 C 
ATOM     80  H   UNL A   1      32.524  21.321  26.741  1.00  0.00     0.347 HD
ATOM     81  H   UNL A   1      31.526  20.268  25.935  1.00  0.00     0.347 HD
ATOM     82  C   UNL A   1      31.518  23.680  25.582  1.00  0.00     0.181 C 
BRANCH  78  83
ATOM     83  C   UNL A   1      32.883  24.847  23.914  1.00  0.00     0.227 A 
ATOM     84  N   UNL A   1      33.189  24.921  22.613  1.00  0.00    -0.221 NA
ATOM     85  N   UNL A   1      32.905  25.900  24.744  1.00  0.00    -0.196 NA
ATOM     86  C   UNL A   1      33.470  26.149  22.142  1.00  0.00     0.119 A 
ATOM     87  C   UNL A   1      33.224  27.108  24.262  1.00  0.00     0.134 A 
ATOM     88  C   UNL A   1      33.482  27.282  22.921  1.00  0.00     0.067 A 
BRANCH  87  89
ATOM     89  N   UNL A   1      33.343  28.156  25.153  1.00  0.00    -0.356 N 
ATOM     90  C   UNL A   1      32.957  29.507  24.772  1.00  0.00     0.121 C 
ATOM     91  C   UNL A   1      33.514  27.831  26.565  1.00  0.00     0.121 C 
ATOM     92  C   UNL A   1      31.760  29.975  25.600  1.00  0.00     0.053 C 
ATOM     93  C   UNL A   1      32.321  28.291  27.390  1.00  0.00     0.053 C 
ATOM     94  C   UNL A   1      31.961  29.744  27.097  1.00  0.00     0.118 C 
BRANCH  94  95
ATOM     95  O   UNL A   1      32.955  30.629  27.616  1.00  0.00    -0.393 OA
ATOM     96  H   UNL A   1      33.619  30.808  26.931  1.00  0.00     0.210 HD
ENDBRANCH  94  95
ENDBRANCH  87  89
ENDBRANCH  78  83
ENDBRANCH  72  75
ENDBRANCH  70  71
ENDBRANCH  69  70
ENDBRANCH   1  69
TORSDOF 17
ENDMDL
MODEL 3
REMARK VINA RESULT:     -11.0      3.326      8.410
REMARK SMILES O=C(NCCCCNC(=O)[C@@H]1CN(c2nccc(N3CCC(O)CC3)n2)CC[NH2+]1)c1ccc(-c2c3nc(c(-c4ccc(S(=O)(=O)[O-])cc4)c4ccc([nH]4)c(-c4ccc(S(=O)(=O)[O-])cc4)c4nc(c(-c5ccc(S(=O)(=O)[O-])cc5)c5ccc2[nH]5)C=C4)C=C3)cc1
REMARK SMILES IDX 5 1 4 2 3 3 1 4 2 5 30 7 31 8 89 9 32 10 88 11 33 12 34 13
REMARK SMILES IDX 35 14 82 15 36 16 87 17 81 18 83 19 37 20 86 21 80 22 79 23
REMARK SMILES IDX 38 25 68 26 49 27 67 28 50 29 53 30 66 31 84 32 51 33 52 34
REMARK SMILES IDX 65 36 85 37 54 38 39 39 40 40 48 41 41 42 47 43 42 44 43 45
REMARK SMILES IDX 44 46 45 47 46 48 69 49 70 50 78 51 71 52 77 53 72 54 73 55
REMARK SMILES IDX 74 56 75 57 76 58 55 59 56 60 64 61 57 62 63 63 58 64 59 65
REMARK SMILES IDX 60 66 61 67 62 68 6 69 7 70 8 71 9 72 10 74 11 75 12 76
REMARK SMILES IDX 29 77 13 78 28 79 27 82 14 83 15 84 26 85 16 86 18 87 17 88
REMARK SMILES IDX 19 89 20 90 25 91 21 92 24 93 22 94 23 95
REMARK H PARENT 3 6 83 24 53 35 8 73 29 80 29 81 23 96
REMARK Flexibility Score: inf
ROOT
ATOM      1  C   UNL A   1      38.301  19.937  25.003  1.00  0.00     0.023 C 
ENDROOT
BRANCH   1   2
ATOM      2  C   UNL A   1      39.381  20.267  26.033  1.00  0.00     0.116 C 
BRANCH   2   3
ATOM      3  N   UNL A   1      40.424  19.257  26.120  1.00  0.00    -0.352 N 
ATOM      4  O   UNL A   1      42.553  18.510  26.219  1.00  0.00    -0.269 OA
ATOM      5  C   UNL A   1      41.775  19.458  26.269  1.00  0.00     0.251 C 
ATOM      6  H   UNL A   1      40.127  18.320  26.066  1.00  0.00     0.163 HD
BRANCH   5   7
ATOM      7  C   UNL A   1      42.277  20.833  26.460  1.00  0.00     0.039 A 
ATOM      8  C   UNL A   1      42.516  21.324  27.747  1.00  0.00     0.014 A 
ATOM      9  C   UNL A   1      42.500  21.637  25.340  1.00  0.00     0.014 A 
ATOM     10  C   UNL A   1      42.891  22.652  27.918  1.00  0.00     0.010 A 
ATOM     11  C   UNL A   1      42.934  22.954  25.512  1.00  0.00     0.010 A 
ATOM     12  C   UNL A   1      43.123  23.472  26.802  1.00  0.00    -0.014 A 
BRANCH  12  13
ATOM     13  C   UNL A   1      43.684  24.830  27.001  1.00  0.00     0.031 A 
ATOM     14  C   UNL A   1      45.133  25.124  26.740  1.00  0.00     0.074 A 
ATOM     15  C   UNL A   1      42.854  25.797  27.440  1.00  0.00     0.049 A 
ATOM     16  N   UNL A   1      45.775  26.254  26.889  1.00  0.00    -0.248 NA
ATOM     17  C   UNL A   1      45.972  24.017  26.254  1.00  0.00     0.031 C 
ATOM     18  C   UNL A   1      41.431  25.610  27.744  1.00  0.00     0.029 A 
ATOM     19  N   UNL A   1      43.079  27.121  27.708  1.00  0.00    -0.354 N 
ATOM     20  C   UNL A   1      47.095  25.993  26.542  1.00  0.00     0.074 A 
ATOM     21  C   UNL A   1      47.166  24.594  26.177  1.00  0.00     0.031 C 
ATOM     22  C   UNL A   1      40.908  26.781  28.138  1.00  0.00     0.029 A 
ATOM     23  C   UNL A   1      41.966  27.782  28.173  1.00  0.00     0.049 A 
ATOM     24  H   UNL A   1      43.952  27.557  27.580  1.00  0.00     0.167 HD
ATOM     25  C   UNL A   1      48.147  26.847  26.533  1.00  0.00     0.031 A 
ATOM     26  C   UNL A   1      41.817  29.044  28.613  1.00  0.00     0.031 A 
ATOM     27  C   UNL A   1      48.058  28.240  26.887  1.00  0.00     0.049 A 
ATOM     28  C   UNL A   1      43.009  29.954  28.620  1.00  0.00     0.074 A 
ATOM     29  C   UNL A   1      49.051  29.204  26.834  1.00  0.00     0.029 A 
ATOM     30  N   UNL A   1      46.921  28.865  27.375  1.00  0.00    -0.354 N 
ATOM     31  N   UNL A   1      44.232  29.707  28.215  1.00  0.00    -0.248 NA
ATOM     32  C   UNL A   1      42.807  31.308  29.152  1.00  0.00     0.031 C 
ATOM     33  C   UNL A   1      48.530  30.397  27.344  1.00  0.00     0.029 A 
ATOM     34  C   UNL A   1      47.200  30.188  27.670  1.00  0.00     0.049 A 
ATOM     35  H   UNL A   1      46.045  28.432  27.493  1.00  0.00     0.167 HD
ATOM     36  C   UNL A   1      44.946  30.874  28.445  1.00  0.00     0.074 A 
ATOM     37  C   UNL A   1      44.012  31.838  28.994  1.00  0.00     0.031 C 
ATOM     38  C   UNL A   1      46.260  31.125  28.232  1.00  0.00     0.031 A 
BRANCH  25  39
ATOM     39  C   UNL A   1      49.501  26.311  26.153  1.00  0.00    -0.014 A 
ATOM     40  C   UNL A   1      50.038  26.530  24.873  1.00  0.00     0.010 A 
ATOM     41  C   UNL A   1      50.292  25.679  27.130  1.00  0.00     0.010 A 
ATOM     42  C   UNL A   1      51.342  26.120  24.575  1.00  0.00     0.020 A 
ATOM     43  C   UNL A   1      51.602  25.282  26.841  1.00  0.00     0.020 A 
ATOM     44  C   UNL A   1      52.116  25.500  25.562  1.00  0.00     0.054 A 
BRANCH  44  45
ATOM     45  S   UNL A   1      53.827  25.039  25.168  1.00  0.00     0.124 S 
ATOM     46  O   UNL A   1      54.531  25.428  26.387  1.00  0.00    -0.237 OA
ATOM     47  O   UNL A   1      53.726  23.600  24.936  1.00  0.00    -0.237 OA
ATOM     48  O   UNL A   1      54.140  25.837  23.987  1.00  0.00    -0.744 OA
ENDBRANCH  44  45
ENDBRANCH  25  39
BRANCH  26  49
ATOM     49  C   UNL A   1      40.502  29.492  29.142  1.00  0.00    -0.014 A 
ATOM     50  C   UNL A   1      40.326  29.758  30.509  1.00  0.00     0.010 A 
ATOM     51  C   UNL A   1      39.415  29.664  28.263  1.00  0.00     0.010 A 
ATOM     52  C   UNL A   1      39.080  30.168  30.993  1.00  0.00     0.020 A 
ATOM     53  C   UNL A   1      38.177  30.102  28.739  1.00  0.00     0.020 A 
ATOM     54  C   UNL A   1      38.013  30.334  30.104  1.00  0.00     0.054 A 
BRANCH  54  55
ATOM     55  S   UNL A   1      36.413  30.903  30.742  1.00  0.00     0.124 S 
ATOM     56  O   UNL A   1      36.014  29.786  31.592  1.00  0.00    -0.237 OA
ATOM     57  O   UNL A   1      36.768  32.135  31.441  1.00  0.00    -0.237 OA
ATOM     58  O   UNL A   1      35.615  31.090  29.533  1.00  0.00    -0.744 OA
ENDBRANCH  54  55
ENDBRANCH  26  49
BRANCH  38  59
ATOM     59  C   UNL A   1      46.763  32.491  28.601  1.00  0.00    -0.014 A 
ATOM     60  C   UNL A   1      46.737  33.540  27.665  1.00  0.00     0.010 A 
ATOM     61  C   UNL A   1      47.225  32.740  29.906  1.00  0.00     0.010 A 
ATOM     62  C   UNL A   1      47.187  34.813  28.022  1.00  0.00     0.020 A 
ATOM     63  C   UNL A   1      47.653  34.018  30.272  1.00  0.00     0.020 A 
ATOM     64  C   UNL A   1      47.642  35.043  29.323  1.00  0.00     0.054 A 
BRANCH  64  65
ATOM     65  S   UNL A   1      48.176  36.717  29.777  1.00  0.00     0.124 S 
ATOM     66  O   UNL A   1      46.916  37.453  29.754  1.00  0.00    -0.237 OA
ATOM     67  O   UNL A   1      48.766  36.520  31.098  1.00  0.00    -0.237 OA
ATOM     68  O   UNL A   1      49.126  37.073  28.725  1.00  0.00    -0.744 OA
ENDBRANCH  64  65
ENDBRANCH  38  59
ENDBRANCH  12  13
ENDBRANCH   5   7
ENDBRANCH   2   3
ENDBRANCH   1   2
BRANCH   1  69
ATOM     69  C   UNL A   1      37.356  21.092  24.651  1.00  0.00     0.023 C 
BRANCH  69  70
ATOM     70  C   UNL A   1      36.058  21.097  25.453  1.00  0.00     0.116 C 
BRANCH  70  71
ATOM     71  N   UNL A   1      35.136  20.071  25.006  1.00  0.00    -0.351 N 
ATOM     72  C   UNL A   1      33.831  20.055  24.631  1.00  0.00     0.280 C 
ATOM     73  H   UNL A   1      35.552  19.180  24.966  1.00  0.00     0.163 HD
ATOM     74  O   UNL A   1      33.410  18.947  24.267  1.00  0.00    -0.268 OA
BRANCH  72  75
ATOM     75  C   UNL A   1      32.861  21.257  24.678  1.00  0.00     0.292 C 
ATOM     76  C   UNL A   1      33.469  22.650  24.490  1.00  0.00     0.195 C 
ATOM     77  N   UNL A   1      32.000  21.185  25.907  1.00  0.00    -0.333 N 
ATOM     78  N   UNL A   1      32.409  23.660  24.441  1.00  0.00    -0.329 N 
ATOM     79  C   UNL A   1      30.968  22.249  25.822  1.00  0.00     0.283 C 
ATOM     80  H   UNL A   1      32.574  21.327  26.738  1.00  0.00     0.347 HD
ATOM     81  H   UNL A   1      31.555  20.269  25.967  1.00  0.00     0.347 HD
ATOM     82  C   UNL A   1      31.529  23.680  25.600  1.00  0.00     0.181 C 
BRANCH  78  83
ATOM     83  C   UNL A   1      32.841  24.842  23.886  1.00  0.00     0.227 A 
ATOM     84  N   UNL A   1      33.067  24.922  22.569  1.00  0.00    -0.221 NA
ATOM     85  N   UNL A   1      32.928  25.887  24.721  1.00  0.00    -0.196 NA
ATOM     86  C   UNL A   1      33.334  26.150  22.091  1.00  0.00     0.119 A 
ATOM     87  C   UNL A   1      33.231  27.096  24.228  1.00  0.00     0.134 A 
ATOM     88  C   UNL A   1      33.409  27.277  22.875  1.00  0.00     0.067 A 
BRANCH  87  89
ATOM     89  N   UNL A   1      33.419  28.135  25.117  1.00  0.00    -0.356 N 
ATOM     90  C   UNL A   1      32.996  29.488  24.784  1.00  0.00     0.121 C 
ATOM     91  C   UNL A   1      33.707  27.796  26.507  1.00  0.00     0.121 C 
ATOM     92  C   UNL A   1      31.870  29.941  25.713  1.00  0.00     0.053 C 
ATOM     93  C   UNL A   1      32.584  28.242  27.432  1.00  0.00     0.053 C 
ATOM     94  C   UNL A   1      32.194  29.696  27.186  1.00  0.00     0.118 C 
BRANCH  94  95
ATOM     95  O   UNL A   1      33.223  30.581  27.630  1.00  0.00    -0.393 OA
ATOM     96  H   UNL A   1      32.825  31.406  27.949  1.00  0.00     0.210 HD
ENDBRANCH  94  95
ENDBRANCH  87  89
ENDBRANCH  78  83
ENDBRANCH  72  75
ENDBRANCH  70  71
ENDBRANCH  69  70
ENDBRANCH   1  69
TORSDOF 17
ENDMDL
