MODEL 1
REMARK VINA RESULT:     -10.6      0.000      0.000
REMARK SMILES CC[N@@H+]1CCO[C@H](C[NH2+][C@@H]2CCC[C@H](C(=O)NCCCCNC(=O)c3ccc(-c4c5nc(c(-c6ccc(S(=O)(=O)[O-])cc6)c6ccc([nH]6)c(-c6ccc(S(=O)(=O)[O-])cc6)c6nc(c(-c7ccc(S(=O)(=O)[O-])cc7)c7ccc4[nH]7)C=C6)C=C5)cc3)C2)C1
REMARK SMILES IDX 19 1 18 2 17 3 15 4 16 5 14 7 10 8 11 9 85 10 12 11 13 12
REMARK SMILES IDX 9 13 8 16 7 17 3 18 4 19 86 20 5 22 6 23 2 24 1 25 20 26
REMARK SMILES IDX 21 27 22 28 23 29 24 31 25 32 26 33 84 34 27 35 83 36 28 37
REMARK SMILES IDX 29 38 30 39 77 40 31 41 82 42 76 43 78 44 32 45 81 46 75 47
REMARK SMILES IDX 74 48 33 50 63 51 44 52 62 53 45 54 48 55 61 56 79 57 46 58
REMARK SMILES IDX 47 59 60 61 80 62 49 63 34 64 35 65 43 66 36 67 42 68 37 69
REMARK SMILES IDX 38 70 39 71 40 72 41 73 64 74 65 75 73 76 66 77 72 78 67 79
REMARK SMILES IDX 68 80 69 81 70 82 71 83 50 84 51 85 59 86 52 87 58 88 53 89
REMARK SMILES IDX 54 90 55 91 56 92 57 93
REMARK H PARENT 17 6 9 14 9 15 3 21 22 30 78 49 48 60
REMARK Flexibility Score: inf
ROOT
ATOM      1  C   UNL A   1      31.500  28.737  25.938  1.00  0.00     0.023 C 
ENDROOT
BRANCH   1   2
ATOM      2  C   UNL A   1      31.909  29.314  24.584  1.00  0.00     0.116 C 
BRANCH   2   3
ATOM      3  N   UNL A   1      30.812  29.309  23.632  1.00  0.00    -0.356 N 
ATOM      4  C   UNL A   1      30.465  28.428  22.654  1.00  0.00     0.223 C 
ATOM      5  O   UNL A   1      29.462  28.688  21.984  1.00  0.00    -0.275 OA
ATOM      6  H   UNL A   1      30.210  30.084  23.708  1.00  0.00     0.163 HD
BRANCH   4   7
ATOM      7  C   UNL A   1      31.248  27.146  22.391  1.00  0.00     0.084 C 
ATOM      8  C   UNL A   1      31.624  24.742  23.200  1.00  0.00     0.183 C 
ATOM      9  C   UNL A   1      33.115  25.097  23.344  1.00  0.00     0.065 C 
ATOM     10  C   UNL A   1      30.779  26.016  23.323  1.00  0.00     0.078 C 
ATOM     11  C   UNL A   1      33.564  26.096  22.289  1.00  0.00     0.007 C 
ATOM     12  C   UNL A   1      32.761  27.387  22.361  1.00  0.00     0.014 C 
BRANCH   8  13
ATOM     13  N   UNL A   1      31.357  23.765  24.250  1.00  0.00    -0.341 N 
ATOM     14  H   UNL A   1      30.572  24.120  24.796  1.00  0.00     0.346 HD
ATOM     15  H   UNL A   1      31.198  22.895  23.742  1.00  0.00     0.346 HD
BRANCH  13  16
ATOM     16  C   UNL A   1      32.422  23.435  25.191  1.00  0.00     0.299 C 
BRANCH  16  17
ATOM     17  C   UNL A   1      32.157  22.151  26.046  1.00  0.00     0.227 C 
ATOM     18  N   UNL A   1      34.362  20.922  25.998  1.00  0.00    -0.331 N 
ATOM     19  C   UNL A   1      33.781  19.993  25.030  1.00  0.00     0.291 C 
ATOM     20  C   UNL A   1      33.363  21.586  26.822  1.00  0.00     0.300 C 
ATOM     21  H   UNL A   1      34.826  20.373  26.722  1.00  0.00     0.348 HD
ATOM     22  C   UNL A   1      32.398  20.378  24.440  1.00  0.00     0.222 C 
ATOM     23  O   UNL A   1      31.517  21.082  25.324  1.00  0.00    -0.361 OA
BRANCH  18  24
ATOM     24  C   UNL A   1      35.641  21.531  25.677  1.00  0.00     0.258 C 
ATOM     25  C   UNL A   1      35.768  22.123  24.275  1.00  0.00     0.071 C 
ENDBRANCH  18  24
ENDBRANCH  16  17
ENDBRANCH  13  16
ENDBRANCH   8  13
ENDBRANCH   4   7
ENDBRANCH   2   3
ENDBRANCH   1   2
BRANCH   1  26
ATOM     26  C   UNL A   1      32.482  27.720  26.521  1.00  0.00     0.023 C 
BRANCH  26  27
ATOM     27  C   UNL A   1      33.517  28.292  27.480  1.00  0.00     0.116 C 
BRANCH  27  28
ATOM     28  N   UNL A   1      33.427  29.737  27.622  1.00  0.00    -0.352 N 
ATOM     29  C   UNL A   1      34.382  30.624  28.063  1.00  0.00     0.251 C 
ATOM     30  H   UNL A   1      32.562  30.136  27.369  1.00  0.00     0.163 HD
ATOM     31  O   UNL A   1      34.086  31.797  28.255  1.00  0.00    -0.269 OA
BRANCH  29  32
ATOM     32  C   UNL A   1      35.757  30.144  28.332  1.00  0.00     0.039 A 
ATOM     33  C   UNL A   1      36.699  30.175  27.301  1.00  0.00     0.014 A 
ATOM     34  C   UNL A   1      36.118  29.682  29.600  1.00  0.00     0.014 A 
ATOM     35  C   UNL A   1      38.018  29.796  27.559  1.00  0.00     0.010 A 
ATOM     36  C   UNL A   1      37.450  29.388  29.876  1.00  0.00     0.010 A 
ATOM     37  C   UNL A   1      38.413  29.428  28.857  1.00  0.00    -0.014 A 
BRANCH  37  38
ATOM     38  C   UNL A   1      39.818  29.054  29.162  1.00  0.00     0.031 A 
ATOM     39  C   UNL A   1      40.741  30.057  29.804  1.00  0.00     0.074 A 
ATOM     40  C   UNL A   1      40.282  27.837  28.815  1.00  0.00     0.049 A 
ATOM     41  N   UNL A   1      42.009  29.941  30.102  1.00  0.00    -0.248 NA
ATOM     42  C   UNL A   1      40.170  31.376  30.128  1.00  0.00     0.031 C 
ATOM     43  C   UNL A   1      39.504  26.789  28.151  1.00  0.00     0.029 A 
ATOM     44  N   UNL A   1      41.527  27.276  28.968  1.00  0.00    -0.354 N 
ATOM     45  C   UNL A   1      42.391  31.170  30.627  1.00  0.00     0.074 A 
ATOM     46  C   UNL A   1      41.236  32.037  30.554  1.00  0.00     0.031 C 
ATOM     47  C   UNL A   1      40.277  25.704  27.984  1.00  0.00     0.029 A 
ATOM     48  C   UNL A   1      41.617  25.991  28.487  1.00  0.00     0.049 A 
ATOM     49  H   UNL A   1      42.283  27.749  29.385  1.00  0.00     0.167 HD
ATOM     50  C   UNL A   1      43.585  31.540  31.147  1.00  0.00     0.031 A 
ATOM     51  C   UNL A   1      42.661  25.139  28.450  1.00  0.00     0.031 A 
ATOM     52  C   UNL A   1      44.729  30.671  31.231  1.00  0.00     0.049 A 
ATOM     53  C   UNL A   1      43.981  25.573  29.030  1.00  0.00     0.074 A 
ATOM     54  C   UNL A   1      45.969  30.932  31.787  1.00  0.00     0.029 A 
ATOM     55  N   UNL A   1      44.774  29.372  30.746  1.00  0.00    -0.354 N 
ATOM     56  N   UNL A   1      44.304  26.721  29.578  1.00  0.00    -0.248 NA
ATOM     57  C   UNL A   1      45.072  24.590  29.003  1.00  0.00     0.031 C 
ATOM     58  C   UNL A   1      46.782  29.812  31.587  1.00  0.00     0.029 A 
ATOM     59  C   UNL A   1      46.026  28.827  30.972  1.00  0.00     0.049 A 
ATOM     60  H   UNL A   1      44.026  28.907  30.306  1.00  0.00     0.167 HD
ATOM     61  C   UNL A   1      45.623  26.582  29.998  1.00  0.00     0.074 A 
ATOM     62  C   UNL A   1      46.033  25.238  29.648  1.00  0.00     0.031 C 
ATOM     63  C   UNL A   1      46.420  27.484  30.623  1.00  0.00     0.031 A 
BRANCH  50  64
ATOM     64  C   UNL A   1      43.717  32.950  31.661  1.00  0.00    -0.014 A 
ATOM     65  C   UNL A   1      44.182  33.989  30.833  1.00  0.00     0.010 A 
ATOM     66  C   UNL A   1      43.337  33.251  32.983  1.00  0.00     0.010 A 
ATOM     67  C   UNL A   1      44.307  35.290  31.328  1.00  0.00     0.020 A 
ATOM     68  C   UNL A   1      43.428  34.558  33.472  1.00  0.00     0.020 A 
ATOM     69  C   UNL A   1      43.930  35.565  32.646  1.00  0.00     0.054 A 
BRANCH  69  70
ATOM     70  S   UNL A   1      44.082  37.267  33.253  1.00  0.00     0.124 S 
ATOM     71  O   UNL A   1      45.382  37.235  33.918  1.00  0.00    -0.237 OA
ATOM     72  O   UNL A   1      44.025  38.052  32.023  1.00  0.00    -0.237 OA
ATOM     73  O   UNL A   1      42.932  37.422  34.143  1.00  0.00    -0.744 OA
ENDBRANCH  69  70
ENDBRANCH  50  64
BRANCH  51  74
ATOM     74  C   UNL A   1      42.496  23.780  27.862  1.00  0.00    -0.014 A 
ATOM     75  C   UNL A   1      42.882  23.521  26.535  1.00  0.00     0.010 A 
ATOM     76  C   UNL A   1      41.956  22.733  28.632  1.00  0.00     0.010 A 
ATOM     77  C   UNL A   1      42.710  22.249  25.981  1.00  0.00     0.020 A 
ATOM     78  C   UNL A   1      41.812  21.451  28.092  1.00  0.00     0.020 A 
ATOM     79  C   UNL A   1      42.178  21.221  26.764  1.00  0.00     0.054 A 
BRANCH  79  80
ATOM     80  S   UNL A   1      42.010  19.567  26.039  1.00  0.00     0.124 S 
ATOM     81  O   UNL A   1      40.573  19.486  25.797  1.00  0.00    -0.237 OA
ATOM     82  O   UNL A   1      42.849  19.658  24.847  1.00  0.00    -0.237 OA
ATOM     83  O   UNL A   1      42.520  18.681  27.084  1.00  0.00    -0.744 OA
ENDBRANCH  79  80
ENDBRANCH  51  74
BRANCH  63  84
ATOM     84  C   UNL A   1      47.800  27.032  31.026  1.00  0.00    -0.014 A 
ATOM     85  C   UNL A   1      48.059  26.493  32.300  1.00  0.00     0.010 A 
ATOM     86  C   UNL A   1      48.848  27.109  30.090  1.00  0.00     0.010 A 
ATOM     87  C   UNL A   1      49.350  26.081  32.641  1.00  0.00     0.020 A 
ATOM     88  C   UNL A   1      50.131  26.667  30.417  1.00  0.00     0.020 A 
ATOM     89  C   UNL A   1      50.379  26.172  31.698  1.00  0.00     0.054 A 
BRANCH  89  90
ATOM     90  S   UNL A   1      52.039  25.605  32.157  1.00  0.00     0.124 S 
ATOM     91  O   UNL A   1      52.852  26.130  31.063  1.00  0.00    -0.237 OA
ATOM     92  O   UNL A   1      52.247  26.240  33.455  1.00  0.00    -0.237 OA
ATOM     93  O   UNL A   1      51.910  24.151  32.193  1.00  0.00    -0.744 OA
ENDBRANCH  89  90
ENDBRANCH  63  84
ENDBRANCH  37  38
ENDBRANCH  29  32
ENDBRANCH  27  28
ENDBRANCH  26  27
ENDBRANCH   1  26
TORSDOF 18
ENDMDL
MODEL 2
REMARK VINA RESULT:     -10.2      3.081      3.888
REMARK SMILES CC[N@@H+]1CCO[C@H](C[NH2+][C@@H]2CCC[C@H](C(=O)NCCCCNC(=O)c3ccc(-c4c5nc(c(-c6ccc(S(=O)(=O)[O-])cc6)c6ccc([nH]6)c(-c6ccc(S(=O)(=O)[O-])cc6)c6nc(c(-c7ccc(S(=O)(=O)[O-])cc7)c7ccc4[nH]7)C=C6)C=C5)cc3)C2)C1
REMARK SMILES IDX 19 1 18 2 17 3 15 4 16 5 14 7 10 8 11 9 85 10 12 11 13 12
REMARK SMILES IDX 9 13 8 16 7 17 3 18 4 19 86 20 5 22 6 23 2 24 1 25 20 26
REMARK SMILES IDX 21 27 22 28 23 29 24 31 25 32 26 33 84 34 27 35 83 36 28 37
REMARK SMILES IDX 29 38 30 39 77 40 31 41 82 42 76 43 78 44 32 45 81 46 75 47
REMARK SMILES IDX 74 48 33 50 63 51 44 52 62 53 45 54 48 55 61 56 79 57 46 58
REMARK SMILES IDX 47 59 60 61 80 62 49 63 34 64 35 65 43 66 36 67 42 68 37 69
REMARK SMILES IDX 38 70 39 71 40 72 41 73 64 74 65 75 73 76 66 77 72 78 67 79
REMARK SMILES IDX 68 80 69 81 70 82 71 83 50 84 51 85 59 86 52 87 58 88 53 89
REMARK SMILES IDX 54 90 55 91 56 92 57 93
REMARK H PARENT 17 6 9 14 9 15 3 21 22 30 78 49 48 60
REMARK Flexibility Score: inf
ROOT
ATOM      1  C   UNL A   1      33.603  31.199  27.587  1.00  0.00     0.023 C 
ENDROOT
BRANCH   1   2
ATOM      2  C   UNL A   1      32.853  30.047  26.921  1.00  0.00     0.116 C 
BRANCH   2   3
ATOM      3  N   UNL A   1      33.359  29.758  25.591  1.00  0.00    -0.356 N 
ATOM      4  C   UNL A   1      32.805  29.105  24.533  1.00  0.00     0.223 C 
ATOM      5  O   UNL A   1      33.482  29.008  23.506  1.00  0.00    -0.275 OA
ATOM      6  H   UNL A   1      34.268  30.097  25.424  1.00  0.00     0.163 HD
BRANCH   4   7
ATOM      7  C   UNL A   1      31.392  28.531  24.573  1.00  0.00     0.084 C 
ATOM      8  C   UNL A   1      30.039  26.363  24.779  1.00  0.00     0.183 C 
ATOM      9  C   UNL A   1      29.373  26.732  23.441  1.00  0.00     0.065 C 
ATOM     10  C   UNL A   1      31.421  27.022  24.864  1.00  0.00     0.078 C 
ATOM     11  C   UNL A   1      29.219  28.237  23.280  1.00  0.00     0.007 C 
ATOM     12  C   UNL A   1      30.562  28.949  23.354  1.00  0.00     0.014 C 
BRANCH   8  13
ATOM     13  N   UNL A   1      30.088  24.906  24.796  1.00  0.00    -0.341 N 
ATOM     14  H   UNL A   1      29.646  24.602  25.664  1.00  0.00     0.346 HD
ATOM     15  H   UNL A   1      29.623  24.633  23.931  1.00  0.00     0.346 HD
BRANCH  13  16
ATOM     16  C   UNL A   1      31.387  24.246  24.722  1.00  0.00     0.299 C 
BRANCH  16  17
ATOM     17  C   UNL A   1      31.744  23.374  25.972  1.00  0.00     0.227 C 
ATOM     18  N   UNL A   1      34.209  22.903  25.702  1.00  0.00    -0.331 N 
ATOM     19  C   UNL A   1      33.866  21.548  25.270  1.00  0.00     0.291 C 
ATOM     20  C   UNL A   1      33.177  23.519  26.521  1.00  0.00     0.300 C 
ATOM     21  H   UNL A   1      34.948  22.832  26.403  1.00  0.00     0.348 HD
ATOM     22  C   UNL A   1      32.365  21.266  24.995  1.00  0.00     0.222 C 
ATOM     23  O   UNL A   1      31.436  21.975  25.824  1.00  0.00    -0.361 OA
BRANCH  18  24
ATOM     24  C   UNL A   1      35.113  23.677  24.868  1.00  0.00     0.258 C 
ATOM     25  C   UNL A   1      35.029  23.413  23.366  1.00  0.00     0.071 C 
ENDBRANCH  18  24
ENDBRANCH  16  17
ENDBRANCH  13  16
ENDBRANCH   8  13
ENDBRANCH   4   7
ENDBRANCH   2   3
ENDBRANCH   1   2
BRANCH   1  26
ATOM     26  C   UNL A   1      35.122  31.036  27.622  1.00  0.00     0.023 C 
BRANCH  26  27
ATOM     27  C   UNL A   1      35.629  29.834  28.410  1.00  0.00     0.116 C 
BRANCH  27  28
ATOM     28  N   UNL A   1      35.575  30.032  29.850  1.00  0.00    -0.352 N 
ATOM     29  C   UNL A   1      36.581  29.897  30.779  1.00  0.00     0.251 C 
ATOM     30  H   UNL A   1      34.697  30.299  30.210  1.00  0.00     0.163 HD
ATOM     31  O   UNL A   1      36.322  29.965  31.974  1.00  0.00    -0.269 OA
BRANCH  29  32
ATOM     32  C   UNL A   1      37.966  29.640  30.325  1.00  0.00     0.039 A 
ATOM     33  C   UNL A   1      38.840  28.954  31.171  1.00  0.00     0.014 A 
ATOM     34  C   UNL A   1      38.395  30.061  29.064  1.00  0.00     0.014 A 
ATOM     35  C   UNL A   1      40.127  28.640  30.727  1.00  0.00     0.010 A 
ATOM     36  C   UNL A   1      39.645  29.671  28.592  1.00  0.00     0.010 A 
ATOM     37  C   UNL A   1      40.530  28.969  29.422  1.00  0.00    -0.014 A 
BRANCH  37  38
ATOM     38  C   UNL A   1      41.882  28.613  28.917  1.00  0.00     0.031 A 
ATOM     39  C   UNL A   1      42.953  29.670  28.825  1.00  0.00     0.074 A 
ATOM     40  C   UNL A   1      42.134  27.360  28.491  1.00  0.00     0.049 A 
ATOM     41  N   UNL A   1      44.174  29.571  28.367  1.00  0.00    -0.248 NA
ATOM     42  C   UNL A   1      42.594  31.024  29.283  1.00  0.00     0.031 C 
ATOM     43  C   UNL A   1      41.173  26.255  28.488  1.00  0.00     0.029 A 
ATOM     44  N   UNL A   1      43.278  26.803  27.971  1.00  0.00    -0.354 N 
ATOM     45  C   UNL A   1      44.719  30.846  28.462  1.00  0.00     0.074 A 
ATOM     46  C   UNL A   1      43.679  31.715  28.967  1.00  0.00     0.031 C 
ATOM     47  C   UNL A   1      41.775  25.148  28.022  1.00  0.00     0.029 A 
ATOM     48  C   UNL A   1      43.150  25.472  27.651  1.00  0.00     0.049 A 
ATOM     49  H   UNL A   1      44.111  27.311  27.840  1.00  0.00     0.167 HD
ATOM     50  C   UNL A   1      45.978  31.256  28.180  1.00  0.00     0.031 A 
ATOM     51  C   UNL A   1      44.035  24.609  27.117  1.00  0.00     0.031 A 
ATOM     52  C   UNL A   1      47.016  30.388  27.689  1.00  0.00     0.049 A 
ATOM     53  C   UNL A   1      45.429  25.088  26.806  1.00  0.00     0.074 A 
ATOM     54  C   UNL A   1      48.339  30.693  27.422  1.00  0.00     0.029 A 
ATOM     55  N   UNL A   1      46.848  29.043  27.394  1.00  0.00    -0.354 N 
ATOM     56  N   UNL A   1      45.943  26.285  26.962  1.00  0.00    -0.248 NA
ATOM     57  C   UNL A   1      46.367  24.094  26.266  1.00  0.00     0.031 C 
ATOM     58  C   UNL A   1      48.956  29.549  26.909  1.00  0.00     0.029 A 
ATOM     59  C   UNL A   1      48.038  28.511  26.927  1.00  0.00     0.049 A 
ATOM     60  H   UNL A   1      46.008  28.542  27.500  1.00  0.00     0.167 HD
ATOM     61  C   UNL A   1      47.276  26.177  26.576  1.00  0.00     0.074 A 
ATOM     62  C   UNL A   1      47.488  24.797  26.190  1.00  0.00     0.031 C 
ATOM     63  C   UNL A   1      48.238  27.133  26.552  1.00  0.00     0.031 A 
BRANCH  50  64
ATOM     64  C   UNL A   1      46.302  32.714  28.389  1.00  0.00    -0.014 A 
ATOM     65  C   UNL A   1      46.079  33.664  27.374  1.00  0.00     0.010 A 
ATOM     66  C   UNL A   1      46.805  33.147  29.629  1.00  0.00     0.010 A 
ATOM     67  C   UNL A   1      46.393  35.010  27.581  1.00  0.00     0.020 A 
ATOM     68  C   UNL A   1      47.089  34.498  29.852  1.00  0.00     0.020 A 
ATOM     69  C   UNL A   1      46.898  35.418  28.820  1.00  0.00     0.054 A 
BRANCH  69  70
ATOM     70  S   UNL A   1      47.275  37.174  29.066  1.00  0.00     0.124 S 
ATOM     71  O   UNL A   1      47.027  37.338  30.496  1.00  0.00    -0.237 OA
ATOM     72  O   UNL A   1      48.674  37.262  28.657  1.00  0.00    -0.237 OA
ATOM     73  O   UNL A   1      46.327  37.858  28.188  1.00  0.00    -0.744 OA
ENDBRANCH  69  70
ENDBRANCH  50  64
BRANCH  51  74
ATOM     74  C   UNL A   1      43.640  23.196  26.862  1.00  0.00    -0.014 A 
ATOM     75  C   UNL A   1      43.014  22.434  27.864  1.00  0.00     0.010 A 
ATOM     76  C   UNL A   1      43.881  22.604  25.607  1.00  0.00     0.010 A 
ATOM     77  C   UNL A   1      42.659  21.103  27.627  1.00  0.00     0.020 A 
ATOM     78  C   UNL A   1      43.498  21.283  25.356  1.00  0.00     0.020 A 
ATOM     79  C   UNL A   1      42.901  20.536  26.372  1.00  0.00     0.054 A 
BRANCH  79  80
ATOM     80  S   UNL A   1      42.388  18.822  26.073  1.00  0.00     0.124 S 
ATOM     81  O   UNL A   1      40.982  18.983  25.716  1.00  0.00    -0.237 OA
ATOM     82  O   UNL A   1      43.276  18.412  24.987  1.00  0.00    -0.237 OA
ATOM     83  O   UNL A   1      42.638  18.162  27.354  1.00  0.00    -0.744 OA
ENDBRANCH  79  80
ENDBRANCH  51  74
BRANCH  63  84
ATOM     84  C   UNL A   1      49.628  26.711  26.150  1.00  0.00    -0.014 A 
ATOM     85  C   UNL A   1      50.471  26.010  27.030  1.00  0.00     0.010 A 
ATOM     86  C   UNL A   1      50.077  26.986  24.845  1.00  0.00     0.010 A 
ATOM     87  C   UNL A   1      51.755  25.631  26.625  1.00  0.00     0.020 A 
ATOM     88  C   UNL A   1      51.346  26.580  24.426  1.00  0.00     0.020 A 
ATOM     89  C   UNL A   1      52.185  25.920  25.325  1.00  0.00     0.054 A 
BRANCH  89  90
ATOM     90  S   UNL A   1      53.843  25.394  24.815  1.00  0.00     0.124 S 
ATOM     91  O   UNL A   1      54.686  26.027  25.827  1.00  0.00    -0.237 OA
ATOM     92  O   UNL A   1      53.755  23.939  24.892  1.00  0.00    -0.237 OA
ATOM     93  O   UNL A   1      53.979  25.935  23.465  1.00  0.00    -0.744 OA
ENDBRANCH  89  90
ENDBRANCH  63  84
ENDBRANCH  37  38
ENDBRANCH  29  32
ENDBRANCH  27  28
ENDBRANCH  26  27
ENDBRANCH   1  26
TORSDOF 18
ENDMDL
MODEL 3
REMARK VINA RESULT:     -10.2      3.359      9.570
REMARK SMILES CC[N@@H+]1CCO[C@H](C[NH2+][C@@H]2CCC[C@H](C(=O)NCCCCNC(=O)c3ccc(-c4c5nc(c(-c6ccc(S(=O)(=O)[O-])cc6)c6ccc([nH]6)c(-c6ccc(S(=O)(=O)[O-])cc6)c6nc(c(-c7ccc(S(=O)(=O)[O-])cc7)c7ccc4[nH]7)C=C6)C=C5)cc3)C2)C1
REMARK SMILES IDX 19 1 18 2 17 3 15 4 16 5 14 7 10 8 11 9 85 10 12 11 13 12
REMARK SMILES IDX 9 13 8 16 7 17 3 18 4 19 86 20 5 22 6 23 2 24 1 25 20 26
REMARK SMILES IDX 21 27 22 28 23 29 24 31 25 32 26 33 84 34 27 35 83 36 28 37
REMARK SMILES IDX 29 38 30 39 77 40 31 41 82 42 76 43 78 44 32 45 81 46 75 47
REMARK SMILES IDX 74 48 33 50 63 51 44 52 62 53 45 54 48 55 61 56 79 57 46 58
REMARK SMILES IDX 47 59 60 61 80 62 49 63 34 64 35 65 43 66 36 67 42 68 37 69
REMARK SMILES IDX 38 70 39 71 40 72 41 73 64 74 65 75 73 76 66 77 72 78 67 79
REMARK SMILES IDX 68 80 69 81 70 82 71 83 50 84 51 85 59 86 52 87 58 88 53 89
REMARK SMILES IDX 54 90 55 91 56 92 57 93
REMARK H PARENT 17 6 9 14 9 15 3 21 22 30 78 49 48 60
REMARK Flexibility Score: inf
ROOT
ATOM      1  C   UNL A   1      37.392  21.344  24.611  1.00  0.00     0.023 C 
ENDROOT
BRANCH   1   2
ATOM      2  C   UNL A   1      36.951  22.262  25.749  1.00  0.00     0.116 C 
BRANCH   2   3
ATOM      3  N   UNL A   1      35.840  21.708  26.502  1.00  0.00    -0.356 N 
ATOM      4  C   UNL A   1      34.492  21.816  26.341  1.00  0.00     0.223 C 
ATOM      5  O   UNL A   1      33.773  21.225  27.150  1.00  0.00    -0.275 OA
ATOM      6  H   UNL A   1      36.110  21.152  27.268  1.00  0.00     0.163 HD
BRANCH   4   7
ATOM      7  C   UNL A   1      33.865  22.605  25.196  1.00  0.00     0.084 C 
ATOM      8  C   UNL A   1      32.081  24.352  24.614  1.00  0.00     0.183 C 
ATOM      9  C   UNL A   1      31.487  23.321  23.638  1.00  0.00     0.065 C 
ATOM     10  C   UNL A   1      32.845  23.626  25.727  1.00  0.00     0.078 C 
ATOM     11  C   UNL A   1      32.563  22.445  23.015  1.00  0.00     0.007 C 
ATOM     12  C   UNL A   1      33.358  21.694  24.073  1.00  0.00     0.014 C 
BRANCH   8  13
ATOM     13  N   UNL A   1      30.943  25.125  25.099  1.00  0.00    -0.341 N 
ATOM     14  H   UNL A   1      30.139  24.862  24.530  1.00  0.00     0.346 HD
ATOM     15  H   UNL A   1      30.892  24.891  26.091  1.00  0.00     0.346 HD
BRANCH  13  16
ATOM     16  C   UNL A   1      31.024  26.581  25.083  1.00  0.00     0.299 C 
BRANCH  16  17
ATOM     17  C   UNL A   1      31.347  27.198  23.681  1.00  0.00     0.227 C 
ATOM     18  N   UNL A   1      31.223  29.689  24.069  1.00  0.00    -0.331 N 
ATOM     19  C   UNL A   1      29.922  29.692  23.401  1.00  0.00     0.291 C 
ATOM     20  C   UNL A   1      32.060  28.564  23.684  1.00  0.00     0.300 C 
ATOM     21  H   UNL A   1      31.781  30.447  23.675  1.00  0.00     0.348 HD
ATOM     22  C   UNL A   1      29.294  28.305  23.097  1.00  0.00     0.222 C 
ATOM     23  O   UNL A   1      30.219  27.256  22.788  1.00  0.00    -0.361 OA
BRANCH  18  24
ATOM     24  C   UNL A   1      31.323  30.330  25.370  1.00  0.00     0.258 C 
ATOM     25  C   UNL A   1      32.395  29.778  26.307  1.00  0.00     0.071 C 
ENDBRANCH  18  24
ENDBRANCH  16  17
ENDBRANCH  13  16
ENDBRANCH   8  13
ENDBRANCH   4   7
ENDBRANCH   2   3
ENDBRANCH   1   2
BRANCH   1  26
ATOM     26  C   UNL A   1      38.239  20.149  25.047  1.00  0.00     0.023 C 
BRANCH  26  27
ATOM     27  C   UNL A   1      39.270  20.443  26.129  1.00  0.00     0.116 C 
BRANCH  27  28
ATOM     28  N   UNL A   1      40.424  19.559  26.074  1.00  0.00    -0.352 N 
ATOM     29  C   UNL A   1      41.761  19.878  26.141  1.00  0.00     0.251 C 
ATOM     30  H   UNL A   1      40.221  18.600  25.972  1.00  0.00     0.163 HD
ATOM     31  O   UNL A   1      42.606  19.016  25.934  1.00  0.00    -0.269 OA
BRANCH  29  32
ATOM     32  C   UNL A   1      42.167  21.271  26.436  1.00  0.00     0.039 A 
ATOM     33  C   UNL A   1      42.476  21.623  27.751  1.00  0.00     0.014 A 
ATOM     34  C   UNL A   1      42.257  22.220  25.415  1.00  0.00     0.014 A 
ATOM     35  C   UNL A   1      42.932  22.913  28.032  1.00  0.00     0.010 A 
ATOM     36  C   UNL A   1      42.793  23.476  25.683  1.00  0.00     0.010 A 
ATOM     37  C   UNL A   1      43.123  23.842  26.996  1.00  0.00    -0.014 A 
BRANCH  37  38
ATOM     38  C   UNL A   1      43.640  25.209  27.267  1.00  0.00     0.031 A 
ATOM     39  C   UNL A   1      45.086  25.536  26.993  1.00  0.00     0.074 A 
ATOM     40  C   UNL A   1      42.830  26.140  27.808  1.00  0.00     0.049 A 
ATOM     41  N   UNL A   1      45.736  26.649  27.209  1.00  0.00    -0.248 NA
ATOM     42  C   UNL A   1      45.917  24.458  26.429  1.00  0.00     0.031 C 
ATOM     43  C   UNL A   1      41.422  25.941  28.159  1.00  0.00     0.029 A 
ATOM     44  N   UNL A   1      43.076  27.444  28.164  1.00  0.00    -0.354 N 
ATOM     45  C   UNL A   1      47.049  26.402  26.827  1.00  0.00     0.074 A 
ATOM     46  C   UNL A   1      47.118  25.015  26.421  1.00  0.00     0.031 C 
ATOM     47  C   UNL A   1      40.923  27.087  28.648  1.00  0.00     0.029 A 
ATOM     48  C   UNL A   1      41.982  28.091  28.688  1.00  0.00     0.049 A 
ATOM     49  H   UNL A   1      43.954  27.876  28.053  1.00  0.00     0.167 HD
ATOM     50  C   UNL A   1      48.101  27.254  26.793  1.00  0.00     0.031 A 
ATOM     51  C   UNL A   1      41.845  29.349  29.153  1.00  0.00     0.031 A 
ATOM     52  C   UNL A   1      48.028  28.637  27.186  1.00  0.00     0.049 A 
ATOM     53  C   UNL A   1      43.029  30.278  29.109  1.00  0.00     0.074 A 
ATOM     54  C   UNL A   1      49.022  29.598  27.139  1.00  0.00     0.029 A 
ATOM     55  N   UNL A   1      46.897  29.256  27.696  1.00  0.00    -0.354 N 
ATOM     56  N   UNL A   1      44.248  30.042  28.687  1.00  0.00    -0.248 NA
ATOM     57  C   UNL A   1      42.812  31.650  29.588  1.00  0.00     0.031 C 
ATOM     58  C   UNL A   1      48.509  30.783  27.676  1.00  0.00     0.029 A 
ATOM     59  C   UNL A   1      47.175  30.581  27.988  1.00  0.00     0.049 A 
ATOM     60  H   UNL A   1      46.026  28.819  27.832  1.00  0.00     0.167 HD
ATOM     61  C   UNL A   1      44.932  31.247  28.811  1.00  0.00     0.074 A 
ATOM     62  C   UNL A   1      43.988  32.210  29.339  1.00  0.00     0.031 C 
ATOM     63  C   UNL A   1      46.223  31.531  28.508  1.00  0.00     0.031 A 
BRANCH  50  64
ATOM     64  C   UNL A   1      49.425  26.712  26.319  1.00  0.00    -0.014 A 
ATOM     65  C   UNL A   1      49.873  26.926  25.002  1.00  0.00     0.010 A 
ATOM     66  C   UNL A   1      50.252  26.007  27.214  1.00  0.00     0.010 A 
ATOM     67  C   UNL A   1      51.099  26.409  24.577  1.00  0.00     0.020 A 
ATOM     68  C   UNL A   1      51.495  25.516  26.801  1.00  0.00     0.020 A 
ATOM     69  C   UNL A   1      51.902  25.706  25.480  1.00  0.00     0.054 A 
BRANCH  69  70
ATOM     70  S   UNL A   1      53.498  25.066  24.904  1.00  0.00     0.124 S 
ATOM     71  O   UNL A   1      53.412  23.657  25.282  1.00  0.00    -0.237 OA
ATOM     72  O   UNL A   1      53.452  25.335  23.470  1.00  0.00    -0.237 OA
ATOM     73  O   UNL A   1      54.477  25.852  25.653  1.00  0.00    -0.744 OA
ENDBRANCH  69  70
ENDBRANCH  50  64
BRANCH  51  74
ATOM     74  C   UNL A   1      40.530  29.811  29.680  1.00  0.00    -0.014 A 
ATOM     75  C   UNL A   1      39.454  30.057  28.808  1.00  0.00     0.010 A 
ATOM     76  C   UNL A   1      40.345  30.002  31.062  1.00  0.00     0.010 A 
ATOM     77  C   UNL A   1      38.228  30.507  29.303  1.00  0.00     0.020 A 
ATOM     78  C   UNL A   1      39.109  30.421  31.564  1.00  0.00     0.020 A 
ATOM     79  C   UNL A   1      38.061  30.684  30.680  1.00  0.00     0.054 A 
BRANCH  79  80
ATOM     80  S   UNL A   1      36.445  31.222  31.304  1.00  0.00     0.124 S 
ATOM     81  O   UNL A   1      36.798  32.406  32.081  1.00  0.00    -0.237 OA
ATOM     82  O   UNL A   1      35.699  31.471  30.072  1.00  0.00    -0.237 OA
ATOM     83  O   UNL A   1      35.981  30.076  32.083  1.00  0.00    -0.744 OA
ENDBRANCH  79  80
ENDBRANCH  51  74
BRANCH  63  84
ATOM     84  C   UNL A   1      46.681  32.956  28.681  1.00  0.00    -0.014 A 
ATOM     85  C   UNL A   1      47.284  33.400  29.872  1.00  0.00     0.010 A 
ATOM     86  C   UNL A   1      46.544  33.856  27.608  1.00  0.00     0.010 A 
ATOM     87  C   UNL A   1      47.700  34.729  30.000  1.00  0.00     0.020 A 
ATOM     88  C   UNL A   1      46.988  35.176  27.720  1.00  0.00     0.020 A 
ATOM     89  C   UNL A   1      47.547  35.609  28.923  1.00  0.00     0.054 A 
BRANCH  89  90
ATOM     90  S   UNL A   1      48.120  37.319  29.104  1.00  0.00     0.124 S 
ATOM     91  O   UNL A   1      49.199  37.384  28.121  1.00  0.00    -0.237 OA
ATOM     92  O   UNL A   1      46.926  38.093  28.778  1.00  0.00    -0.237 OA
ATOM     93  O   UNL A   1      48.544  37.397  30.500  1.00  0.00    -0.744 OA
ENDBRANCH  89  90
ENDBRANCH  63  84
ENDBRANCH  37  38
ENDBRANCH  29  32
ENDBRANCH  27  28
ENDBRANCH  26  27
ENDBRANCH   1  26
TORSDOF 18
ENDMDL
