MODEL 1
REMARK VINA RESULT:     -10.4      0.000      0.000
REMARK SMILES CCCCCCNC(=O)Oc1cccc(-c2ccc([C@@H](C)C(=O)NCCCCNC(=O)c3ccc(-c4c5nc(c(-c6ccc(S(=O)(=O)[O-])cc6)c6ccc([nH]6)c(-c6ccc(S(=O)(=O)[O-])cc6)c6nc(c(-c7ccc(S(=O)(=O)[O-])cc7)c7ccc4[nH]7)C=C6)C=C5)cc3)cc2C)c1
REMARK SMILES IDX 20 1 21 2 19 3 16 4 17 5 93 6 18 7 92 8 94 9 15 10 11 11
REMARK SMILES IDX 12 12 95 13 13 14 14 15 10 16 8 17 7 18 9 20 6 21 5 22 4 23
REMARK SMILES IDX 3 24 2 25 1 26 22 27 23 28 24 29 25 31 26 32 27 33 28 34
REMARK SMILES IDX 29 35 30 36 31 38 32 39 33 40 91 41 34 42 90 43 35 44 36 45
REMARK SMILES IDX 37 46 84 47 38 48 89 49 83 50 85 51 39 52 88 53 82 54 81 55
REMARK SMILES IDX 40 57 70 58 51 59 69 60 52 61 55 62 68 63 86 64 53 65 54 66
REMARK SMILES IDX 67 68 87 69 56 70 41 71 42 72 50 73 43 74 49 75 44 76 45 77
REMARK SMILES IDX 46 78 47 79 48 80 71 81 72 82 80 83 73 84 79 85 74 86 75 87
REMARK SMILES IDX 76 88 77 89 78 90 57 91 58 92 66 93 59 94 65 95 60 96 61 97
REMARK SMILES IDX 62 98 63 99 64 100
REMARK H PARENT 7 19 24 30 29 37 85 56 55 67
REMARK Flexibility Score: inf
ROOT
ATOM      1  C   UNL A   1      41.045  21.531  27.792  1.00  0.00     0.105 C 
ATOM      2  C   UNL A   1      41.683  20.238  27.287  1.00  0.00     0.023 C 
ENDROOT
BRANCH   1   3
ATOM      3  C   UNL A   1      39.928  22.094  26.928  1.00  0.00    -0.036 A 
ATOM      4  C   UNL A   1      37.623  23.024  25.508  1.00  0.00    -0.015 A 
ATOM      5  C   UNL A   1      38.434  23.886  26.268  1.00  0.00     0.009 A 
ATOM      6  C   UNL A   1      38.063  21.691  25.366  1.00  0.00    -0.043 A 
ATOM      7  C   UNL A   1      39.592  23.445  26.911  1.00  0.00     0.005 A 
ATOM      8  C   UNL A   1      39.168  21.235  26.122  1.00  0.00     0.008 A 
ATOM      9  C   UNL A   1      37.447  20.701  24.413  1.00  0.00     0.045 C 
BRANCH   4  10
ATOM     10  C   UNL A   1      36.363  23.556  24.938  1.00  0.00    -0.014 A 
ATOM     11  C   UNL A   1      34.421  25.017  25.060  1.00  0.00     0.133 A 
ATOM     12  C   UNL A   1      33.994  24.610  23.799  1.00  0.00     0.047 A 
ATOM     13  C   UNL A   1      35.596  24.514  25.623  1.00  0.00     0.056 A 
ATOM     14  C   UNL A   1      34.758  23.690  23.089  1.00  0.00     0.004 A 
ATOM     15  C   UNL A   1      35.920  23.161  23.660  1.00  0.00     0.009 A 
BRANCH  11  16
ATOM     16  O   UNL A   1      33.542  25.833  25.791  1.00  0.00    -0.410 OA
BRANCH  16  17
ATOM     17  C   UNL A   1      33.804  27.191  25.890  1.00  0.00     0.412 C 
ATOM     18  N   UNL A   1      33.075  27.939  25.006  1.00  0.00    -0.321 N 
ATOM     19  H   UNL A   1      33.240  28.909  25.009  1.00  0.00     0.167 HD
ATOM     20  O   UNL A   1      34.595  27.716  26.662  1.00  0.00    -0.224 OA
BRANCH  18  21
ATOM     21  C   UNL A   1      32.084  27.452  24.067  1.00  0.00     0.119 C 
BRANCH  21  22
ATOM     22  C   UNL A   1      30.665  27.549  24.629  1.00  0.00     0.021 C 
BRANCH  22  23
ATOM     23  C   UNL A   1      29.894  26.225  24.659  1.00  0.00     0.002 C 
BRANCH  23  24
ATOM     24  C   UNL A   1      30.307  25.245  25.762  1.00  0.00    -0.000 C 
BRANCH  24  25
ATOM     25  C   UNL A   1      30.695  23.843  25.284  1.00  0.00    -0.003 C 
ATOM     26  C   UNL A   1      30.762  23.721  23.770  1.00  0.00     0.004 C 
ENDBRANCH  24  25
ENDBRANCH  23  24
ENDBRANCH  22  23
ENDBRANCH  21  22
ENDBRANCH  18  21
ENDBRANCH  16  17
ENDBRANCH  11  16
ENDBRANCH   4  10
ENDBRANCH   1   3
BRANCH   1  27
ATOM     27  C   UNL A   1      42.059  22.584  28.273  1.00  0.00     0.227 C 
ATOM     28  O   UNL A   1      41.857  23.185  29.335  1.00  0.00    -0.274 OA
ATOM     29  N   UNL A   1      43.211  22.891  27.615  1.00  0.00    -0.356 N 
ATOM     30  H   UNL A   1      43.790  23.527  28.094  1.00  0.00     0.163 HD
BRANCH  29  31
ATOM     31  C   UNL A   1      43.740  22.455  26.340  1.00  0.00     0.116 C 
BRANCH  31  32
ATOM     32  C   UNL A   1      45.176  22.933  26.119  1.00  0.00     0.023 C 
BRANCH  32  33
ATOM     33  C   UNL A   1      45.305  24.286  25.424  1.00  0.00     0.023 C 
BRANCH  33  34
ATOM     34  C   UNL A   1      44.359  25.366  25.933  1.00  0.00     0.116 C 
BRANCH  34  35
ATOM     35  N   UNL A   1      43.091  25.430  25.218  1.00  0.00    -0.352 N 
ATOM     36  C   UNL A   1      41.928  26.051  25.617  1.00  0.00     0.251 C 
ATOM     37  H   UNL A   1      43.061  24.976  24.346  1.00  0.00     0.163 HD
ATOM     38  O   UNL A   1      40.905  25.955  24.946  1.00  0.00    -0.269 OA
BRANCH  36  39
ATOM     39  C   UNL A   1      41.923  26.793  26.895  1.00  0.00     0.039 A 
ATOM     40  C   UNL A   1      42.532  28.048  26.952  1.00  0.00     0.014 A 
ATOM     41  C   UNL A   1      41.240  26.284  28.002  1.00  0.00     0.014 A 
ATOM     42  C   UNL A   1      42.384  28.830  28.100  1.00  0.00     0.010 A 
ATOM     43  C   UNL A   1      41.024  27.097  29.108  1.00  0.00     0.010 A 
ATOM     44  C   UNL A   1      41.591  28.379  29.168  1.00  0.00    -0.014 A 
BRANCH  44  45
ATOM     45  C   UNL A   1      41.337  29.233  30.358  1.00  0.00     0.031 A 
ATOM     46  C   UNL A   1      42.183  29.070  31.593  1.00  0.00     0.074 A 
ATOM     47  C   UNL A   1      40.300  30.095  30.355  1.00  0.00     0.049 A 
ATOM     48  N   UNL A   1      42.071  29.665  32.752  1.00  0.00    -0.248 NA
ATOM     49  C   UNL A   1      43.280  28.088  31.529  1.00  0.00     0.031 C 
ATOM     50  C   UNL A   1      39.368  30.302  29.241  1.00  0.00     0.029 A 
ATOM     51  N   UNL A   1      39.843  30.953  31.325  1.00  0.00    -0.354 N 
ATOM     52  C   UNL A   1      43.058  29.113  33.559  1.00  0.00     0.074 A 
ATOM     53  C   UNL A   1      43.734  28.105  32.774  1.00  0.00     0.031 C 
ATOM     54  C   UNL A   1      38.469  31.239  29.585  1.00  0.00     0.029 A 
ATOM     55  C   UNL A   1      38.731  31.673  30.953  1.00  0.00     0.049 A 
ATOM     56  H   UNL A   1      40.274  31.045  32.206  1.00  0.00     0.167 HD
ATOM     57  C   UNL A   1      43.386  29.431  34.833  1.00  0.00     0.031 A 
ATOM     58  C   UNL A   1      37.998  32.572  31.639  1.00  0.00     0.031 A 
ATOM     59  C   UNL A   1      42.737  30.461  35.596  1.00  0.00     0.049 A 
ATOM     60  C   UNL A   1      38.402  32.922  33.048  1.00  0.00     0.074 A 
ATOM     61  C   UNL A   1      43.055  30.918  36.864  1.00  0.00     0.029 A 
ATOM     62  N   UNL A   1      41.643  31.195  35.168  1.00  0.00    -0.354 N 
ATOM     63  N   UNL A   1      39.400  32.454  33.758  1.00  0.00    -0.248 NA
ATOM     64  C   UNL A   1      37.589  33.931  33.741  1.00  0.00     0.031 C 
ATOM     65  C   UNL A   1      42.119  31.891  37.224  1.00  0.00     0.029 A 
ATOM     66  C   UNL A   1      41.256  32.083  36.158  1.00  0.00     0.049 A 
ATOM     67  H   UNL A   1      41.205  31.101  34.292  1.00  0.00     0.167 HD
ATOM     68  C   UNL A   1      39.353  33.135  34.970  1.00  0.00     0.074 A 
ATOM     69  C   UNL A   1      38.241  34.059  34.889  1.00  0.00     0.031 C 
ATOM     70  C   UNL A   1      40.156  33.007  36.055  1.00  0.00     0.031 A 
BRANCH  57  71
ATOM     71  C   UNL A   1      44.503  28.665  35.489  1.00  0.00    -0.014 A 
ATOM     72  C   UNL A   1      44.251  27.480  36.203  1.00  0.00     0.010 A 
ATOM     73  C   UNL A   1      45.833  29.089  35.312  1.00  0.00     0.010 A 
ATOM     74  C   UNL A   1      45.307  26.742  36.741  1.00  0.00     0.020 A 
ATOM     75  C   UNL A   1      46.894  28.339  35.827  1.00  0.00     0.020 A 
ATOM     76  C   UNL A   1      46.623  27.173  36.544  1.00  0.00     0.054 A 
BRANCH  76  77
ATOM     77  S   UNL A   1      47.976  26.154  37.193  1.00  0.00     0.124 S 
ATOM     78  O   UNL A   1      48.057  25.090  36.197  1.00  0.00    -0.237 OA
ATOM     79  O   UNL A   1      49.100  27.089  37.206  1.00  0.00    -0.237 OA
ATOM     80  O   UNL A   1      47.500  25.740  38.511  1.00  0.00    -0.744 OA
ENDBRANCH  76  77
ENDBRANCH  57  71
BRANCH  58  81
ATOM     81  C   UNL A   1      36.802  33.207  31.015  1.00  0.00    -0.014 A 
ATOM     82  C   UNL A   1      36.824  33.615  29.669  1.00  0.00     0.010 A 
ATOM     83  C   UNL A   1      35.644  33.439  31.778  1.00  0.00     0.010 A 
ATOM     84  C   UNL A   1      35.728  34.283  29.112  1.00  0.00     0.020 A 
ATOM     85  C   UNL A   1      34.534  34.077  31.217  1.00  0.00     0.020 A 
ATOM     86  C   UNL A   1      34.591  34.515  29.892  1.00  0.00     0.054 A 
BRANCH  86  87
ATOM     87  S   UNL A   1      33.180  35.380  29.150  1.00  0.00     0.124 S 
ATOM     88  O   UNL A   1      33.835  36.472  28.436  1.00  0.00    -0.237 OA
ATOM     89  O   UNL A   1      32.579  34.345  28.311  1.00  0.00    -0.237 OA
ATOM     90  O   UNL A   1      32.378  35.778  30.305  1.00  0.00    -0.744 OA
ENDBRANCH  86  87
ENDBRANCH  58  81
BRANCH  70  91
ATOM     91  C   UNL A   1      39.896  33.915  37.226  1.00  0.00    -0.014 A 
ATOM     92  C   UNL A   1      40.479  35.192  37.304  1.00  0.00     0.010 A 
ATOM     93  C   UNL A   1      39.004  33.505  38.234  1.00  0.00     0.010 A 
ATOM     94  C   UNL A   1      40.198  36.030  38.386  1.00  0.00     0.020 A 
ATOM     95  C   UNL A   1      38.697  34.351  39.301  1.00  0.00     0.020 A 
ATOM     96  C   UNL A   1      39.308  35.604  39.377  1.00  0.00     0.054 A 
BRANCH  96  97
ATOM     97  S   UNL A   1      38.924  36.728  40.747  1.00  0.00     0.124 S 
ATOM     98  O   UNL A   1      38.072  35.897  41.593  1.00  0.00    -0.237 OA
ATOM     99  O   UNL A   1      40.246  37.032  41.292  1.00  0.00    -0.237 OA
ATOM    100  O   UNL A   1      38.252  37.850  40.097  1.00  0.00    -0.744 OA
ENDBRANCH  96  97
ENDBRANCH  70  91
ENDBRANCH  44  45
ENDBRANCH  36  39
ENDBRANCH  34  35
ENDBRANCH  33  34
ENDBRANCH  32  33
ENDBRANCH  31  32
ENDBRANCH  29  31
ENDBRANCH   1  27
TORSDOF 23
ENDMDL
MODEL 2
REMARK VINA RESULT:      -9.9      9.426     16.532
REMARK SMILES CCCCCCNC(=O)Oc1cccc(-c2ccc([C@@H](C)C(=O)NCCCCNC(=O)c3ccc(-c4c5nc(c(-c6ccc(S(=O)(=O)[O-])cc6)c6ccc([nH]6)c(-c6ccc(S(=O)(=O)[O-])cc6)c6nc(c(-c7ccc(S(=O)(=O)[O-])cc7)c7ccc4[nH]7)C=C6)C=C5)cc3)cc2C)c1
REMARK SMILES IDX 20 1 21 2 19 3 16 4 17 5 93 6 18 7 92 8 94 9 15 10 11 11
REMARK SMILES IDX 12 12 95 13 13 14 14 15 10 16 8 17 7 18 9 20 6 21 5 22 4 23
REMARK SMILES IDX 3 24 2 25 1 26 22 27 23 28 24 29 25 31 26 32 27 33 28 34
REMARK SMILES IDX 29 35 30 36 31 38 32 39 33 40 91 41 34 42 90 43 35 44 36 45
REMARK SMILES IDX 37 46 84 47 38 48 89 49 83 50 85 51 39 52 88 53 82 54 81 55
REMARK SMILES IDX 40 57 70 58 51 59 69 60 52 61 55 62 68 63 86 64 53 65 54 66
REMARK SMILES IDX 67 68 87 69 56 70 41 71 42 72 50 73 43 74 49 75 44 76 45 77
REMARK SMILES IDX 46 78 47 79 48 80 71 81 72 82 80 83 73 84 79 85 74 86 75 87
REMARK SMILES IDX 76 88 77 89 78 90 57 91 58 92 66 93 59 94 65 95 60 96 61 97
REMARK SMILES IDX 62 98 63 99 64 100
REMARK H PARENT 7 19 24 30 29 37 85 56 55 67
REMARK Flexibility Score: inf
ROOT
ATOM      1  C   UNL A   1      45.903  42.603  29.264  1.00  0.00     0.105 C 
ATOM      2  C   UNL A   1      47.199  42.820  30.043  1.00  0.00     0.023 C 
ENDROOT
BRANCH   1   3
ATOM      3  C   UNL A   1      45.970  42.914  27.777  1.00  0.00    -0.036 A 
ATOM      4  C   UNL A   1      45.821  43.347  24.952  1.00  0.00    -0.015 A 
ATOM      5  C   UNL A   1      45.586  44.376  25.882  1.00  0.00     0.009 A 
ATOM      6  C   UNL A   1      46.263  42.109  25.465  1.00  0.00    -0.043 A 
ATOM      7  C   UNL A   1      45.717  44.181  27.258  1.00  0.00     0.005 A 
ATOM      8  C   UNL A   1      46.272  41.895  26.863  1.00  0.00     0.008 A 
ATOM      9  C   UNL A   1      46.773  40.980  24.609  1.00  0.00     0.045 C 
BRANCH   4  10
ATOM     10  C   UNL A   1      45.567  43.618  23.517  1.00  0.00    -0.014 A 
ATOM     11  C   UNL A   1      44.233  43.339  21.502  1.00  0.00     0.133 A 
ATOM     12  C   UNL A   1      45.063  44.202  20.793  1.00  0.00     0.047 A 
ATOM     13  C   UNL A   1      44.465  43.056  22.850  1.00  0.00     0.056 A 
ATOM     14  C   UNL A   1      46.138  44.796  21.444  1.00  0.00     0.004 A 
ATOM     15  C   UNL A   1      46.392  44.495  22.787  1.00  0.00     0.009 A 
BRANCH  11  16
ATOM     16  O   UNL A   1      43.253  42.657  20.762  1.00  0.00    -0.410 OA
BRANCH  16  17
ATOM     17  C   UNL A   1      41.914  42.861  21.062  1.00  0.00     0.412 C 
ATOM     18  N   UNL A   1      41.211  43.395  20.018  1.00  0.00    -0.321 N 
ATOM     19  H   UNL A   1      40.260  43.591  20.181  1.00  0.00     0.167 HD
ATOM     20  O   UNL A   1      41.371  42.612  22.130  1.00  0.00    -0.224 OA
BRANCH  18  21
ATOM     21  C   UNL A   1      41.719  43.703  18.696  1.00  0.00     0.119 C 
BRANCH  21  22
ATOM     22  C   UNL A   1      41.236  45.066  18.199  1.00  0.00     0.021 C 
BRANCH  22  23
ATOM     23  C   UNL A   1      41.640  45.406  16.760  1.00  0.00     0.002 C 
BRANCH  23  24
ATOM     24  C   UNL A   1      42.736  46.469  16.615  1.00  0.00    -0.000 C 
BRANCH  24  25
ATOM     25  C   UNL A   1      42.239  47.910  16.481  1.00  0.00    -0.003 C 
ATOM     26  C   UNL A   1      42.596  48.783  17.674  1.00  0.00     0.004 C 
ENDBRANCH  24  25
ENDBRANCH  23  24
ENDBRANCH  22  23
ENDBRANCH  21  22
ENDBRANCH  18  21
ENDBRANCH  16  17
ENDBRANCH  11  16
ENDBRANCH   4  10
ENDBRANCH   1   3
BRANCH   1  27
ATOM     27  C   UNL A   1      44.650  43.154  29.967  1.00  0.00     0.227 C 
ATOM     28  O   UNL A   1      44.697  44.258  30.522  1.00  0.00    -0.274 OA
ATOM     29  N   UNL A   1      43.448  42.513  29.999  1.00  0.00    -0.356 N 
ATOM     30  H   UNL A   1      42.726  43.034  30.419  1.00  0.00     0.163 HD
BRANCH  29  31
ATOM     31  C   UNL A   1      43.039  41.206  29.530  1.00  0.00     0.116 C 
BRANCH  31  32
ATOM     32  C   UNL A   1      43.235  40.126  30.595  1.00  0.00     0.023 C 
BRANCH  32  33
ATOM     33  C   UNL A   1      43.503  40.649  32.003  1.00  0.00     0.023 C 
BRANCH  33  34
ATOM     34  C   UNL A   1      44.469  39.810  32.830  1.00  0.00     0.116 C 
BRANCH  34  35
ATOM     35  N   UNL A   1      45.846  39.849  32.357  1.00  0.00    -0.352 N 
ATOM     36  C   UNL A   1      46.531  38.869  31.672  1.00  0.00     0.251 C 
ATOM     37  H   UNL A   1      46.348  40.673  32.549  1.00  0.00     0.163 HD
ATOM     38  O   UNL A   1      47.721  39.008  31.405  1.00  0.00    -0.269 OA
BRANCH  36  39
ATOM     39  C   UNL A   1      45.817  37.627  31.310  1.00  0.00     0.039 A 
ATOM     40  C   UNL A   1      45.408  37.442  29.988  1.00  0.00     0.014 A 
ATOM     41  C   UNL A   1      45.637  36.618  32.258  1.00  0.00     0.014 A 
ATOM     42  C   UNL A   1      44.890  36.204  29.599  1.00  0.00     0.010 A 
ATOM     43  C   UNL A   1      45.201  35.362  31.850  1.00  0.00     0.010 A 
ATOM     44  C   UNL A   1      44.825  35.142  30.515  1.00  0.00    -0.014 A 
BRANCH  44  45
ATOM     45  C   UNL A   1      44.372  33.788  30.101  1.00  0.00     0.031 A 
ATOM     46  C   UNL A   1      42.913  33.427  30.189  1.00  0.00     0.074 A 
ATOM     47  C   UNL A   1      45.279  32.864  29.723  1.00  0.00     0.049 A 
ATOM     48  N   UNL A   1      42.333  32.280  29.946  1.00  0.00    -0.248 NA
ATOM     49  C   UNL A   1      41.986  34.482  30.637  1.00  0.00     0.031 C 
ATOM     50  C   UNL A   1      46.728  33.072  29.655  1.00  0.00     0.029 A 
ATOM     51  N   UNL A   1      45.118  31.556  29.335  1.00  0.00    -0.354 N 
ATOM     52  C   UNL A   1      40.987  32.467  30.237  1.00  0.00     0.074 A 
ATOM     53  C   UNL A   1      40.839  33.823  30.716  1.00  0.00     0.031 C 
ATOM     54  C   UNL A   1      47.318  31.943  29.231  1.00  0.00     0.029 A 
ATOM     55  C   UNL A   1      46.299  30.917  29.034  1.00  0.00     0.049 A 
ATOM     56  H   UNL A   1      44.239  31.117  29.277  1.00  0.00     0.167 HD
ATOM     57  C   UNL A   1      39.962  31.594  30.100  1.00  0.00     0.031 A 
ATOM     58  C   UNL A   1      46.536  29.646  28.655  1.00  0.00     0.031 A 
ATOM     59  C   UNL A   1      40.107  30.259  29.587  1.00  0.00     0.049 A 
ATOM     60  C   UNL A   1      45.372  28.703  28.488  1.00  0.00     0.074 A 
ATOM     61  C   UNL A   1      39.116  29.328  29.327  1.00  0.00     0.029 A 
ATOM     62  N   UNL A   1      41.313  29.664  29.254  1.00  0.00    -0.354 N 
ATOM     63  N   UNL A   1      44.094  28.932  28.679  1.00  0.00    -0.248 NA
ATOM     64  C   UNL A   1      45.680  27.338  28.042  1.00  0.00     0.031 C 
ATOM     65  C   UNL A   1      39.727  28.151  28.888  1.00  0.00     0.029 A 
ATOM     66  C   UNL A   1      41.094  28.369  28.817  1.00  0.00     0.049 A 
ATOM     67  H   UNL A   1      42.195  30.097  29.319  1.00  0.00     0.167 HD
ATOM     68  C   UNL A   1      43.445  27.747  28.345  1.00  0.00     0.074 A 
ATOM     69  C   UNL A   1      44.468  26.813  27.924  1.00  0.00     0.031 C 
ATOM     70  C   UNL A   1      42.122  27.457  28.386  1.00  0.00     0.031 A 
BRANCH  57  71
ATOM     71  C   UNL A   1      38.585  32.048  30.500  1.00  0.00    -0.014 A 
ATOM     72  C   UNL A   1      38.138  31.932  31.829  1.00  0.00     0.010 A 
ATOM     73  C   UNL A   1      37.760  32.684  29.554  1.00  0.00     0.010 A 
ATOM     74  C   UNL A   1      36.887  32.428  32.200  1.00  0.00     0.020 A 
ATOM     75  C   UNL A   1      36.518  33.205  29.927  1.00  0.00     0.020 A 
ATOM     76  C   UNL A   1      36.087  33.067  31.247  1.00  0.00     0.054 A 
BRANCH  76  77
ATOM     77  S   UNL A   1      34.498  33.765  31.775  1.00  0.00     0.124 S 
ATOM     78  O   UNL A   1      34.923  34.924  32.557  1.00  0.00    -0.237 OA
ATOM     79  O   UNL A   1      33.846  34.070  30.504  1.00  0.00    -0.237 OA
ATOM     80  O   UNL A   1      33.882  32.686  32.545  1.00  0.00    -0.744 OA
ENDBRANCH  76  77
ENDBRANCH  57  71
BRANCH  58  81
ATOM     81  C   UNL A   1      47.930  29.177  28.409  1.00  0.00    -0.014 A 
ATOM     82  C   UNL A   1      48.699  28.629  29.451  1.00  0.00     0.010 A 
ATOM     83  C   UNL A   1      48.508  29.310  27.134  1.00  0.00     0.010 A 
ATOM     84  C   UNL A   1      50.032  28.266  29.234  1.00  0.00     0.020 A 
ATOM     85  C   UNL A   1      49.829  28.918  26.903  1.00  0.00     0.020 A 
ATOM     86  C   UNL A   1      50.591  28.418  27.962  1.00  0.00     0.054 A 
BRANCH  86  87
ATOM     87  S   UNL A   1      52.321  27.937  27.700  1.00  0.00     0.124 S 
ATOM     88  O   UNL A   1      52.568  27.063  28.842  1.00  0.00    -0.237 OA
ATOM     89  O   UNL A   1      52.273  27.278  26.396  1.00  0.00    -0.237 OA
ATOM     90  O   UNL A   1      53.036  29.211  27.719  1.00  0.00    -0.744 OA
ENDBRANCH  86  87
ENDBRANCH  58  81
BRANCH  70  91
ATOM     91  C   UNL A   1      41.693  26.092  27.921  1.00  0.00    -0.014 A 
ATOM     92  C   UNL A   1      41.125  25.898  26.650  1.00  0.00     0.010 A 
ATOM     93  C   UNL A   1      41.921  24.977  28.749  1.00  0.00     0.010 A 
ATOM     94  C   UNL A   1      40.763  24.616  26.228  1.00  0.00     0.020 A 
ATOM     95  C   UNL A   1      41.590  23.691  28.318  1.00  0.00     0.020 A 
ATOM     96  C   UNL A   1      40.999  23.520  27.065  1.00  0.00     0.054 A 
BRANCH  96  97
ATOM     97  S   UNL A   1      40.563  21.862  26.475  1.00  0.00     0.124 S 
ATOM     98  O   UNL A   1      40.576  21.086  27.712  1.00  0.00    -0.237 OA
ATOM     99  O   UNL A   1      39.246  22.070  25.878  1.00  0.00    -0.237 OA
ATOM    100  O   UNL A   1      41.626  21.541  25.526  1.00  0.00    -0.744 OA
ENDBRANCH  96  97
ENDBRANCH  70  91
ENDBRANCH  44  45
ENDBRANCH  36  39
ENDBRANCH  34  35
ENDBRANCH  33  34
ENDBRANCH  32  33
ENDBRANCH  31  32
ENDBRANCH  29  31
ENDBRANCH   1  27
TORSDOF 23
ENDMDL
MODEL 3
REMARK VINA RESULT:      -9.8      4.416      7.800
REMARK SMILES CCCCCCNC(=O)Oc1cccc(-c2ccc([C@@H](C)C(=O)NCCCCNC(=O)c3ccc(-c4c5nc(c(-c6ccc(S(=O)(=O)[O-])cc6)c6ccc([nH]6)c(-c6ccc(S(=O)(=O)[O-])cc6)c6nc(c(-c7ccc(S(=O)(=O)[O-])cc7)c7ccc4[nH]7)C=C6)C=C5)cc3)cc2C)c1
REMARK SMILES IDX 20 1 21 2 19 3 16 4 17 5 93 6 18 7 92 8 94 9 15 10 11 11
REMARK SMILES IDX 12 12 95 13 13 14 14 15 10 16 8 17 7 18 9 20 6 21 5 22 4 23
REMARK SMILES IDX 3 24 2 25 1 26 22 27 23 28 24 29 25 31 26 32 27 33 28 34
REMARK SMILES IDX 29 35 30 36 31 38 32 39 33 40 91 41 34 42 90 43 35 44 36 45
REMARK SMILES IDX 37 46 84 47 38 48 89 49 83 50 85 51 39 52 88 53 82 54 81 55
REMARK SMILES IDX 40 57 70 58 51 59 69 60 52 61 55 62 68 63 86 64 53 65 54 66
REMARK SMILES IDX 67 68 87 69 56 70 41 71 42 72 50 73 43 74 49 75 44 76 45 77
REMARK SMILES IDX 46 78 47 79 48 80 71 81 72 82 80 83 73 84 79 85 74 86 75 87
REMARK SMILES IDX 76 88 77 89 78 90 57 91 58 92 66 93 59 94 65 95 60 96 61 97
REMARK SMILES IDX 62 98 63 99 64 100
REMARK H PARENT 7 19 24 30 29 37 85 56 55 67
REMARK Flexibility Score: inf
ROOT
ATOM      1  C   UNL A   1      45.908  31.122  28.075  1.00  0.00     0.105 C 
ATOM      2  C   UNL A   1      46.717  29.958  28.645  1.00  0.00     0.023 C 
ENDROOT
BRANCH   1   3
ATOM      3  C   UNL A   1      44.562  31.374  28.737  1.00  0.00    -0.036 A 
ATOM      4  C   UNL A   1      42.062  32.150  29.892  1.00  0.00    -0.015 A 
ATOM      5  C   UNL A   1      42.138  31.398  28.705  1.00  0.00     0.009 A 
ATOM      6  C   UNL A   1      43.273  32.402  30.570  1.00  0.00    -0.043 A 
ATOM      7  C   UNL A   1      43.355  30.969  28.174  1.00  0.00     0.005 A 
ATOM      8  C   UNL A   1      44.502  32.066  29.954  1.00  0.00     0.008 A 
ATOM      9  C   UNL A   1      43.354  32.988  31.955  1.00  0.00     0.045 C 
BRANCH   4  10
ATOM     10  C   UNL A   1      40.736  32.643  30.333  1.00  0.00    -0.014 A 
ATOM     11  C   UNL A   1      38.508  32.250  31.230  1.00  0.00     0.133 A 
ATOM     12  C   UNL A   1      38.233  33.614  31.235  1.00  0.00     0.047 A 
ATOM     13  C   UNL A   1      39.745  31.763  30.801  1.00  0.00     0.056 A 
ATOM     14  C   UNL A   1      39.213  34.505  30.810  1.00  0.00     0.004 A 
ATOM     15  C   UNL A   1      40.443  34.021  30.352  1.00  0.00     0.009 A 
BRANCH  11  16
ATOM     16  O   UNL A   1      37.439  31.390  31.530  1.00  0.00    -0.410 OA
BRANCH  16  17
ATOM     17  C   UNL A   1      36.265  31.488  30.798  1.00  0.00     0.412 C 
ATOM     18  N   UNL A   1      36.160  30.525  29.832  1.00  0.00    -0.321 N 
ATOM     19  H   UNL A   1      35.360  30.562  29.259  1.00  0.00     0.167 HD
ATOM     20  O   UNL A   1      35.389  32.327  30.955  1.00  0.00    -0.224 OA
BRANCH  18  21
ATOM     21  C   UNL A   1      37.102  29.456  29.565  1.00  0.00     0.119 C 
BRANCH  21  22
ATOM     22  C   UNL A   1      38.017  29.782  28.384  1.00  0.00     0.021 C 
BRANCH  22  23
ATOM     23  C   UNL A   1      39.391  29.103  28.430  1.00  0.00     0.002 C 
BRANCH  23  24
ATOM     24  C   UNL A   1      39.450  27.693  27.831  1.00  0.00    -0.000 C 
BRANCH  24  25
ATOM     25  C   UNL A   1      39.761  26.570  28.823  1.00  0.00    -0.003 C 
ATOM     26  C   UNL A   1      39.540  25.180  28.248  1.00  0.00     0.004 C 
ENDBRANCH  24  25
ENDBRANCH  23  24
ENDBRANCH  22  23
ENDBRANCH  21  22
ENDBRANCH  18  21
ENDBRANCH  16  17
ENDBRANCH  11  16
ENDBRANCH   4  10
ENDBRANCH   1   3
BRANCH   1  27
ATOM     27  C   UNL A   1      45.872  31.166  26.537  1.00  0.00     0.227 C 
ATOM     28  O   UNL A   1      45.655  32.239  25.962  1.00  0.00    -0.274 OA
ATOM     29  N   UNL A   1      46.096  30.086  25.737  1.00  0.00    -0.356 N 
ATOM     30  H   UNL A   1      46.116  30.297  24.775  1.00  0.00     0.163 HD
BRANCH  29  31
ATOM     31  C   UNL A   1      46.310  28.687  26.042  1.00  0.00     0.116 C 
BRANCH  31  32
ATOM     32  C   UNL A   1      45.882  27.777  24.890  1.00  0.00     0.023 C 
BRANCH  32  33
ATOM     33  C   UNL A   1      46.508  26.385  24.900  1.00  0.00     0.023 C 
BRANCH  33  34
ATOM     34  C   UNL A   1      45.609  25.276  25.431  1.00  0.00     0.116 C 
BRANCH  34  35
ATOM     35  N   UNL A   1      44.266  25.279  24.868  1.00  0.00    -0.352 N 
ATOM     36  C   UNL A   1      43.083  25.586  25.505  1.00  0.00     0.251 C 
ATOM     37  H   UNL A   1      44.193  25.032  23.918  1.00  0.00     0.163 HD
ATOM     38  O   UNL A   1      42.010  25.467  24.924  1.00  0.00    -0.269 OA
BRANCH  36  39
ATOM     39  C   UNL A   1      43.132  26.011  26.920  1.00  0.00     0.039 A 
ATOM     40  C   UNL A   1      43.110  25.038  27.921  1.00  0.00     0.014 A 
ATOM     41  C   UNL A   1      43.289  27.361  27.243  1.00  0.00     0.014 A 
ATOM     42  C   UNL A   1      43.329  25.416  29.248  1.00  0.00     0.010 A 
ATOM     43  C   UNL A   1      43.591  27.722  28.551  1.00  0.00     0.010 A 
ATOM     44  C   UNL A   1      43.617  26.753  29.567  1.00  0.00    -0.014 A 
BRANCH  44  45
ATOM     45  C   UNL A   1      43.952  27.163  30.956  1.00  0.00     0.031 A 
ATOM     46  C   UNL A   1      45.141  26.555  31.651  1.00  0.00     0.074 A 
ATOM     47  C   UNL A   1      43.143  28.018  31.616  1.00  0.00     0.049 A 
ATOM     48  N   UNL A   1      45.551  26.725  32.881  1.00  0.00    -0.248 NA
ATOM     49  C   UNL A   1      45.959  25.607  30.874  1.00  0.00     0.031 C 
ATOM     50  C   UNL A   1      41.926  28.630  31.073  1.00  0.00     0.029 A 
ATOM     51  N   UNL A   1      43.215  28.514  32.895  1.00  0.00    -0.354 N 
ATOM     52  C   UNL A   1      46.652  25.891  33.032  1.00  0.00     0.074 A 
ATOM     53  C   UNL A   1      46.823  25.181  31.785  1.00  0.00     0.031 C 
ATOM     54  C   UNL A   1      41.382  29.432  32.003  1.00  0.00     0.029 A 
ATOM     55  C   UNL A   1      42.184  29.364  33.220  1.00  0.00     0.049 A 
ATOM     56  H   UNL A   1      43.940  28.283  33.520  1.00  0.00     0.167 HD
ATOM     57  C   UNL A   1      47.461  25.743  34.107  1.00  0.00     0.031 A 
ATOM     58  C   UNL A   1      41.907  30.007  34.371  1.00  0.00     0.031 A 
ATOM     59  C   UNL A   1      47.311  26.480  35.332  1.00  0.00     0.049 A 
ATOM     60  C   UNL A   1      42.839  29.841  35.544  1.00  0.00     0.074 A 
ATOM     61  C   UNL A   1      48.133  26.465  36.447  1.00  0.00     0.029 A 
ATOM     62  N   UNL A   1      46.278  27.361  35.607  1.00  0.00    -0.354 N 
ATOM     63  N   UNL A   1      43.930  29.117  35.632  1.00  0.00    -0.248 NA
ATOM     64  C   UNL A   1      42.511  30.588  36.765  1.00  0.00     0.031 C 
ATOM     65  C   UNL A   1      47.567  27.297  37.416  1.00  0.00     0.029 A 
ATOM     66  C   UNL A   1      46.426  27.876  36.883  1.00  0.00     0.049 A 
ATOM     67  H   UNL A   1      45.548  27.588  34.987  1.00  0.00     0.167 HD
ATOM     68  C   UNL A   1      44.434  29.349  36.908  1.00  0.00     0.074 A 
ATOM     69  C   UNL A   1      43.540  30.291  37.547  1.00  0.00     0.031 C 
ATOM     70  C   UNL A   1      45.536  28.825  37.499  1.00  0.00     0.031 A 
BRANCH  57  71
ATOM     71  C   UNL A   1      48.591  24.754  34.013  1.00  0.00    -0.014 A 
ATOM     72  C   UNL A   1      48.446  23.437  34.484  1.00  0.00     0.010 A 
ATOM     73  C   UNL A   1      49.784  25.121  33.363  1.00  0.00     0.010 A 
ATOM     74  C   UNL A   1      49.477  22.510  34.321  1.00  0.00     0.020 A 
ATOM     75  C   UNL A   1      50.808  24.190  33.174  1.00  0.00     0.020 A 
ATOM     76  C   UNL A   1      50.650  22.891  33.661  1.00  0.00     0.054 A 
BRANCH  76  77
ATOM     77  S   UNL A   1      51.943  21.645  33.400  1.00  0.00     0.124 S 
ATOM     78  O   UNL A   1      53.124  22.323  33.927  1.00  0.00    -0.237 OA
ATOM     79  O   UNL A   1      51.461  20.516  34.193  1.00  0.00    -0.237 OA
ATOM     80  O   UNL A   1      51.937  21.435  31.954  1.00  0.00    -0.744 OA
ENDBRANCH  76  77
ENDBRANCH  57  71
BRANCH  58  81
ATOM     81  C   UNL A   1      40.693  30.866  34.486  1.00  0.00    -0.014 A 
ATOM     82  C   UNL A   1      40.790  32.265  34.377  1.00  0.00     0.010 A 
ATOM     83  C   UNL A   1      39.437  30.288  34.742  1.00  0.00     0.010 A 
ATOM     84  C   UNL A   1      39.663  33.071  34.566  1.00  0.00     0.020 A 
ATOM     85  C   UNL A   1      38.301  31.087  34.898  1.00  0.00     0.020 A 
ATOM     86  C   UNL A   1      38.425  32.477  34.831  1.00  0.00     0.054 A 
BRANCH  86  87
ATOM     87  S   UNL A   1      36.974  33.539  35.070  1.00  0.00     0.124 S 
ATOM     88  O   UNL A   1      36.801  33.495  36.518  1.00  0.00    -0.237 OA
ATOM     89  O   UNL A   1      37.424  34.818  34.524  1.00  0.00    -0.237 OA
ATOM     90  O   UNL A   1      35.931  32.872  34.293  1.00  0.00    -0.744 OA
ENDBRANCH  86  87
ENDBRANCH  58  81
BRANCH  70  91
ATOM     91  C   UNL A   1      45.869  29.292  38.890  1.00  0.00    -0.014 A 
ATOM     92  C   UNL A   1      45.529  28.526  40.019  1.00  0.00     0.010 A 
ATOM     93  C   UNL A   1      46.589  30.489  39.063  1.00  0.00     0.010 A 
ATOM     94  C   UNL A   1      45.878  28.966  41.299  1.00  0.00     0.020 A 
ATOM     95  C   UNL A   1      46.965  30.916  40.338  1.00  0.00     0.020 A 
ATOM     96  C   UNL A   1      46.594  30.158  41.450  1.00  0.00     0.054 A 
BRANCH  96  97
ATOM     97  S   UNL A   1      47.073  30.683  43.118  1.00  0.00     0.124 S 
ATOM     98  O   UNL A   1      47.726  31.963  42.858  1.00  0.00    -0.237 OA
ATOM     99  O   UNL A   1      45.789  30.762  43.811  1.00  0.00    -0.237 OA
ATOM    100  O   UNL A   1      47.957  29.614  43.577  1.00  0.00    -0.744 OA
ENDBRANCH  96  97
ENDBRANCH  70  91
ENDBRANCH  44  45
ENDBRANCH  36  39
ENDBRANCH  34  35
ENDBRANCH  33  34
ENDBRANCH  32  33
ENDBRANCH  31  32
ENDBRANCH  29  31
ENDBRANCH   1  27
TORSDOF 23
ENDMDL
