MODEL 1
REMARK VINA RESULT:      -9.9      0.000      0.000
REMARK SMILES O=C(CCCc1nc2cc(Cl)ccc2[nH]1)NCCCCNC(=O)c1ccc(-c2c3nc(c(-c4ccc(S(=O)(=O)[O-])cc4)c4ccc([nH]4)c(-c4ccc(S(=O)(=O)[O-])cc4)c4nc(c(-c5ccc(S(=O)(=O)[O-])cc5)c5ccc2[nH]5)C=C4)C=C3)cc1
REMARK SMILES IDX 18 1 17 2 16 3 1 4 2 5 3 7 4 8 5 9 6 10 7 11 15 12 8 13
REMARK SMILES IDX 14 14 9 16 13 17 10 18 12 19 11 20 19 21 20 22 21 23 22 24
REMARK SMILES IDX 23 26 24 27 25 28 83 29 26 30 82 31 27 32 28 33 29 34 76 35
REMARK SMILES IDX 30 36 81 37 75 38 77 39 31 40 80 41 74 42 73 43 32 45 62 46
REMARK SMILES IDX 43 47 61 48 44 49 47 50 60 51 78 52 45 53 46 54 59 56 79 57
REMARK SMILES IDX 48 58 33 59 34 60 42 61 35 62 41 63 36 64 37 65 38 66 39 67
REMARK SMILES IDX 40 68 63 69 64 70 72 71 65 72 71 73 66 74 67 75 68 76 69 77
REMARK SMILES IDX 70 78 49 79 50 80 58 81 51 82 57 83 52 84 53 85 54 86 55 87
REMARK SMILES IDX 56 88
REMARK H PARENT 16 6 15 15 21 25 77 44 47 55
REMARK Flexibility Score: inf
ROOT
ATOM      1  C   UNL A   1      33.600  34.699  28.388  1.00  0.00     0.023 C 
ENDROOT
BRANCH   1   2
ATOM      2  C   UNL A   1      33.382  35.995  29.165  1.00  0.00     0.116 C 
BRANCH   2   3
ATOM      3  N   UNL A   1      33.934  35.923  30.501  1.00  0.00    -0.356 N 
ATOM      4  O   UNL A   1      32.158  36.940  31.549  1.00  0.00    -0.275 OA
ATOM      5  C   UNL A   1      33.261  36.406  31.597  1.00  0.00     0.220 C 
ATOM      6  H   UNL A   1      34.820  35.514  30.628  1.00  0.00     0.163 HD
BRANCH   5   7
ATOM      7  C   UNL A   1      34.018  36.258  32.897  1.00  0.00     0.100 C 
BRANCH   7   8
ATOM      8  C   UNL A   1      35.184  35.268  32.827  1.00  0.00     0.018 C 
BRANCH   8   9
ATOM      9  C   UNL A   1      35.456  34.427  34.077  1.00  0.00     0.076 C 
BRANCH   9  10
ATOM     10  C   UNL A   1      36.500  33.365  33.944  1.00  0.00     0.107 A 
ATOM     11  N   UNL A   1      36.313  32.184  33.389  1.00  0.00    -0.233 NA
ATOM     12  N   UNL A   1      37.791  33.478  34.402  1.00  0.00    -0.342 N 
ATOM     13  C   UNL A   1      37.517  31.525  33.477  1.00  0.00     0.090 A 
ATOM     14  C   UNL A   1      38.482  32.349  34.044  1.00  0.00     0.066 A 
ATOM     15  H   UNL A   1      38.158  34.241  34.904  1.00  0.00     0.168 HD
ATOM     16  C   UNL A   1      37.868  30.226  33.084  1.00  0.00     0.051 A 
ATOM     17  C   UNL A   1      39.822  31.989  34.183  1.00  0.00     0.030 A 
ATOM     18  C   UNL A   1      39.200  29.832  33.240  1.00  0.00     0.043 A 
ATOM     19  C   UNL A   1      40.165  30.700  33.759  1.00  0.00     0.023 A 
ATOM     20  Cl  UNL A   1      39.666  28.239  32.781  1.00  0.00    -0.084 Cl
ENDBRANCH   9  10
ENDBRANCH   8   9
ENDBRANCH   7   8
ENDBRANCH   5   7
ENDBRANCH   2   3
ENDBRANCH   1   2
BRANCH   1  21
ATOM     21  C   UNL A   1      34.952  34.019  28.625  1.00  0.00     0.023 C 
BRANCH  21  22
ATOM     22  C   UNL A   1      34.892  32.682  29.358  1.00  0.00     0.116 C 
BRANCH  22  23
ATOM     23  N   UNL A   1      34.134  31.679  28.622  1.00  0.00    -0.352 N 
ATOM     24  C   UNL A   1      34.558  30.496  28.066  1.00  0.00     0.251 C 
ATOM     25  H   UNL A   1      33.178  31.877  28.508  1.00  0.00     0.163 HD
ATOM     26  O   UNL A   1      33.797  29.865  27.333  1.00  0.00    -0.269 OA
BRANCH  24  27
ATOM     27  C   UNL A   1      35.925  29.992  28.321  1.00  0.00     0.039 A 
ATOM     28  C   UNL A   1      36.888  30.109  27.314  1.00  0.00     0.014 A 
ATOM     29  C   UNL A   1      36.261  29.398  29.541  1.00  0.00     0.014 A 
ATOM     30  C   UNL A   1      38.200  29.695  27.556  1.00  0.00     0.010 A 
ATOM     31  C   UNL A   1      37.587  29.058  29.807  1.00  0.00     0.010 A 
ATOM     32  C   UNL A   1      38.572  29.202  28.817  1.00  0.00    -0.014 A 
BRANCH  32  33
ATOM     33  C   UNL A   1      39.984  28.851  29.126  1.00  0.00     0.031 A 
ATOM     34  C   UNL A   1      40.902  29.864  29.755  1.00  0.00     0.074 A 
ATOM     35  C   UNL A   1      40.459  27.636  28.782  1.00  0.00     0.049 A 
ATOM     36  N   UNL A   1      42.173  29.754  30.052  1.00  0.00    -0.248 NA
ATOM     37  C   UNL A   1      40.325  31.180  30.075  1.00  0.00     0.031 C 
ATOM     38  C   UNL A   1      39.684  26.575  28.133  1.00  0.00     0.029 A 
ATOM     39  N   UNL A   1      41.711  27.089  28.923  1.00  0.00    -0.354 N 
ATOM     40  C   UNL A   1      42.550  30.987  30.573  1.00  0.00     0.074 A 
ATOM     41  C   UNL A   1      41.387  31.845  30.511  1.00  0.00     0.031 C 
ATOM     42  C   UNL A   1      40.467  25.498  27.962  1.00  0.00     0.029 A 
ATOM     43  C   UNL A   1      41.810  25.804  28.442  1.00  0.00     0.049 A 
ATOM     44  H   UNL A   1      42.467  27.571  29.331  1.00  0.00     0.167 HD
ATOM     45  C   UNL A   1      43.751  31.367  31.073  1.00  0.00     0.031 A 
ATOM     46  C   UNL A   1      42.864  24.966  28.383  1.00  0.00     0.031 A 
ATOM     47  C   UNL A   1      44.906  30.510  31.138  1.00  0.00     0.049 A 
ATOM     48  C   UNL A   1      44.194  25.421  28.923  1.00  0.00     0.074 A 
ATOM     49  C   UNL A   1      46.150  30.785  31.680  1.00  0.00     0.029 A 
ATOM     50  N   UNL A   1      44.966  29.218  30.637  1.00  0.00    -0.354 N 
ATOM     51  N   UNL A   1      44.510  26.566  29.480  1.00  0.00    -0.248 NA
ATOM     52  C   UNL A   1      45.307  24.464  28.836  1.00  0.00     0.031 C 
ATOM     53  C   UNL A   1      46.980  29.684  31.449  1.00  0.00     0.029 A 
ATOM     54  C   UNL A   1      46.234  28.695  30.829  1.00  0.00     0.049 A 
ATOM     55  H   UNL A   1      44.217  28.743  30.210  1.00  0.00     0.167 HD
ATOM     56  C   UNL A   1      45.850  26.455  29.839  1.00  0.00     0.074 A 
ATOM     57  C   UNL A   1      46.278  25.127  29.450  1.00  0.00     0.031 C 
ATOM     58  C   UNL A   1      46.650  27.371  30.438  1.00  0.00     0.031 A 
BRANCH  45  59
ATOM     59  C   UNL A   1      43.884  32.782  31.579  1.00  0.00    -0.014 A 
ATOM     60  C   UNL A   1      43.487  33.133  32.882  1.00  0.00     0.010 A 
ATOM     61  C   UNL A   1      44.460  33.766  30.753  1.00  0.00     0.010 A 
ATOM     62  C   UNL A   1      43.623  34.448  33.334  1.00  0.00     0.020 A 
ATOM     63  C   UNL A   1      44.628  35.075  31.214  1.00  0.00     0.020 A 
ATOM     64  C   UNL A   1      44.193  35.412  32.497  1.00  0.00     0.054 A 
BRANCH  64  65
ATOM     65  S   UNL A   1      44.380  37.105  33.121  1.00  0.00     0.124 S 
ATOM     66  O   UNL A   1      44.348  37.886  31.885  1.00  0.00    -0.237 OA
ATOM     67  O   UNL A   1      43.215  37.255  33.988  1.00  0.00    -0.237 OA
ATOM     68  O   UNL A   1      45.668  37.083  33.808  1.00  0.00    -0.744 OA
ENDBRANCH  64  65
ENDBRANCH  45  59
BRANCH  46  69
ATOM     69  C   UNL A   1      42.703  23.602  27.804  1.00  0.00    -0.014 A 
ATOM     70  C   UNL A   1      42.101  22.576  28.555  1.00  0.00     0.010 A 
ATOM     71  C   UNL A   1      43.142  23.322  26.497  1.00  0.00     0.010 A 
ATOM     72  C   UNL A   1      41.962  21.292  28.018  1.00  0.00     0.020 A 
ATOM     73  C   UNL A   1      42.976  22.048  25.946  1.00  0.00     0.020 A 
ATOM     74  C   UNL A   1      42.398  21.037  26.715  1.00  0.00     0.054 A 
BRANCH  74  75
ATOM     75  S   UNL A   1      42.167  19.374  26.028  1.00  0.00     0.124 S 
ATOM     76  O   UNL A   1      42.982  19.427  24.819  1.00  0.00    -0.237 OA
ATOM     77  O   UNL A   1      42.674  18.519  27.097  1.00  0.00    -0.237 OA
ATOM     78  O   UNL A   1      40.725  19.292  25.806  1.00  0.00    -0.744 OA
ENDBRANCH  74  75
ENDBRANCH  46  69
BRANCH  58  79
ATOM     79  C   UNL A   1      48.067  26.960  30.750  1.00  0.00    -0.014 A 
ATOM     80  C   UNL A   1      49.123  27.227  29.862  1.00  0.00     0.010 A 
ATOM     81  C   UNL A   1      48.351  26.343  31.984  1.00  0.00     0.010 A 
ATOM     82  C   UNL A   1      50.432  26.856  30.186  1.00  0.00     0.020 A 
ATOM     83  C   UNL A   1      49.662  26.001  32.326  1.00  0.00     0.020 A 
ATOM     84  C   UNL A   1      50.693  26.247  31.418  1.00  0.00     0.054 A 
BRANCH  84  85
ATOM     85  S   UNL A   1      52.406  25.818  31.833  1.00  0.00     0.124 S 
ATOM     86  O   UNL A   1      52.268  24.446  32.315  1.00  0.00    -0.237 OA
ATOM     87  O   UNL A   1      53.092  25.969  30.553  1.00  0.00    -0.237 OA
ATOM     88  O   UNL A   1      52.772  26.802  32.851  1.00  0.00    -0.744 OA
ENDBRANCH  84  85
ENDBRANCH  58  79
ENDBRANCH  32  33
ENDBRANCH  24  27
ENDBRANCH  22  23
ENDBRANCH  21  22
ENDBRANCH   1  21
TORSDOF 17
ENDMDL
MODEL 2
REMARK VINA RESULT:      -9.5      4.251     12.507
REMARK SMILES O=C(CCCc1nc2cc(Cl)ccc2[nH]1)NCCCCNC(=O)c1ccc(-c2c3nc(c(-c4ccc(S(=O)(=O)[O-])cc4)c4ccc([nH]4)c(-c4ccc(S(=O)(=O)[O-])cc4)c4nc(c(-c5ccc(S(=O)(=O)[O-])cc5)c5ccc2[nH]5)C=C4)C=C3)cc1
REMARK SMILES IDX 18 1 17 2 16 3 1 4 2 5 3 7 4 8 5 9 6 10 7 11 15 12 8 13
REMARK SMILES IDX 14 14 9 16 13 17 10 18 12 19 11 20 19 21 20 22 21 23 22 24
REMARK SMILES IDX 23 26 24 27 25 28 83 29 26 30 82 31 27 32 28 33 29 34 76 35
REMARK SMILES IDX 30 36 81 37 75 38 77 39 31 40 80 41 74 42 73 43 32 45 62 46
REMARK SMILES IDX 43 47 61 48 44 49 47 50 60 51 78 52 45 53 46 54 59 56 79 57
REMARK SMILES IDX 48 58 33 59 34 60 42 61 35 62 41 63 36 64 37 65 38 66 39 67
REMARK SMILES IDX 40 68 63 69 64 70 72 71 65 72 71 73 66 74 67 75 68 76 69 77
REMARK SMILES IDX 70 78 49 79 50 80 58 81 51 82 57 83 52 84 53 85 54 86 55 87
REMARK SMILES IDX 56 88
REMARK H PARENT 16 6 15 15 21 25 77 44 47 55
REMARK Flexibility Score: inf
ROOT
ATOM      1  C   UNL A   1      40.893  20.635  27.369  1.00  0.00     0.023 C 
ENDROOT
BRANCH   1   2
ATOM      2  C   UNL A   1      41.859  19.510  27.009  1.00  0.00     0.116 C 
BRANCH   2   3
ATOM      3  N   UNL A   1      42.893  19.955  26.099  1.00  0.00    -0.356 N 
ATOM      4  O   UNL A   1      43.743  17.865  25.659  1.00  0.00    -0.275 OA
ATOM      5  C   UNL A   1      43.757  19.079  25.489  1.00  0.00     0.220 C 
ATOM      6  H   UNL A   1      42.979  20.918  25.911  1.00  0.00     0.163 HD
BRANCH   5   7
ATOM      7  C   UNL A   1      44.779  19.745  24.596  1.00  0.00     0.100 C 
BRANCH   7   8
ATOM      8  C   UNL A   1      44.719  21.275  24.617  1.00  0.00     0.018 C 
BRANCH   8   9
ATOM      9  C   UNL A   1      45.986  22.013  25.055  1.00  0.00     0.076 C 
BRANCH   9  10
ATOM     10  C   UNL A   1      45.877  22.832  26.302  1.00  0.00     0.107 A 
ATOM     11  N   UNL A   1      46.709  23.793  26.653  1.00  0.00    -0.233 NA
ATOM     12  N   UNL A   1      44.900  22.674  27.255  1.00  0.00    -0.342 N 
ATOM     13  C   UNL A   1      46.248  24.277  27.855  1.00  0.00     0.090 A 
ATOM     14  C   UNL A   1      45.067  23.639  28.215  1.00  0.00     0.066 A 
ATOM     15  H   UNL A   1      44.198  21.985  27.250  1.00  0.00     0.168 HD
ATOM     16  C   UNL A   1      46.776  25.270  28.691  1.00  0.00     0.051 A 
ATOM     17  C   UNL A   1      44.318  23.978  29.341  1.00  0.00     0.030 A 
ATOM     18  C   UNL A   1      46.056  25.608  29.841  1.00  0.00     0.043 A 
ATOM     19  C   UNL A   1      44.840  24.992  30.152  1.00  0.00     0.023 A 
ATOM     20  Cl  UNL A   1      46.680  26.814  30.901  1.00  0.00    -0.084 Cl
ENDBRANCH   9  10
ENDBRANCH   8   9
ENDBRANCH   7   8
ENDBRANCH   5   7
ENDBRANCH   2   3
ENDBRANCH   1   2
BRANCH   1  21
ATOM     21  C   UNL A   1      40.867  21.808  26.384  1.00  0.00     0.023 C 
BRANCH  21  22
ATOM     22  C   UNL A   1      41.374  23.137  26.936  1.00  0.00     0.116 C 
BRANCH  22  23
ATOM     23  N   UNL A   1      41.914  24.002  25.896  1.00  0.00    -0.352 N 
ATOM     24  C   UNL A   1      42.116  25.360  25.905  1.00  0.00     0.251 C 
ATOM     25  H   UNL A   1      42.172  23.545  25.064  1.00  0.00     0.163 HD
ATOM     26  O   UNL A   1      42.424  25.935  24.861  1.00  0.00    -0.269 OA
BRANCH  24  27
ATOM     27  C   UNL A   1      41.944  26.138  27.152  1.00  0.00     0.039 A 
ATOM     28  C   UNL A   1      42.957  27.018  27.545  1.00  0.00     0.014 A 
ATOM     29  C   UNL A   1      40.796  26.000  27.938  1.00  0.00     0.014 A 
ATOM     30  C   UNL A   1      42.788  27.807  28.686  1.00  0.00     0.010 A 
ATOM     31  C   UNL A   1      40.597  26.842  29.031  1.00  0.00     0.010 A 
ATOM     32  C   UNL A   1      41.590  27.756  29.418  1.00  0.00    -0.014 A 
BRANCH  32  33
ATOM     33  C   UNL A   1      41.351  28.659  30.575  1.00  0.00     0.031 A 
ATOM     34  C   UNL A   1      42.194  28.548  31.817  1.00  0.00     0.074 A 
ATOM     35  C   UNL A   1      40.331  29.542  30.532  1.00  0.00     0.049 A 
ATOM     36  N   UNL A   1      42.101  29.216  32.940  1.00  0.00    -0.248 NA
ATOM     37  C   UNL A   1      43.268  27.542  31.807  1.00  0.00     0.031 C 
ATOM     38  C   UNL A   1      39.417  29.725  29.401  1.00  0.00     0.029 A 
ATOM     39  N   UNL A   1      39.888  30.448  31.464  1.00  0.00    -0.354 N 
ATOM     40  C   UNL A   1      43.088  28.700  33.772  1.00  0.00     0.074 A 
ATOM     41  C   UNL A   1      43.738  27.633  33.044  1.00  0.00     0.031 C 
ATOM     42  C   UNL A   1      38.544  30.702  29.695  1.00  0.00     0.029 A 
ATOM     43  C   UNL A   1      38.802  31.183  31.048  1.00  0.00     0.049 A 
ATOM     44  H   UNL A   1      40.308  30.561  32.347  1.00  0.00     0.167 HD
ATOM     45  C   UNL A   1      43.433  29.088  35.024  1.00  0.00     0.031 A 
ATOM     46  C   UNL A   1      38.086  32.131  31.684  1.00  0.00     0.031 A 
ATOM     47  C   UNL A   1      42.786  30.154  35.746  1.00  0.00     0.049 A 
ATOM     48  C   UNL A   1      38.474  32.528  33.084  1.00  0.00     0.074 A 
ATOM     49  C   UNL A   1      43.102  30.660  36.995  1.00  0.00     0.029 A 
ATOM     50  N   UNL A   1      41.689  30.870  35.290  1.00  0.00    -0.354 N 
ATOM     51  N   UNL A   1      39.458  32.078  33.826  1.00  0.00    -0.248 NA
ATOM     52  C   UNL A   1      37.660  33.569  33.727  1.00  0.00     0.031 C 
ATOM     53  C   UNL A   1      42.157  31.637  37.322  1.00  0.00     0.029 A 
ATOM     54  C   UNL A   1      41.296  31.792  36.247  1.00  0.00     0.049 A 
ATOM     55  H   UNL A   1      41.255  30.743  34.416  1.00  0.00     0.167 HD
ATOM     56  C   UNL A   1      39.401  32.804  35.011  1.00  0.00     0.074 A 
ATOM     57  C   UNL A   1      38.296  33.732  34.880  1.00  0.00     0.031 C 
ATOM     58  C   UNL A   1      40.194  32.711  36.107  1.00  0.00     0.031 A 
BRANCH  45  59
ATOM     59  C   UNL A   1      44.555  28.345  35.705  1.00  0.00    -0.014 A 
ATOM     60  C   UNL A   1      44.318  27.152  36.412  1.00  0.00     0.010 A 
ATOM     61  C   UNL A   1      45.874  28.822  35.595  1.00  0.00     0.010 A 
ATOM     62  C   UNL A   1      45.371  26.475  37.032  1.00  0.00     0.020 A 
ATOM     63  C   UNL A   1      46.935  28.129  36.186  1.00  0.00     0.020 A 
ATOM     64  C   UNL A   1      46.674  26.968  36.915  1.00  0.00     0.054 A 
BRANCH  64  65
ATOM     65  S   UNL A   1      48.024  26.053  37.709  1.00  0.00     0.124 S 
ATOM     66  O   UNL A   1      47.447  24.716  37.838  1.00  0.00    -0.237 OA
ATOM     67  O   UNL A   1      49.108  26.178  36.738  1.00  0.00    -0.237 OA
ATOM     68  O   UNL A   1      48.233  26.763  38.968  1.00  0.00    -0.744 OA
ENDBRANCH  64  65
ENDBRANCH  45  59
BRANCH  46  69
ATOM     69  C   UNL A   1      36.936  32.784  30.998  1.00  0.00    -0.014 A 
ATOM     70  C   UNL A   1      35.623  32.327  31.213  1.00  0.00     0.010 A 
ATOM     71  C   UNL A   1      37.144  33.873  30.131  1.00  0.00     0.010 A 
ATOM     72  C   UNL A   1      34.545  32.930  30.558  1.00  0.00     0.020 A 
ATOM     73  C   UNL A   1      36.066  34.499  29.498  1.00  0.00     0.020 A 
ATOM     74  C   UNL A   1      34.773  34.015  29.706  1.00  0.00     0.054 A 
BRANCH  74  75
ATOM     75  S   UNL A   1      33.352  34.807  28.903  1.00  0.00     0.124 S 
ATOM     76  O   UNL A   1      32.486  35.105  30.039  1.00  0.00    -0.237 OA
ATOM     77  O   UNL A   1      33.963  35.963  28.253  1.00  0.00    -0.237 OA
ATOM     78  O   UNL A   1      32.856  33.779  27.991  1.00  0.00    -0.744 OA
ENDBRANCH  74  75
ENDBRANCH  46  69
BRANCH  58  79
ATOM     79  C   UNL A   1      39.926  33.664  37.244  1.00  0.00    -0.014 A 
ATOM     80  C   UNL A   1      40.275  35.024  37.161  1.00  0.00     0.010 A 
ATOM     81  C   UNL A   1      39.262  33.198  38.395  1.00  0.00     0.010 A 
ATOM     82  C   UNL A   1      39.994  35.892  38.220  1.00  0.00     0.020 A 
ATOM     83  C   UNL A   1      38.949  34.070  39.441  1.00  0.00     0.020 A 
ATOM     84  C   UNL A   1      39.331  35.409  39.354  1.00  0.00     0.054 A 
BRANCH  84  85
ATOM     85  S   UNL A   1      38.938  36.567  40.693  1.00  0.00     0.124 S 
ATOM     86  O   UNL A   1      40.223  36.691  41.375  1.00  0.00    -0.237 OA
ATOM     87  O   UNL A   1      38.493  37.755  39.969  1.00  0.00    -0.237 OA
ATOM     88  O   UNL A   1      37.894  35.878  41.451  1.00  0.00    -0.744 OA
ENDBRANCH  84  85
ENDBRANCH  58  79
ENDBRANCH  32  33
ENDBRANCH  24  27
ENDBRANCH  22  23
ENDBRANCH  21  22
ENDBRANCH   1  21
TORSDOF 17
ENDMDL
MODEL 3
REMARK VINA RESULT:      -9.3      3.001      3.629
REMARK SMILES O=C(CCCc1nc2cc(Cl)ccc2[nH]1)NCCCCNC(=O)c1ccc(-c2c3nc(c(-c4ccc(S(=O)(=O)[O-])cc4)c4ccc([nH]4)c(-c4ccc(S(=O)(=O)[O-])cc4)c4nc(c(-c5ccc(S(=O)(=O)[O-])cc5)c5ccc2[nH]5)C=C4)C=C3)cc1
REMARK SMILES IDX 18 1 17 2 16 3 1 4 2 5 3 7 4 8 5 9 6 10 7 11 15 12 8 13
REMARK SMILES IDX 14 14 9 16 13 17 10 18 12 19 11 20 19 21 20 22 21 23 22 24
REMARK SMILES IDX 23 26 24 27 25 28 83 29 26 30 82 31 27 32 28 33 29 34 76 35
REMARK SMILES IDX 30 36 81 37 75 38 77 39 31 40 80 41 74 42 73 43 32 45 62 46
REMARK SMILES IDX 43 47 61 48 44 49 47 50 60 51 78 52 45 53 46 54 59 56 79 57
REMARK SMILES IDX 48 58 33 59 34 60 42 61 35 62 41 63 36 64 37 65 38 66 39 67
REMARK SMILES IDX 40 68 63 69 64 70 72 71 65 72 71 73 66 74 67 75 68 76 69 77
REMARK SMILES IDX 70 78 49 79 50 80 58 81 51 82 57 83 52 84 53 85 54 86 55 87
REMARK SMILES IDX 56 88
REMARK H PARENT 16 6 15 15 21 25 77 44 47 55
REMARK Flexibility Score: inf
ROOT
ATOM      1  C   UNL A   1      33.843  34.033  28.641  1.00  0.00     0.023 C 
ENDROOT
BRANCH   1   2
ATOM      2  C   UNL A   1      33.621  35.542  28.608  1.00  0.00     0.116 C 
BRANCH   2   3
ATOM      3  N   UNL A   1      34.000  36.171  29.855  1.00  0.00    -0.356 N 
ATOM      4  O   UNL A   1      31.887  36.204  30.759  1.00  0.00    -0.275 OA
ATOM      5  C   UNL A   1      33.086  36.448  30.841  1.00  0.00     0.220 C 
ATOM      6  H   UNL A   1      34.944  36.407  30.001  1.00  0.00     0.163 HD
BRANCH   5   7
ATOM      7  C   UNL A   1      33.677  37.128  32.055  1.00  0.00     0.100 C 
BRANCH   7   8
ATOM      8  C   UNL A   1      33.996  36.172  33.208  1.00  0.00     0.018 C 
BRANCH   8   9
ATOM      9  C   UNL A   1      34.338  34.727  32.837  1.00  0.00     0.076 C 
BRANCH   9  10
ATOM     10  C   UNL A   1      35.794  34.393  32.758  1.00  0.00     0.107 A 
ATOM     11  N   UNL A   1      36.478  33.759  33.690  1.00  0.00    -0.233 NA
ATOM     12  N   UNL A   1      36.613  34.721  31.704  1.00  0.00    -0.342 N 
ATOM     13  C   UNL A   1      37.766  33.663  33.220  1.00  0.00     0.090 A 
ATOM     14  C   UNL A   1      37.857  34.194  31.939  1.00  0.00     0.066 A 
ATOM     15  H   UNL A   1      36.351  35.245  30.914  1.00  0.00     0.168 HD
ATOM     16  C   UNL A   1      38.911  33.124  33.822  1.00  0.00     0.051 A 
ATOM     17  C   UNL A   1      39.019  34.160  31.168  1.00  0.00     0.030 A 
ATOM     18  C   UNL A   1      40.095  33.103  33.080  1.00  0.00     0.043 A 
ATOM     19  C   UNL A   1      40.146  33.591  31.770  1.00  0.00     0.023 A 
ATOM     20  Cl  UNL A   1      41.525  32.460  33.792  1.00  0.00    -0.084 Cl
ENDBRANCH   9  10
ENDBRANCH   8   9
ENDBRANCH   7   8
ENDBRANCH   5   7
ENDBRANCH   2   3
ENDBRANCH   1   2
BRANCH   1  21
ATOM     21  C   UNL A   1      35.265  33.593  29.005  1.00  0.00     0.023 C 
BRANCH  21  22
ATOM     22  C   UNL A   1      35.483  32.085  29.084  1.00  0.00     0.116 C 
BRANCH  22  23
ATOM     23  N   UNL A   1      35.372  31.578  30.445  1.00  0.00    -0.352 N 
ATOM     24  C   UNL A   1      36.261  30.826  31.174  1.00  0.00     0.251 C 
ATOM     25  H   UNL A   1      34.537  31.808  30.911  1.00  0.00     0.163 HD
ATOM     26  O   UNL A   1      35.910  30.349  32.253  1.00  0.00    -0.269 OA
BRANCH  24  27
ATOM     27  C   UNL A   1      37.625  30.567  30.661  1.00  0.00     0.039 A 
ATOM     28  C   UNL A   1      38.626  30.194  31.562  1.00  0.00     0.014 A 
ATOM     29  C   UNL A   1      37.924  30.697  29.302  1.00  0.00     0.014 A 
ATOM     30  C   UNL A   1      39.905  29.885  31.092  1.00  0.00     0.010 A 
ATOM     31  C   UNL A   1      39.177  30.315  28.826  1.00  0.00     0.010 A 
ATOM     32  C   UNL A   1      40.182  29.905  29.715  1.00  0.00    -0.014 A 
BRANCH  32  33
ATOM     33  C   UNL A   1      41.507  29.483  29.187  1.00  0.00     0.031 A 
ATOM     34  C   UNL A   1      42.625  30.481  29.043  1.00  0.00     0.074 A 
ATOM     35  C   UNL A   1      41.686  28.210  28.777  1.00  0.00     0.049 A 
ATOM     36  N   UNL A   1      43.829  30.307  28.558  1.00  0.00    -0.248 NA
ATOM     37  C   UNL A   1      42.349  31.859  29.480  1.00  0.00     0.031 C 
ATOM     38  C   UNL A   1      40.673  27.152  28.829  1.00  0.00     0.029 A 
ATOM     39  N   UNL A   1      42.782  27.589  28.230  1.00  0.00    -0.354 N 
ATOM     40  C   UNL A   1      44.445  31.552  28.615  1.00  0.00     0.074 A 
ATOM     41  C   UNL A   1      43.468  32.483  29.138  1.00  0.00     0.031 C 
ATOM     42  C   UNL A   1      41.204  26.011  28.364  1.00  0.00     0.029 A 
ATOM     43  C   UNL A   1      42.577  26.261  27.936  1.00  0.00     0.049 A 
ATOM     44  H   UNL A   1      43.636  28.051  28.064  1.00  0.00     0.167 HD
ATOM     45  C   UNL A   1      45.714  31.890  28.278  1.00  0.00     0.031 A 
ATOM     46  C   UNL A   1      43.394  25.347  27.376  1.00  0.00     0.031 A 
ATOM     47  C   UNL A   1      46.685  30.961  27.761  1.00  0.00     0.049 A 
ATOM     48  C   UNL A   1      44.790  25.752  26.988  1.00  0.00     0.074 A 
ATOM     49  C   UNL A   1      48.012  31.194  27.445  1.00  0.00     0.029 A 
ATOM     50  N   UNL A   1      46.435  29.626  27.475  1.00  0.00    -0.354 N 
ATOM     51  N   UNL A   1      45.377  26.918  27.118  1.00  0.00    -0.248 NA
ATOM     52  C   UNL A   1      45.638  24.714  26.385  1.00  0.00     0.031 C 
ATOM     53  C   UNL A   1      48.547  30.018  26.908  1.00  0.00     0.029 A 
ATOM     54  C   UNL A   1      47.574  29.033  26.957  1.00  0.00     0.049 A 
ATOM     55  H   UNL A   1      45.576  29.169  27.620  1.00  0.00     0.167 HD
ATOM     56  C   UNL A   1      46.674  26.744  26.644  1.00  0.00     0.074 A 
ATOM     57  C   UNL A   1      46.788  25.359  26.238  1.00  0.00     0.031 C 
ATOM     58  C   UNL A   1      47.678  27.651  26.555  1.00  0.00     0.031 A 
BRANCH  45  59
ATOM     59  C   UNL A   1      46.124  33.331  28.441  1.00  0.00    -0.014 A 
ATOM     60  C   UNL A   1      45.967  34.259  27.395  1.00  0.00     0.010 A 
ATOM     61  C   UNL A   1      46.629  33.777  29.677  1.00  0.00     0.010 A 
ATOM     62  C   UNL A   1      46.347  35.593  27.567  1.00  0.00     0.020 A 
ATOM     63  C   UNL A   1      46.980  35.117  29.863  1.00  0.00     0.020 A 
ATOM     64  C   UNL A   1      46.852  36.014  28.801  1.00  0.00     0.054 A 
BRANCH  64  65
ATOM     65  S   UNL A   1      47.314  37.756  29.003  1.00  0.00     0.124 S 
ATOM     66  O   UNL A   1      46.329  38.429  28.158  1.00  0.00    -0.237 OA
ATOM     67  O   UNL A   1      47.155  37.964  30.440  1.00  0.00    -0.237 OA
ATOM     68  O   UNL A   1      48.689  37.811  28.516  1.00  0.00    -0.744 OA
ENDBRANCH  64  65
ENDBRANCH  45  59
BRANCH  46  69
ATOM     69  C   UNL A   1      42.918  23.951  27.164  1.00  0.00    -0.014 A 
ATOM     70  C   UNL A   1      42.398  23.557  25.918  1.00  0.00     0.010 A 
ATOM     71  C   UNL A   1      42.989  23.004  28.203  1.00  0.00     0.010 A 
ATOM     72  C   UNL A   1      41.937  22.251  25.722  1.00  0.00     0.020 A 
ATOM     73  C   UNL A   1      42.559  21.689  28.001  1.00  0.00     0.020 A 
ATOM     74  C   UNL A   1      42.024  21.324  26.765  1.00  0.00     0.054 A 
BRANCH  74  75
ATOM     75  S   UNL A   1      41.460  19.625  26.470  1.00  0.00     0.124 S 
ATOM     76  O   UNL A   1      42.329  19.200  25.378  1.00  0.00    -0.237 OA
ATOM     77  O   UNL A   1      41.705  18.984  27.759  1.00  0.00    -0.237 OA
ATOM     78  O   UNL A   1      40.050  19.786  26.122  1.00  0.00    -0.744 OA
ENDBRANCH  74  75
ENDBRANCH  46  69
BRANCH  58  79
ATOM     79  C   UNL A   1      49.008  27.169  26.035  1.00  0.00    -0.014 A 
ATOM     80  C   UNL A   1      49.342  27.261  24.672  1.00  0.00     0.010 A 
ATOM     81  C   UNL A   1      49.963  26.666  26.939  1.00  0.00     0.010 A 
ATOM     82  C   UNL A   1      50.591  26.829  24.219  1.00  0.00     0.020 A 
ATOM     83  C   UNL A   1      51.225  26.264  26.495  1.00  0.00     0.020 A 
ATOM     84  C   UNL A   1      51.527  26.334  25.135  1.00  0.00     0.054 A 
BRANCH  84  85
ATOM     85  S   UNL A   1      53.157  25.823  24.526  1.00  0.00     0.124 S 
ATOM     86  O   UNL A   1      53.246  24.449  25.012  1.00  0.00    -0.237 OA
ATOM     87  O   UNL A   1      53.019  25.971  23.080  1.00  0.00    -0.237 OA
ATOM     88  O   UNL A   1      54.075  26.769  25.159  1.00  0.00    -0.744 OA
ENDBRANCH  84  85
ENDBRANCH  58  79
ENDBRANCH  32  33
ENDBRANCH  24  27
ENDBRANCH  22  23
ENDBRANCH  21  22
ENDBRANCH   1  21
TORSDOF 17
ENDMDL
