MODEL 1
REMARK VINA RESULT:     -12.7      0.000      0.000
REMARK SMILES COc1cccc(NC(=O)[C@@H]2[C@@H](C(=O)NCCCCNC(=O)c3ccc(-c4c5nc(c(-c6ccc(S(=O)(=O)[O-])cc6)c6ccc([nH]6)c(-c6ccc(S(=O)(=O)[O-])cc6)c6nc(c(-c7ccc(S(=O)(=O)[O-])cc7)c7ccc4[nH]7)C=C6)C=C5)cc3)[C@H]3C=C[C@@H]2C3)c1
REMARK SMILES IDX 17 1 16 2 15 3 13 4 14 5 12 7 11 8 86 9 83 10 85 11 87 12
REMARK SMILES IDX 84 13 9 14 8 15 10 17 7 18 3 19 4 20 88 21 5 22 6 23 2 24
REMARK SMILES IDX 1 25 18 26 19 27 20 28 21 29 22 31 23 32 24 33 82 34 25 35
REMARK SMILES IDX 81 36 26 37 27 38 28 39 75 40 29 41 80 42 74 43 76 44 30 45
REMARK SMILES IDX 79 46 73 47 72 48 31 50 61 51 42 52 60 53 43 54 46 55 59 56
REMARK SMILES IDX 77 57 44 58 45 59 58 61 78 62 47 63 32 64 33 65 41 66 34 67
REMARK SMILES IDX 40 68 35 69 36 70 37 71 38 72 39 73 62 74 63 75 71 76 64 77
REMARK SMILES IDX 70 78 65 79 66 80 67 81 68 82 69 83 48 84 49 85 57 86 50 87
REMARK SMILES IDX 56 88 51 89 52 90 53 91 54 92 55 93
REMARK H PARENT 15 6 8 16 20 30 76 49 46 60
REMARK Flexibility Score: inf
ROOT
ATOM      1  C   UNL A   1      38.714  21.793  25.961  1.00  0.00     0.023 C 
ENDROOT
BRANCH   1   2
ATOM      2  C   UNL A   1      37.967  23.125  25.936  1.00  0.00     0.116 C 
BRANCH   2   3
ATOM      3  N   UNL A   1      37.372  23.365  24.630  1.00  0.00    -0.356 N 
ATOM      4  C   UNL A   1      36.058  23.363  24.261  1.00  0.00     0.224 C 
ATOM      5  O   UNL A   1      35.792  23.305  23.060  1.00  0.00    -0.275 OA
ATOM      6  H   UNL A   1      38.011  23.556  23.906  1.00  0.00     0.163 HD
BRANCH   4   7
ATOM      7  C   UNL A   1      34.991  23.515  25.331  1.00  0.00     0.098 C 
ATOM      8  C   UNL A   1      33.752  22.571  25.168  1.00  0.00     0.099 C 
ATOM      9  C   UNL A   1      32.569  23.592  25.160  1.00  0.00     0.025 C 
ATOM     10  C   UNL A   1      34.354  24.934  25.247  1.00  0.00     0.025 C 
ATOM     11  C   UNL A   1      32.628  24.331  23.842  1.00  0.00    -0.027 C 
ATOM     12  C   UNL A   1      33.084  24.717  26.069  1.00  0.00     0.017 C 
ATOM     13  C   UNL A   1      33.698  25.140  23.895  1.00  0.00    -0.027 C 
BRANCH   8  14
ATOM     14  C   UNL A   1      33.634  21.601  26.340  1.00  0.00     0.228 C 
ATOM     15  N   UNL A   1      33.416  20.262  26.171  1.00  0.00    -0.326 N 
ATOM     16  H   UNL A   1      33.554  19.742  26.996  1.00  0.00     0.169 HD
ATOM     17  O   UNL A   1      33.836  21.981  27.500  1.00  0.00    -0.274 OA
BRANCH  15  18
ATOM     18  C   UNL A   1      33.037  19.466  25.076  1.00  0.00     0.044 A 
ATOM     19  C   UNL A   1      32.930  17.222  24.148  1.00  0.00     0.120 A 
ATOM     20  C   UNL A   1      32.529  17.742  22.921  1.00  0.00     0.046 A 
ATOM     21  C   UNL A   1      33.153  18.073  25.234  1.00  0.00     0.072 A 
ATOM     22  C   UNL A   1      32.325  19.110  22.786  1.00  0.00     0.006 A 
ATOM     23  C   UNL A   1      32.575  19.967  23.861  1.00  0.00     0.026 A 
BRANCH  19  24
ATOM     24  O   UNL A   1      33.340  15.916  24.143  1.00  0.00    -0.497 OA
ATOM     25  C   UNL A   1      33.104  15.213  25.352  1.00  0.00     0.278 C 
ENDBRANCH  19  24
ENDBRANCH  15  18
ENDBRANCH   8  14
ENDBRANCH   4   7
ENDBRANCH   2   3
ENDBRANCH   1   2
BRANCH   1  26
ATOM     26  C   UNL A   1      40.128  21.895  26.538  1.00  0.00     0.023 C 
BRANCH  26  27
ATOM     27  C   UNL A   1      40.488  23.267  27.077  1.00  0.00     0.116 C 
BRANCH  27  28
ATOM     28  N   UNL A   1      41.176  24.074  26.079  1.00  0.00    -0.352 N 
ATOM     29  C   UNL A   1      41.460  25.418  26.044  1.00  0.00     0.251 C 
ATOM     30  H   UNL A   1      41.492  23.570  25.295  1.00  0.00     0.163 HD
ATOM     31  O   UNL A   1      41.852  25.909  24.988  1.00  0.00    -0.269 OA
BRANCH  29  32
ATOM     32  C   UNL A   1      41.303  26.281  27.243  1.00  0.00     0.039 A 
ATOM     33  C   UNL A   1      40.277  26.001  28.154  1.00  0.00     0.014 A 
ATOM     34  C   UNL A   1      42.107  27.402  27.453  1.00  0.00     0.014 A 
ATOM     35  C   UNL A   1      40.075  26.828  29.264  1.00  0.00     0.010 A 
ATOM     36  C   UNL A   1      41.999  28.137  28.628  1.00  0.00     0.010 A 
ATOM     37  C   UNL A   1      40.945  27.899  29.518  1.00  0.00    -0.014 A 
BRANCH  37  38
ATOM     38  C   UNL A   1      40.723  28.852  30.638  1.00  0.00     0.031 A 
ATOM     39  C   UNL A   1      41.573  28.746  31.884  1.00  0.00     0.074 A 
ATOM     40  C   UNL A   1      39.729  29.758  30.575  1.00  0.00     0.049 A 
ATOM     41  N   UNL A   1      41.481  29.407  33.009  1.00  0.00    -0.248 NA
ATOM     42  C   UNL A   1      42.635  27.724  31.880  1.00  0.00     0.031 C 
ATOM     43  C   UNL A   1      38.798  29.923  29.458  1.00  0.00     0.029 A 
ATOM     44  N   UNL A   1      39.334  30.710  31.480  1.00  0.00    -0.354 N 
ATOM     45  C   UNL A   1      42.435  28.846  33.855  1.00  0.00     0.074 A 
ATOM     46  C   UNL A   1      43.040  27.747  33.140  1.00  0.00     0.031 C 
ATOM     47  C   UNL A   1      37.963  30.939  29.728  1.00  0.00     0.029 A 
ATOM     48  C   UNL A   1      38.277  31.474  31.050  1.00  0.00     0.049 A 
ATOM     49  H   UNL A   1      39.767  30.833  32.356  1.00  0.00     0.167 HD
ATOM     50  C   UNL A   1      42.802  29.228  35.102  1.00  0.00     0.031 A 
ATOM     51  C   UNL A   1      37.635  32.495  31.650  1.00  0.00     0.031 A 
ATOM     52  C   UNL A   1      42.232  30.354  35.789  1.00  0.00     0.049 A 
ATOM     53  C   UNL A   1      38.103  32.956  33.002  1.00  0.00     0.074 A 
ATOM     54  C   UNL A   1      42.573  30.878  37.023  1.00  0.00     0.029 A 
ATOM     55  N   UNL A   1      41.206  31.143  35.288  1.00  0.00    -0.354 N 
ATOM     56  N   UNL A   1      39.042  32.449  33.765  1.00  0.00    -0.248 NA
ATOM     57  C   UNL A   1      37.445  34.144  33.560  1.00  0.00     0.031 C 
ATOM     58  C   UNL A   1      41.729  31.964  37.282  1.00  0.00     0.029 A 
ATOM     59  C   UNL A   1      40.900  32.148  36.186  1.00  0.00     0.049 A 
ATOM     60  H   UNL A   1      40.763  31.006  34.419  1.00  0.00     0.167 HD
ATOM     61  C   UNL A   1      39.107  33.272  34.884  1.00  0.00     0.074 A 
ATOM     62  C   UNL A   1      38.122  34.318  34.688  1.00  0.00     0.031 C 
ATOM     63  C   UNL A   1      39.912  33.176  35.972  1.00  0.00     0.031 A 
BRANCH  50  64
ATOM     64  C   UNL A   1      43.871  28.412  35.786  1.00  0.00    -0.014 A 
ATOM     65  C   UNL A   1      45.238  28.701  35.609  1.00  0.00     0.010 A 
ATOM     66  C   UNL A   1      43.508  27.321  36.597  1.00  0.00     0.010 A 
ATOM     67  C   UNL A   1      46.218  27.872  36.159  1.00  0.00     0.020 A 
ATOM     68  C   UNL A   1      44.487  26.509  37.182  1.00  0.00     0.020 A 
ATOM     69  C   UNL A   1      45.836  26.772  36.933  1.00  0.00     0.054 A 
BRANCH  69  70
ATOM     70  S   UNL A   1      47.126  25.693  37.614  1.00  0.00     0.124 S 
ATOM     71  O   UNL A   1      48.337  26.455  37.320  1.00  0.00    -0.237 OA
ATOM     72  O   UNL A   1      46.764  25.610  39.026  1.00  0.00    -0.237 OA
ATOM     73  O   UNL A   1      46.972  24.451  36.859  1.00  0.00    -0.744 OA
ENDBRANCH  69  70
ENDBRANCH  50  64
BRANCH  51  74
ATOM     74  C   UNL A   1      36.523  33.180  30.935  1.00  0.00    -0.014 A 
ATOM     75  C   UNL A   1      35.231  33.208  31.491  1.00  0.00     0.010 A 
ATOM     76  C   UNL A   1      36.763  33.865  29.730  1.00  0.00     0.010 A 
ATOM     77  C   UNL A   1      34.201  33.907  30.855  1.00  0.00     0.020 A 
ATOM     78  C   UNL A   1      35.741  34.585  29.105  1.00  0.00     0.020 A 
ATOM     79  C   UNL A   1      34.465  34.599  29.670  1.00  0.00     0.054 A 
BRANCH  79  80
ATOM     80  S   UNL A   1      33.135  35.577  28.915  1.00  0.00     0.124 S 
ATOM     81  O   UNL A   1      33.877  36.655  28.270  1.00  0.00    -0.237 OA
ATOM     82  O   UNL A   1      32.507  34.612  28.014  1.00  0.00    -0.237 OA
ATOM     83  O   UNL A   1      32.314  35.976  30.056  1.00  0.00    -0.744 OA
ENDBRANCH  79  80
ENDBRANCH  51  74
BRANCH  63  84
ATOM     84  C   UNL A   1      39.788  34.254  37.015  1.00  0.00    -0.014 A 
ATOM     85  C   UNL A   1      39.026  34.061  38.181  1.00  0.00     0.010 A 
ATOM     86  C   UNL A   1      40.477  35.467  36.836  1.00  0.00     0.010 A 
ATOM     87  C   UNL A   1      38.919  35.083  39.128  1.00  0.00     0.020 A 
ATOM     88  C   UNL A   1      40.395  36.479  37.795  1.00  0.00     0.020 A 
ATOM     89  C   UNL A   1      39.599  36.287  38.926  1.00  0.00     0.054 A 
BRANCH  89  90
ATOM     90  S   UNL A   1      39.459  37.593  40.177  1.00  0.00     0.124 S 
ATOM     91  O   UNL A   1      38.959  36.851  41.331  1.00  0.00    -0.237 OA
ATOM     92  O   UNL A   1      40.831  38.082  40.288  1.00  0.00    -0.237 OA
ATOM     93  O   UNL A   1      38.513  38.538  39.586  1.00  0.00    -0.744 OA
ENDBRANCH  89  90
ENDBRANCH  63  84
ENDBRANCH  37  38
ENDBRANCH  29  32
ENDBRANCH  27  28
ENDBRANCH  26  27
ENDBRANCH   1  26
TORSDOF 17
ENDMDL
MODEL 2
REMARK VINA RESULT:     -12.4      4.291      9.974
REMARK SMILES COc1cccc(NC(=O)[C@@H]2[C@@H](C(=O)NCCCCNC(=O)c3ccc(-c4c5nc(c(-c6ccc(S(=O)(=O)[O-])cc6)c6ccc([nH]6)c(-c6ccc(S(=O)(=O)[O-])cc6)c6nc(c(-c7ccc(S(=O)(=O)[O-])cc7)c7ccc4[nH]7)C=C6)C=C5)cc3)[C@H]3C=C[C@@H]2C3)c1
REMARK SMILES IDX 17 1 16 2 15 3 13 4 14 5 12 7 11 8 86 9 83 10 85 11 87 12
REMARK SMILES IDX 84 13 9 14 8 15 10 17 7 18 3 19 4 20 88 21 5 22 6 23 2 24
REMARK SMILES IDX 1 25 18 26 19 27 20 28 21 29 22 31 23 32 24 33 82 34 25 35
REMARK SMILES IDX 81 36 26 37 27 38 28 39 75 40 29 41 80 42 74 43 76 44 30 45
REMARK SMILES IDX 79 46 73 47 72 48 31 50 61 51 42 52 60 53 43 54 46 55 59 56
REMARK SMILES IDX 77 57 44 58 45 59 58 61 78 62 47 63 32 64 33 65 41 66 34 67
REMARK SMILES IDX 40 68 35 69 36 70 37 71 38 72 39 73 62 74 63 75 71 76 64 77
REMARK SMILES IDX 70 78 65 79 66 80 67 81 68 82 69 83 48 84 49 85 57 86 50 87
REMARK SMILES IDX 56 88 51 89 52 90 53 91 54 92 55 93
REMARK H PARENT 15 6 8 16 20 30 76 49 46 60
REMARK Flexibility Score: inf
ROOT
ATOM      1  C   UNL A   1      31.413  27.787  26.430  1.00  0.00     0.023 C 
ENDROOT
BRANCH   1   2
ATOM      2  C   UNL A   1      30.899  26.391  26.081  1.00  0.00     0.116 C 
BRANCH   2   3
ATOM      3  N   UNL A   1      31.599  25.371  26.845  1.00  0.00    -0.356 N 
ATOM      4  C   UNL A   1      32.168  24.205  26.419  1.00  0.00     0.224 C 
ATOM      5  O   UNL A   1      32.452  23.356  27.264  1.00  0.00    -0.275 OA
ATOM      6  H   UNL A   1      31.671  25.545  27.811  1.00  0.00     0.163 HD
BRANCH   4   7
ATOM      7  C   UNL A   1      32.499  24.041  24.947  1.00  0.00     0.098 C 
ATOM      8  C   UNL A   1      33.114  22.654  24.558  1.00  0.00     0.099 C 
ATOM      9  C   UNL A   1      34.442  23.077  23.853  1.00  0.00     0.025 C 
ATOM     10  C   UNL A   1      33.624  25.039  24.542  1.00  0.00     0.025 C 
ATOM     11  C   UNL A   1      35.373  23.588  24.930  1.00  0.00    -0.027 C 
ATOM     12  C   UNL A   1      34.077  24.425  23.218  1.00  0.00     0.017 C 
ATOM     13  C   UNL A   1      34.885  24.768  25.341  1.00  0.00    -0.027 C 
BRANCH   8  14
ATOM     14  C   UNL A   1      32.202  21.891  23.601  1.00  0.00     0.228 C 
ATOM     15  N   UNL A   1      32.279  20.537  23.429  1.00  0.00    -0.326 N 
ATOM     16  H   UNL A   1      31.512  20.167  22.935  1.00  0.00     0.169 HD
ATOM     17  O   UNL A   1      31.278  22.466  23.011  1.00  0.00    -0.274 OA
BRANCH  15  18
ATOM     18  C   UNL A   1      33.214  19.558  23.807  1.00  0.00     0.044 A 
ATOM     19  C   UNL A   1      33.712  17.182  23.945  1.00  0.00     0.120 A 
ATOM     20  C   UNL A   1      34.865  17.460  24.672  1.00  0.00     0.046 A 
ATOM     21  C   UNL A   1      32.904  18.225  23.482  1.00  0.00     0.072 A 
ATOM     22  C   UNL A   1      35.224  18.780  24.917  1.00  0.00     0.006 A 
ATOM     23  C   UNL A   1      34.403  19.824  24.482  1.00  0.00     0.026 A 
BRANCH  19  24
ATOM     24  O   UNL A   1      33.296  15.878  23.950  1.00  0.00    -0.497 OA
ATOM     25  C   UNL A   1      32.815  15.410  25.200  1.00  0.00     0.278 C 
ENDBRANCH  19  24
ENDBRANCH  15  18
ENDBRANCH   8  14
ENDBRANCH   4   7
ENDBRANCH   2   3
ENDBRANCH   1   2
BRANCH   1  26
ATOM     26  C   UNL A   1      32.849  27.797  26.958  1.00  0.00     0.023 C 
BRANCH  26  27
ATOM     27  C   UNL A   1      33.755  28.815  26.291  1.00  0.00     0.116 C 
BRANCH  27  28
ATOM     28  N   UNL A   1      33.680  30.113  26.948  1.00  0.00    -0.352 N 
ATOM     29  C   UNL A   1      34.511  30.709  27.866  1.00  0.00     0.251 C 
ATOM     30  H   UNL A   1      32.901  30.656  26.689  1.00  0.00     0.163 HD
ATOM     31  O   UNL A   1      34.116  31.718  28.447  1.00  0.00    -0.269 OA
BRANCH  29  32
ATOM     32  C   UNL A   1      35.859  30.165  28.169  1.00  0.00     0.039 A 
ATOM     33  C   UNL A   1      36.090  29.577  29.419  1.00  0.00     0.014 A 
ATOM     34  C   UNL A   1      36.919  30.284  27.270  1.00  0.00     0.014 A 
ATOM     35  C   UNL A   1      37.365  29.103  29.749  1.00  0.00     0.010 A 
ATOM     36  C   UNL A   1      38.144  29.685  27.541  1.00  0.00     0.010 A 
ATOM     37  C   UNL A   1      38.403  29.142  28.805  1.00  0.00    -0.014 A 
BRANCH  37  38
ATOM     38  C   UNL A   1      39.790  28.725  29.136  1.00  0.00     0.031 A 
ATOM     39  C   UNL A   1      40.708  29.691  29.851  1.00  0.00     0.074 A 
ATOM     40  C   UNL A   1      40.253  27.523  28.744  1.00  0.00     0.049 A 
ATOM     41  N   UNL A   1      41.977  29.569  30.145  1.00  0.00    -0.248 NA
ATOM     42  C   UNL A   1      40.131  30.991  30.240  1.00  0.00     0.031 C 
ATOM     43  C   UNL A   1      39.492  26.522  27.994  1.00  0.00     0.029 A 
ATOM     44  N   UNL A   1      41.483  26.942  28.920  1.00  0.00    -0.354 N 
ATOM     45  C   UNL A   1      42.355  30.787  30.702  1.00  0.00     0.074 A 
ATOM     46  C   UNL A   1      41.203  31.657  30.638  1.00  0.00     0.031 C 
ATOM     47  C   UNL A   1      40.260  25.437  27.806  1.00  0.00     0.029 A 
ATOM     48  C   UNL A   1      41.576  25.678  28.389  1.00  0.00     0.049 A 
ATOM     49  H   UNL A   1      42.229  27.389  29.382  1.00  0.00     0.167 HD
ATOM     50  C   UNL A   1      43.540  31.145  31.252  1.00  0.00     0.031 A 
ATOM     51  C   UNL A   1      42.604  24.807  28.379  1.00  0.00     0.031 A 
ATOM     52  C   UNL A   1      44.667  30.259  31.360  1.00  0.00     0.049 A 
ATOM     53  C   UNL A   1      43.889  25.190  29.058  1.00  0.00     0.074 A 
ATOM     54  C   UNL A   1      45.893  30.486  31.958  1.00  0.00     0.029 A 
ATOM     55  N   UNL A   1      44.695  28.962  30.867  1.00  0.00    -0.354 N 
ATOM     56  N   UNL A   1      44.213  26.326  29.629  1.00  0.00    -0.248 NA
ATOM     57  C   UNL A   1      44.937  24.163  29.118  1.00  0.00     0.031 C 
ATOM     58  C   UNL A   1      46.675  29.337  31.798  1.00  0.00     0.029 A 
ATOM     59  C   UNL A   1      45.917  28.376  31.145  1.00  0.00     0.049 A 
ATOM     60  H   UNL A   1      43.954  28.523  30.389  1.00  0.00     0.167 HD
ATOM     61  C   UNL A   1      45.492  26.144  30.140  1.00  0.00     0.074 A 
ATOM     62  C   UNL A   1      45.876  24.782  29.823  1.00  0.00     0.031 C 
ATOM     63  C   UNL A   1      46.278  27.020  30.816  1.00  0.00     0.031 A 
BRANCH  50  64
ATOM     64  C   UNL A   1      43.661  32.556  31.774  1.00  0.00    -0.014 A 
ATOM     65  C   UNL A   1      44.107  33.606  30.947  1.00  0.00     0.010 A 
ATOM     66  C   UNL A   1      43.352  32.835  33.117  1.00  0.00     0.010 A 
ATOM     67  C   UNL A   1      44.319  34.883  31.472  1.00  0.00     0.020 A 
ATOM     68  C   UNL A   1      43.526  34.121  33.638  1.00  0.00     0.020 A 
ATOM     69  C   UNL A   1      44.039  35.130  32.819  1.00  0.00     0.054 A 
BRANCH  69  70
ATOM     70  S   UNL A   1      44.348  36.789  33.484  1.00  0.00     0.124 S 
ATOM     71  O   UNL A   1      42.991  37.268  33.734  1.00  0.00    -0.237 OA
ATOM     72  O   UNL A   1      45.146  36.515  34.676  1.00  0.00    -0.237 OA
ATOM     73  O   UNL A   1      45.060  37.468  32.403  1.00  0.00    -0.744 OA
ENDBRANCH  69  70
ENDBRANCH  50  64
BRANCH  51  74
ATOM     74  C   UNL A   1      42.423  23.469  27.752  1.00  0.00    -0.014 A 
ATOM     75  C   UNL A   1      43.026  23.176  26.516  1.00  0.00     0.010 A 
ATOM     76  C   UNL A   1      41.704  22.460  28.419  1.00  0.00     0.010 A 
ATOM     77  C   UNL A   1      42.913  21.900  25.958  1.00  0.00     0.020 A 
ATOM     78  C   UNL A   1      41.610  21.176  27.874  1.00  0.00     0.020 A 
ATOM     79  C   UNL A   1      42.212  20.905  26.645  1.00  0.00     0.054 A 
BRANCH  79  80
ATOM     80  S   UNL A   1      42.160  19.231  25.945  1.00  0.00     0.124 S 
ATOM     81  O   UNL A   1      40.735  19.051  25.690  1.00  0.00    -0.237 OA
ATOM     82  O   UNL A   1      43.005  19.359  24.759  1.00  0.00    -0.237 OA
ATOM     83  O   UNL A   1      42.717  18.398  27.009  1.00  0.00    -0.744 OA
ENDBRANCH  79  80
ENDBRANCH  51  74
BRANCH  63  84
ATOM     84  C   UNL A   1      47.615  26.518  31.293  1.00  0.00    -0.014 A 
ATOM     85  C   UNL A   1      48.763  26.613  30.487  1.00  0.00     0.010 A 
ATOM     86  C   UNL A   1      47.723  25.974  32.586  1.00  0.00     0.010 A 
ATOM     87  C   UNL A   1      49.989  26.129  30.950  1.00  0.00     0.020 A 
ATOM     88  C   UNL A   1      48.953  25.516  33.062  1.00  0.00     0.020 A 
ATOM     89  C   UNL A   1      50.074  25.577  32.232  1.00  0.00     0.054 A 
BRANCH  89  90
ATOM     90  S   UNL A   1      51.680  24.971  32.819  1.00  0.00     0.124 S 
ATOM     91  O   UNL A   1      51.677  23.593  32.335  1.00  0.00    -0.237 OA
ATOM     92  O   UNL A   1      52.625  25.868  32.159  1.00  0.00    -0.237 OA
ATOM     93  O   UNL A   1      51.597  25.122  34.271  1.00  0.00    -0.744 OA
ENDBRANCH  89  90
ENDBRANCH  63  84
ENDBRANCH  37  38
ENDBRANCH  29  32
ENDBRANCH  27  28
ENDBRANCH  26  27
ENDBRANCH   1  26
TORSDOF 17
ENDMDL
MODEL 3
REMARK VINA RESULT:     -12.4      6.067      8.168
REMARK SMILES COc1cccc(NC(=O)[C@@H]2[C@@H](C(=O)NCCCCNC(=O)c3ccc(-c4c5nc(c(-c6ccc(S(=O)(=O)[O-])cc6)c6ccc([nH]6)c(-c6ccc(S(=O)(=O)[O-])cc6)c6nc(c(-c7ccc(S(=O)(=O)[O-])cc7)c7ccc4[nH]7)C=C6)C=C5)cc3)[C@H]3C=C[C@@H]2C3)c1
REMARK SMILES IDX 17 1 16 2 15 3 13 4 14 5 12 7 11 8 86 9 83 10 85 11 87 12
REMARK SMILES IDX 84 13 9 14 8 15 10 17 7 18 3 19 4 20 88 21 5 22 6 23 2 24
REMARK SMILES IDX 1 25 18 26 19 27 20 28 21 29 22 31 23 32 24 33 82 34 25 35
REMARK SMILES IDX 81 36 26 37 27 38 28 39 75 40 29 41 80 42 74 43 76 44 30 45
REMARK SMILES IDX 79 46 73 47 72 48 31 50 61 51 42 52 60 53 43 54 46 55 59 56
REMARK SMILES IDX 77 57 44 58 45 59 58 61 78 62 47 63 32 64 33 65 41 66 34 67
REMARK SMILES IDX 40 68 35 69 36 70 37 71 38 72 39 73 62 74 63 75 71 76 64 77
REMARK SMILES IDX 70 78 65 79 66 80 67 81 68 82 69 83 48 84 49 85 57 86 50 87
REMARK SMILES IDX 56 88 51 89 52 90 53 91 54 92 55 93
REMARK H PARENT 15 6 8 16 20 30 76 49 46 60
REMARK Flexibility Score: inf
ROOT
ATOM      1  C   UNL A   1      39.552  22.707  26.724  1.00  0.00     0.023 C 
ENDROOT
BRANCH   1   2
ATOM      2  C   UNL A   1      38.351  23.578  26.357  1.00  0.00     0.116 C 
BRANCH   2   3
ATOM      3  N   UNL A   1      37.819  23.212  25.054  1.00  0.00    -0.356 N 
ATOM      4  C   UNL A   1      36.560  22.812  24.711  1.00  0.00     0.224 C 
ATOM      5  O   UNL A   1      36.398  22.278  23.614  1.00  0.00    -0.275 OA
ATOM      6  H   UNL A   1      38.462  23.259  24.310  1.00  0.00     0.163 HD
BRANCH   4   7
ATOM      7  C   UNL A   1      35.409  23.114  25.653  1.00  0.00     0.098 C 
ATOM      8  C   UNL A   1      34.102  22.293  25.386  1.00  0.00     0.099 C 
ATOM      9  C   UNL A   1      33.039  23.425  25.218  1.00  0.00     0.025 C 
ATOM     10  C   UNL A   1      34.934  24.585  25.457  1.00  0.00     0.025 C 
ATOM     11  C   UNL A   1      33.312  24.099  23.892  1.00  0.00    -0.027 C 
ATOM     12  C   UNL A   1      33.569  24.530  26.142  1.00  0.00     0.017 C 
ATOM     13  C   UNL A   1      34.448  24.799  24.036  1.00  0.00    -0.027 C 
BRANCH   8  14
ATOM     14  C   UNL A   1      33.761  21.389  26.568  1.00  0.00     0.228 C 
ATOM     15  N   UNL A   1      33.413  20.076  26.417  1.00  0.00    -0.326 N 
ATOM     16  H   UNL A   1      33.410  19.578  27.266  1.00  0.00     0.169 HD
ATOM     17  O   UNL A   1      33.889  21.792  27.731  1.00  0.00    -0.274 OA
BRANCH  15  18
ATOM     18  C   UNL A   1      33.058  19.282  25.312  1.00  0.00     0.044 A 
ATOM     19  C   UNL A   1      32.951  17.037  24.386  1.00  0.00     0.120 A 
ATOM     20  C   UNL A   1      32.593  17.558  23.147  1.00  0.00     0.046 A 
ATOM     21  C   UNL A   1      33.151  17.888  25.477  1.00  0.00     0.072 A 
ATOM     22  C   UNL A   1      32.411  18.928  23.003  1.00  0.00     0.006 A 
ATOM     23  C   UNL A   1      32.639  19.786  24.083  1.00  0.00     0.026 A 
BRANCH  19  24
ATOM     24  O   UNL A   1      33.345  15.726  24.397  1.00  0.00    -0.497 OA
ATOM     25  C   UNL A   1      32.750  14.933  25.412  1.00  0.00     0.278 C 
ENDBRANCH  19  24
ENDBRANCH  15  18
ENDBRANCH   8  14
ENDBRANCH   4   7
ENDBRANCH   2   3
ENDBRANCH   1   2
BRANCH   1  26
ATOM     26  C   UNL A   1      39.531  21.326  26.065  1.00  0.00     0.023 C 
BRANCH  26  27
ATOM     27  C   UNL A   1      40.138  20.220  26.908  1.00  0.00     0.116 C 
BRANCH  27  28
ATOM     28  N   UNL A   1      41.203  19.526  26.198  1.00  0.00    -0.352 N 
ATOM     29  C   UNL A   1      42.384  19.988  25.666  1.00  0.00     0.251 C 
ATOM     30  H   UNL A   1      41.051  18.561  26.078  1.00  0.00     0.163 HD
ATOM     31  O   UNL A   1      43.015  19.251  24.911  1.00  0.00    -0.269 OA
BRANCH  29  32
ATOM     32  C   UNL A   1      42.905  21.342  25.980  1.00  0.00     0.039 A 
ATOM     33  C   UNL A   1      43.366  21.611  27.275  1.00  0.00     0.014 A 
ATOM     34  C   UNL A   1      42.885  22.374  25.041  1.00  0.00     0.014 A 
ATOM     35  C   UNL A   1      43.813  22.893  27.611  1.00  0.00     0.010 A 
ATOM     36  C   UNL A   1      43.462  23.605  25.333  1.00  0.00     0.010 A 
ATOM     37  C   UNL A   1      43.877  23.901  26.637  1.00  0.00    -0.014 A 
BRANCH  37  38
ATOM     38  C   UNL A   1      44.269  25.297  26.965  1.00  0.00     0.031 A 
ATOM     39  C   UNL A   1      45.686  25.753  26.704  1.00  0.00     0.074 A 
ATOM     40  C   UNL A   1      43.391  26.131  27.553  1.00  0.00     0.049 A 
ATOM     41  N   UNL A   1      46.262  26.889  27.005  1.00  0.00    -0.248 NA
ATOM     42  C   UNL A   1      46.591  24.781  26.066  1.00  0.00     0.031 C 
ATOM     43  C   UNL A   1      42.012  25.796  27.916  1.00  0.00     0.029 A 
ATOM     44  N   UNL A   1      43.533  27.434  27.956  1.00  0.00    -0.354 N 
ATOM     45  C   UNL A   1      47.597  26.744  26.640  1.00  0.00     0.074 A 
ATOM     46  C   UNL A   1      47.762  25.391  26.165  1.00  0.00     0.031 C 
ATOM     47  C   UNL A   1      41.425  26.877  28.454  1.00  0.00     0.029 A 
ATOM     48  C   UNL A   1      42.394  27.969  28.506  1.00  0.00     0.049 A 
ATOM     49  H   UNL A   1      44.373  27.939  27.860  1.00  0.00     0.167 HD
ATOM     50  C   UNL A   1      48.594  27.662  26.662  1.00  0.00     0.031 A 
ATOM     51  C   UNL A   1      42.153  29.201  28.993  1.00  0.00     0.031 A 
ATOM     52  C   UNL A   1      48.413  29.023  27.087  1.00  0.00     0.049 A 
ATOM     53  C   UNL A   1      43.247  30.231  28.942  1.00  0.00     0.074 A 
ATOM     54  C   UNL A   1      49.329  30.059  27.087  1.00  0.00     0.029 A 
ATOM     55  N   UNL A   1      47.222  29.541  27.577  1.00  0.00    -0.354 N 
ATOM     56  N   UNL A   1      44.489  30.094  28.544  1.00  0.00    -0.248 NA
ATOM     57  C   UNL A   1      42.898  31.588  29.381  1.00  0.00     0.031 C 
ATOM     58  C   UNL A   1      48.701  31.196  27.608  1.00  0.00     0.029 A 
ATOM     59  C   UNL A   1      47.378  30.880  27.883  1.00  0.00     0.049 A 
ATOM     60  H   UNL A   1      46.388  29.029  27.689  1.00  0.00     0.167 HD
ATOM     61  C   UNL A   1      45.065  31.354  28.657  1.00  0.00     0.074 A 
ATOM     62  C   UNL A   1      44.029  32.242  29.147  1.00  0.00     0.031 C 
ATOM     63  C   UNL A   1      46.334  31.744  28.375  1.00  0.00     0.031 A 
BRANCH  50  64
ATOM     64  C   UNL A   1      49.960  27.208  26.210  1.00  0.00    -0.014 A 
ATOM     65  C   UNL A   1      50.367  27.336  24.867  1.00  0.00     0.010 A 
ATOM     66  C   UNL A   1      50.843  26.617  27.132  1.00  0.00     0.010 A 
ATOM     67  C   UNL A   1      51.589  26.812  24.440  1.00  0.00     0.020 A 
ATOM     68  C   UNL A   1      52.085  26.125  26.717  1.00  0.00     0.020 A 
ATOM     69  C   UNL A   1      52.436  26.197  25.367  1.00  0.00     0.054 A 
BRANCH  69  70
ATOM     70  S   UNL A   1      54.006  25.500  24.784  1.00  0.00     0.124 S 
ATOM     71  O   UNL A   1      53.706  24.071  24.756  1.00  0.00    -0.237 OA
ATOM     72  O   UNL A   1      54.174  26.131  23.479  1.00  0.00    -0.237 OA
ATOM     73  O   UNL A   1      54.968  25.915  25.803  1.00  0.00    -0.744 OA
ENDBRANCH  69  70
ENDBRANCH  50  64
BRANCH  51  74
ATOM     74  C   UNL A   1      40.796  29.531  29.511  1.00  0.00    -0.014 A 
ATOM     75  C   UNL A   1      40.541  29.518  30.894  1.00  0.00     0.010 A 
ATOM     76  C   UNL A   1      39.773  29.924  28.631  1.00  0.00     0.010 A 
ATOM     77  C   UNL A   1      39.287  29.892  31.387  1.00  0.00     0.020 A 
ATOM     78  C   UNL A   1      38.525  30.322  29.122  1.00  0.00     0.020 A 
ATOM     79  C   UNL A   1      38.290  30.300  30.497  1.00  0.00     0.054 A 
BRANCH  79  80
ATOM     80  S   UNL A   1      36.702  30.870  31.168  1.00  0.00     0.124 S 
ATOM     81  O   UNL A   1      35.894  31.011  29.961  1.00  0.00    -0.237 OA
ATOM     82  O   UNL A   1      36.325  29.776  32.059  1.00  0.00    -0.237 OA
ATOM     83  O   UNL A   1      37.046  32.121  31.842  1.00  0.00    -0.744 OA
ENDBRANCH  79  80
ENDBRANCH  51  74
BRANCH  63  84
ATOM     84  C   UNL A   1      46.660  33.203  28.552  1.00  0.00    -0.014 A 
ATOM     85  C   UNL A   1      47.176  33.696  29.763  1.00  0.00     0.010 A 
ATOM     86  C   UNL A   1      46.476  34.085  27.471  1.00  0.00     0.010 A 
ATOM     87  C   UNL A   1      47.460  35.057  29.903  1.00  0.00     0.020 A 
ATOM     88  C   UNL A   1      46.785  35.440  27.600  1.00  0.00     0.020 A 
ATOM     89  C   UNL A   1      47.256  35.921  28.823  1.00  0.00     0.054 A 
BRANCH  89  90
ATOM     90  S   UNL A   1      47.647  37.681  29.023  1.00  0.00     0.124 S 
ATOM     91  O   UNL A   1      46.692  38.307  28.112  1.00  0.00    -0.237 OA
ATOM     92  O   UNL A   1      47.400  37.906  30.445  1.00  0.00    -0.237 OA
ATOM     93  O   UNL A   1      49.048  37.772  28.618  1.00  0.00    -0.744 OA
ENDBRANCH  89  90
ENDBRANCH  63  84
ENDBRANCH  37  38
ENDBRANCH  29  32
ENDBRANCH  27  28
ENDBRANCH  26  27
ENDBRANCH   1  26
TORSDOF 17
ENDMDL
