MODEL 1
REMARK VINA RESULT:     -11.2      0.000      0.000
REMARK SMILES C[C@H](NC(=O)[C@@H](C)Oc1ccc(Cl)cc1Br)C(=O)NCCCCNC(=O)c1ccc(-c2c3nc(c(-c4ccc(S(=O)(=O)[O-])cc4)c4ccc([nH]4)c(-c4ccc(S(=O)(=O)[O-])cc4)c4nc(c(-c5ccc(S(=O)(=O)[O-])cc5)c5ccc2[nH]5)C=C4)C=C3)cc1
REMARK SMILES IDX 21 1 20 2 19 3 17 4 18 5 2 7 1 8 3 9 4 10 5 12 6 13 7 14
REMARK SMILES IDX 8 15 9 16 10 17 15 18 11 19 14 20 16 21 12 22 13 23 22 24
REMARK SMILES IDX 23 25 24 26 25 27 26 29 27 30 28 31 86 32 29 33 85 34 30 35
REMARK SMILES IDX 31 36 32 37 79 38 33 39 84 40 78 41 80 42 34 43 83 44 77 45
REMARK SMILES IDX 76 46 35 48 65 49 46 50 64 51 47 52 50 53 63 54 81 55 48 56
REMARK SMILES IDX 49 57 62 59 82 60 51 61 36 62 37 63 45 64 38 65 44 66 39 67
REMARK SMILES IDX 40 68 41 69 42 70 43 71 66 72 67 73 75 74 68 75 74 76 69 77
REMARK SMILES IDX 70 78 71 79 72 80 73 81 52 82 53 83 61 84 54 85 60 86 55 87
REMARK SMILES IDX 56 88 57 89 58 90 59 91
REMARK H PARENT 19 6 3 11 24 28 80 47 50 58
REMARK Flexibility Score: inf
ROOT
ATOM      1  C   UNL A   1      33.304  29.809  27.249  1.00  0.00     0.023 C 
ENDROOT
BRANCH   1   2
ATOM      2  C   UNL A   1      32.067  29.141  26.664  1.00  0.00     0.116 C 
BRANCH   2   3
ATOM      3  N   UNL A   1      31.960  27.754  27.085  1.00  0.00    -0.354 N 
ATOM      4  C   UNL A   1      31.641  26.653  26.335  1.00  0.00     0.242 C 
ATOM      5  O   UNL A   1      31.688  25.540  26.860  1.00  0.00    -0.273 OA
ATOM      6  H   UNL A   1      32.141  27.582  28.038  1.00  0.00     0.163 HD
BRANCH   4   7
ATOM      7  C   UNL A   1      31.356  26.820  24.826  1.00  0.00     0.168 C 
ATOM      8  C   UNL A   1      30.002  26.187  24.563  1.00  0.00     0.041 C 
BRANCH   7   9
ATOM      9  N   UNL A   1      32.556  26.365  24.100  1.00  0.00    -0.341 N 
ATOM     10  C   UNL A   1      33.069  25.237  23.566  1.00  0.00     0.261 C 
ATOM     11  H   UNL A   1      33.175  27.117  23.962  1.00  0.00     0.164 HD
ATOM     12  O   UNL A   1      33.993  25.428  22.760  1.00  0.00    -0.271 OA
BRANCH  10  13
ATOM     13  C   UNL A   1      32.678  23.773  23.913  1.00  0.00     0.258 C 
ATOM     14  C   UNL A   1      32.707  22.879  22.669  1.00  0.00     0.064 C 
BRANCH  13  15
ATOM     15  O   UNL A   1      33.043  23.020  25.061  1.00  0.00    -0.480 OA
BRANCH  15  16
ATOM     16  C   UNL A   1      34.362  22.811  25.309  1.00  0.00     0.134 A 
ATOM     17  C   UNL A   1      35.212  23.849  25.689  1.00  0.00     0.049 A 
ATOM     18  C   UNL A   1      34.858  21.500  25.234  1.00  0.00     0.061 A 
ATOM     19  C   UNL A   1      36.577  23.603  25.853  1.00  0.00     0.024 A 
ATOM     20  C   UNL A   1      36.222  21.252  25.394  1.00  0.00     0.040 A 
ATOM     21  Br  UNL A   1      33.721  20.033  24.828  1.00  0.00    -0.047 Br
ATOM     22  C   UNL A   1      37.077  22.313  25.680  1.00  0.00     0.042 A 
ATOM     23  Cl  UNL A   1      38.768  22.030  25.814  1.00  0.00    -0.084 Cl
ENDBRANCH  15  16
ENDBRANCH  13  15
ENDBRANCH  10  13
ENDBRANCH   7   9
ENDBRANCH   4   7
ENDBRANCH   2   3
ENDBRANCH   1   2
BRANCH   1  24
ATOM     24  C   UNL A   1      34.588  29.013  27.023  1.00  0.00     0.023 C 
BRANCH  24  25
ATOM     25  C   UNL A   1      35.796  29.525  27.800  1.00  0.00     0.116 C 
BRANCH  25  26
ATOM     26  N   UNL A   1      35.534  29.711  29.221  1.00  0.00    -0.352 N 
ATOM     27  C   UNL A   1      36.459  29.738  30.240  1.00  0.00     0.251 C 
ATOM     28  H   UNL A   1      34.592  29.830  29.481  1.00  0.00     0.163 HD
ATOM     29  O   UNL A   1      36.116  29.803  31.410  1.00  0.00    -0.269 OA
BRANCH  27  30
ATOM     30  C   UNL A   1      37.882  29.644  29.866  1.00  0.00     0.039 A 
ATOM     31  C   UNL A   1      38.815  29.291  30.841  1.00  0.00     0.014 A 
ATOM     32  C   UNL A   1      38.252  29.772  28.525  1.00  0.00     0.014 A 
ATOM     33  C   UNL A   1      40.123  29.001  30.454  1.00  0.00     0.010 A 
ATOM     34  C   UNL A   1      39.535  29.413  28.136  1.00  0.00     0.010 A 
ATOM     35  C   UNL A   1      40.482  29.023  29.095  1.00  0.00    -0.014 A 
BRANCH  35  36
ATOM     36  C   UNL A   1      41.846  28.643  28.655  1.00  0.00     0.031 A 
ATOM     37  C   UNL A   1      42.921  29.690  28.576  1.00  0.00     0.074 A 
ATOM     38  C   UNL A   1      42.095  27.379  28.259  1.00  0.00     0.049 A 
ATOM     39  N   UNL A   1      44.155  29.573  28.161  1.00  0.00    -0.248 NA
ATOM     40  C   UNL A   1      42.552  31.054  28.990  1.00  0.00     0.031 C 
ATOM     41  C   UNL A   1      41.120  26.285  28.242  1.00  0.00     0.029 A 
ATOM     42  N   UNL A   1      43.248  26.801  27.790  1.00  0.00    -0.354 N 
ATOM     43  C   UNL A   1      44.702  30.849  28.240  1.00  0.00     0.074 A 
ATOM     44  C   UNL A   1      43.651  31.733  28.696  1.00  0.00     0.031 C 
ATOM     45  C   UNL A   1      41.724  25.163  27.815  1.00  0.00     0.029 A 
ATOM     46  C   UNL A   1      43.117  25.465  27.496  1.00  0.00     0.049 A 
ATOM     47  H   UNL A   1      44.091  27.297  27.675  1.00  0.00     0.167 HD
ATOM     48  C   UNL A   1      45.968  31.247  27.977  1.00  0.00     0.031 A 
ATOM     49  C   UNL A   1      44.017  24.580  27.024  1.00  0.00     0.031 A 
ATOM     50  C   UNL A   1      47.016  30.360  27.550  1.00  0.00     0.049 A 
ATOM     51  C   UNL A   1      45.423  25.041  26.758  1.00  0.00     0.074 A 
ATOM     52  C   UNL A   1      48.350  30.649  27.326  1.00  0.00     0.029 A 
ATOM     53  N   UNL A   1      46.848  29.009  27.286  1.00  0.00    -0.354 N 
ATOM     54  N   UNL A   1      45.940  26.239  26.906  1.00  0.00    -0.248 NA
ATOM     55  C   UNL A   1      46.372  24.031  26.270  1.00  0.00     0.031 C 
ATOM     56  C   UNL A   1      48.981  29.481  26.885  1.00  0.00     0.029 A 
ATOM     57  C   UNL A   1      48.050  28.455  26.883  1.00  0.00     0.049 A 
ATOM     58  H   UNL A   1      46.000  28.518  27.373  1.00  0.00     0.167 HD
ATOM     59  C   UNL A   1      47.280  26.118  26.557  1.00  0.00     0.074 A 
ATOM     60  C   UNL A   1      47.496  24.731  26.200  1.00  0.00     0.031 C 
ATOM     61  C   UNL A   1      48.244  27.070  26.534  1.00  0.00     0.031 A 
BRANCH  48  62
ATOM     62  C   UNL A   1      46.283  32.708  28.147  1.00  0.00    -0.014 A 
ATOM     63  C   UNL A   1      46.733  33.216  29.379  1.00  0.00     0.010 A 
ATOM     64  C   UNL A   1      46.147  33.584  27.054  1.00  0.00     0.010 A 
ATOM     65  C   UNL A   1      46.995  34.580  29.529  1.00  0.00     0.020 A 
ATOM     66  C   UNL A   1      46.435  34.944  27.193  1.00  0.00     0.020 A 
ATOM     67  C   UNL A   1      46.838  35.437  28.435  1.00  0.00     0.054 A 
BRANCH  67  68
ATOM     68  S   UNL A   1      47.197  37.200  28.653  1.00  0.00     0.124 S 
ATOM     69  O   UNL A   1      46.671  37.450  29.993  1.00  0.00    -0.237 OA
ATOM     70  O   UNL A   1      48.652  37.251  28.531  1.00  0.00    -0.237 OA
ATOM     71  O   UNL A   1      46.461  37.840  27.566  1.00  0.00    -0.744 OA
ENDBRANCH  67  68
ENDBRANCH  48  62
BRANCH  49  72
ATOM     72  C   UNL A   1      43.625  23.162  26.807  1.00  0.00    -0.014 A 
ATOM     73  C   UNL A   1      42.965  22.444  27.821  1.00  0.00     0.010 A 
ATOM     74  C   UNL A   1      43.897  22.523  25.583  1.00  0.00     0.010 A 
ATOM     75  C   UNL A   1      42.599  21.110  27.623  1.00  0.00     0.020 A 
ATOM     76  C   UNL A   1      43.510  21.197  25.372  1.00  0.00     0.020 A 
ATOM     77  C   UNL A   1      42.873  20.494  26.398  1.00  0.00     0.054 A 
BRANCH  77  78
ATOM     78  S   UNL A   1      42.340  18.779  26.142  1.00  0.00     0.124 S 
ATOM     79  O   UNL A   1      42.480  18.215  27.481  1.00  0.00    -0.237 OA
ATOM     80  O   UNL A   1      40.970  18.941  25.663  1.00  0.00    -0.237 OA
ATOM     81  O   UNL A   1      43.284  18.274  25.147  1.00  0.00    -0.744 OA
ENDBRANCH  77  78
ENDBRANCH  49  72
BRANCH  61  82
ATOM     82  C   UNL A   1      49.632  26.639  26.143  1.00  0.00    -0.014 A 
ATOM     83  C   UNL A   1      50.111  26.830  24.836  1.00  0.00     0.010 A 
ATOM     84  C   UNL A   1      50.487  26.092  27.117  1.00  0.00     0.010 A 
ATOM     85  C   UNL A   1      51.414  26.454  24.502  1.00  0.00     0.020 A 
ATOM     86  C   UNL A   1      51.798  25.738  26.793  1.00  0.00     0.020 A 
ATOM     87  C   UNL A   1      52.250  25.909  25.482  1.00  0.00     0.054 A 
BRANCH  87  88
ATOM     88  S   UNL A   1      53.953  25.475  25.037  1.00  0.00     0.124 S 
ATOM     89  O   UNL A   1      54.091  26.099  23.724  1.00  0.00    -0.237 OA
ATOM     90  O   UNL A   1      54.733  26.088  26.110  1.00  0.00    -0.237 OA
ATOM     91  O   UNL A   1      53.949  24.014  25.036  1.00  0.00    -0.744 OA
ENDBRANCH  87  88
ENDBRANCH  61  82
ENDBRANCH  35  36
ENDBRANCH  27  30
ENDBRANCH  25  26
ENDBRANCH  24  25
ENDBRANCH   1  24
TORSDOF 18
ENDMDL
MODEL 2
REMARK VINA RESULT:     -11.2      3.262      4.039
REMARK SMILES C[C@H](NC(=O)[C@@H](C)Oc1ccc(Cl)cc1Br)C(=O)NCCCCNC(=O)c1ccc(-c2c3nc(c(-c4ccc(S(=O)(=O)[O-])cc4)c4ccc([nH]4)c(-c4ccc(S(=O)(=O)[O-])cc4)c4nc(c(-c5ccc(S(=O)(=O)[O-])cc5)c5ccc2[nH]5)C=C4)C=C3)cc1
REMARK SMILES IDX 21 1 20 2 19 3 17 4 18 5 2 7 1 8 3 9 4 10 5 12 6 13 7 14
REMARK SMILES IDX 8 15 9 16 10 17 15 18 11 19 14 20 16 21 12 22 13 23 22 24
REMARK SMILES IDX 23 25 24 26 25 27 26 29 27 30 28 31 86 32 29 33 85 34 30 35
REMARK SMILES IDX 31 36 32 37 79 38 33 39 84 40 78 41 80 42 34 43 83 44 77 45
REMARK SMILES IDX 76 46 35 48 65 49 46 50 64 51 47 52 50 53 63 54 81 55 48 56
REMARK SMILES IDX 49 57 62 59 82 60 51 61 36 62 37 63 45 64 38 65 44 66 39 67
REMARK SMILES IDX 40 68 41 69 42 70 43 71 66 72 67 73 75 74 68 75 74 76 69 77
REMARK SMILES IDX 70 78 71 79 72 80 73 81 52 82 53 83 61 84 54 85 60 86 55 87
REMARK SMILES IDX 56 88 57 89 58 90 59 91
REMARK H PARENT 19 6 3 11 24 28 80 47 50 58
REMARK Flexibility Score: inf
ROOT
ATOM      1  C   UNL A   1      32.093  29.313  24.724  1.00  0.00     0.023 C 
ENDROOT
BRANCH   1   2
ATOM      2  C   UNL A   1      30.980  28.640  23.932  1.00  0.00     0.116 C 
BRANCH   2   3
ATOM      3  N   UNL A   1      31.485  27.538  23.131  1.00  0.00    -0.354 N 
ATOM      4  C   UNL A   1      31.075  26.231  23.116  1.00  0.00     0.242 C 
ATOM      5  O   UNL A   1      31.573  25.459  22.296  1.00  0.00    -0.273 OA
ATOM      6  H   UNL A   1      32.220  27.761  22.515  1.00  0.00     0.163 HD
BRANCH   4   7
ATOM      7  C   UNL A   1      29.916  25.789  24.037  1.00  0.00     0.168 C 
ATOM      8  C   UNL A   1      28.738  26.691  23.720  1.00  0.00     0.041 C 
BRANCH   7   9
ATOM      9  N   UNL A   1      30.452  25.701  25.407  1.00  0.00    -0.341 N 
ATOM     10  C   UNL A   1      31.346  24.982  26.117  1.00  0.00     0.261 C 
ATOM     11  H   UNL A   1      30.025  26.375  25.983  1.00  0.00     0.164 HD
ATOM     12  O   UNL A   1      31.682  25.504  27.192  1.00  0.00    -0.271 OA
BRANCH  10  13
ATOM     13  C   UNL A   1      31.912  23.577  25.765  1.00  0.00     0.258 C 
ATOM     14  C   UNL A   1      30.824  22.502  25.843  1.00  0.00     0.064 C 
BRANCH  13  15
ATOM     15  O   UNL A   1      32.853  23.243  24.754  1.00  0.00    -0.480 OA
BRANCH  15  16
ATOM     16  C   UNL A   1      34.148  23.041  25.112  1.00  0.00     0.134 A 
ATOM     17  C   UNL A   1      34.959  24.085  25.555  1.00  0.00     0.049 A 
ATOM     18  C   UNL A   1      34.653  21.732  25.087  1.00  0.00     0.061 A 
ATOM     19  C   UNL A   1      36.307  23.846  25.833  1.00  0.00     0.024 A 
ATOM     20  C   UNL A   1      36.000  21.491  25.361  1.00  0.00     0.040 A 
ATOM     21  Br  UNL A   1      33.560  20.258  24.597  1.00  0.00    -0.047 Br
ATOM     22  C   UNL A   1      36.825  22.558  25.710  1.00  0.00     0.042 A 
ATOM     23  Cl  UNL A   1      38.500  22.283  25.985  1.00  0.00    -0.084 Cl
ENDBRANCH  15  16
ENDBRANCH  13  15
ENDBRANCH  10  13
ENDBRANCH   7   9
ENDBRANCH   4   7
ENDBRANCH   2   3
ENDBRANCH   1   2
BRANCH   1  24
ATOM     24  C   UNL A   1      32.755  28.388  25.745  1.00  0.00     0.023 C 
BRANCH  24  25
ATOM     25  C   UNL A   1      34.036  28.940  26.361  1.00  0.00     0.116 C 
BRANCH  25  26
ATOM     26  N   UNL A   1      33.842  30.197  27.071  1.00  0.00    -0.352 N 
ATOM     27  C   UNL A   1      34.694  30.773  27.986  1.00  0.00     0.251 C 
ATOM     28  H   UNL A   1      33.013  30.688  26.874  1.00  0.00     0.163 HD
ATOM     29  O   UNL A   1      34.383  31.786  28.594  1.00  0.00    -0.269 OA
BRANCH  27  30
ATOM     30  C   UNL A   1      35.981  30.098  28.234  1.00  0.00     0.039 A 
ATOM     31  C   UNL A   1      36.978  30.166  27.261  1.00  0.00     0.014 A 
ATOM     32  C   UNL A   1      36.229  29.525  29.484  1.00  0.00     0.014 A 
ATOM     33  C   UNL A   1      38.259  29.710  27.569  1.00  0.00     0.010 A 
ATOM     34  C   UNL A   1      37.522  29.138  29.810  1.00  0.00     0.010 A 
ATOM     35  C   UNL A   1      38.549  29.228  28.858  1.00  0.00    -0.014 A 
BRANCH  35  36
ATOM     36  C   UNL A   1      39.922  28.810  29.231  1.00  0.00     0.031 A 
ATOM     37  C   UNL A   1      40.821  29.771  29.955  1.00  0.00     0.074 A 
ATOM     38  C   UNL A   1      40.378  27.598  28.856  1.00  0.00     0.049 A 
ATOM     39  N   UNL A   1      42.068  29.618  30.316  1.00  0.00    -0.248 NA
ATOM     40  C   UNL A   1      40.254  31.087  30.291  1.00  0.00     0.031 C 
ATOM     41  C   UNL A   1      39.617  26.596  28.105  1.00  0.00     0.029 A 
ATOM     42  N   UNL A   1      41.600  27.005  29.052  1.00  0.00    -0.354 N 
ATOM     43  C   UNL A   1      42.442  30.825  30.898  1.00  0.00     0.074 A 
ATOM     44  C   UNL A   1      41.305  31.713  30.798  1.00  0.00     0.031 C 
ATOM     45  C   UNL A   1      40.378  25.502  27.932  1.00  0.00     0.029 A 
ATOM     46  C   UNL A   1      41.690  25.737  28.528  1.00  0.00     0.049 A 
ATOM     47  H   UNL A   1      42.343  27.445  29.525  1.00  0.00     0.167 HD
ATOM     48  C   UNL A   1      43.617  31.156  31.481  1.00  0.00     0.031 A 
ATOM     49  C   UNL A   1      42.714  24.861  28.528  1.00  0.00     0.031 A 
ATOM     50  C   UNL A   1      44.735  30.260  31.602  1.00  0.00     0.049 A 
ATOM     51  C   UNL A   1      44.004  25.245  29.199  1.00  0.00     0.074 A 
ATOM     52  C   UNL A   1      45.944  30.474  32.237  1.00  0.00     0.029 A 
ATOM     53  N   UNL A   1      44.778  28.977  31.077  1.00  0.00    -0.354 N 
ATOM     54  N   UNL A   1      44.315  26.366  29.807  1.00  0.00    -0.248 NA
ATOM     55  C   UNL A   1      45.078  24.243  29.194  1.00  0.00     0.031 C 
ATOM     56  C   UNL A   1      46.736  29.334  32.061  1.00  0.00     0.029 A 
ATOM     57  C   UNL A   1      46.001  28.394  31.359  1.00  0.00     0.049 A 
ATOM     58  H   UNL A   1      44.047  28.545  30.579  1.00  0.00     0.167 HD
ATOM     59  C   UNL A   1      45.610  26.193  30.280  1.00  0.00     0.074 A 
ATOM     60  C   UNL A   1      46.020  24.857  29.898  1.00  0.00     0.031 C 
ATOM     61  C   UNL A   1      46.388  27.061  30.971  1.00  0.00     0.031 A 
BRANCH  48  62
ATOM     62  C   UNL A   1      43.747  32.550  32.031  1.00  0.00    -0.014 A 
ATOM     63  C   UNL A   1      43.319  32.858  33.336  1.00  0.00     0.010 A 
ATOM     64  C   UNL A   1      44.322  33.562  31.242  1.00  0.00     0.010 A 
ATOM     65  C   UNL A   1      43.420  34.164  33.823  1.00  0.00     0.020 A 
ATOM     66  C   UNL A   1      44.451  34.863  31.737  1.00  0.00     0.020 A 
ATOM     67  C   UNL A   1      43.980  35.159  33.017  1.00  0.00     0.054 A 
BRANCH  67  68
ATOM     68  S   UNL A   1      44.111  36.842  33.679  1.00  0.00     0.124 S 
ATOM     69  O   UNL A   1      44.758  36.608  34.969  1.00  0.00    -0.237 OA
ATOM     70  O   UNL A   1      44.934  37.519  32.679  1.00  0.00    -0.237 OA
ATOM     71  O   UNL A   1      42.725  37.295  33.750  1.00  0.00    -0.744 OA
ENDBRANCH  67  68
ENDBRANCH  48  62
BRANCH  49  72
ATOM     72  C   UNL A   1      42.549  23.522  27.902  1.00  0.00    -0.014 A 
ATOM     73  C   UNL A   1      43.116  23.252  26.643  1.00  0.00     0.010 A 
ATOM     74  C   UNL A   1      41.837  22.505  28.563  1.00  0.00     0.010 A 
ATOM     75  C   UNL A   1      42.960  21.997  26.049  1.00  0.00     0.020 A 
ATOM     76  C   UNL A   1      41.700  21.240  27.983  1.00  0.00     0.020 A 
ATOM     77  C   UNL A   1      42.253  20.998  26.723  1.00  0.00     0.054 A 
BRANCH  77  78
ATOM     78  S   UNL A   1      42.109  19.358  25.958  1.00  0.00     0.124 S 
ATOM     79  O   UNL A   1      42.925  19.512  24.758  1.00  0.00    -0.237 OA
ATOM     80  O   UNL A   1      42.655  18.479  26.988  1.00  0.00    -0.237 OA
ATOM     81  O   UNL A   1      40.673  19.216  25.727  1.00  0.00    -0.744 OA
ENDBRANCH  77  78
ENDBRANCH  49  72
BRANCH  61  82
ATOM     82  C   UNL A   1      47.753  26.584  31.389  1.00  0.00    -0.014 A 
ATOM     83  C   UNL A   1      48.892  26.872  30.617  1.00  0.00     0.010 A 
ATOM     84  C   UNL A   1      47.901  25.889  32.604  1.00  0.00     0.010 A 
ATOM     85  C   UNL A   1      50.154  26.449  31.041  1.00  0.00     0.020 A 
ATOM     86  C   UNL A   1      49.164  25.486  33.042  1.00  0.00     0.020 A 
ATOM     87  C   UNL A   1      50.282  25.757  32.250  1.00  0.00     0.054 A 
BRANCH  87  88
ATOM     88  S   UNL A   1      51.937  25.262  32.803  1.00  0.00     0.124 S 
ATOM     89  O   UNL A   1      52.266  26.319  33.756  1.00  0.00    -0.237 OA
ATOM     90  O   UNL A   1      51.701  23.943  33.385  1.00  0.00    -0.237 OA
ATOM     91  O   UNL A   1      52.727  25.262  31.574  1.00  0.00    -0.744 OA
ENDBRANCH  87  88
ENDBRANCH  61  82
ENDBRANCH  35  36
ENDBRANCH  27  30
ENDBRANCH  25  26
ENDBRANCH  24  25
ENDBRANCH   1  24
TORSDOF 18
ENDMDL
MODEL 3
REMARK VINA RESULT:     -11.1      6.561     12.140
REMARK SMILES C[C@H](NC(=O)[C@@H](C)Oc1ccc(Cl)cc1Br)C(=O)NCCCCNC(=O)c1ccc(-c2c3nc(c(-c4ccc(S(=O)(=O)[O-])cc4)c4ccc([nH]4)c(-c4ccc(S(=O)(=O)[O-])cc4)c4nc(c(-c5ccc(S(=O)(=O)[O-])cc5)c5ccc2[nH]5)C=C4)C=C3)cc1
REMARK SMILES IDX 21 1 20 2 19 3 17 4 18 5 2 7 1 8 3 9 4 10 5 12 6 13 7 14
REMARK SMILES IDX 8 15 9 16 10 17 15 18 11 19 14 20 16 21 12 22 13 23 22 24
REMARK SMILES IDX 23 25 24 26 25 27 26 29 27 30 28 31 86 32 29 33 85 34 30 35
REMARK SMILES IDX 31 36 32 37 79 38 33 39 84 40 78 41 80 42 34 43 83 44 77 45
REMARK SMILES IDX 76 46 35 48 65 49 46 50 64 51 47 52 50 53 63 54 81 55 48 56
REMARK SMILES IDX 49 57 62 59 82 60 51 61 36 62 37 63 45 64 38 65 44 66 39 67
REMARK SMILES IDX 40 68 41 69 42 70 43 71 66 72 67 73 75 74 68 75 74 76 69 77
REMARK SMILES IDX 70 78 71 79 72 80 73 81 52 82 53 83 61 84 54 85 60 86 55 87
REMARK SMILES IDX 56 88 57 89 58 90 59 91
REMARK H PARENT 19 6 3 11 24 28 80 47 50 58
REMARK Flexibility Score: inf
ROOT
ATOM      1  C   UNL A   1      40.481  21.318  27.302  1.00  0.00     0.023 C 
ENDROOT
BRANCH   1   2
ATOM      2  C   UNL A   1      39.570  21.566  26.108  1.00  0.00     0.116 C 
BRANCH   2   3
ATOM      3  N   UNL A   1      38.633  22.647  26.366  1.00  0.00    -0.354 N 
ATOM      4  C   UNL A   1      37.403  22.867  25.805  1.00  0.00     0.242 C 
ATOM      5  O   UNL A   1      36.716  23.799  26.223  1.00  0.00    -0.273 OA
ATOM      6  H   UNL A   1      38.922  23.310  27.034  1.00  0.00     0.163 HD
BRANCH   4   7
ATOM      7  C   UNL A   1      36.857  21.870  24.758  1.00  0.00     0.168 C 
ATOM      8  C   UNL A   1      36.739  22.630  23.451  1.00  0.00     0.041 C 
BRANCH   7   9
ATOM      9  N   UNL A   1      35.684  21.206  25.355  1.00  0.00    -0.341 N 
ATOM     10  C   UNL A   1      34.354  21.390  25.485  1.00  0.00     0.261 C 
ATOM     11  H   UNL A   1      35.955  20.368  25.794  1.00  0.00     0.164 HD
ATOM     12  O   UNL A   1      33.726  20.370  25.809  1.00  0.00    -0.271 OA
BRANCH  10  13
ATOM     13  C   UNL A   1      33.575  22.730  25.352  1.00  0.00     0.258 C 
ATOM     14  C   UNL A   1      33.190  23.289  26.725  1.00  0.00     0.064 C 
BRANCH  13  15
ATOM     15  O   UNL A   1      33.818  23.795  24.444  1.00  0.00    -0.480 OA
BRANCH  15  16
ATOM     16  C   UNL A   1      33.352  25.033  24.754  1.00  0.00     0.134 A 
ATOM     17  C   UNL A   1      34.164  25.996  25.351  1.00  0.00     0.049 A 
ATOM     18  C   UNL A   1      32.032  25.358  24.405  1.00  0.00     0.061 A 
ATOM     19  C   UNL A   1      33.621  27.226  25.728  1.00  0.00     0.024 A 
ATOM     20  C   UNL A   1      31.485  26.585  24.783  1.00  0.00     0.040 A 
ATOM     21  Br  UNL A   1      30.916  24.122  23.491  1.00  0.00    -0.047 Br
ATOM     22  C   UNL A   1      32.280  27.503  25.464  1.00  0.00     0.042 A 
ATOM     23  Cl  UNL A   1      31.597  28.991  25.993  1.00  0.00    -0.084 Cl
ENDBRANCH  15  16
ENDBRANCH  13  15
ENDBRANCH  10  13
ENDBRANCH   7   9
ENDBRANCH   4   7
ENDBRANCH   2   3
ENDBRANCH   1   2
BRANCH   1  24
ATOM     24  C   UNL A   1      41.916  21.795  27.080  1.00  0.00     0.023 C 
BRANCH  24  25
ATOM     25  C   UNL A   1      42.124  23.291  27.287  1.00  0.00     0.116 C 
BRANCH  25  26
ATOM     26  N   UNL A   1      41.846  24.085  26.098  1.00  0.00    -0.352 N 
ATOM     27  C   UNL A   1      41.490  25.414  26.051  1.00  0.00     0.251 C 
ATOM     28  H   UNL A   1      41.921  23.620  25.234  1.00  0.00     0.163 HD
ATOM     29  O   UNL A   1      41.185  25.954  24.998  1.00  0.00    -0.269 OA
BRANCH  27  30
ATOM     30  C   UNL A   1      41.453  26.151  27.327  1.00  0.00     0.039 A 
ATOM     31  C   UNL A   1      42.468  27.066  27.609  1.00  0.00     0.014 A 
ATOM     32  C   UNL A   1      40.340  26.027  28.162  1.00  0.00     0.014 A 
ATOM     33  C   UNL A   1      42.333  27.911  28.710  1.00  0.00     0.010 A 
ATOM     34  C   UNL A   1      40.176  26.917  29.214  1.00  0.00     0.010 A 
ATOM     35  C   UNL A   1      41.169  27.868  29.497  1.00  0.00    -0.014 A 
BRANCH  35  36
ATOM     36  C   UNL A   1      40.970  28.809  30.626  1.00  0.00     0.031 A 
ATOM     37  C   UNL A   1      41.829  28.692  31.853  1.00  0.00     0.074 A 
ATOM     38  C   UNL A   1      39.975  29.717  30.574  1.00  0.00     0.049 A 
ATOM     39  N   UNL A   1      41.774  29.377  32.965  1.00  0.00    -0.248 NA
ATOM     40  C   UNL A   1      42.866  27.647  31.840  1.00  0.00     0.031 C 
ATOM     41  C   UNL A   1      39.042  29.894  29.458  1.00  0.00     0.029 A 
ATOM     42  N   UNL A   1      39.578  30.660  31.489  1.00  0.00    -0.354 N 
ATOM     43  C   UNL A   1      42.749  28.831  33.792  1.00  0.00     0.074 A 
ATOM     44  C   UNL A   1      43.347  27.728  33.072  1.00  0.00     0.031 C 
ATOM     45  C   UNL A   1      38.203  30.905  29.741  1.00  0.00     0.029 A 
ATOM     46  C   UNL A   1      38.515  31.424  31.070  1.00  0.00     0.049 A 
ATOM     47  H   UNL A   1      40.015  30.779  32.363  1.00  0.00     0.167 HD
ATOM     48  C   UNL A   1      43.128  29.225  35.030  1.00  0.00     0.031 A 
ATOM     49  C   UNL A   1      37.865  32.431  31.686  1.00  0.00     0.031 A 
ATOM     50  C   UNL A   1      42.549  30.339  35.731  1.00  0.00     0.049 A 
ATOM     51  C   UNL A   1      38.317  32.863  33.054  1.00  0.00     0.074 A 
ATOM     52  C   UNL A   1      42.910  30.864  36.958  1.00  0.00     0.029 A 
ATOM     53  N   UNL A   1      41.490  31.101  35.262  1.00  0.00    -0.354 N 
ATOM     54  N   UNL A   1      39.288  32.380  33.791  1.00  0.00    -0.248 NA
ATOM     55  C   UNL A   1      37.591  33.983  33.669  1.00  0.00     0.031 C 
ATOM     56  C   UNL A   1      42.039  31.919  37.253  1.00  0.00     0.029 A 
ATOM     57  C   UNL A   1      41.170  32.081  36.186  1.00  0.00     0.049 A 
ATOM     58  H   UNL A   1      41.033  30.965  34.401  1.00  0.00     0.167 HD
ATOM     59  C   UNL A   1      39.309  33.155  34.945  1.00  0.00     0.074 A 
ATOM     60  C   UNL A   1      38.259  34.144  34.803  1.00  0.00     0.031 C 
ATOM     61  C   UNL A   1      40.123  33.058  36.024  1.00  0.00     0.031 A 
BRANCH  48  62
ATOM     62  C   UNL A   1      44.222  28.440  35.701  1.00  0.00    -0.014 A 
ATOM     63  C   UNL A   1      45.575  28.787  35.530  1.00  0.00     0.010 A 
ATOM     64  C   UNL A   1      43.894  27.352  36.529  1.00  0.00     0.010 A 
ATOM     65  C   UNL A   1      46.581  28.032  36.137  1.00  0.00     0.020 A 
ATOM     66  C   UNL A   1      44.897  26.611  37.160  1.00  0.00     0.020 A 
ATOM     67  C   UNL A   1      46.235  26.944  36.944  1.00  0.00     0.054 A 
BRANCH  67  68
ATOM     68  S   UNL A   1      47.560  25.988  37.730  1.00  0.00     0.124 S 
ATOM     69  O   UNL A   1      48.732  26.417  36.969  1.00  0.00    -0.237 OA
ATOM     70  O   UNL A   1      47.510  26.446  39.116  1.00  0.00    -0.237 OA
ATOM     71  O   UNL A   1      47.156  24.600  37.522  1.00  0.00    -0.744 OA
ENDBRANCH  67  68
ENDBRANCH  48  62
BRANCH  49  72
ATOM     72  C   UNL A   1      36.741  33.122  31.000  1.00  0.00    -0.014 A 
ATOM     73  C   UNL A   1      35.476  33.200  31.611  1.00  0.00     0.010 A 
ATOM     74  C   UNL A   1      36.928  33.717  29.739  1.00  0.00     0.010 A 
ATOM     75  C   UNL A   1      34.416  33.844  30.968  1.00  0.00     0.020 A 
ATOM     76  C   UNL A   1      35.876  34.384  29.104  1.00  0.00     0.020 A 
ATOM     77  C   UNL A   1      34.623  34.433  29.718  1.00  0.00     0.054 A 
BRANCH  77  78
ATOM     78  S   UNL A   1      33.247  35.313  28.925  1.00  0.00     0.124 S 
ATOM     79  O   UNL A   1      33.945  36.348  28.169  1.00  0.00    -0.237 OA
ATOM     80  O   UNL A   1      32.616  34.263  28.130  1.00  0.00    -0.237 OA
ATOM     81  O   UNL A   1      32.452  35.790  30.055  1.00  0.00    -0.744 OA
ENDBRANCH  77  78
ENDBRANCH  49  72
BRANCH  61  82
ATOM     82  C   UNL A   1      39.937  34.067  37.124  1.00  0.00    -0.014 A 
ATOM     83  C   UNL A   1      40.524  35.342  37.049  1.00  0.00     0.010 A 
ATOM     84  C   UNL A   1      39.110  33.753  38.218  1.00  0.00     0.010 A 
ATOM     85  C   UNL A   1      40.310  36.276  38.065  1.00  0.00     0.020 A 
ATOM     86  C   UNL A   1      38.874  34.693  39.223  1.00  0.00     0.020 A 
ATOM     87  C   UNL A   1      39.488  35.946  39.147  1.00  0.00     0.054 A 
BRANCH  87  88
ATOM     88  S   UNL A   1      39.185  37.192  40.429  1.00  0.00     0.124 S 
ATOM     89  O   UNL A   1      40.526  37.724  40.657  1.00  0.00    -0.237 OA
ATOM     90  O   UNL A   1      38.250  38.105  39.776  1.00  0.00    -0.237 OA
ATOM     91  O   UNL A   1      38.623  36.422  41.535  1.00  0.00    -0.744 OA
ENDBRANCH  87  88
ENDBRANCH  61  82
ENDBRANCH  35  36
ENDBRANCH  27  30
ENDBRANCH  25  26
ENDBRANCH  24  25
ENDBRANCH   1  24
TORSDOF 18
ENDMDL
