MODEL 1
REMARK VINA RESULT:      -9.3      0.000      0.000
REMARK SMILES CCN(C(=O)N(CCOC)CC(=O)NCCCCNC(=O)c1ccc(-c2c3nc(c(-c4ccc(S(=O)(=O)[O-])cc4)c4ccc([nH]4)c(-c4ccc(S(=O)(=O)[O-])cc4)c4nc(c(-c5ccc(S(=O)(=O)[O-])cc5)c5ccc2[nH]5)C=C4)C=C3)cc1)C1CCCC1
REMARK SMILES IDX 16 1 15 2 14 3 12 4 13 5 11 7 6 8 4 9 5 10 3 11 2 12 1 13
REMARK SMILES IDX 82 14 83 15 86 16 84 17 85 18 7 19 8 20 9 21 10 22 17 23
REMARK SMILES IDX 18 24 19 25 20 26 21 28 22 29 23 30 81 31 24 32 80 33 25 34
REMARK SMILES IDX 26 35 27 36 74 37 28 38 79 39 73 40 75 41 29 42 78 43 72 44
REMARK SMILES IDX 71 45 30 47 60 48 41 49 59 50 42 51 45 52 58 53 76 54 43 55
REMARK SMILES IDX 44 56 57 58 77 59 46 60 31 61 32 62 40 63 33 64 39 65 34 66
REMARK SMILES IDX 35 67 36 68 37 69 38 70 61 71 62 72 70 73 63 74 69 75 64 76
REMARK SMILES IDX 65 77 66 78 67 79 68 80 47 81 48 82 56 83 49 84 55 85 50 86
REMARK SMILES IDX 51 87 52 88 53 89 54 90
REMARK H PARENT 14 6 19 27 75 46 45 57
REMARK Flexibility Score: inf
ROOT
ATOM      1  C   UNL A   1      38.997  23.615  26.633  1.00  0.00     0.023 C 
ENDROOT
BRANCH   1   2
ATOM      2  C   UNL A   1      37.735  23.692  25.789  1.00  0.00     0.116 C 
BRANCH   2   3
ATOM      3  N   UNL A   1      36.516  23.416  26.504  1.00  0.00    -0.355 N 
ATOM      4  C   UNL A   1      35.494  22.578  26.154  1.00  0.00     0.239 C 
ATOM      5  O   UNL A   1      34.730  22.225  27.060  1.00  0.00    -0.273 OA
ATOM      6  H   UNL A   1      36.403  23.895  27.356  1.00  0.00     0.163 HD
BRANCH   4   7
ATOM      7  C   UNL A   1      35.405  21.908  24.761  1.00  0.00     0.221 C 
BRANCH   7   8
ATOM      8  N   UNL A   1      34.132  21.903  24.011  1.00  0.00    -0.313 N 
BRANCH   8   9
ATOM      9  C   UNL A   1      33.810  23.156  23.508  1.00  0.00     0.320 C 
ATOM     10  O   UNL A   1      34.251  23.464  22.392  1.00  0.00    -0.248 OA
BRANCH   9  11
ATOM     11  N   UNL A   1      33.016  24.072  24.184  1.00  0.00    -0.322 N 
BRANCH  11  12
ATOM     12  C   UNL A   1      31.603  23.949  24.543  1.00  0.00     0.118 C 
ATOM     13  C   UNL A   1      30.661  24.160  23.357  1.00  0.00     0.027 C 
ENDBRANCH  11  12
BRANCH  11  14
ATOM     14  C   UNL A   1      33.693  25.367  24.452  1.00  0.00     0.087 C 
ATOM     15  C   UNL A   1      33.329  26.607  23.627  1.00  0.00     0.025 C 
ATOM     16  C   UNL A   1      33.462  25.853  25.888  1.00  0.00     0.025 C 
ATOM     17  C   UNL A   1      33.927  27.759  24.430  1.00  0.00     0.002 C 
ATOM     18  C   UNL A   1      33.891  27.316  25.891  1.00  0.00     0.002 C 
ENDBRANCH  11  14
ENDBRANCH   9  11
ENDBRANCH   8   9
BRANCH   8  19
ATOM     19  C   UNL A   1      33.223  20.793  24.360  1.00  0.00     0.150 C 
BRANCH  19  20
ATOM     20  C   UNL A   1      33.879  19.453  24.758  1.00  0.00     0.181 C 
BRANCH  20  21
ATOM     21  O   UNL A   1      32.996  18.650  25.545  1.00  0.00    -0.383 OA
ATOM     22  C   UNL A   1      32.553  17.455  24.921  1.00  0.00     0.194 C 
ENDBRANCH  20  21
ENDBRANCH  19  20
ENDBRANCH   8  19
ENDBRANCH   7   8
ENDBRANCH   4   7
ENDBRANCH   2   3
ENDBRANCH   1   2
BRANCH   1  23
ATOM     23  C   UNL A   1      39.503  22.199  26.887  1.00  0.00     0.023 C 
BRANCH  23  24
ATOM     24  C   UNL A   1      39.408  21.242  25.702  1.00  0.00     0.116 C 
BRANCH  24  25
ATOM     25  N   UNL A   1      40.127  19.989  25.894  1.00  0.00    -0.352 N 
ATOM     26  C   UNL A   1      41.453  19.798  26.221  1.00  0.00     0.251 C 
ATOM     27  H   UNL A   1      39.594  19.170  25.775  1.00  0.00     0.163 HD
ATOM     28  O   UNL A   1      41.925  18.671  26.258  1.00  0.00    -0.269 OA
BRANCH  26  29
ATOM     29  C   UNL A   1      42.304  20.980  26.481  1.00  0.00     0.039 A 
ATOM     30  C   UNL A   1      42.730  21.757  25.401  1.00  0.00     0.014 A 
ATOM     31  C   UNL A   1      42.605  21.363  27.789  1.00  0.00     0.014 A 
ATOM     32  C   UNL A   1      43.376  22.973  25.641  1.00  0.00     0.010 A 
ATOM     33  C   UNL A   1      43.170  22.613  28.027  1.00  0.00     0.010 A 
ATOM     34  C   UNL A   1      43.552  23.437  26.956  1.00  0.00    -0.014 A 
BRANCH  34  35
ATOM     35  C   UNL A   1      44.108  24.787  27.235  1.00  0.00     0.031 A 
ATOM     36  C   UNL A   1      43.203  25.899  27.691  1.00  0.00     0.074 A 
ATOM     37  C   UNL A   1      45.413  25.036  27.000  1.00  0.00     0.049 A 
ATOM     38  N   UNL A   1      43.488  27.157  27.912  1.00  0.00    -0.248 NA
ATOM     39  C   UNL A   1      41.785  25.559  27.899  1.00  0.00     0.031 C 
ATOM     40  C   UNL A   1      46.390  24.062  26.504  1.00  0.00     0.029 A 
ATOM     41  N   UNL A   1      46.143  26.191  27.138  1.00  0.00    -0.354 N 
ATOM     42  C   UNL A   1      42.286  27.761  28.260  1.00  0.00     0.074 A 
ATOM     43  C   UNL A   1      41.260  26.744  28.173  1.00  0.00     0.031 C 
ATOM     44  C   UNL A   1      47.592  24.652  26.409  1.00  0.00     0.029 A 
ATOM     45  C   UNL A   1      47.468  26.053  26.796  1.00  0.00     0.049 A 
ATOM     46  H   UNL A   1      45.754  27.039  27.453  1.00  0.00     0.167 HD
ATOM     47  C   UNL A   1      42.057  29.041  28.639  1.00  0.00     0.031 A 
ATOM     48  C   UNL A   1      48.472  26.952  26.791  1.00  0.00     0.031 A 
ATOM     49  C   UNL A   1      43.079  30.048  28.744  1.00  0.00     0.049 A 
ATOM     50  C   UNL A   1      48.196  28.366  27.225  1.00  0.00     0.074 A 
ATOM     51  C   UNL A   1      42.956  31.356  29.180  1.00  0.00     0.029 A 
ATOM     52  N   UNL A   1      44.412  29.860  28.414  1.00  0.00    -0.354 N 
ATOM     53  N   UNL A   1      47.064  28.900  27.616  1.00  0.00    -0.248 NA
ATOM     54  C   UNL A   1      49.336  29.293  27.231  1.00  0.00     0.031 C 
ATOM     55  C   UNL A   1      44.207  31.972  29.070  1.00  0.00     0.029 A 
ATOM     56  C   UNL A   1      45.119  31.033  28.618  1.00  0.00     0.049 A 
ATOM     57  H   UNL A   1      44.799  29.018  28.082  1.00  0.00     0.167 HD
ATOM     58  C   UNL A   1      47.361  30.219  27.940  1.00  0.00     0.074 A 
ATOM     59  C   UNL A   1      48.780  30.397  27.712  1.00  0.00     0.031 C 
ATOM     60  C   UNL A   1      46.532  31.195  28.387  1.00  0.00     0.031 A 
BRANCH  47  61
ATOM     61  C   UNL A   1      40.638  29.422  28.970  1.00  0.00    -0.014 A 
ATOM     62  C   UNL A   1      40.254  29.702  30.295  1.00  0.00     0.010 A 
ATOM     63  C   UNL A   1      39.683  29.530  27.944  1.00  0.00     0.010 A 
ATOM     64  C   UNL A   1      38.931  30.037  30.592  1.00  0.00     0.020 A 
ATOM     65  C   UNL A   1      38.364  29.894  28.232  1.00  0.00     0.020 A 
ATOM     66  C   UNL A   1      37.992  30.126  29.559  1.00  0.00     0.054 A 
BRANCH  66  67
ATOM     67  S   UNL A   1      36.286  30.578  29.972  1.00  0.00     0.124 S 
ATOM     68  O   UNL A   1      35.577  30.232  28.742  1.00  0.00    -0.237 OA
ATOM     69  O   UNL A   1      35.996  29.727  31.123  1.00  0.00    -0.237 OA
ATOM     70  O   UNL A   1      36.367  32.008  30.263  1.00  0.00    -0.744 OA
ENDBRANCH  66  67
ENDBRANCH  47  61
BRANCH  48  71
ATOM     71  C   UNL A   1      49.842  26.536  26.380  1.00  0.00    -0.014 A 
ATOM     72  C   UNL A   1      50.284  26.748  25.062  1.00  0.00     0.010 A 
ATOM     73  C   UNL A   1      50.714  25.936  27.306  1.00  0.00     0.010 A 
ATOM     74  C   UNL A   1      51.567  26.352  24.673  1.00  0.00     0.020 A 
ATOM     75  C   UNL A   1      52.008  25.564  26.928  1.00  0.00     0.020 A 
ATOM     76  C   UNL A   1      52.422  25.764  25.609  1.00  0.00     0.054 A 
BRANCH  76  77
ATOM     77  S   UNL A   1      54.102  25.309  25.095  1.00  0.00     0.124 S 
ATOM     78  O   UNL A   1      54.886  25.665  26.273  1.00  0.00    -0.237 OA
ATOM     79  O   UNL A   1      53.974  23.879  24.826  1.00  0.00    -0.237 OA
ATOM     80  O   UNL A   1      54.332  26.137  23.913  1.00  0.00    -0.744 OA
ENDBRANCH  76  77
ENDBRANCH  48  71
BRANCH  60  81
ATOM     81  C   UNL A   1      47.143  32.535  28.695  1.00  0.00    -0.014 A 
ATOM     82  C   UNL A   1      47.685  32.817  29.961  1.00  0.00     0.010 A 
ATOM     83  C   UNL A   1      47.221  33.509  27.683  1.00  0.00     0.010 A 
ATOM     84  C   UNL A   1      48.267  34.061  30.219  1.00  0.00     0.020 A 
ATOM     85  C   UNL A   1      47.826  34.745  27.929  1.00  0.00     0.020 A 
ATOM     86  C   UNL A   1      48.331  35.018  29.201  1.00  0.00     0.054 A 
BRANCH  86  87
ATOM     87  S   UNL A   1      49.128  36.611  29.547  1.00  0.00     0.124 S 
ATOM     88  O   UNL A   1      50.309  36.551  28.692  1.00  0.00    -0.237 OA
ATOM     89  O   UNL A   1      48.107  37.576  29.143  1.00  0.00    -0.237 OA
ATOM     90  O   UNL A   1      49.395  36.559  30.983  1.00  0.00    -0.744 OA
ENDBRANCH  86  87
ENDBRANCH  60  81
ENDBRANCH  34  35
ENDBRANCH  26  29
ENDBRANCH  24  25
ENDBRANCH  23  24
ENDBRANCH   1  23
TORSDOF 22
ENDMDL
MODEL 2
REMARK VINA RESULT:      -9.2      4.056      9.688
REMARK SMILES CCN(C(=O)N(CCOC)CC(=O)NCCCCNC(=O)c1ccc(-c2c3nc(c(-c4ccc(S(=O)(=O)[O-])cc4)c4ccc([nH]4)c(-c4ccc(S(=O)(=O)[O-])cc4)c4nc(c(-c5ccc(S(=O)(=O)[O-])cc5)c5ccc2[nH]5)C=C4)C=C3)cc1)C1CCCC1
REMARK SMILES IDX 16 1 15 2 14 3 12 4 13 5 11 7 6 8 4 9 5 10 3 11 2 12 1 13
REMARK SMILES IDX 82 14 83 15 86 16 84 17 85 18 7 19 8 20 9 21 10 22 17 23
REMARK SMILES IDX 18 24 19 25 20 26 21 28 22 29 23 30 81 31 24 32 80 33 25 34
REMARK SMILES IDX 26 35 27 36 74 37 28 38 79 39 73 40 75 41 29 42 78 43 72 44
REMARK SMILES IDX 71 45 30 47 60 48 41 49 59 50 42 51 45 52 58 53 76 54 43 55
REMARK SMILES IDX 44 56 57 58 77 59 46 60 31 61 32 62 40 63 33 64 39 65 34 66
REMARK SMILES IDX 35 67 36 68 37 69 38 70 61 71 62 72 70 73 63 74 69 75 64 76
REMARK SMILES IDX 65 77 66 78 67 79 68 80 47 81 48 82 56 83 49 84 55 85 50 86
REMARK SMILES IDX 51 87 52 88 53 89 54 90
REMARK H PARENT 14 6 19 27 75 46 45 57
REMARK Flexibility Score: inf
ROOT
ATOM      1  C   UNL A   1      34.543  23.635  25.634  1.00  0.00     0.023 C 
ENDROOT
BRANCH   1   2
ATOM      2  C   UNL A   1      33.867  22.569  24.788  1.00  0.00     0.116 C 
BRANCH   2   3
ATOM      3  N   UNL A   1      33.977  22.770  23.366  1.00  0.00    -0.355 N 
ATOM      4  C   UNL A   1      33.191  23.533  22.551  1.00  0.00     0.239 C 
ATOM      5  O   UNL A   1      33.666  23.845  21.452  1.00  0.00    -0.273 OA
ATOM      6  H   UNL A   1      34.716  22.294  22.924  1.00  0.00     0.163 HD
BRANCH   4   7
ATOM      7  C   UNL A   1      31.869  24.181  23.033  1.00  0.00     0.221 C 
BRANCH   7   8
ATOM      8  N   UNL A   1      31.832  25.602  23.435  1.00  0.00    -0.313 N 
BRANCH   8   9
ATOM      9  C   UNL A   1      31.630  26.452  22.357  1.00  0.00     0.320 C 
ATOM     10  O   UNL A   1      31.699  25.970  21.218  1.00  0.00    -0.248 OA
BRANCH   9  11
ATOM     11  N   UNL A   1      31.347  27.804  22.489  1.00  0.00    -0.322 N 
BRANCH  11  12
ATOM     12  C   UNL A   1      32.271  28.890  22.819  1.00  0.00     0.118 C 
ATOM     13  C   UNL A   1      33.736  28.528  22.573  1.00  0.00     0.027 C 
ENDBRANCH  11  12
BRANCH  11  14
ATOM     14  C   UNL A   1      29.900  28.126  22.392  1.00  0.00     0.087 C 
ATOM     15  C   UNL A   1      28.928  27.611  23.459  1.00  0.00     0.025 C 
ATOM     16  C   UNL A   1      29.642  29.637  22.419  1.00  0.00     0.025 C 
ATOM     17  C   UNL A   1      27.668  28.441  23.227  1.00  0.00     0.002 C 
ATOM     18  C   UNL A   1      28.146  29.785  22.679  1.00  0.00     0.002 C 
ENDBRANCH  11  14
ENDBRANCH   9  11
ENDBRANCH   8   9
BRANCH   8  19
ATOM     19  C   UNL A   1      32.508  25.891  24.716  1.00  0.00     0.150 C 
BRANCH  19  20
ATOM     20  C   UNL A   1      31.602  26.189  25.930  1.00  0.00     0.181 C 
BRANCH  20  21
ATOM     21  O   UNL A   1      31.392  27.594  26.096  1.00  0.00    -0.383 OA
ATOM     22  C   UNL A   1      31.930  28.146  27.287  1.00  0.00     0.194 C 
ENDBRANCH  20  21
ENDBRANCH  19  20
ENDBRANCH   8  19
ENDBRANCH   7   8
ENDBRANCH   4   7
ENDBRANCH   2   3
ENDBRANCH   1   2
BRANCH   1  23
ATOM     23  C   UNL A   1      35.912  23.238  26.177  1.00  0.00     0.023 C 
BRANCH  23  24
ATOM     24  C   UNL A   1      37.087  23.467  25.231  1.00  0.00     0.116 C 
BRANCH  24  25
ATOM     25  N   UNL A   1      38.237  22.611  25.496  1.00  0.00    -0.352 N 
ATOM     26  C   UNL A   1      39.411  22.923  26.149  1.00  0.00     0.251 C 
ATOM     27  H   UNL A   1      38.164  21.686  25.168  1.00  0.00     0.163 HD
ATOM     28  O   UNL A   1      40.320  22.108  26.211  1.00  0.00    -0.269 OA
BRANCH  26  29
ATOM     29  C   UNL A   1      39.571  24.275  26.729  1.00  0.00     0.039 A 
ATOM     30  C   UNL A   1      39.132  24.507  28.035  1.00  0.00     0.014 A 
ATOM     31  C   UNL A   1      40.228  25.279  26.016  1.00  0.00     0.014 A 
ATOM     32  C   UNL A   1      39.441  25.718  28.660  1.00  0.00     0.010 A 
ATOM     33  C   UNL A   1      40.608  26.449  26.668  1.00  0.00     0.010 A 
ATOM     34  C   UNL A   1      40.229  26.677  28.000  1.00  0.00    -0.014 A 
BRANCH  34  35
ATOM     35  C   UNL A   1      40.688  27.911  28.690  1.00  0.00     0.031 A 
ATOM     36  C   UNL A   1      42.072  27.979  29.278  1.00  0.00     0.074 A 
ATOM     37  C   UNL A   1      39.835  28.942  28.860  1.00  0.00     0.049 A 
ATOM     38  N   UNL A   1      42.625  28.936  29.978  1.00  0.00    -0.248 NA
ATOM     39  C   UNL A   1      42.938  26.805  29.077  1.00  0.00     0.031 C 
ATOM     40  C   UNL A   1      38.447  28.984  28.388  1.00  0.00     0.029 A 
ATOM     41  N   UNL A   1      40.005  30.152  29.487  1.00  0.00    -0.354 N 
ATOM     42  C   UNL A   1      43.890  28.472  30.320  1.00  0.00     0.074 A 
ATOM     43  C   UNL A   1      44.004  27.129  29.794  1.00  0.00     0.031 C 
ATOM     44  C   UNL A   1      37.906  30.169  28.715  1.00  0.00     0.029 A 
ATOM     45  C   UNL A   1      38.889  30.955  29.454  1.00  0.00     0.049 A 
ATOM     46  H   UNL A   1      40.848  30.420  29.918  1.00  0.00     0.167 HD
ATOM     47  C   UNL A   1      44.876  29.112  30.992  1.00  0.00     0.031 A 
ATOM     48  C   UNL A   1      38.676  32.184  29.964  1.00  0.00     0.031 A 
ATOM     49  C   UNL A   1      44.770  30.454  31.499  1.00  0.00     0.049 A 
ATOM     50  C   UNL A   1      39.790  32.879  30.698  1.00  0.00     0.074 A 
ATOM     51  C   UNL A   1      45.737  31.211  32.139  1.00  0.00     0.029 A 
ATOM     52  N   UNL A   1      43.631  31.241  31.422  1.00  0.00    -0.354 N 
ATOM     53  N   UNL A   1      41.003  32.448  30.952  1.00  0.00    -0.248 NA
ATOM     54  C   UNL A   1      39.511  34.230  31.203  1.00  0.00     0.031 C 
ATOM     55  C   UNL A   1      45.168  32.440  32.488  1.00  0.00     0.029 A 
ATOM     56  C   UNL A   1      43.865  32.469  32.019  1.00  0.00     0.049 A 
ATOM     57  H   UNL A   1      42.782  30.968  31.006  1.00  0.00     0.167 HD
ATOM     58  C   UNL A   1      41.639  33.486  31.622  1.00  0.00     0.074 A 
ATOM     59  C   UNL A   1      40.683  34.570  31.722  1.00  0.00     0.031 C 
ATOM     60  C   UNL A   1      42.903  33.538  32.110  1.00  0.00     0.031 A 
BRANCH  47  61
ATOM     61  C   UNL A   1      46.161  28.360  31.216  1.00  0.00    -0.014 A 
ATOM     62  C   UNL A   1      47.219  28.443  30.292  1.00  0.00     0.010 A 
ATOM     63  C   UNL A   1      46.327  27.585  32.377  1.00  0.00     0.010 A 
ATOM     64  C   UNL A   1      48.400  27.727  30.502  1.00  0.00     0.020 A 
ATOM     65  C   UNL A   1      47.518  26.889  32.606  1.00  0.00     0.020 A 
ATOM     66  C   UNL A   1      48.540  26.950  31.656  1.00  0.00     0.054 A 
BRANCH  66  67
ATOM     67  S   UNL A   1      50.090  26.043  31.910  1.00  0.00     0.124 S 
ATOM     68  O   UNL A   1      51.070  26.953  31.322  1.00  0.00    -0.237 OA
ATOM     69  O   UNL A   1      50.151  25.911  33.364  1.00  0.00    -0.237 OA
ATOM     70  O   UNL A   1      49.884  24.794  31.182  1.00  0.00    -0.744 OA
ENDBRANCH  66  67
ENDBRANCH  47  61
BRANCH  48  71
ATOM     71  C   UNL A   1      37.357  32.849  29.777  1.00  0.00    -0.014 A 
ATOM     72  C   UNL A   1      36.384  32.796  30.790  1.00  0.00     0.010 A 
ATOM     73  C   UNL A   1      37.071  33.548  28.590  1.00  0.00     0.010 A 
ATOM     74  C   UNL A   1      35.142  33.414  30.614  1.00  0.00     0.020 A 
ATOM     75  C   UNL A   1      35.840  34.190  28.421  1.00  0.00     0.020 A 
ATOM     76  C   UNL A   1      34.879  34.109  29.431  1.00  0.00     0.054 A 
BRANCH  76  77
ATOM     77  S   UNL A   1      33.281  34.950  29.247  1.00  0.00     0.124 S 
ATOM     78  O   UNL A   1      32.609  34.112  28.259  1.00  0.00    -0.237 OA
ATOM     79  O   UNL A   1      32.737  34.896  30.601  1.00  0.00    -0.237 OA
ATOM     80  O   UNL A   1      33.652  36.288  28.787  1.00  0.00    -0.744 OA
ENDBRANCH  76  77
ENDBRANCH  48  71
BRANCH  60  81
ATOM     81  C   UNL A   1      43.341  34.820  32.766  1.00  0.00    -0.014 A 
ATOM     82  C   UNL A   1      43.247  34.999  34.157  1.00  0.00     0.010 A 
ATOM     83  C   UNL A   1      43.904  35.842  31.979  1.00  0.00     0.010 A 
ATOM     84  C   UNL A   1      43.680  36.189  34.747  1.00  0.00     0.020 A 
ATOM     85  C   UNL A   1      44.361  37.024  32.569  1.00  0.00     0.020 A 
ATOM     86  C   UNL A   1      44.232  37.195  33.947  1.00  0.00     0.054 A 
BRANCH  86  87
ATOM     87  S   UNL A   1      44.824  38.715  34.740  1.00  0.00     0.124 S 
ATOM     88  O   UNL A   1      44.678  39.694  33.668  1.00  0.00    -0.237 OA
ATOM     89  O   UNL A   1      43.903  38.871  35.865  1.00  0.00    -0.237 OA
ATOM     90  O   UNL A   1      46.202  38.398  35.111  1.00  0.00    -0.744 OA
ENDBRANCH  86  87
ENDBRANCH  60  81
ENDBRANCH  34  35
ENDBRANCH  26  29
ENDBRANCH  24  25
ENDBRANCH  23  24
ENDBRANCH   1  23
TORSDOF 22
ENDMDL
MODEL 3
REMARK VINA RESULT:      -9.0      0.979      2.819
REMARK SMILES CCN(C(=O)N(CCOC)CC(=O)NCCCCNC(=O)c1ccc(-c2c3nc(c(-c4ccc(S(=O)(=O)[O-])cc4)c4ccc([nH]4)c(-c4ccc(S(=O)(=O)[O-])cc4)c4nc(c(-c5ccc(S(=O)(=O)[O-])cc5)c5ccc2[nH]5)C=C4)C=C3)cc1)C1CCCC1
REMARK SMILES IDX 16 1 15 2 14 3 12 4 13 5 11 7 6 8 4 9 5 10 3 11 2 12 1 13
REMARK SMILES IDX 82 14 83 15 86 16 84 17 85 18 7 19 8 20 9 21 10 22 17 23
REMARK SMILES IDX 18 24 19 25 20 26 21 28 22 29 23 30 81 31 24 32 80 33 25 34
REMARK SMILES IDX 26 35 27 36 74 37 28 38 79 39 73 40 75 41 29 42 78 43 72 44
REMARK SMILES IDX 71 45 30 47 60 48 41 49 59 50 42 51 45 52 58 53 76 54 43 55
REMARK SMILES IDX 44 56 57 58 77 59 46 60 31 61 32 62 40 63 33 64 39 65 34 66
REMARK SMILES IDX 35 67 36 68 37 69 38 70 61 71 62 72 70 73 63 74 69 75 64 76
REMARK SMILES IDX 65 77 66 78 67 79 68 80 47 81 48 82 56 83 49 84 55 85 50 86
REMARK SMILES IDX 51 87 52 88 53 89 54 90
REMARK H PARENT 14 6 19 27 75 46 45 57
REMARK Flexibility Score: inf
ROOT
ATOM      1  C   UNL A   1      39.533  23.403  26.520  1.00  0.00     0.023 C 
ENDROOT
BRANCH   1   2
ATOM      2  C   UNL A   1      38.188  24.017  26.168  1.00  0.00     0.116 C 
BRANCH   2   3
ATOM      3  N   UNL A   1      37.695  23.678  24.858  1.00  0.00    -0.355 N 
ATOM      4  C   UNL A   1      36.485  23.144  24.515  1.00  0.00     0.239 C 
ATOM      5  O   UNL A   1      36.138  23.266  23.334  1.00  0.00    -0.273 OA
ATOM      6  H   UNL A   1      38.312  23.853  24.112  1.00  0.00     0.163 HD
BRANCH   4   7
ATOM      7  C   UNL A   1      35.478  22.614  25.567  1.00  0.00     0.221 C 
BRANCH   7   8
ATOM      8  N   UNL A   1      34.141  23.227  25.701  1.00  0.00    -0.313 N 
BRANCH   8   9
ATOM      9  C   UNL A   1      33.118  22.328  25.435  1.00  0.00     0.320 C 
ATOM     10  O   UNL A   1      32.318  22.074  26.346  1.00  0.00    -0.248 OA
BRANCH   9  11
ATOM     11  N   UNL A   1      32.942  21.708  24.206  1.00  0.00    -0.322 N 
BRANCH  11  12
ATOM     12  C   UNL A   1      32.800  22.336  22.892  1.00  0.00     0.118 C 
ATOM     13  C   UNL A   1      31.827  23.515  22.891  1.00  0.00     0.027 C 
ENDBRANCH  11  12
BRANCH  11  14
ATOM     14  C   UNL A   1      32.766  20.236  24.297  1.00  0.00     0.087 C 
ATOM     15  C   UNL A   1      32.260  19.448  23.083  1.00  0.00     0.025 C 
ATOM     16  C   UNL A   1      34.079  19.516  24.628  1.00  0.00     0.025 C 
ATOM     17  C   UNL A   1      32.574  17.998  23.441  1.00  0.00     0.002 C 
ATOM     18  C   UNL A   1      33.817  18.044  24.328  1.00  0.00     0.002 C 
ENDBRANCH  11  14
ENDBRANCH   9  11
ENDBRANCH   8   9
BRANCH   8  19
ATOM     19  C   UNL A   1      34.128  24.697  25.566  1.00  0.00     0.150 C 
BRANCH  19  20
ATOM     20  C   UNL A   1      32.896  25.438  26.128  1.00  0.00     0.181 C 
BRANCH  20  21
ATOM     21  O   UNL A   1      32.283  26.267  25.136  1.00  0.00    -0.383 OA
ATOM     22  C   UNL A   1      30.883  26.444  25.283  1.00  0.00     0.194 C 
ENDBRANCH  20  21
ENDBRANCH  19  20
ENDBRANCH   8  19
ENDBRANCH   7   8
ENDBRANCH   4   7
ENDBRANCH   2   3
ENDBRANCH   1   2
BRANCH   1  23
ATOM     23  C   UNL A   1      39.477  21.925  26.888  1.00  0.00     0.023 C 
BRANCH  23  24
ATOM     24  C   UNL A   1      39.635  20.949  25.725  1.00  0.00     0.116 C 
BRANCH  24  25
ATOM     25  N   UNL A   1      40.368  19.737  26.065  1.00  0.00    -0.352 N 
ATOM     26  C   UNL A   1      41.678  19.609  26.478  1.00  0.00     0.251 C 
ATOM     27  H   UNL A   1      39.860  18.897  25.992  1.00  0.00     0.163 HD
ATOM     28  O   UNL A   1      42.171  18.502  26.640  1.00  0.00    -0.269 OA
BRANCH  26  29
ATOM     29  C   UNL A   1      42.489  20.831  26.675  1.00  0.00     0.039 A 
ATOM     30  C   UNL A   1      42.915  21.548  25.556  1.00  0.00     0.014 A 
ATOM     31  C   UNL A   1      42.751  21.307  27.962  1.00  0.00     0.014 A 
ATOM     32  C   UNL A   1      43.520  22.797  25.728  1.00  0.00     0.010 A 
ATOM     33  C   UNL A   1      43.274  22.586  28.127  1.00  0.00     0.010 A 
ATOM     34  C   UNL A   1      43.655  23.350  27.012  1.00  0.00    -0.014 A 
BRANCH  34  35
ATOM     35  C   UNL A   1      44.165  24.732  27.213  1.00  0.00     0.031 A 
ATOM     36  C   UNL A   1      43.224  25.836  27.613  1.00  0.00     0.074 A 
ATOM     37  C   UNL A   1      45.460  25.012  26.956  1.00  0.00     0.049 A 
ATOM     38  N   UNL A   1      43.467  27.113  27.762  1.00  0.00    -0.248 NA
ATOM     39  C   UNL A   1      41.820  25.460  27.848  1.00  0.00     0.031 C 
ATOM     40  C   UNL A   1      46.467  24.046  26.508  1.00  0.00     0.029 A 
ATOM     41  N   UNL A   1      46.150  26.197  27.025  1.00  0.00    -0.354 N 
ATOM     42  C   UNL A   1      42.246  27.694  28.084  1.00  0.00     0.074 A 
ATOM     43  C   UNL A   1      41.256  26.640  28.060  1.00  0.00     0.031 C 
ATOM     44  C   UNL A   1      47.648  24.670  26.373  1.00  0.00     0.029 A 
ATOM     45  C   UNL A   1      47.478  26.086  26.683  1.00  0.00     0.049 A 
ATOM     46  H   UNL A   1      45.734  27.047  27.296  1.00  0.00     0.167 HD
ATOM     47  C   UNL A   1      41.975  28.984  28.394  1.00  0.00     0.031 A 
ATOM     48  C   UNL A   1      48.450  27.017  26.622  1.00  0.00     0.031 A 
ATOM     49  C   UNL A   1      42.962  30.030  28.437  1.00  0.00     0.049 A 
ATOM     50  C   UNL A   1      48.127  28.442  26.980  1.00  0.00     0.074 A 
ATOM     51  C   UNL A   1      42.796  31.355  28.800  1.00  0.00     0.029 A 
ATOM     52  N   UNL A   1      44.300  29.870  28.108  1.00  0.00    -0.354 N 
ATOM     53  N   UNL A   1      46.979  28.958  27.348  1.00  0.00    -0.248 NA
ATOM     54  C   UNL A   1      49.234  29.407  26.927  1.00  0.00     0.031 C 
ATOM     55  C   UNL A   1      44.025  32.007  28.648  1.00  0.00     0.029 A 
ATOM     56  C   UNL A   1      44.967  31.075  28.243  1.00  0.00     0.049 A 
ATOM     57  H   UNL A   1      44.713  29.024  27.821  1.00  0.00     0.167 HD
ATOM     58  C   UNL A   1      47.232  30.302  27.597  1.00  0.00     0.074 A 
ATOM     59  C   UNL A   1      48.644  30.516  27.350  1.00  0.00     0.031 C 
ATOM     60  C   UNL A   1      46.373  31.273  27.995  1.00  0.00     0.031 A 
BRANCH  47  61
ATOM     61  C   UNL A   1      40.546  29.335  28.713  1.00  0.00    -0.014 A 
ATOM     62  C   UNL A   1      39.583  29.449  27.692  1.00  0.00     0.010 A 
ATOM     63  C   UNL A   1      40.151  29.525  30.049  1.00  0.00     0.010 A 
ATOM     64  C   UNL A   1      38.264  29.792  27.998  1.00  0.00     0.020 A 
ATOM     65  C   UNL A   1      38.825  29.840  30.362  1.00  0.00     0.020 A 
ATOM     66  C   UNL A   1      37.895  29.991  29.332  1.00  0.00     0.054 A 
BRANCH  66  67
ATOM     67  S   UNL A   1      36.172  30.420  29.701  1.00  0.00     0.124 S 
ATOM     68  O   UNL A   1      35.473  29.882  28.537  1.00  0.00    -0.237 OA
ATOM     69  O   UNL A   1      35.928  29.719  30.959  1.00  0.00    -0.237 OA
ATOM     70  O   UNL A   1      36.191  31.878  29.797  1.00  0.00    -0.744 OA
ENDBRANCH  66  67
ENDBRANCH  47  61
BRANCH  48  71
ATOM     71  C   UNL A   1      49.831  26.625  26.226  1.00  0.00    -0.014 A 
ATOM     72  C   UNL A   1      50.735  26.139  27.187  1.00  0.00     0.010 A 
ATOM     73  C   UNL A   1      50.247  26.727  24.886  1.00  0.00     0.010 A 
ATOM     74  C   UNL A   1      52.035  25.777  26.819  1.00  0.00     0.020 A 
ATOM     75  C   UNL A   1      51.537  26.341  24.509  1.00  0.00     0.020 A 
ATOM     76  C   UNL A   1      52.427  25.879  25.482  1.00  0.00     0.054 A 
BRANCH  76  77
ATOM     77  S   UNL A   1      54.100  25.352  25.018  1.00  0.00     0.124 S 
ATOM     78  O   UNL A   1      54.898  25.867  26.126  1.00  0.00    -0.237 OA
ATOM     79  O   UNL A   1      53.968  23.899  24.953  1.00  0.00    -0.237 OA
ATOM     80  O   UNL A   1      54.318  26.007  23.729  1.00  0.00    -0.744 OA
ENDBRANCH  76  77
ENDBRANCH  48  71
BRANCH  60  81
ATOM     81  C   UNL A   1      46.938  32.648  28.224  1.00  0.00    -0.014 A 
ATOM     82  C   UNL A   1      46.975  33.604  27.195  1.00  0.00     0.010 A 
ATOM     83  C   UNL A   1      47.393  33.004  29.508  1.00  0.00     0.010 A 
ATOM     84  C   UNL A   1      47.486  34.883  27.436  1.00  0.00     0.020 A 
ATOM     85  C   UNL A   1      47.879  34.289  29.759  1.00  0.00     0.020 A 
ATOM     86  C   UNL A   1      47.937  35.216  28.717  1.00  0.00     0.054 A 
BRANCH  86  87
ATOM     87  S   UNL A   1      48.556  36.894  29.017  1.00  0.00     0.124 S 
ATOM     88  O   UNL A   1      47.539  37.438  29.911  1.00  0.00    -0.237 OA
ATOM     89  O   UNL A   1      49.864  36.650  29.624  1.00  0.00    -0.237 OA
ATOM     90  O   UNL A   1      48.598  37.491  27.683  1.00  0.00    -0.744 OA
ENDBRANCH  86  87
ENDBRANCH  60  81
ENDBRANCH  34  35
ENDBRANCH  26  29
ENDBRANCH  24  25
ENDBRANCH  23  24
ENDBRANCH   1  23
TORSDOF 22
ENDMDL
