MODEL 1
REMARK VINA RESULT:     -13.6      0.000      0.000
REMARK SMILES O=C(NCCCCNC(=O)c1nnn(-c2ccc(C(F)(F)F)cc2)c1-c1cccc(Cl)c1)c1ccc(-c2c3nc(c(-c4ccc(S(=O)(=O)[O-])cc4)c4ccc([nH]4)c(-c4ccc(S(=O)(=O)[O-])cc4)c4nc(c(-c5ccc(S(=O)(=O)[O-])cc5)c5ccc2[nH]5)C=C4)C=C3)cc1
REMARK SMILES IDX 5 1 4 2 3 3 1 4 2 5 33 7 34 8 92 9 35 10 91 11 36 12 37 13
REMARK SMILES IDX 38 14 85 15 39 16 90 17 84 18 86 19 40 20 89 21 83 22 82 23
REMARK SMILES IDX 41 25 71 26 52 27 70 28 53 29 56 30 69 31 87 32 54 33 55 34
REMARK SMILES IDX 68 36 88 37 57 38 42 39 43 40 51 41 44 42 50 43 45 44 46 45
REMARK SMILES IDX 47 46 48 47 49 48 72 49 73 50 81 51 74 52 80 53 75 54 76 55
REMARK SMILES IDX 77 56 78 57 79 58 58 59 59 60 67 61 60 62 66 63 61 64 62 65
REMARK SMILES IDX 63 66 64 67 65 68 6 69 7 70 8 71 9 72 10 74 11 75 12 76
REMARK SMILES IDX 25 77 13 78 14 79 26 80 27 81 32 82 28 83 30 84 29 85 31 86
REMARK SMILES IDX 15 87 16 88 24 89 17 90 23 91 18 92 19 93 20 94 21 95 22 96
REMARK H PARENT 3 6 86 24 56 35 8 73
REMARK Flexibility Score: inf
ROOT
ATOM      1  C   UNL A   1      36.732  22.234  24.012  1.00  0.00     0.023 C 
ENDROOT
BRANCH   1   2
ATOM      2  C   UNL A   1      37.300  22.298  25.433  1.00  0.00     0.116 C 
BRANCH   2   3
ATOM      3  N   UNL A   1      38.487  21.503  25.669  1.00  0.00    -0.352 N 
ATOM      4  O   UNL A   1      40.289  20.667  26.629  1.00  0.00    -0.269 OA
ATOM      5  C   UNL A   1      39.622  21.683  26.412  1.00  0.00     0.251 C 
ATOM      6  H   UNL A   1      38.475  20.642  25.190  1.00  0.00     0.163 HD
BRANCH   5   7
ATOM      7  C   UNL A   1      40.141  22.998  26.882  1.00  0.00     0.039 A 
ATOM      8  C   UNL A   1      41.293  23.195  27.643  1.00  0.00     0.014 A 
ATOM      9  C   UNL A   1      39.327  24.113  26.600  1.00  0.00     0.014 A 
ATOM     10  C   UNL A   1      41.552  24.431  28.227  1.00  0.00     0.010 A 
ATOM     11  C   UNL A   1      39.590  25.356  27.163  1.00  0.00     0.010 A 
ATOM     12  C   UNL A   1      40.673  25.497  28.024  1.00  0.00    -0.014 A 
BRANCH  12  13
ATOM     13  C   UNL A   1      40.993  26.785  28.630  1.00  0.00     0.031 A 
ATOM     14  C   UNL A   1      42.178  27.469  28.043  1.00  0.00     0.074 A 
ATOM     15  C   UNL A   1      40.211  27.392  29.546  1.00  0.00     0.049 A 
ATOM     16  N   UNL A   1      43.306  27.747  28.611  1.00  0.00    -0.248 NA
ATOM     17  C   UNL A   1      42.145  27.767  26.602  1.00  0.00     0.031 C 
ATOM     18  C   UNL A   1      38.879  26.986  30.004  1.00  0.00     0.029 A 
ATOM     19  N   UNL A   1      40.401  28.583  30.181  1.00  0.00    -0.354 N 
ATOM     20  C   UNL A   1      44.052  28.444  27.662  1.00  0.00     0.074 A 
ATOM     21  C   UNL A   1      43.360  28.281  26.408  1.00  0.00     0.031 C 
ATOM     22  C   UNL A   1      38.292  28.026  30.642  1.00  0.00     0.029 A 
ATOM     23  C   UNL A   1      39.251  29.112  30.759  1.00  0.00     0.049 A 
ATOM     24  H   UNL A   1      41.276  29.031  30.226  1.00  0.00     0.167 HD
ATOM     25  C   UNL A   1      45.055  29.298  28.013  1.00  0.00     0.031 A 
ATOM     26  C   UNL A   1      39.081  30.373  31.233  1.00  0.00     0.031 A 
ATOM     27  C   UNL A   1      45.477  29.100  29.374  1.00  0.00     0.049 A 
ATOM     28  C   UNL A   1      40.430  30.934  31.491  1.00  0.00     0.074 A 
ATOM     29  C   UNL A   1      46.017  28.050  30.091  1.00  0.00     0.029 A 
ATOM     30  N   UNL A   1      45.020  29.998  30.309  1.00  0.00    -0.354 N 
ATOM     31  N   UNL A   1      41.231  30.478  32.413  1.00  0.00    -0.248 NA
ATOM     32  C   UNL A   1      41.068  31.702  30.434  1.00  0.00     0.031 C 
ATOM     33  C   UNL A   1      45.418  28.144  31.380  1.00  0.00     0.029 A 
ATOM     34  C   UNL A   1      44.600  29.275  31.394  1.00  0.00     0.049 A 
ATOM     35  H   UNL A   1      44.997  30.978  30.215  1.00  0.00     0.167 HD
ATOM     36  C   UNL A   1      42.493  30.519  31.839  1.00  0.00     0.074 A 
ATOM     37  C   UNL A   1      42.343  31.369  30.659  1.00  0.00     0.031 C 
ATOM     38  C   UNL A   1      43.470  29.643  32.218  1.00  0.00     0.031 A 
BRANCH  25  39
ATOM     39  C   UNL A   1      45.353  30.584  27.272  1.00  0.00    -0.014 A 
ATOM     40  C   UNL A   1      46.692  30.872  26.932  1.00  0.00     0.010 A 
ATOM     41  C   UNL A   1      44.429  31.645  27.177  1.00  0.00     0.010 A 
ATOM     42  C   UNL A   1      47.100  32.177  26.626  1.00  0.00     0.020 A 
ATOM     43  C   UNL A   1      44.818  32.939  26.827  1.00  0.00     0.020 A 
ATOM     44  C   UNL A   1      46.160  33.206  26.601  1.00  0.00     0.054 A 
BRANCH  44  45
ATOM     45  S   UNL A   1      46.717  34.910  26.355  1.00  0.00     0.124 S 
ATOM     46  O   UNL A   1      47.506  35.142  27.560  1.00  0.00    -0.237 OA
ATOM     47  O   UNL A   1      47.473  34.811  25.110  1.00  0.00    -0.237 OA
ATOM     48  O   UNL A   1      45.470  35.667  26.264  1.00  0.00    -0.744 OA
ENDBRANCH  44  45
ENDBRANCH  25  39
BRANCH  26  49
ATOM     49  C   UNL A   1      37.867  31.226  31.142  1.00  0.00    -0.014 A 
ATOM     50  C   UNL A   1      36.609  30.765  31.578  1.00  0.00     0.010 A 
ATOM     51  C   UNL A   1      38.001  32.606  30.888  1.00  0.00     0.010 A 
ATOM     52  C   UNL A   1      35.546  31.661  31.804  1.00  0.00     0.020 A 
ATOM     53  C   UNL A   1      36.947  33.502  31.106  1.00  0.00     0.020 A 
ATOM     54  C   UNL A   1      35.730  33.028  31.585  1.00  0.00     0.054 A 
BRANCH  54  55
ATOM     55  S   UNL A   1      34.416  34.200  32.041  1.00  0.00     0.124 S 
ATOM     56  O   UNL A   1      33.751  34.436  30.763  1.00  0.00    -0.237 OA
ATOM     57  O   UNL A   1      33.644  33.448  33.026  1.00  0.00    -0.237 OA
ATOM     58  O   UNL A   1      35.148  35.347  32.578  1.00  0.00    -0.744 OA
ENDBRANCH  54  55
ENDBRANCH  26  49
BRANCH  38  59
ATOM     59  C   UNL A   1      43.253  28.814  33.463  1.00  0.00    -0.014 A 
ATOM     60  C   UNL A   1      43.496  29.285  34.768  1.00  0.00     0.010 A 
ATOM     61  C   UNL A   1      42.630  27.563  33.306  1.00  0.00     0.010 A 
ATOM     62  C   UNL A   1      43.147  28.511  35.885  1.00  0.00     0.020 A 
ATOM     63  C   UNL A   1      42.264  26.797  34.413  1.00  0.00     0.020 A 
ATOM     64  C   UNL A   1      42.532  27.269  35.699  1.00  0.00     0.054 A 
BRANCH  64  65
ATOM     65  S   UNL A   1      42.036  26.292  37.145  1.00  0.00     0.124 S 
ATOM     66  O   UNL A   1      40.728  26.850  37.474  1.00  0.00    -0.237 OA
ATOM     67  O   UNL A   1      42.026  24.926  36.627  1.00  0.00    -0.237 OA
ATOM     68  O   UNL A   1      43.088  26.564  38.126  1.00  0.00    -0.744 OA
ENDBRANCH  64  65
ENDBRANCH  38  59
ENDBRANCH  12  13
ENDBRANCH   5   7
ENDBRANCH   2   3
ENDBRANCH   1   2
BRANCH   1  69
ATOM     69  C   UNL A   1      36.033  23.495  23.504  1.00  0.00     0.023 C 
BRANCH  69  70
ATOM     70  C   UNL A   1      34.513  23.468  23.533  1.00  0.00     0.116 C 
BRANCH  70  71
ATOM     71  N   UNL A   1      33.952  23.164  24.833  1.00  0.00    -0.351 N 
ATOM     72  C   UNL A   1      32.767  23.609  25.391  1.00  0.00     0.274 C 
ATOM     73  H   UNL A   1      34.485  22.559  25.397  1.00  0.00     0.163 HD
ATOM     74  O   UNL A   1      32.489  23.264  26.529  1.00  0.00    -0.267 OA
BRANCH  72  75
ATOM     75  C   UNL A   1      31.882  24.466  24.607  1.00  0.00     0.178 A 
ATOM     76  N   UNL A   1      31.097  23.957  23.598  1.00  0.00    -0.124 NA
ATOM     77  C   UNL A   1      31.652  25.831  24.717  1.00  0.00     0.108 A 
ATOM     78  N   UNL A   1      30.325  24.932  23.136  1.00  0.00    -0.061 NA
ATOM     79  N   UNL A   1      30.730  26.084  23.706  1.00  0.00    -0.212 N 
BRANCH  77  80
ATOM     80  C   UNL A   1      32.064  26.811  25.722  1.00  0.00     0.004 A 
ATOM     81  C   UNL A   1      31.152  27.196  26.724  1.00  0.00     0.010 A 
ATOM     82  C   UNL A   1      33.353  27.348  25.728  1.00  0.00     0.031 A 
ATOM     83  C   UNL A   1      31.516  28.110  27.709  1.00  0.00     0.002 A 
ATOM     84  C   UNL A   1      33.709  28.268  26.717  1.00  0.00     0.041 A 
ATOM     85  C   UNL A   1      32.799  28.649  27.705  1.00  0.00     0.020 A 
ATOM     86  Cl  UNL A   1      35.291  28.941  26.718  1.00  0.00    -0.084 Cl
ENDBRANCH  77  80
BRANCH  79  87
ATOM     87  C   UNL A   1      30.180  27.336  23.349  1.00  0.00     0.067 A 
ATOM     88  C   UNL A   1      30.965  28.265  22.664  1.00  0.00     0.029 A 
ATOM     89  C   UNL A   1      28.815  27.573  23.561  1.00  0.00     0.029 A 
ATOM     90  C   UNL A   1      30.346  29.381  22.089  1.00  0.00     0.015 A 
ATOM     91  C   UNL A   1      28.213  28.700  23.013  1.00  0.00     0.015 A 
ATOM     92  C   UNL A   1      28.963  29.596  22.238  1.00  0.00     0.056 A 
BRANCH  92  93
ATOM     93  C   UNL A   1      28.290  30.754  21.542  1.00  0.00     0.416 C 
ATOM     94  F   UNL A   1      27.726  30.399  20.356  1.00  0.00    -0.166 F 
ATOM     95  F   UNL A   1      27.289  31.296  22.290  1.00  0.00    -0.166 F 
ATOM     96  F   UNL A   1      29.137  31.784  21.258  1.00  0.00    -0.166 F 
ENDBRANCH  92  93
ENDBRANCH  79  87
ENDBRANCH  72  75
ENDBRANCH  70  71
ENDBRANCH  69  70
ENDBRANCH   1  69
TORSDOF 17
ENDMDL
MODEL 2
REMARK VINA RESULT:     -13.5      3.984      9.570
REMARK SMILES O=C(NCCCCNC(=O)c1nnn(-c2ccc(C(F)(F)F)cc2)c1-c1cccc(Cl)c1)c1ccc(-c2c3nc(c(-c4ccc(S(=O)(=O)[O-])cc4)c4ccc([nH]4)c(-c4ccc(S(=O)(=O)[O-])cc4)c4nc(c(-c5ccc(S(=O)(=O)[O-])cc5)c5ccc2[nH]5)C=C4)C=C3)cc1
REMARK SMILES IDX 5 1 4 2 3 3 1 4 2 5 33 7 34 8 92 9 35 10 91 11 36 12 37 13
REMARK SMILES IDX 38 14 85 15 39 16 90 17 84 18 86 19 40 20 89 21 83 22 82 23
REMARK SMILES IDX 41 25 71 26 52 27 70 28 53 29 56 30 69 31 87 32 54 33 55 34
REMARK SMILES IDX 68 36 88 37 57 38 42 39 43 40 51 41 44 42 50 43 45 44 46 45
REMARK SMILES IDX 47 46 48 47 49 48 72 49 73 50 81 51 74 52 80 53 75 54 76 55
REMARK SMILES IDX 77 56 78 57 79 58 58 59 59 60 67 61 60 62 66 63 61 64 62 65
REMARK SMILES IDX 63 66 64 67 65 68 6 69 7 70 8 71 9 72 10 74 11 75 12 76
REMARK SMILES IDX 25 77 13 78 14 79 26 80 27 81 32 82 28 83 30 84 29 85 31 86
REMARK SMILES IDX 15 87 16 88 24 89 17 90 23 91 18 92 19 93 20 94 21 95 22 96
REMARK H PARENT 3 6 86 24 56 35 8 73
REMARK Flexibility Score: inf
ROOT
ATOM      1  C   UNL A   1      31.922  29.508  26.781  1.00  0.00     0.023 C 
ENDROOT
BRANCH   1   2
ATOM      2  C   UNL A   1      33.262  30.245  26.854  1.00  0.00     0.116 C 
BRANCH   2   3
ATOM      3  N   UNL A   1      33.425  31.139  27.982  1.00  0.00    -0.352 N 
ATOM      4  O   UNL A   1      34.287  32.622  29.370  1.00  0.00    -0.269 OA
ATOM      5  C   UNL A   1      34.509  31.644  28.649  1.00  0.00     0.251 C 
ATOM      6  H   UNL A   1      32.567  31.453  28.350  1.00  0.00     0.163 HD
BRANCH   5   7
ATOM      7  C   UNL A   1      35.876  31.053  28.638  1.00  0.00     0.039 A 
ATOM      8  C   UNL A   1      36.176  29.696  28.521  1.00  0.00     0.014 A 
ATOM      9  C   UNL A   1      36.934  31.956  28.864  1.00  0.00     0.014 A 
ATOM     10  C   UNL A   1      37.466  29.234  28.763  1.00  0.00     0.010 A 
ATOM     11  C   UNL A   1      38.229  31.504  29.086  1.00  0.00     0.010 A 
ATOM     12  C   UNL A   1      38.481  30.136  29.092  1.00  0.00    -0.014 A 
BRANCH  12  13
ATOM     13  C   UNL A   1      39.826  29.616  29.312  1.00  0.00     0.031 A 
ATOM     14  C   UNL A   1      40.178  29.394  30.742  1.00  0.00     0.074 A 
ATOM     15  C   UNL A   1      40.645  29.225  28.315  1.00  0.00     0.049 A 
ATOM     16  N   UNL A   1      41.084  29.991  31.446  1.00  0.00    -0.248 NA
ATOM     17  C   UNL A   1      39.326  28.478  31.517  1.00  0.00     0.031 C 
ATOM     18  C   UNL A   1      40.335  29.109  26.887  1.00  0.00     0.029 A 
ATOM     19  N   UNL A   1      41.912  28.728  28.392  1.00  0.00    -0.354 N 
ATOM     20  C   UNL A   1      41.060  29.379  32.698  1.00  0.00     0.074 A 
ATOM     21  C   UNL A   1      39.860  28.582  32.733  1.00  0.00     0.031 C 
ATOM     22  C   UNL A   1      41.287  28.359  26.284  1.00  0.00     0.029 A 
ATOM     23  C   UNL A   1      42.335  28.062  27.246  1.00  0.00     0.049 A 
ATOM     24  H   UNL A   1      42.480  28.833  29.189  1.00  0.00     0.167 HD
ATOM     25  C   UNL A   1      42.142  29.386  33.528  1.00  0.00     0.031 A 
ATOM     26  C   UNL A   1      43.429  27.267  27.121  1.00  0.00     0.031 A 
ATOM     27  C   UNL A   1      43.112  30.375  33.139  1.00  0.00     0.049 A 
ATOM     28  C   UNL A   1      44.356  27.612  28.226  1.00  0.00     0.074 A 
ATOM     29  C   UNL A   1      43.111  31.749  33.004  1.00  0.00     0.029 A 
ATOM     30  N   UNL A   1      44.223  29.931  32.463  1.00  0.00    -0.354 N 
ATOM     31  N   UNL A   1      44.955  28.765  28.325  1.00  0.00    -0.248 NA
ATOM     32  C   UNL A   1      44.269  26.847  29.459  1.00  0.00     0.031 C 
ATOM     33  C   UNL A   1      43.924  32.003  31.861  1.00  0.00     0.029 A 
ATOM     34  C   UNL A   1      44.420  30.780  31.406  1.00  0.00     0.049 A 
ATOM     35  H   UNL A   1      44.773  29.147  32.693  1.00  0.00     0.167 HD
ATOM     36  C   UNL A   1      44.930  29.064  29.679  1.00  0.00     0.074 A 
ATOM     37  C   UNL A   1      44.582  27.805  30.336  1.00  0.00     0.031 C 
ATOM     38  C   UNL A   1      44.922  30.358  30.117  1.00  0.00     0.031 A 
BRANCH  25  39
ATOM     39  C   UNL A   1      42.514  28.223  34.422  1.00  0.00    -0.014 A 
ATOM     40  C   UNL A   1      43.076  28.497  35.688  1.00  0.00     0.010 A 
ATOM     41  C   UNL A   1      42.622  26.899  33.951  1.00  0.00     0.010 A 
ATOM     42  C   UNL A   1      43.804  27.525  36.386  1.00  0.00     0.020 A 
ATOM     43  C   UNL A   1      43.305  25.911  34.662  1.00  0.00     0.020 A 
ATOM     44  C   UNL A   1      43.934  26.244  35.853  1.00  0.00     0.054 A 
BRANCH  44  45
ATOM     45  S   UNL A   1      44.999  25.040  36.683  1.00  0.00     0.124 S 
ATOM     46  O   UNL A   1      46.236  25.799  36.844  1.00  0.00    -0.237 OA
ATOM     47  O   UNL A   1      44.258  24.767  37.911  1.00  0.00    -0.237 OA
ATOM     48  O   UNL A   1      45.062  23.929  35.737  1.00  0.00    -0.744 OA
ENDBRANCH  44  45
ENDBRANCH  25  39
BRANCH  26  49
ATOM     49  C   UNL A   1      43.560  26.013  26.332  1.00  0.00    -0.014 A 
ATOM     50  C   UNL A   1      44.682  25.770  25.516  1.00  0.00     0.010 A 
ATOM     51  C   UNL A   1      42.707  24.924  26.606  1.00  0.00     0.010 A 
ATOM     52  C   UNL A   1      44.969  24.475  25.043  1.00  0.00     0.020 A 
ATOM     53  C   UNL A   1      42.982  23.635  26.135  1.00  0.00     0.020 A 
ATOM     54  C   UNL A   1      44.125  23.411  25.373  1.00  0.00     0.054 A 
BRANCH  54  55
ATOM     55  S   UNL A   1      44.588  21.715  24.908  1.00  0.00     0.124 S 
ATOM     56  O   UNL A   1      44.734  21.817  23.459  1.00  0.00    -0.237 OA
ATOM     57  O   UNL A   1      45.825  21.504  25.654  1.00  0.00    -0.237 OA
ATOM     58  O   UNL A   1      43.452  20.912  25.359  1.00  0.00    -0.744 OA
ENDBRANCH  54  55
ENDBRANCH  26  49
BRANCH  38  59
ATOM     59  C   UNL A   1      45.225  31.457  29.126  1.00  0.00    -0.014 A 
ATOM     60  C   UNL A   1      46.511  32.000  28.928  1.00  0.00     0.010 A 
ATOM     61  C   UNL A   1      44.193  31.843  28.252  1.00  0.00     0.010 A 
ATOM     62  C   UNL A   1      46.747  32.923  27.898  1.00  0.00     0.020 A 
ATOM     63  C   UNL A   1      44.426  32.747  27.215  1.00  0.00     0.020 A 
ATOM     64  C   UNL A   1      45.699  33.291  27.047  1.00  0.00     0.054 A 
BRANCH  64  65
ATOM     65  S   UNL A   1      46.019  34.448  25.686  1.00  0.00     0.124 S 
ATOM     66  O   UNL A   1      45.117  33.969  24.643  1.00  0.00    -0.237 OA
ATOM     67  O   UNL A   1      45.676  35.741  26.271  1.00  0.00    -0.237 OA
ATOM     68  O   UNL A   1      47.443  34.265  25.402  1.00  0.00    -0.744 OA
ENDBRANCH  64  65
ENDBRANCH  38  59
ENDBRANCH  12  13
ENDBRANCH   5   7
ENDBRANCH   2   3
ENDBRANCH   1   2
BRANCH   1  69
ATOM     69  C   UNL A   1      31.891  28.096  27.366  1.00  0.00     0.023 C 
BRANCH  69  70
ATOM     70  C   UNL A   1      31.902  26.960  26.356  1.00  0.00     0.116 C 
BRANCH  70  71
ATOM     71  N   UNL A   1      32.554  27.287  25.104  1.00  0.00    -0.351 N 
ATOM     72  C   UNL A   1      32.794  26.472  24.013  1.00  0.00     0.274 C 
ATOM     73  H   UNL A   1      32.868  28.216  25.017  1.00  0.00     0.163 HD
ATOM     74  O   UNL A   1      33.399  26.934  23.059  1.00  0.00    -0.267 OA
BRANCH  72  75
ATOM     75  C   UNL A   1      32.313  25.093  24.029  1.00  0.00     0.178 A 
ATOM     76  N   UNL A   1      30.980  24.795  23.861  1.00  0.00    -0.124 NA
ATOM     77  C   UNL A   1      33.028  23.912  24.177  1.00  0.00     0.108 A 
ATOM     78  N   UNL A   1      30.850  23.475  23.812  1.00  0.00    -0.061 NA
ATOM     79  N   UNL A   1      32.043  22.931  24.122  1.00  0.00    -0.212 N 
BRANCH  77  80
ATOM     80  C   UNL A   1      34.465  23.638  24.193  1.00  0.00     0.004 A 
ATOM     81  C   UNL A   1      35.071  23.068  23.057  1.00  0.00     0.010 A 
ATOM     82  C   UNL A   1      35.253  23.960  25.300  1.00  0.00     0.031 A 
ATOM     83  C   UNL A   1      36.441  22.813  23.029  1.00  0.00     0.002 A 
ATOM     84  C   UNL A   1      36.625  23.697  25.266  1.00  0.00     0.041 A 
ATOM     85  C   UNL A   1      37.219  23.127  24.138  1.00  0.00     0.020 A 
ATOM     86  Cl  UNL A   1      37.595  24.079  26.633  1.00  0.00    -0.084 Cl
ENDBRANCH  77  80
BRANCH  79  87
ATOM     87  C   UNL A   1      32.222  21.536  24.261  1.00  0.00     0.067 A 
ATOM     88  C   UNL A   1      32.111  20.710  23.140  1.00  0.00     0.029 A 
ATOM     89  C   UNL A   1      32.648  21.016  25.490  1.00  0.00     0.029 A 
ATOM     90  C   UNL A   1      32.543  19.383  23.232  1.00  0.00     0.015 A 
ATOM     91  C   UNL A   1      33.046  19.687  25.582  1.00  0.00     0.015 A 
ATOM     92  C   UNL A   1      33.035  18.866  24.445  1.00  0.00     0.056 A 
BRANCH  92  93
ATOM     93  C   UNL A   1      33.580  17.460  24.513  1.00  0.00     0.416 C 
ATOM     94  F   UNL A   1      33.162  16.684  23.477  1.00  0.00    -0.166 F 
ATOM     95  F   UNL A   1      34.941  17.431  24.482  1.00  0.00    -0.166 F 
ATOM     96  F   UNL A   1      33.222  16.793  25.647  1.00  0.00    -0.166 F 
ENDBRANCH  92  93
ENDBRANCH  79  87
ENDBRANCH  72  75
ENDBRANCH  70  71
ENDBRANCH  69  70
ENDBRANCH   1  69
TORSDOF 17
ENDMDL
MODEL 3
REMARK VINA RESULT:     -13.1      3.944      9.357
REMARK SMILES O=C(NCCCCNC(=O)c1nnn(-c2ccc(C(F)(F)F)cc2)c1-c1cccc(Cl)c1)c1ccc(-c2c3nc(c(-c4ccc(S(=O)(=O)[O-])cc4)c4ccc([nH]4)c(-c4ccc(S(=O)(=O)[O-])cc4)c4nc(c(-c5ccc(S(=O)(=O)[O-])cc5)c5ccc2[nH]5)C=C4)C=C3)cc1
REMARK SMILES IDX 5 1 4 2 3 3 1 4 2 5 33 7 34 8 92 9 35 10 91 11 36 12 37 13
REMARK SMILES IDX 38 14 85 15 39 16 90 17 84 18 86 19 40 20 89 21 83 22 82 23
REMARK SMILES IDX 41 25 71 26 52 27 70 28 53 29 56 30 69 31 87 32 54 33 55 34
REMARK SMILES IDX 68 36 88 37 57 38 42 39 43 40 51 41 44 42 50 43 45 44 46 45
REMARK SMILES IDX 47 46 48 47 49 48 72 49 73 50 81 51 74 52 80 53 75 54 76 55
REMARK SMILES IDX 77 56 78 57 79 58 58 59 59 60 67 61 60 62 66 63 61 64 62 65
REMARK SMILES IDX 63 66 64 67 65 68 6 69 7 70 8 71 9 72 10 74 11 75 12 76
REMARK SMILES IDX 25 77 13 78 14 79 26 80 27 81 32 82 28 83 30 84 29 85 31 86
REMARK SMILES IDX 15 87 16 88 24 89 17 90 23 91 18 92 19 93 20 94 21 95 22 96
REMARK H PARENT 3 6 86 24 56 35 8 73
REMARK Flexibility Score: inf
ROOT
ATOM      1  C   UNL A   1      33.488  29.396  24.743  1.00  0.00     0.023 C 
ENDROOT
BRANCH   1   2
ATOM      2  C   UNL A   1      33.626  29.263  26.262  1.00  0.00     0.116 C 
BRANCH   2   3
ATOM      3  N   UNL A   1      33.494  30.494  27.013  1.00  0.00    -0.352 N 
ATOM      4  O   UNL A   1      33.971  32.428  27.962  1.00  0.00    -0.269 OA
ATOM      5  C   UNL A   1      34.371  31.289  27.701  1.00  0.00     0.251 C 
ATOM      6  H   UNL A   1      32.570  30.835  27.033  1.00  0.00     0.163 HD
BRANCH   5   7
ATOM      7  C   UNL A   1      35.697  30.855  28.222  1.00  0.00     0.039 A 
ATOM      8  C   UNL A   1      36.639  31.678  28.839  1.00  0.00     0.014 A 
ATOM      9  C   UNL A   1      36.043  29.513  27.970  1.00  0.00     0.014 A 
ATOM     10  C   UNL A   1      37.934  31.221  29.068  1.00  0.00     0.010 A 
ATOM     11  C   UNL A   1      37.327  29.044  28.216  1.00  0.00     0.010 A 
ATOM     12  C   UNL A   1      38.289  29.918  28.712  1.00  0.00    -0.014 A 
BRANCH  12  13
ATOM     13  C   UNL A   1      39.647  29.468  28.993  1.00  0.00     0.031 A 
ATOM     14  C   UNL A   1      39.916  29.168  30.426  1.00  0.00     0.074 A 
ATOM     15  C   UNL A   1      40.556  29.199  28.034  1.00  0.00     0.049 A 
ATOM     16  N   UNL A   1      40.731  29.768  31.232  1.00  0.00    -0.248 NA
ATOM     17  C   UNL A   1      39.075  28.149  31.076  1.00  0.00     0.031 C 
ATOM     18  C   UNL A   1      40.351  29.165  26.583  1.00  0.00     0.029 A 
ATOM     19  N   UNL A   1      41.845  28.777  28.168  1.00  0.00    -0.354 N 
ATOM     20  C   UNL A   1      40.663  29.070  32.436  1.00  0.00     0.074 A 
ATOM     21  C   UNL A   1      39.519  28.199  32.332  1.00  0.00     0.031 C 
ATOM     22  C   UNL A   1      41.389  28.519  26.002  1.00  0.00     0.029 A 
ATOM     23  C   UNL A   1      42.387  28.220  27.015  1.00  0.00     0.049 A 
ATOM     24  H   UNL A   1      42.349  28.859  29.010  1.00  0.00     0.167 HD
ATOM     25  C   UNL A   1      41.683  29.084  33.340  1.00  0.00     0.031 A 
ATOM     26  C   UNL A   1      43.538  27.504  26.917  1.00  0.00     0.031 A 
ATOM     27  C   UNL A   1      42.610  30.156  33.088  1.00  0.00     0.049 A 
ATOM     28  C   UNL A   1      44.362  27.827  28.106  1.00  0.00     0.074 A 
ATOM     29  C   UNL A   1      42.527  31.533  33.044  1.00  0.00     0.029 A 
ATOM     30  N   UNL A   1      43.791  29.829  32.466  1.00  0.00    -0.354 N 
ATOM     31  N   UNL A   1      44.876  29.005  28.323  1.00  0.00    -0.248 NA
ATOM     32  C   UNL A   1      44.243  26.973  29.277  1.00  0.00     0.031 C 
ATOM     33  C   UNL A   1      43.397  31.916  31.982  1.00  0.00     0.029 A 
ATOM     34  C   UNL A   1      44.003  30.761  31.484  1.00  0.00     0.049 A 
ATOM     35  H   UNL A   1      44.374  29.067  32.683  1.00  0.00     0.167 HD
ATOM     36  C   UNL A   1      44.740  29.206  29.689  1.00  0.00     0.074 A 
ATOM     37  C   UNL A   1      44.432  27.884  30.235  1.00  0.00     0.031 C 
ATOM     38  C   UNL A   1      44.617  30.462  30.209  1.00  0.00     0.031 A 
BRANCH  25  39
ATOM     39  C   UNL A   1      42.070  27.886  34.180  1.00  0.00    -0.014 A 
ATOM     40  C   UNL A   1      42.067  28.018  35.586  1.00  0.00     0.010 A 
ATOM     41  C   UNL A   1      42.725  26.757  33.648  1.00  0.00     0.010 A 
ATOM     42  C   UNL A   1      42.779  27.128  36.401  1.00  0.00     0.020 A 
ATOM     43  C   UNL A   1      43.398  25.839  34.457  1.00  0.00     0.020 A 
ATOM     44  C   UNL A   1      43.460  26.058  35.825  1.00  0.00     0.054 A 
BRANCH  44  45
ATOM     45  S   UNL A   1      44.500  25.004  36.865  1.00  0.00     0.124 S 
ATOM     46  O   UNL A   1      43.953  25.265  38.193  1.00  0.00    -0.237 OA
ATOM     47  O   UNL A   1      44.236  23.675  36.320  1.00  0.00    -0.237 OA
ATOM     48  O   UNL A   1      45.848  25.514  36.629  1.00  0.00    -0.744 OA
ENDBRANCH  44  45
ENDBRANCH  25  39
BRANCH  26  49
ATOM     49  C   UNL A   1      43.804  26.319  26.058  1.00  0.00    -0.014 A 
ATOM     50  C   UNL A   1      45.103  26.013  25.609  1.00  0.00     0.010 A 
ATOM     51  C   UNL A   1      42.815  25.325  25.916  1.00  0.00     0.010 A 
ATOM     52  C   UNL A   1      45.411  24.740  25.091  1.00  0.00     0.020 A 
ATOM     53  C   UNL A   1      43.111  24.059  25.397  1.00  0.00     0.020 A 
ATOM     54  C   UNL A   1      44.414  23.763  25.007  1.00  0.00     0.054 A 
BRANCH  54  55
ATOM     55  S   UNL A   1      44.849  22.071  24.502  1.00  0.00     0.124 S 
ATOM     56  O   UNL A   1      44.009  21.259  25.378  1.00  0.00    -0.237 OA
ATOM     57  O   UNL A   1      44.488  22.057  23.088  1.00  0.00    -0.237 OA
ATOM     58  O   UNL A   1      46.284  21.988  24.773  1.00  0.00    -0.744 OA
ENDBRANCH  54  55
ENDBRANCH  26  49
BRANCH  38  59
ATOM     59  C   UNL A   1      44.913  31.645  29.317  1.00  0.00    -0.014 A 
ATOM     60  C   UNL A   1      46.195  32.210  29.167  1.00  0.00     0.010 A 
ATOM     61  C   UNL A   1      43.878  32.099  28.481  1.00  0.00     0.010 A 
ATOM     62  C   UNL A   1      46.425  33.221  28.221  1.00  0.00     0.020 A 
ATOM     63  C   UNL A   1      44.105  33.091  27.525  1.00  0.00     0.020 A 
ATOM     64  C   UNL A   1      45.375  33.655  27.405  1.00  0.00     0.054 A 
BRANCH  64  65
ATOM     65  S   UNL A   1      45.688  34.927  26.149  1.00  0.00     0.124 S 
ATOM     66  O   UNL A   1      44.448  35.697  26.162  1.00  0.00    -0.237 OA
ATOM     67  O   UNL A   1      46.864  35.618  26.673  1.00  0.00    -0.237 OA
ATOM     68  O   UNL A   1      45.925  34.159  24.927  1.00  0.00    -0.744 OA
ENDBRANCH  64  65
ENDBRANCH  38  59
ENDBRANCH  12  13
ENDBRANCH   5   7
ENDBRANCH   2   3
ENDBRANCH   1   2
BRANCH   1  69
ATOM     69  C   UNL A   1      34.453  28.565  23.898  1.00  0.00     0.023 C 
BRANCH  69  70
ATOM     70  C   UNL A   1      33.994  28.248  22.484  1.00  0.00     0.116 C 
BRANCH  70  71
ATOM     71  N   UNL A   1      32.556  28.285  22.308  1.00  0.00    -0.351 N 
ATOM     72  C   UNL A   1      31.690  27.241  22.036  1.00  0.00     0.274 C 
ATOM     73  H   UNL A   1      32.138  29.172  22.392  1.00  0.00     0.163 HD
ATOM     74  O   UNL A   1      30.504  27.489  21.884  1.00  0.00    -0.267 OA
BRANCH  72  75
ATOM     75  C   UNL A   1      32.211  25.880  21.950  1.00  0.00     0.178 A 
ATOM     76  N   UNL A   1      32.849  25.425  20.819  1.00  0.00    -0.124 NA
ATOM     77  C   UNL A   1      32.197  24.869  22.902  1.00  0.00     0.108 A 
ATOM     78  N   UNL A   1      33.308  24.204  21.059  1.00  0.00    -0.061 NA
ATOM     79  N   UNL A   1      32.822  23.808  22.253  1.00  0.00    -0.212 N 
BRANCH  77  80
ATOM     80  C   UNL A   1      31.829  24.869  24.317  1.00  0.00     0.004 A 
ATOM     81  C   UNL A   1      32.337  25.874  25.163  1.00  0.00     0.010 A 
ATOM     82  C   UNL A   1      30.958  23.911  24.840  1.00  0.00     0.031 A 
ATOM     83  C   UNL A   1      31.990  25.917  26.511  1.00  0.00     0.002 A 
ATOM     84  C   UNL A   1      30.620  23.958  26.195  1.00  0.00     0.041 A 
ATOM     85  C   UNL A   1      31.130  24.954  27.029  1.00  0.00     0.020 A 
ATOM     86  Cl  UNL A   1      29.559  22.770  26.845  1.00  0.00    -0.084 Cl
ENDBRANCH  77  80
BRANCH  79  87
ATOM     87  C   UNL A   1      33.038  22.508  22.762  1.00  0.00     0.067 A 
ATOM     88  C   UNL A   1      34.009  22.303  23.744  1.00  0.00     0.029 A 
ATOM     89  C   UNL A   1      32.180  21.468  22.378  1.00  0.00     0.029 A 
ATOM     90  C   UNL A   1      34.036  21.080  24.423  1.00  0.00     0.015 A 
ATOM     91  C   UNL A   1      32.234  20.244  23.037  1.00  0.00     0.015 A 
ATOM     92  C   UNL A   1      33.136  20.050  24.093  1.00  0.00     0.056 A 
BRANCH  92  93
ATOM     93  C   UNL A   1      33.115  18.768  24.889  1.00  0.00     0.416 C 
ATOM     94  F   UNL A   1      32.874  18.973  26.212  1.00  0.00    -0.166 F 
ATOM     95  F   UNL A   1      32.152  17.907  24.458  1.00  0.00    -0.166 F 
ATOM     96  F   UNL A   1      34.287  18.072  24.828  1.00  0.00    -0.166 F 
ENDBRANCH  92  93
ENDBRANCH  79  87
ENDBRANCH  72  75
ENDBRANCH  70  71
ENDBRANCH  69  70
ENDBRANCH   1  69
TORSDOF 17
ENDMDL
