MODEL 1
REMARK VINA RESULT:     -11.9      0.000      0.000
REMARK SMILES O=C(Cn1nc(-c2ccc(Br)cc2)ccc1=O)N[C@H](C(=O)NCCCCNC(=O)c1ccc(-c2c3nc(c(-c4ccc(S(=O)(=O)[O-])cc4)c4ccc([nH]4)c(-c4ccc(S(=O)(=O)[O-])cc4)c4nc(c(-c5ccc(S(=O)(=O)[O-])cc5)c5ccc2[nH]5)C=C4)C=C3)cc1)c1ccccc1
REMARK SMILES IDX 24 1 23 2 22 3 20 4 21 5 19 7 18 8 1 9 2 10 3 12 4 13 5 14
REMARK SMILES IDX 16 15 6 16 15 17 17 18 14 19 7 20 8 21 13 22 9 23 12 24
REMARK SMILES IDX 10 25 11 26 90 27 91 28 95 29 92 30 94 31 93 32 25 33 26 34
REMARK SMILES IDX 27 35 28 36 29 38 30 39 31 40 89 41 32 42 88 43 33 44 34 45
REMARK SMILES IDX 35 46 82 47 36 48 87 49 81 50 83 51 37 52 86 53 80 54 79 55
REMARK SMILES IDX 38 57 68 58 49 59 67 60 50 61 53 62 66 63 84 64 51 65 52 66
REMARK SMILES IDX 65 68 85 69 54 70 39 71 40 72 48 73 41 74 47 75 42 76 43 77
REMARK SMILES IDX 44 78 45 79 46 80 69 81 70 82 78 83 71 84 77 85 72 86 73 87
REMARK SMILES IDX 74 88 75 89 76 90 55 91 56 92 64 93 57 94 63 95 58 96 59 97
REMARK SMILES IDX 60 98 61 99 62 100
REMARK H PARENT 22 6 18 11 27 37 83 56 53 67
REMARK Flexibility Score: inf
ROOT
ATOM      1  C   UNL A   1      36.255  21.965  24.148  1.00  0.00     0.023 C 
ENDROOT
BRANCH   1   2
ATOM      2  C   UNL A   1      35.448  20.781  24.688  1.00  0.00     0.116 C 
BRANCH   2   3
ATOM      3  N   UNL A   1      34.967  21.045  26.029  1.00  0.00    -0.354 N 
ATOM      4  C   UNL A   1      33.695  21.034  26.540  1.00  0.00     0.247 C 
ATOM      5  O   UNL A   1      33.573  21.463  27.689  1.00  0.00    -0.272 OA
ATOM      6  H   UNL A   1      35.669  21.270  26.681  1.00  0.00     0.163 HD
BRANCH   4   7
ATOM      7  C   UNL A   1      32.525  20.466  25.683  1.00  0.00     0.202 C 
BRANCH   7   8
ATOM      8  N   UNL A   1      32.093  21.501  24.738  1.00  0.00    -0.339 N 
ATOM      9  O   UNL A   1      30.581  22.488  26.148  1.00  0.00    -0.273 OA
ATOM     10  C   UNL A   1      31.210  22.500  25.092  1.00  0.00     0.242 C 
ATOM     11  H   UNL A   1      32.447  21.483  23.819  1.00  0.00     0.164 HD
BRANCH  10  12
ATOM     12  C   UNL A   1      30.898  23.539  24.022  1.00  0.00     0.248 C 
BRANCH  12  13
ATOM     13  N   UNL A   1      31.995  24.454  23.714  1.00  0.00    -0.220 N 
ATOM     14  N   UNL A   1      32.125  25.556  24.537  1.00  0.00    -0.169 NA
ATOM     15  C   UNL A   1      32.819  24.206  22.630  1.00  0.00     0.267 A 
ATOM     16  C   UNL A   1      32.971  26.467  24.181  1.00  0.00     0.091 A 
ATOM     17  C   UNL A   1      33.710  25.314  22.224  1.00  0.00     0.075 A 
ATOM     18  O   UNL A   1      32.851  23.147  22.010  1.00  0.00    -0.268 OA
ATOM     19  C   UNL A   1      33.789  26.429  22.953  1.00  0.00     0.036 A 
BRANCH  16  20
ATOM     20  C   UNL A   1      33.175  27.648  25.043  1.00  0.00     0.002 A 
ATOM     21  C   UNL A   1      34.174  27.608  26.020  1.00  0.00     0.011 A 
ATOM     22  C   UNL A   1      32.367  28.780  24.888  1.00  0.00     0.011 A 
ATOM     23  C   UNL A   1      34.380  28.720  26.838  1.00  0.00     0.016 A 
ATOM     24  C   UNL A   1      32.571  29.886  25.716  1.00  0.00     0.016 A 
ATOM     25  C   UNL A   1      33.579  29.852  26.683  1.00  0.00     0.018 A 
ATOM     26  Br  UNL A   1      33.855  31.354  27.798  1.00  0.00    -0.051 Br
ENDBRANCH  16  20
ENDBRANCH  12  13
ENDBRANCH  10  12
ENDBRANCH   7   8
BRANCH   7  27
ATOM     27  C   UNL A   1      32.757  19.101  25.029  1.00  0.00    -0.016 A 
ATOM     28  C   UNL A   1      33.000  17.951  25.799  1.00  0.00     0.006 A 
ATOM     29  C   UNL A   1      32.674  18.942  23.631  1.00  0.00     0.006 A 
ATOM     30  C   UNL A   1      33.234  16.712  25.193  1.00  0.00     0.000 A 
ATOM     31  C   UNL A   1      32.911  17.705  23.026  1.00  0.00     0.000 A 
ATOM     32  C   UNL A   1      33.201  16.593  23.808  1.00  0.00     0.000 A 
ENDBRANCH   7  27
ENDBRANCH   4   7
ENDBRANCH   2   3
ENDBRANCH   1   2
BRANCH   1  33
ATOM     33  C   UNL A   1      35.924  23.319  24.786  1.00  0.00     0.023 C 
BRANCH  33  34
ATOM     34  C   UNL A   1      37.085  24.017  25.486  1.00  0.00     0.116 C 
BRANCH  34  35
ATOM     35  N   UNL A   1      38.235  23.148  25.695  1.00  0.00    -0.352 N 
ATOM     36  C   UNL A   1      39.410  23.416  26.364  1.00  0.00     0.251 C 
ATOM     37  H   UNL A   1      38.163  22.247  25.305  1.00  0.00     0.163 HD
ATOM     38  O   UNL A   1      40.327  22.607  26.343  1.00  0.00    -0.269 OA
BRANCH  36  39
ATOM     39  C   UNL A   1      39.569  24.711  27.068  1.00  0.00     0.039 A 
ATOM     40  C   UNL A   1      40.268  25.764  26.474  1.00  0.00     0.014 A 
ATOM     41  C   UNL A   1      39.049  24.854  28.357  1.00  0.00     0.014 A 
ATOM     42  C   UNL A   1      40.590  26.888  27.227  1.00  0.00     0.010 A 
ATOM     43  C   UNL A   1      39.309  26.019  29.086  1.00  0.00     0.010 A 
ATOM     44  C   UNL A   1      40.127  27.023  28.547  1.00  0.00    -0.014 A 
BRANCH  44  45
ATOM     45  C   UNL A   1      40.525  28.215  29.343  1.00  0.00     0.031 A 
ATOM     46  C   UNL A   1      39.581  29.375  29.520  1.00  0.00     0.074 A 
ATOM     47  C   UNL A   1      41.719  28.220  29.969  1.00  0.00     0.049 A 
ATOM     48  N   UNL A   1      39.746  30.467  30.223  1.00  0.00    -0.248 NA
ATOM     49  C   UNL A   1      38.285  29.304  28.826  1.00  0.00     0.031 C 
ATOM     50  C   UNL A   1      42.711  27.145  29.893  1.00  0.00     0.029 A 
ATOM     51  N   UNL A   1      42.287  29.136  30.819  1.00  0.00    -0.354 N 
ATOM     52  C   UNL A   1      38.587  31.214  30.048  1.00  0.00     0.074 A 
ATOM     53  C   UNL A   1      37.736  30.469  29.147  1.00  0.00     0.031 C 
ATOM     54  C   UNL A   1      43.731  27.431  30.714  1.00  0.00     0.029 A 
ATOM     55  C   UNL A   1      43.502  28.738  31.325  1.00  0.00     0.049 A 
ATOM     56  H   UNL A   1      41.866  29.997  31.045  1.00  0.00     0.167 HD
ATOM     57  C   UNL A   1      38.257  32.407  30.599  1.00  0.00     0.031 A 
ATOM     58  C   UNL A   1      44.346  29.348  32.182  1.00  0.00     0.031 A 
ATOM     59  C   UNL A   1      39.100  33.138  31.509  1.00  0.00     0.049 A 
ATOM     60  C   UNL A   1      43.978  30.691  32.744  1.00  0.00     0.074 A 
ATOM     61  C   UNL A   1      38.840  34.348  32.129  1.00  0.00     0.029 A 
ATOM     62  N   UNL A   1      40.355  32.733  31.935  1.00  0.00    -0.354 N 
ATOM     63  N   UNL A   1      42.879  31.381  32.561  1.00  0.00    -0.248 NA
ATOM     64  C   UNL A   1      44.961  31.340  33.623  1.00  0.00     0.031 C 
ATOM     65  C   UNL A   1      39.960  34.702  32.883  1.00  0.00     0.029 A 
ATOM     66  C   UNL A   1      40.893  33.682  32.788  1.00  0.00     0.049 A 
ATOM     67  H   UNL A   1      40.798  31.894  31.671  1.00  0.00     0.167 HD
ATOM     68  C   UNL A   1      43.034  32.545  33.304  1.00  0.00     0.074 A 
ATOM     69  C   UNL A   1      44.324  32.457  33.956  1.00  0.00     0.031 C 
ATOM     70  C   UNL A   1      42.183  33.592  33.425  1.00  0.00     0.031 A 
BRANCH  57  71
ATOM     71  C   UNL A   1      36.924  33.016  30.246  1.00  0.00    -0.014 A 
ATOM     72  C   UNL A   1      36.775  33.713  29.033  1.00  0.00     0.010 A 
ATOM     73  C   UNL A   1      35.859  33.006  31.164  1.00  0.00     0.010 A 
ATOM     74  C   UNL A   1      35.598  34.412  28.753  1.00  0.00     0.020 A 
ATOM     75  C   UNL A   1      34.670  33.684  30.877  1.00  0.00     0.020 A 
ATOM     76  C   UNL A   1      34.556  34.402  29.684  1.00  0.00     0.054 A 
BRANCH  76  77
ATOM     77  S   UNL A   1      33.041  35.332  29.315  1.00  0.00     0.124 S 
ATOM     78  O   UNL A   1      33.566  36.635  28.922  1.00  0.00    -0.237 OA
ATOM     79  O   UNL A   1      32.436  34.545  28.242  1.00  0.00    -0.237 OA
ATOM     80  O   UNL A   1      32.310  35.306  30.580  1.00  0.00    -0.744 OA
ENDBRANCH  76  77
ENDBRANCH  57  71
BRANCH  58  81
ATOM     81  C   UNL A   1      45.612  28.661  32.558  1.00  0.00    -0.014 A 
ATOM     82  C   UNL A   1      46.761  28.805  31.758  1.00  0.00     0.010 A 
ATOM     83  C   UNL A   1      45.646  27.781  33.653  1.00  0.00     0.010 A 
ATOM     84  C   UNL A   1      47.897  28.033  32.004  1.00  0.00     0.020 A 
ATOM     85  C   UNL A   1      46.794  27.028  33.921  1.00  0.00     0.020 A 
ATOM     86  C   UNL A   1      47.900  27.135  33.074  1.00  0.00     0.054 A 
BRANCH  86  87
ATOM     87  S   UNL A   1      49.362  26.093  33.336  1.00  0.00     0.124 S 
ATOM     88  O   UNL A   1      49.840  26.569  34.631  1.00  0.00    -0.237 OA
ATOM     89  O   UNL A   1      48.800  24.744  33.330  1.00  0.00    -0.237 OA
ATOM     90  O   UNL A   1      50.217  26.412  32.196  1.00  0.00    -0.744 OA
ENDBRANCH  86  87
ENDBRANCH  58  81
BRANCH  70  91
ATOM     91  C   UNL A   1      42.605  34.754  34.284  1.00  0.00    -0.014 A 
ATOM     92  C   UNL A   1      43.371  35.795  33.726  1.00  0.00     0.010 A 
ATOM     93  C   UNL A   1      42.364  34.745  35.668  1.00  0.00     0.010 A 
ATOM     94  C   UNL A   1      43.920  36.786  34.542  1.00  0.00     0.020 A 
ATOM     95  C   UNL A   1      42.890  35.750  36.486  1.00  0.00     0.020 A 
ATOM     96  C   UNL A   1      43.688  36.750  35.920  1.00  0.00     0.054 A 
BRANCH  96  97
ATOM     97  S   UNL A   1      44.442  38.021  36.971  1.00  0.00     0.124 S 
ATOM     98  O   UNL A   1      45.758  37.452  37.245  1.00  0.00    -0.237 OA
ATOM     99  O   UNL A   1      44.433  39.201  36.108  1.00  0.00    -0.237 OA
ATOM    100  O   UNL A   1      43.541  38.094  38.120  1.00  0.00    -0.744 OA
ENDBRANCH  96  97
ENDBRANCH  70  91
ENDBRANCH  44  45
ENDBRANCH  36  39
ENDBRANCH  34  35
ENDBRANCH  33  34
ENDBRANCH   1  33
TORSDOF 19
ENDMDL
MODEL 2
REMARK VINA RESULT:     -11.2      2.568      3.233
REMARK SMILES O=C(Cn1nc(-c2ccc(Br)cc2)ccc1=O)N[C@H](C(=O)NCCCCNC(=O)c1ccc(-c2c3nc(c(-c4ccc(S(=O)(=O)[O-])cc4)c4ccc([nH]4)c(-c4ccc(S(=O)(=O)[O-])cc4)c4nc(c(-c5ccc(S(=O)(=O)[O-])cc5)c5ccc2[nH]5)C=C4)C=C3)cc1)c1ccccc1
REMARK SMILES IDX 24 1 23 2 22 3 20 4 21 5 19 7 18 8 1 9 2 10 3 12 4 13 5 14
REMARK SMILES IDX 16 15 6 16 15 17 17 18 14 19 7 20 8 21 13 22 9 23 12 24
REMARK SMILES IDX 10 25 11 26 90 27 91 28 95 29 92 30 94 31 93 32 25 33 26 34
REMARK SMILES IDX 27 35 28 36 29 38 30 39 31 40 89 41 32 42 88 43 33 44 34 45
REMARK SMILES IDX 35 46 82 47 36 48 87 49 81 50 83 51 37 52 86 53 80 54 79 55
REMARK SMILES IDX 38 57 68 58 49 59 67 60 50 61 53 62 66 63 84 64 51 65 52 66
REMARK SMILES IDX 65 68 85 69 54 70 39 71 40 72 48 73 41 74 47 75 42 76 43 77
REMARK SMILES IDX 44 78 45 79 46 80 69 81 70 82 78 83 71 84 77 85 72 86 73 87
REMARK SMILES IDX 74 88 75 89 76 90 55 91 56 92 64 93 57 94 63 95 58 96 59 97
REMARK SMILES IDX 60 98 61 99 62 100
REMARK H PARENT 22 6 18 11 27 37 83 56 53 67
REMARK Flexibility Score: inf
ROOT
ATOM      1  C   UNL A   1      38.683  21.989  25.443  1.00  0.00     0.023 C 
ENDROOT
BRANCH   1   2
ATOM      2  C   UNL A   1      37.183  21.700  25.553  1.00  0.00     0.116 C 
BRANCH   2   3
ATOM      3  N   UNL A   1      36.461  22.248  24.423  1.00  0.00    -0.354 N 
ATOM      4  C   UNL A   1      35.155  22.095  24.038  1.00  0.00     0.247 C 
ATOM      5  O   UNL A   1      34.862  22.554  22.932  1.00  0.00    -0.272 OA
ATOM      6  H   UNL A   1      36.998  22.827  23.835  1.00  0.00     0.163 HD
BRANCH   4   7
ATOM      7  C   UNL A   1      34.142  21.406  25.000  1.00  0.00     0.202 C 
BRANCH   7   8
ATOM      8  N   UNL A   1      32.894  22.177  24.993  1.00  0.00    -0.339 N 
ATOM      9  O   UNL A   1      32.615  22.189  27.267  1.00  0.00    -0.273 OA
ATOM     10  C   UNL A   1      32.277  22.589  26.155  1.00  0.00     0.242 C 
ATOM     11  H   UNL A   1      32.483  22.408  24.128  1.00  0.00     0.164 HD
BRANCH  10  12
ATOM     12  C   UNL A   1      31.018  23.431  25.991  1.00  0.00     0.248 C 
BRANCH  12  13
ATOM     13  N   UNL A   1      31.193  24.657  25.215  1.00  0.00    -0.220 N 
ATOM     14  N   UNL A   1      31.726  25.740  25.888  1.00  0.00    -0.169 NA
ATOM     15  C   UNL A   1      30.806  24.696  23.886  1.00  0.00     0.267 A 
ATOM     16  C   UNL A   1      31.726  26.879  25.275  1.00  0.00     0.091 A 
ATOM     17  C   UNL A   1      30.753  26.036  23.264  1.00  0.00     0.075 A 
ATOM     18  O   UNL A   1      30.519  23.707  23.217  1.00  0.00    -0.268 OA
ATOM     19  C   UNL A   1      31.180  27.113  23.925  1.00  0.00     0.036 A 
BRANCH  16  20
ATOM     20  C   UNL A   1      32.316  28.059  25.935  1.00  0.00     0.002 A 
ATOM     21  C   UNL A   1      33.503  27.908  26.658  1.00  0.00     0.011 A 
ATOM     22  C   UNL A   1      31.685  29.305  25.847  1.00  0.00     0.011 A 
ATOM     23  C   UNL A   1      34.075  29.018  27.283  1.00  0.00     0.016 A 
ATOM     24  C   UNL A   1      32.255  30.410  26.482  1.00  0.00     0.016 A 
ATOM     25  C   UNL A   1      33.449  30.262  27.192  1.00  0.00     0.018 A 
ATOM     26  Br  UNL A   1      34.221  31.762  28.046  1.00  0.00    -0.051 Br
ENDBRANCH  16  20
ENDBRANCH  12  13
ENDBRANCH  10  12
ENDBRANCH   7   8
BRANCH   7  27
ATOM     27  C   UNL A   1      33.931  19.901  24.807  1.00  0.00    -0.016 A 
ATOM     28  C   UNL A   1      32.645  19.337  24.801  1.00  0.00     0.006 A 
ATOM     29  C   UNL A   1      35.020  19.040  24.566  1.00  0.00     0.006 A 
ATOM     30  C   UNL A   1      32.461  17.959  24.647  1.00  0.00     0.000 A 
ATOM     31  C   UNL A   1      34.837  17.663  24.415  1.00  0.00     0.000 A 
ATOM     32  C   UNL A   1      33.557  17.122  24.466  1.00  0.00     0.000 A 
ENDBRANCH   7  27
ENDBRANCH   4   7
ENDBRANCH   2   3
ENDBRANCH   1   2
BRANCH   1  33
ATOM     33  C   UNL A   1      39.388  22.272  26.776  1.00  0.00     0.023 C 
BRANCH  33  34
ATOM     34  C   UNL A   1      39.765  23.729  27.024  1.00  0.00     0.116 C 
BRANCH  34  35
ATOM     35  N   UNL A   1      40.721  24.247  26.055  1.00  0.00    -0.352 N 
ATOM     36  C   UNL A   1      41.276  25.506  25.978  1.00  0.00     0.251 C 
ATOM     37  H   UNL A   1      41.009  23.611  25.361  1.00  0.00     0.163 HD
ATOM     38  O   UNL A   1      41.978  25.810  25.024  1.00  0.00    -0.269 OA
BRANCH  36  39
ATOM     39  C   UNL A   1      40.978  26.500  27.037  1.00  0.00     0.039 A 
ATOM     40  C   UNL A   1      41.571  27.764  27.014  1.00  0.00     0.014 A 
ATOM     41  C   UNL A   1      40.129  26.142  28.087  1.00  0.00     0.014 A 
ATOM     42  C   UNL A   1      41.450  28.601  28.118  1.00  0.00     0.010 A 
ATOM     43  C   UNL A   1      39.947  27.019  29.163  1.00  0.00     0.010 A 
ATOM     44  C   UNL A   1      40.647  28.233  29.212  1.00  0.00    -0.014 A 
BRANCH  44  45
ATOM     45  C   UNL A   1      40.573  29.128  30.398  1.00  0.00     0.031 A 
ATOM     46  C   UNL A   1      39.509  30.189  30.498  1.00  0.00     0.074 A 
ATOM     47  C   UNL A   1      41.427  28.935  31.424  1.00  0.00     0.049 A 
ATOM     48  N   UNL A   1      39.268  31.019  31.481  1.00  0.00    -0.248 NA
ATOM     49  C   UNL A   1      38.595  30.341  29.354  1.00  0.00     0.031 C 
ATOM     50  C   UNL A   1      42.486  27.924  31.455  1.00  0.00     0.029 A 
ATOM     51  N   UNL A   1      41.518  29.549  32.648  1.00  0.00    -0.354 N 
ATOM     52  C   UNL A   1      38.188  31.794  31.073  1.00  0.00     0.074 A 
ATOM     53  C   UNL A   1      37.838  31.360  29.739  1.00  0.00     0.031 C 
ATOM     54  C   UNL A   1      43.074  27.942  32.659  1.00  0.00     0.029 A 
ATOM     55  C   UNL A   1      42.482  29.007  33.465  1.00  0.00     0.049 A 
ATOM     56  H   UNL A   1      40.949  30.306  32.916  1.00  0.00     0.167 HD
ATOM     57  C   UNL A   1      37.540  32.769  31.754  1.00  0.00     0.031 A 
ATOM     58  C   UNL A   1      42.859  29.325  34.720  1.00  0.00     0.031 A 
ATOM     59  C   UNL A   1      37.882  33.187  33.089  1.00  0.00     0.049 A 
ATOM     60  C   UNL A   1      42.155  30.441  35.437  1.00  0.00     0.074 A 
ATOM     61  C   UNL A   1      37.269  34.157  33.863  1.00  0.00     0.029 A 
ATOM     62  N   UNL A   1      38.914  32.662  33.850  1.00  0.00    -0.354 N 
ATOM     63  N   UNL A   1      41.140  31.163  35.030  1.00  0.00    -0.248 NA
ATOM     64  C   UNL A   1      42.646  30.789  36.778  1.00  0.00     0.031 C 
ATOM     65  C   UNL A   1      37.968  34.260  35.069  1.00  0.00     0.029 A 
ATOM     66  C   UNL A   1      38.974  33.307  35.074  1.00  0.00     0.049 A 
ATOM     67  H   UNL A   1      39.516  31.937  33.564  1.00  0.00     0.167 HD
ATOM     68  C   UNL A   1      40.866  32.049  36.064  1.00  0.00     0.074 A 
ATOM     69  C   UNL A   1      41.809  31.759  37.126  1.00  0.00     0.031 C 
ATOM     70  C   UNL A   1      39.922  33.020  36.121  1.00  0.00     0.031 A 
BRANCH  57  71
ATOM     71  C   UNL A   1      36.386  33.467  31.083  1.00  0.00    -0.014 A 
ATOM     72  C   UNL A   1      36.570  34.064  29.822  1.00  0.00     0.010 A 
ATOM     73  C   UNL A   1      35.159  33.639  31.747  1.00  0.00     0.010 A 
ATOM     74  C   UNL A   1      35.562  34.844  29.249  1.00  0.00     0.020 A 
ATOM     75  C   UNL A   1      34.138  34.398  31.167  1.00  0.00     0.020 A 
ATOM     76  C   UNL A   1      34.354  35.015  29.932  1.00  0.00     0.054 A 
BRANCH  76  77
ATOM     77  S   UNL A   1      33.062  36.047  29.185  1.00  0.00     0.124 S 
ATOM     78  O   UNL A   1      33.842  37.065  28.490  1.00  0.00    -0.237 OA
ATOM     79  O   UNL A   1      32.352  35.100  28.326  1.00  0.00    -0.237 OA
ATOM     80  O   UNL A   1      32.297  36.521  30.336  1.00  0.00    -0.744 OA
ENDBRANCH  76  77
ENDBRANCH  57  71
BRANCH  58  81
ATOM     81  C   UNL A   1      43.952  28.547  35.363  1.00  0.00    -0.014 A 
ATOM     82  C   UNL A   1      43.650  27.440  36.178  1.00  0.00     0.010 A 
ATOM     83  C   UNL A   1      45.288  28.969  35.251  1.00  0.00     0.010 A 
ATOM     84  C   UNL A   1      44.651  26.812  36.921  1.00  0.00     0.020 A 
ATOM     85  C   UNL A   1      46.298  28.323  35.971  1.00  0.00     0.020 A 
ATOM     86  C   UNL A   1      45.967  27.270  36.827  1.00  0.00     0.054 A 
BRANCH  86  87
ATOM     87  S   UNL A   1      47.241  26.484  37.852  1.00  0.00     0.124 S 
ATOM     88  O   UNL A   1      48.341  26.339  36.902  1.00  0.00    -0.237 OA
ATOM     89  O   UNL A   1      47.451  27.465  38.913  1.00  0.00    -0.237 OA
ATOM     90  O   UNL A   1      46.613  25.236  38.278  1.00  0.00    -0.744 OA
ENDBRANCH  86  87
ENDBRANCH  58  81
BRANCH  70  91
ATOM     91  C   UNL A   1      39.848  33.867  37.364  1.00  0.00    -0.014 A 
ATOM     92  C   UNL A   1      39.240  33.353  38.525  1.00  0.00     0.010 A 
ATOM     93  C   UNL A   1      40.251  35.213  37.338  1.00  0.00     0.010 A 
ATOM     94  C   UNL A   1      39.003  34.180  39.625  1.00  0.00     0.020 A 
ATOM     95  C   UNL A   1      40.040  36.037  38.447  1.00  0.00     0.020 A 
ATOM     96  C   UNL A   1      39.392  35.521  39.574  1.00  0.00     0.054 A 
BRANCH  96  97
ATOM     97  S   UNL A   1      39.040  36.592  40.995  1.00  0.00     0.124 S 
ATOM     98  O   UNL A   1      37.940  35.887  41.646  1.00  0.00    -0.237 OA
ATOM     99  O   UNL A   1      40.307  36.592  41.722  1.00  0.00    -0.237 OA
ATOM    100  O   UNL A   1      38.686  37.871  40.380  1.00  0.00    -0.744 OA
ENDBRANCH  96  97
ENDBRANCH  70  91
ENDBRANCH  44  45
ENDBRANCH  36  39
ENDBRANCH  34  35
ENDBRANCH  33  34
ENDBRANCH   1  33
TORSDOF 19
ENDMDL
MODEL 3
REMARK VINA RESULT:     -11.0      4.628      9.016
REMARK SMILES O=C(Cn1nc(-c2ccc(Br)cc2)ccc1=O)N[C@H](C(=O)NCCCCNC(=O)c1ccc(-c2c3nc(c(-c4ccc(S(=O)(=O)[O-])cc4)c4ccc([nH]4)c(-c4ccc(S(=O)(=O)[O-])cc4)c4nc(c(-c5ccc(S(=O)(=O)[O-])cc5)c5ccc2[nH]5)C=C4)C=C3)cc1)c1ccccc1
REMARK SMILES IDX 24 1 23 2 22 3 20 4 21 5 19 7 18 8 1 9 2 10 3 12 4 13 5 14
REMARK SMILES IDX 16 15 6 16 15 17 17 18 14 19 7 20 8 21 13 22 9 23 12 24
REMARK SMILES IDX 10 25 11 26 90 27 91 28 95 29 92 30 94 31 93 32 25 33 26 34
REMARK SMILES IDX 27 35 28 36 29 38 30 39 31 40 89 41 32 42 88 43 33 44 34 45
REMARK SMILES IDX 35 46 82 47 36 48 87 49 81 50 83 51 37 52 86 53 80 54 79 55
REMARK SMILES IDX 38 57 68 58 49 59 67 60 50 61 53 62 66 63 84 64 51 65 52 66
REMARK SMILES IDX 65 68 85 69 54 70 39 71 40 72 48 73 41 74 47 75 42 76 43 77
REMARK SMILES IDX 44 78 45 79 46 80 69 81 70 82 78 83 71 84 77 85 72 86 73 87
REMARK SMILES IDX 74 88 75 89 76 90 55 91 56 92 64 93 57 94 63 95 58 96 59 97
REMARK SMILES IDX 60 98 61 99 62 100
REMARK H PARENT 22 6 18 11 27 37 83 56 53 67
REMARK Flexibility Score: inf
ROOT
ATOM      1  C   UNL A   1      38.241  21.696  25.396  1.00  0.00     0.023 C 
ENDROOT
BRANCH   1   2
ATOM      2  C   UNL A   1      36.729  21.742  25.630  1.00  0.00     0.116 C 
BRANCH   2   3
ATOM      3  N   UNL A   1      36.055  22.447  24.558  1.00  0.00    -0.354 N 
ATOM      4  C   UNL A   1      34.787  22.309  24.056  1.00  0.00     0.247 C 
ATOM      5  O   UNL A   1      34.545  22.939  23.025  1.00  0.00    -0.272 OA
ATOM      6  H   UNL A   1      36.598  23.139  24.116  1.00  0.00     0.163 HD
BRANCH   4   7
ATOM      7  C   UNL A   1      33.751  21.425  24.812  1.00  0.00     0.202 C 
BRANCH   7   8
ATOM      8  N   UNL A   1      32.505  22.187  24.956  1.00  0.00    -0.339 N 
ATOM      9  O   UNL A   1      33.027  23.103  26.989  1.00  0.00    -0.273 OA
ATOM     10  C   UNL A   1      32.288  23.050  26.009  1.00  0.00     0.242 C 
ATOM     11  H   UNL A   1      31.800  22.078  24.276  1.00  0.00     0.164 HD
BRANCH  10  12
ATOM     12  C   UNL A   1      30.971  23.817  25.996  1.00  0.00     0.248 C 
BRANCH  12  13
ATOM     13  N   UNL A   1      31.007  25.089  25.278  1.00  0.00    -0.220 N 
ATOM     14  N   UNL A   1      31.616  26.145  25.928  1.00  0.00    -0.169 NA
ATOM     15  C   UNL A   1      30.423  25.194  24.027  1.00  0.00     0.267 A 
ATOM     16  C   UNL A   1      31.504  27.317  25.393  1.00  0.00     0.091 A 
ATOM     17  C   UNL A   1      30.254  26.566  23.502  1.00  0.00     0.075 A 
ATOM     18  O   UNL A   1      30.056  24.238  23.350  1.00  0.00    -0.268 OA
ATOM     19  C   UNL A   1      30.756  27.614  24.156  1.00  0.00     0.036 A 
BRANCH  16  20
ATOM     20  C   UNL A   1      32.166  28.473  26.028  1.00  0.00     0.002 A 
ATOM     21  C   UNL A   1      31.555  29.728  25.954  1.00  0.00     0.011 A 
ATOM     22  C   UNL A   1      33.394  28.311  26.679  1.00  0.00     0.011 A 
ATOM     23  C   UNL A   1      32.168  30.829  26.555  1.00  0.00     0.016 A 
ATOM     24  C   UNL A   1      34.008  29.417  27.270  1.00  0.00     0.016 A 
ATOM     25  C   UNL A   1      33.390  30.668  27.209  1.00  0.00     0.018 A 
ATOM     26  Br  UNL A   1      34.223  32.162  28.015  1.00  0.00    -0.051 Br
ENDBRANCH  16  20
ENDBRANCH  12  13
ENDBRANCH  10  12
ENDBRANCH   7   8
BRANCH   7  27
ATOM     27  C   UNL A   1      33.539  20.007  24.271  1.00  0.00    -0.016 A 
ATOM     28  C   UNL A   1      32.493  19.711  23.382  1.00  0.00     0.006 A 
ATOM     29  C   UNL A   1      34.428  18.965  24.601  1.00  0.00     0.006 A 
ATOM     30  C   UNL A   1      32.292  18.409  22.910  1.00  0.00     0.000 A 
ATOM     31  C   UNL A   1      34.226  17.663  24.132  1.00  0.00     0.000 A 
ATOM     32  C   UNL A   1      33.151  17.385  23.295  1.00  0.00     0.000 A 
ENDBRANCH   7  27
ENDBRANCH   4   7
ENDBRANCH   2   3
ENDBRANCH   1   2
BRANCH   1  33
ATOM     33  C   UNL A   1      38.841  20.287  25.311  1.00  0.00     0.023 C 
BRANCH  33  34
ATOM     34  C   UNL A   1      39.776  19.902  26.453  1.00  0.00     0.116 C 
BRANCH  34  35
ATOM     35  N   UNL A   1      40.980  19.218  26.002  1.00  0.00    -0.352 N 
ATOM     36  C   UNL A   1      42.256  19.720  25.859  1.00  0.00     0.251 C 
ATOM     37  H   UNL A   1      40.868  18.268  25.768  1.00  0.00     0.163 HD
ATOM     38  O   UNL A   1      43.133  19.034  25.352  1.00  0.00    -0.269 OA
BRANCH  36  39
ATOM     39  C   UNL A   1      42.544  21.112  26.280  1.00  0.00     0.039 A 
ATOM     40  C   UNL A   1      42.540  22.154  25.350  1.00  0.00     0.014 A 
ATOM     41  C   UNL A   1      42.864  21.366  27.616  1.00  0.00     0.014 A 
ATOM     42  C   UNL A   1      43.017  23.407  25.718  1.00  0.00     0.010 A 
ATOM     43  C   UNL A   1      43.271  22.649  28.001  1.00  0.00     0.010 A 
ATOM     44  C   UNL A   1      43.402  23.666  27.045  1.00  0.00    -0.014 A 
BRANCH  44  45
ATOM     45  C   UNL A   1      43.951  25.002  27.398  1.00  0.00     0.031 A 
ATOM     46  C   UNL A   1      45.344  25.398  26.983  1.00  0.00     0.074 A 
ATOM     47  C   UNL A   1      43.163  25.892  28.035  1.00  0.00     0.049 A 
ATOM     48  N   UNL A   1      45.960  26.540  27.162  1.00  0.00    -0.248 NA
ATOM     49  C   UNL A   1      46.151  24.391  26.275  1.00  0.00     0.031 C 
ATOM     50  C   UNL A   1      41.788  25.634  28.468  1.00  0.00     0.029 A 
ATOM     51  N   UNL A   1      43.386  27.197  28.396  1.00  0.00    -0.354 N 
ATOM     52  C   UNL A   1      47.223  26.386  26.601  1.00  0.00     0.074 A 
ATOM     53  C   UNL A   1      47.301  25.030  26.103  1.00  0.00     0.031 C 
ATOM     54  C   UNL A   1      41.269  26.762  28.974  1.00  0.00     0.029 A 
ATOM     55  C   UNL A   1      42.291  27.806  28.963  1.00  0.00     0.049 A 
ATOM     56  H   UNL A   1      44.247  27.655  28.262  1.00  0.00     0.167 HD
ATOM     57  C   UNL A   1      48.221  27.296  26.499  1.00  0.00     0.031 A 
ATOM     58  C   UNL A   1      42.117  29.059  29.428  1.00  0.00     0.031 A 
ATOM     59  C   UNL A   1      48.133  28.650  26.982  1.00  0.00     0.049 A 
ATOM     60  C   UNL A   1      43.255  30.037  29.345  1.00  0.00     0.074 A 
ATOM     61  C   UNL A   1      49.091  29.646  26.907  1.00  0.00     0.029 A 
ATOM     62  N   UNL A   1      47.032  29.201  27.617  1.00  0.00    -0.354 N 
ATOM     63  N   UNL A   1      44.441  29.868  28.815  1.00  0.00    -0.248 NA
ATOM     64  C   UNL A   1      43.034  31.370  29.923  1.00  0.00     0.031 C 
ATOM     65  C   UNL A   1      48.591  30.781  27.549  1.00  0.00     0.029 A 
ATOM     66  C   UNL A   1      47.296  30.515  27.965  1.00  0.00     0.049 A 
ATOM     67  H   UNL A   1      46.186  28.728  27.794  1.00  0.00     0.167 HD
ATOM     68  C   UNL A   1      45.110  31.072  28.992  1.00  0.00     0.074 A 
ATOM     69  C   UNL A   1      44.189  31.970  29.659  1.00  0.00     0.031 C 
ATOM     70  C   UNL A   1      46.377  31.398  28.638  1.00  0.00     0.031 A 
BRANCH  57  71
ATOM     71  C   UNL A   1      49.509  26.876  25.840  1.00  0.00    -0.014 A 
ATOM     72  C   UNL A   1      50.499  26.220  26.596  1.00  0.00     0.010 A 
ATOM     73  C   UNL A   1      49.792  27.236  24.510  1.00  0.00     0.010 A 
ATOM     74  C   UNL A   1      51.757  25.958  26.047  1.00  0.00     0.020 A 
ATOM     75  C   UNL A   1      51.042  26.953  23.949  1.00  0.00     0.020 A 
ATOM     76  C   UNL A   1      52.024  26.336  24.729  1.00  0.00     0.054 A 
BRANCH  76  77
ATOM     77  S   UNL A   1      53.669  26.006  24.037  1.00  0.00     0.124 S 
ATOM     78  O   UNL A   1      54.027  24.746  24.678  1.00  0.00    -0.237 OA
ATOM     79  O   UNL A   1      53.403  25.931  22.601  1.00  0.00    -0.237 OA
ATOM     80  O   UNL A   1      54.452  27.167  24.454  1.00  0.00    -0.744 OA
ENDBRANCH  76  77
ENDBRANCH  57  71
BRANCH  58  81
ATOM     81  C   UNL A   1      40.796  29.442  29.995  1.00  0.00    -0.014 A 
ATOM     82  C   UNL A   1      39.824  30.051  29.180  1.00  0.00     0.010 A 
ATOM     83  C   UNL A   1      40.542  29.296  31.370  1.00  0.00     0.010 A 
ATOM     84  C   UNL A   1      38.653  30.568  29.737  1.00  0.00     0.020 A 
ATOM     85  C   UNL A   1      39.356  29.786  31.927  1.00  0.00     0.020 A 
ATOM     86  C   UNL A   1      38.435  30.449  31.112  1.00  0.00     0.054 A 
BRANCH  86  87
ATOM     87  S   UNL A   1      36.940  31.186  31.827  1.00  0.00     0.124 S 
ATOM     88  O   UNL A   1      36.370  30.057  32.558  1.00  0.00    -0.237 OA
ATOM     89  O   UNL A   1      37.477  32.264  32.653  1.00  0.00    -0.237 OA
ATOM     90  O   UNL A   1      36.182  31.621  30.657  1.00  0.00    -0.744 OA
ENDBRANCH  86  87
ENDBRANCH  58  81
BRANCH  70  91
ATOM     91  C   UNL A   1      46.874  32.781  28.967  1.00  0.00    -0.014 A 
ATOM     92  C   UNL A   1      46.654  33.837  28.062  1.00  0.00     0.010 A 
ATOM     93  C   UNL A   1      47.676  33.003  30.099  1.00  0.00     0.010 A 
ATOM     94  C   UNL A   1      47.258  35.080  28.264  1.00  0.00     0.020 A 
ATOM     95  C   UNL A   1      48.261  34.254  30.319  1.00  0.00     0.020 A 
ATOM     96  C   UNL A   1      48.069  35.276  29.385  1.00  0.00     0.054 A 
BRANCH  96  97
ATOM     97  S   UNL A   1      48.879  36.883  29.610  1.00  0.00     0.124 S 
ATOM     98  O   UNL A   1      50.288  36.511  29.675  1.00  0.00    -0.237 OA
ATOM     99  O   UNL A   1      48.476  37.619  28.414  1.00  0.00    -0.237 OA
ATOM    100  O   UNL A   1      48.306  37.383  30.859  1.00  0.00    -0.744 OA
ENDBRANCH  96  97
ENDBRANCH  70  91
ENDBRANCH  44  45
ENDBRANCH  36  39
ENDBRANCH  34  35
ENDBRANCH  33  34
ENDBRANCH   1  33
TORSDOF 19
ENDMDL
