MODEL 1
REMARK VINA RESULT:      -7.8      0.000      0.000
REMARK SMILES CCC[C@@H](C[NH2+]C(C)C)C(=O)NCCCCNC(=O)c1ccc(-c2c3nc(c(-c4ccc(S(=O)(=O)[O-])cc4)c4ccc([nH]4)c(-c4ccc(S(=O)(=O)[O-])cc4)c4nc(c(-c5ccc(S(=O)(=O)[O-])cc5)c5ccc2[nH]5)C=C4)C=C3)cc1
REMARK SMILES IDX 14 1 13 2 12 3 10 4 11 5 4 7 3 8 2 9 1 10 5 11 6 12 7 15
REMARK SMILES IDX 8 16 9 17 15 18 16 19 17 20 18 21 19 23 20 24 21 25 79 26
REMARK SMILES IDX 22 27 78 28 23 29 24 30 25 31 72 32 26 33 77 34 71 35 73 36
REMARK SMILES IDX 27 37 76 38 70 39 69 40 28 42 58 43 39 44 57 45 40 46 43 47
REMARK SMILES IDX 56 48 74 49 41 50 42 51 55 53 75 54 44 55 29 56 30 57 38 58
REMARK SMILES IDX 31 59 37 60 32 61 33 62 34 63 35 64 36 65 59 66 60 67 68 68
REMARK SMILES IDX 61 69 67 70 62 71 63 72 64 73 65 74 66 75 45 76 46 77 54 78
REMARK SMILES IDX 47 79 53 80 48 81 49 82 50 83 51 84 52 85
REMARK H PARENT 12 6 6 13 6 14 17 22 73 41 43 52
REMARK Flexibility Score: inf
ROOT
ATOM      1  C   UNL A   1      42.785  23.259  27.511  1.00  0.00     0.023 C 
ENDROOT
BRANCH   1   2
ATOM      2  C   UNL A   1      44.293  23.304  27.309  1.00  0.00     0.116 C 
BRANCH   2   3
ATOM      3  N   UNL A   1      44.688  23.063  25.937  1.00  0.00    -0.356 N 
ATOM      4  C   UNL A   1      45.145  23.931  24.993  1.00  0.00     0.228 C 
ATOM      5  O   UNL A   1      45.540  23.452  23.925  1.00  0.00    -0.275 OA
ATOM      6  H   UNL A   1      44.615  22.127  25.640  1.00  0.00     0.163 HD
BRANCH   4   7
ATOM      7  C   UNL A   1      45.171  25.449  25.204  1.00  0.00     0.133 C 
BRANCH   7   8
ATOM      8  C   UNL A   1      43.786  26.002  25.591  1.00  0.00     0.019 C 
BRANCH   8   9
ATOM      9  C   UNL A   1      43.490  27.439  25.160  1.00  0.00    -0.002 C 
ATOM     10  C   UNL A   1      43.584  28.439  26.298  1.00  0.00     0.004 C 
ENDBRANCH   8   9
ENDBRANCH   7   8
BRANCH   7  11
ATOM     11  C   UNL A   1      46.409  25.905  26.011  1.00  0.00     0.274 C 
BRANCH  11  12
ATOM     12  N   UNL A   1      47.472  24.911  26.120  1.00  0.00    -0.344 N 
ATOM     13  H   UNL A   1      48.249  25.212  25.531  1.00  0.00     0.346 HD
ATOM     14  H   UNL A   1      47.066  24.022  25.827  1.00  0.00     0.346 HD
BRANCH  12  15
ATOM     15  C   UNL A   1      47.980  24.704  27.475  1.00  0.00     0.176 C 
ATOM     16  C   UNL A   1      49.321  25.408  27.660  1.00  0.00     0.075 C 
ATOM     17  C   UNL A   1      46.939  25.278  28.441  1.00  0.00     0.075 C 
ENDBRANCH  12  15
ENDBRANCH  11  12
ENDBRANCH   7  11
ENDBRANCH   4   7
ENDBRANCH   2   3
ENDBRANCH   1   2
BRANCH   1  18
ATOM     18  C   UNL A   1      42.083  22.105  26.807  1.00  0.00     0.023 C 
BRANCH  18  19
ATOM     19  C   UNL A   1      40.739  21.708  27.406  1.00  0.00     0.116 C 
BRANCH  19  20
ATOM     20  N   UNL A   1      39.625  21.848  26.478  1.00  0.00    -0.352 N 
ATOM     21  C   UNL A   1      38.857  22.958  26.219  1.00  0.00     0.251 C 
ATOM     22  H   UNL A   1      39.391  21.039  25.969  1.00  0.00     0.163 HD
ATOM     23  O   UNL A   1      37.875  22.872  25.487  1.00  0.00    -0.269 OA
BRANCH  21  24
ATOM     24  C   UNL A   1      39.208  24.244  26.853  1.00  0.00     0.039 A 
ATOM     25  C   UNL A   1      38.847  24.466  28.184  1.00  0.00     0.014 A 
ATOM     26  C   UNL A   1      39.927  25.213  26.146  1.00  0.00     0.014 A 
ATOM     27  C   UNL A   1      39.255  25.640  28.819  1.00  0.00     0.010 A 
ATOM     28  C   UNL A   1      40.415  26.332  26.810  1.00  0.00     0.010 A 
ATOM     29  C   UNL A   1      40.067  26.570  28.146  1.00  0.00    -0.014 A 
BRANCH  29  30
ATOM     30  C   UNL A   1      40.524  27.813  28.817  1.00  0.00     0.031 A 
ATOM     31  C   UNL A   1      41.926  27.900  29.362  1.00  0.00     0.074 A 
ATOM     32  C   UNL A   1      39.671  28.845  28.971  1.00  0.00     0.049 A 
ATOM     33  N   UNL A   1      42.513  28.898  29.971  1.00  0.00    -0.248 NA
ATOM     34  C   UNL A   1      42.772  26.701  29.231  1.00  0.00     0.031 C 
ATOM     35  C   UNL A   1      38.270  28.862  28.543  1.00  0.00     0.029 A 
ATOM     36  N   UNL A   1      39.862  30.086  29.525  1.00  0.00    -0.354 N 
ATOM     37  C   UNL A   1      43.783  28.443  30.307  1.00  0.00     0.074 A 
ATOM     38  C   UNL A   1      43.859  27.059  29.895  1.00  0.00     0.031 C 
ATOM     39  C   UNL A   1      37.742  30.068  28.810  1.00  0.00     0.029 A 
ATOM     40  C   UNL A   1      38.754  30.898  29.456  1.00  0.00     0.049 A 
ATOM     41  H   UNL A   1      40.713  30.369  29.932  1.00  0.00     0.167 HD
ATOM     42  C   UNL A   1      44.807  29.120  30.877  1.00  0.00     0.031 A 
ATOM     43  C   UNL A   1      38.576  32.172  29.858  1.00  0.00     0.031 A 
ATOM     44  C   UNL A   1      44.736  30.502  31.268  1.00  0.00     0.049 A 
ATOM     45  C   UNL A   1      39.734  32.911  30.472  1.00  0.00     0.074 A 
ATOM     46  C   UNL A   1      45.734  31.300  31.798  1.00  0.00     0.029 A 
ATOM     47  N   UNL A   1      43.601  31.292  31.169  1.00  0.00    -0.354 N 
ATOM     48  N   UNL A   1      40.954  32.485  30.710  1.00  0.00    -0.248 NA
ATOM     49  C   UNL A   1      39.498  34.310  30.854  1.00  0.00     0.031 C 
ATOM     50  C   UNL A   1      45.189  32.560  32.065  1.00  0.00     0.029 A 
ATOM     51  C   UNL A   1      43.867  32.565  31.646  1.00  0.00     0.049 A 
ATOM     52  H   UNL A   1      42.734  30.993  30.811  1.00  0.00     0.167 HD
ATOM     53  C   UNL A   1      41.636  33.572  31.245  1.00  0.00     0.074 A 
ATOM     54  C   UNL A   1      40.700  34.678  31.274  1.00  0.00     0.031 C 
ATOM     55  C   UNL A   1      42.920  33.650  31.675  1.00  0.00     0.031 A 
BRANCH  42  56
ATOM     56  C   UNL A   1      46.094  28.368  31.105  1.00  0.00    -0.014 A 
ATOM     57  C   UNL A   1      46.213  27.433  32.150  1.00  0.00     0.010 A 
ATOM     58  C   UNL A   1      47.192  28.581  30.251  1.00  0.00     0.010 A 
ATOM     59  C   UNL A   1      47.419  26.761  32.366  1.00  0.00     0.020 A 
ATOM     60  C   UNL A   1      48.389  27.888  30.445  1.00  0.00     0.020 A 
ATOM     61  C   UNL A   1      48.500  26.994  31.513  1.00  0.00     0.054 A 
BRANCH  61  62
ATOM     62  S   UNL A   1      50.046  26.092  31.805  1.00  0.00     0.124 S 
ATOM     63  O   UNL A   1      51.032  26.973  31.183  1.00  0.00    -0.237 OA
ATOM     64  O   UNL A   1      50.103  26.017  33.263  1.00  0.00    -0.237 OA
ATOM     65  O   UNL A   1      49.837  24.815  31.126  1.00  0.00    -0.744 OA
ENDBRANCH  61  62
ENDBRANCH  42  56
BRANCH  43  66
ATOM     66  C   UNL A   1      37.261  32.841  29.658  1.00  0.00    -0.014 A 
ATOM     67  C   UNL A   1      36.844  33.229  28.372  1.00  0.00     0.010 A 
ATOM     68  C   UNL A   1      36.415  33.091  30.754  1.00  0.00     0.010 A 
ATOM     69  C   UNL A   1      35.617  33.873  28.188  1.00  0.00     0.020 A 
ATOM     70  C   UNL A   1      35.175  33.710  30.570  1.00  0.00     0.020 A 
ATOM     71  C   UNL A   1      34.789  34.108  29.289  1.00  0.00     0.054 A 
BRANCH  71  72
ATOM     72  S   UNL A   1      33.180  34.903  29.020  1.00  0.00     0.124 S 
ATOM     73  O   UNL A   1      33.571  36.211  28.505  1.00  0.00    -0.237 OA
ATOM     74  O   UNL A   1      32.542  34.007  28.060  1.00  0.00    -0.237 OA
ATOM     75  O   UNL A   1      32.576  34.908  30.350  1.00  0.00    -0.744 OA
ENDBRANCH  71  72
ENDBRANCH  43  66
BRANCH  55  76
ATOM     76  C   UNL A   1      43.394  34.985  32.185  1.00  0.00    -0.014 A 
ATOM     77  C   UNL A   1      43.339  35.307  33.553  1.00  0.00     0.010 A 
ATOM     78  C   UNL A   1      43.924  35.925  31.281  1.00  0.00     0.010 A 
ATOM     79  C   UNL A   1      43.758  36.563  34.000  1.00  0.00     0.020 A 
ATOM     80  C   UNL A   1      44.373  37.168  31.728  1.00  0.00     0.020 A 
ATOM     81  C   UNL A   1      44.267  37.488  33.083  1.00  0.00     0.054 A 
BRANCH  81  82
ATOM     82  S   UNL A   1      44.812  39.108  33.688  1.00  0.00     0.124 S 
ATOM     83  O   UNL A   1      45.649  39.576  32.588  1.00  0.00    -0.237 OA
ATOM     84  O   UNL A   1      43.551  39.824  33.869  1.00  0.00    -0.237 OA
ATOM     85  O   UNL A   1      45.525  38.793  34.924  1.00  0.00    -0.744 OA
ENDBRANCH  81  82
ENDBRANCH  55  76
ENDBRANCH  29  30
ENDBRANCH  21  24
ENDBRANCH  19  20
ENDBRANCH  18  19
ENDBRANCH   1  18
TORSDOF 19
ENDMDL
MODEL 2
REMARK VINA RESULT:      -7.6      4.866     11.959
REMARK SMILES CCC[C@@H](C[NH2+]C(C)C)C(=O)NCCCCNC(=O)c1ccc(-c2c3nc(c(-c4ccc(S(=O)(=O)[O-])cc4)c4ccc([nH]4)c(-c4ccc(S(=O)(=O)[O-])cc4)c4nc(c(-c5ccc(S(=O)(=O)[O-])cc5)c5ccc2[nH]5)C=C4)C=C3)cc1
REMARK SMILES IDX 14 1 13 2 12 3 10 4 11 5 4 7 3 8 2 9 1 10 5 11 6 12 7 15
REMARK SMILES IDX 8 16 9 17 15 18 16 19 17 20 18 21 19 23 20 24 21 25 79 26
REMARK SMILES IDX 22 27 78 28 23 29 24 30 25 31 72 32 26 33 77 34 71 35 73 36
REMARK SMILES IDX 27 37 76 38 70 39 69 40 28 42 58 43 39 44 57 45 40 46 43 47
REMARK SMILES IDX 56 48 74 49 41 50 42 51 55 53 75 54 44 55 29 56 30 57 38 58
REMARK SMILES IDX 31 59 37 60 32 61 33 62 34 63 35 64 36 65 59 66 60 67 68 68
REMARK SMILES IDX 61 69 67 70 62 71 63 72 64 73 65 74 66 75 45 76 46 77 54 78
REMARK SMILES IDX 47 79 53 80 48 81 49 82 50 83 51 84 52 85
REMARK H PARENT 12 6 6 13 6 14 17 22 73 41 43 52
REMARK Flexibility Score: inf
ROOT
ATOM      1  C   UNL A   1      33.181  29.479  27.066  1.00  0.00     0.023 C 
ENDROOT
BRANCH   1   2
ATOM      2  C   UNL A   1      32.422  29.776  25.781  1.00  0.00     0.116 C 
BRANCH   2   3
ATOM      3  N   UNL A   1      33.255  29.700  24.600  1.00  0.00    -0.356 N 
ATOM      4  C   UNL A   1      33.132  28.918  23.492  1.00  0.00     0.228 C 
ATOM      5  O   UNL A   1      33.908  29.133  22.556  1.00  0.00    -0.275 OA
ATOM      6  H   UNL A   1      34.030  30.307  24.596  1.00  0.00     0.163 HD
BRANCH   4   7
ATOM      7  C   UNL A   1      32.096  27.795  23.379  1.00  0.00     0.133 C 
BRANCH   7   8
ATOM      8  C   UNL A   1      32.000  26.964  24.674  1.00  0.00     0.019 C 
BRANCH   8   9
ATOM      9  C   UNL A   1      33.218  26.104  25.013  1.00  0.00    -0.002 C 
ATOM     10  C   UNL A   1      32.950  25.086  26.107  1.00  0.00     0.004 C 
ENDBRANCH   8   9
ENDBRANCH   7   8
BRANCH   7  11
ATOM     11  C   UNL A   1      30.790  28.271  22.701  1.00  0.00     0.274 C 
BRANCH  11  12
ATOM     12  N   UNL A   1      30.528  29.703  22.812  1.00  0.00    -0.344 N 
ATOM     13  H   UNL A   1      30.588  30.109  21.879  1.00  0.00     0.346 HD
ATOM     14  H   UNL A   1      31.225  30.074  23.458  1.00  0.00     0.346 HD
BRANCH  12  15
ATOM     15  C   UNL A   1      29.221  30.043  23.375  1.00  0.00     0.176 C 
ATOM     16  C   UNL A   1      29.135  31.538  23.665  1.00  0.00     0.075 C 
ATOM     17  C   UNL A   1      28.165  29.638  22.344  1.00  0.00     0.075 C 
ENDBRANCH  12  15
ENDBRANCH  11  12
ENDBRANCH   7  11
ENDBRANCH   4   7
ENDBRANCH   2   3
ENDBRANCH   1   2
BRANCH   1  18
ATOM     18  C   UNL A   1      34.402  30.360  27.302  1.00  0.00     0.023 C 
BRANCH  18  19
ATOM     19  C   UNL A   1      35.518  29.710  28.110  1.00  0.00     0.116 C 
BRANCH  19  20
ATOM     20  N   UNL A   1      35.458  30.013  29.533  1.00  0.00    -0.352 N 
ATOM     21  C   UNL A   1      36.472  29.994  30.461  1.00  0.00     0.251 C 
ATOM     22  H   UNL A   1      34.570  30.266  29.877  1.00  0.00     0.163 HD
ATOM     23  O   UNL A   1      36.224  30.165  31.651  1.00  0.00    -0.269 OA
BRANCH  21  24
ATOM     24  C   UNL A   1      37.855  29.736  30.013  1.00  0.00     0.039 A 
ATOM     25  C   UNL A   1      38.781  29.228  30.926  1.00  0.00     0.014 A 
ATOM     26  C   UNL A   1      38.226  29.962  28.684  1.00  0.00     0.014 A 
ATOM     27  C   UNL A   1      40.064  28.895  30.489  1.00  0.00     0.010 A 
ATOM     28  C   UNL A   1      39.469  29.537  28.232  1.00  0.00     0.010 A 
ATOM     29  C   UNL A   1      40.410  29.020  29.132  1.00  0.00    -0.014 A 
BRANCH  29  30
ATOM     30  C   UNL A   1      41.766  28.651  28.652  1.00  0.00     0.031 A 
ATOM     31  C   UNL A   1      42.850  29.694  28.590  1.00  0.00     0.074 A 
ATOM     32  C   UNL A   1      42.012  27.392  28.237  1.00  0.00     0.049 A 
ATOM     33  N   UNL A   1      44.096  29.567  28.209  1.00  0.00    -0.248 NA
ATOM     34  C   UNL A   1      42.483  31.066  28.980  1.00  0.00     0.031 C 
ATOM     35  C   UNL A   1      41.030  26.305  28.190  1.00  0.00     0.029 A 
ATOM     36  N   UNL A   1      43.169  26.811  27.782  1.00  0.00    -0.354 N 
ATOM     37  C   UNL A   1      44.650  30.839  28.298  1.00  0.00     0.074 A 
ATOM     38  C   UNL A   1      43.591  31.736  28.704  1.00  0.00     0.031 C 
ATOM     39  C   UNL A   1      41.636  25.181  27.773  1.00  0.00     0.029 A 
ATOM     40  C   UNL A   1      43.039  25.472  27.495  1.00  0.00     0.049 A 
ATOM     41  H   UNL A   1      44.013  27.306  27.673  1.00  0.00     0.167 HD
ATOM     42  C   UNL A   1      45.931  31.226  28.094  1.00  0.00     0.031 A 
ATOM     43  C   UNL A   1      43.950  24.578  27.064  1.00  0.00     0.031 A 
ATOM     44  C   UNL A   1      46.988  30.329  27.709  1.00  0.00     0.049 A 
ATOM     45  C   UNL A   1      45.372  25.026  26.861  1.00  0.00     0.074 A 
ATOM     46  C   UNL A   1      48.332  30.606  27.534  1.00  0.00     0.029 A 
ATOM     47  N   UNL A   1      46.818  28.979  27.441  1.00  0.00    -0.354 N 
ATOM     48  N   UNL A   1      45.894  26.219  27.027  1.00  0.00    -0.248 NA
ATOM     49  C   UNL A   1      46.333  24.000  26.432  1.00  0.00     0.031 C 
ATOM     50  C   UNL A   1      48.967  29.433  27.113  1.00  0.00     0.029 A 
ATOM     51  C   UNL A   1      48.030  28.412  27.083  1.00  0.00     0.049 A 
ATOM     52  H   UNL A   1      45.963  28.495  27.497  1.00  0.00     0.167 HD
ATOM     53  C   UNL A   1      47.249  26.081  26.748  1.00  0.00     0.074 A 
ATOM     54  C   UNL A   1      47.468  24.685  26.425  1.00  0.00     0.031 C 
ATOM     55  C   UNL A   1      48.226  27.022  26.756  1.00  0.00     0.031 A 
BRANCH  42  56
ATOM     56  C   UNL A   1      46.255  32.685  28.288  1.00  0.00    -0.014 A 
ATOM     57  C   UNL A   1      46.678  33.175  29.538  1.00  0.00     0.010 A 
ATOM     58  C   UNL A   1      46.160  33.575  27.203  1.00  0.00     0.010 A 
ATOM     59  C   UNL A   1      46.952  34.534  29.711  1.00  0.00     0.020 A 
ATOM     60  C   UNL A   1      46.463  34.930  27.365  1.00  0.00     0.020 A 
ATOM     61  C   UNL A   1      46.840  35.403  28.624  1.00  0.00     0.054 A 
BRANCH  61  62
ATOM     62  S   UNL A   1      47.223  37.159  28.874  1.00  0.00     0.124 S 
ATOM     63  O   UNL A   1      47.534  37.596  27.514  1.00  0.00    -0.237 OA
ATOM     64  O   UNL A   1      45.978  37.682  29.432  1.00  0.00    -0.237 OA
ATOM     65  O   UNL A   1      48.356  37.140  29.796  1.00  0.00    -0.744 OA
ENDBRANCH  61  62
ENDBRANCH  42  56
BRANCH  43  66
ATOM     66  C   UNL A   1      43.554  23.162  26.833  1.00  0.00    -0.014 A 
ATOM     67  C   UNL A   1      43.670  22.586  25.555  1.00  0.00     0.010 A 
ATOM     68  C   UNL A   1      43.061  22.377  27.892  1.00  0.00     0.010 A 
ATOM     69  C   UNL A   1      43.281  21.261  25.334  1.00  0.00     0.020 A 
ATOM     70  C   UNL A   1      42.698  21.044  27.682  1.00  0.00     0.020 A 
ATOM     71  C   UNL A   1      42.798  20.498  26.401  1.00  0.00     0.054 A 
BRANCH  71  72
ATOM     72  S   UNL A   1      42.343  18.767  26.102  1.00  0.00     0.124 S 
ATOM     73  O   UNL A   1      43.269  18.389  25.040  1.00  0.00    -0.237 OA
ATOM     74  O   UNL A   1      42.584  18.148  27.403  1.00  0.00    -0.237 OA
ATOM     75  O   UNL A   1      40.938  18.846  25.710  1.00  0.00    -0.744 OA
ENDBRANCH  71  72
ENDBRANCH  43  66
BRANCH  55  76
ATOM     76  C   UNL A   1      49.624  26.565  26.435  1.00  0.00    -0.014 A 
ATOM     77  C   UNL A   1      50.176  26.743  25.154  1.00  0.00     0.010 A 
ATOM     78  C   UNL A   1      50.407  25.967  27.440  1.00  0.00     0.010 A 
ATOM     79  C   UNL A   1      51.465  26.285  24.869  1.00  0.00     0.020 A 
ATOM     80  C   UNL A   1      51.707  25.537  27.169  1.00  0.00     0.020 A 
ATOM     81  C   UNL A   1      52.220  25.679  25.878  1.00  0.00     0.054 A 
BRANCH  81  82
ATOM     82  S   UNL A   1      53.893  25.100  25.488  1.00  0.00     0.124 S 
ATOM     83  O   UNL A   1      54.141  25.737  24.198  1.00  0.00    -0.237 OA
ATOM     84  O   UNL A   1      54.680  25.615  26.606  1.00  0.00    -0.237 OA
ATOM     85  O   UNL A   1      53.756  23.646  25.449  1.00  0.00    -0.744 OA
ENDBRANCH  81  82
ENDBRANCH  55  76
ENDBRANCH  29  30
ENDBRANCH  21  24
ENDBRANCH  19  20
ENDBRANCH  18  19
ENDBRANCH   1  18
TORSDOF 19
ENDMDL
MODEL 3
REMARK VINA RESULT:      -7.5      0.953      2.086
REMARK SMILES CCC[C@@H](C[NH2+]C(C)C)C(=O)NCCCCNC(=O)c1ccc(-c2c3nc(c(-c4ccc(S(=O)(=O)[O-])cc4)c4ccc([nH]4)c(-c4ccc(S(=O)(=O)[O-])cc4)c4nc(c(-c5ccc(S(=O)(=O)[O-])cc5)c5ccc2[nH]5)C=C4)C=C3)cc1
REMARK SMILES IDX 14 1 13 2 12 3 10 4 11 5 4 7 3 8 2 9 1 10 5 11 6 12 7 15
REMARK SMILES IDX 8 16 9 17 15 18 16 19 17 20 18 21 19 23 20 24 21 25 79 26
REMARK SMILES IDX 22 27 78 28 23 29 24 30 25 31 72 32 26 33 77 34 71 35 73 36
REMARK SMILES IDX 27 37 76 38 70 39 69 40 28 42 58 43 39 44 57 45 40 46 43 47
REMARK SMILES IDX 56 48 74 49 41 50 42 51 55 53 75 54 44 55 29 56 30 57 38 58
REMARK SMILES IDX 31 59 37 60 32 61 33 62 34 63 35 64 36 65 59 66 60 67 68 68
REMARK SMILES IDX 61 69 67 70 62 71 63 72 64 73 65 74 66 75 45 76 46 77 54 78
REMARK SMILES IDX 47 79 53 80 48 81 49 82 50 83 51 84 52 85
REMARK H PARENT 12 6 6 13 6 14 17 22 73 41 43 52
REMARK Flexibility Score: inf
ROOT
ATOM      1  C   UNL A   1      43.266  23.820  26.321  1.00  0.00     0.023 C 
ENDROOT
BRANCH   1   2
ATOM      2  C   UNL A   1      44.755  23.825  26.006  1.00  0.00     0.116 C 
BRANCH   2   3
ATOM      3  N   UNL A   1      45.140  24.893  25.108  1.00  0.00    -0.356 N 
ATOM      4  C   UNL A   1      46.097  25.851  25.248  1.00  0.00     0.228 C 
ATOM      5  O   UNL A   1      46.320  26.578  24.275  1.00  0.00    -0.275 OA
ATOM      6  H   UNL A   1      44.632  24.933  24.265  1.00  0.00     0.163 HD
BRANCH   4   7
ATOM      7  C   UNL A   1      46.876  26.062  26.551  1.00  0.00     0.133 C 
BRANCH   7   8
ATOM      8  C   UNL A   1      48.397  25.914  26.345  1.00  0.00     0.019 C 
BRANCH   8   9
ATOM      9  C   UNL A   1      49.274  26.229  27.556  1.00  0.00    -0.002 C 
ATOM     10  C   UNL A   1      49.878  24.994  28.199  1.00  0.00     0.004 C 
ENDBRANCH   8   9
ENDBRANCH   7   8
BRANCH   7  11
ATOM     11  C   UNL A   1      46.347  27.270  27.358  1.00  0.00     0.274 C 
BRANCH  11  12
ATOM     12  N   UNL A   1      45.108  27.851  26.854  1.00  0.00    -0.344 N 
ATOM     13  H   UNL A   1      44.371  27.667  27.535  1.00  0.00     0.346 HD
ATOM     14  H   UNL A   1      44.934  27.417  25.947  1.00  0.00     0.346 HD
BRANCH  12  15
ATOM     15  C   UNL A   1      45.160  29.293  26.616  1.00  0.00     0.176 C 
ATOM     16  C   UNL A   1      43.844  29.952  27.021  1.00  0.00     0.075 C 
ATOM     17  C   UNL A   1      46.314  29.848  27.455  1.00  0.00     0.075 C 
ENDBRANCH  12  15
ENDBRANCH  11  12
ENDBRANCH   7  11
ENDBRANCH   4   7
ENDBRANCH   2   3
ENDBRANCH   1   2
BRANCH   1  18
ATOM     18  C   UNL A   1      42.512  22.599  25.810  1.00  0.00     0.023 C 
BRANCH  18  19
ATOM     19  C   UNL A   1      41.384  22.114  26.713  1.00  0.00     0.116 C 
BRANCH  19  20
ATOM     20  N   UNL A   1      40.075  22.148  26.076  1.00  0.00    -0.352 N 
ATOM     21  C   UNL A   1      39.118  23.133  26.127  1.00  0.00     0.251 C 
ATOM     22  H   UNL A   1      39.844  21.357  25.536  1.00  0.00     0.163 HD
ATOM     23  O   UNL A   1      38.014  22.949  25.623  1.00  0.00    -0.269 OA
BRANCH  21  24
ATOM     24  C   UNL A   1      39.424  24.400  26.820  1.00  0.00     0.039 A 
ATOM     25  C   UNL A   1      39.068  24.543  28.163  1.00  0.00     0.014 A 
ATOM     26  C   UNL A   1      40.094  25.431  26.155  1.00  0.00     0.014 A 
ATOM     27  C   UNL A   1      39.435  25.700  28.852  1.00  0.00     0.010 A 
ATOM     28  C   UNL A   1      40.543  26.536  26.868  1.00  0.00     0.010 A 
ATOM     29  C   UNL A   1      40.201  26.694  28.217  1.00  0.00    -0.014 A 
BRANCH  29  30
ATOM     30  C   UNL A   1      40.613  27.921  28.944  1.00  0.00     0.031 A 
ATOM     31  C   UNL A   1      41.989  28.006  29.553  1.00  0.00     0.074 A 
ATOM     32  C   UNL A   1      39.743  28.940  29.091  1.00  0.00     0.049 A 
ATOM     33  N   UNL A   1      42.537  28.992  30.217  1.00  0.00    -0.248 NA
ATOM     34  C   UNL A   1      42.853  26.820  29.425  1.00  0.00     0.031 C 
ATOM     35  C   UNL A   1      38.362  28.956  28.601  1.00  0.00     0.029 A 
ATOM     36  N   UNL A   1      39.896  30.166  29.688  1.00  0.00    -0.354 N 
ATOM     37  C   UNL A   1      43.796  28.539  30.595  1.00  0.00     0.074 A 
ATOM     38  C   UNL A   1      43.906  27.168  30.147  1.00  0.00     0.031 C 
ATOM     39  C   UNL A   1      37.809  30.148  28.880  1.00  0.00     0.029 A 
ATOM     40  C   UNL A   1      38.782  30.969  29.594  1.00  0.00     0.049 A 
ATOM     41  H   UNL A   1      40.724  30.445  30.141  1.00  0.00     0.167 HD
ATOM     42  C   UNL A   1      44.787  29.209  31.230  1.00  0.00     0.031 A 
ATOM     43  C   UNL A   1      38.573  32.228  30.025  1.00  0.00     0.031 A 
ATOM     44  C   UNL A   1      44.682  30.578  31.658  1.00  0.00     0.049 A 
ATOM     45  C   UNL A   1      39.694  32.960  30.711  1.00  0.00     0.074 A 
ATOM     46  C   UNL A   1      45.647  31.370  32.255  1.00  0.00     0.029 A 
ATOM     47  N   UNL A   1      43.544  31.359  31.531  1.00  0.00    -0.354 N 
ATOM     48  N   UNL A   1      40.906  32.539  30.991  1.00  0.00    -0.248 NA
ATOM     49  C   UNL A   1      39.426  34.344  31.123  1.00  0.00     0.031 C 
ATOM     50  C   UNL A   1      45.077  32.616  32.534  1.00  0.00     0.029 A 
ATOM     51  C   UNL A   1      43.775  32.620  32.057  1.00  0.00     0.049 A 
ATOM     52  H   UNL A   1      42.697  31.063  31.127  1.00  0.00     0.167 HD
ATOM     53  C   UNL A   1      41.552  33.616  31.587  1.00  0.00     0.074 A 
ATOM     54  C   UNL A   1      40.604  34.712  31.606  1.00  0.00     0.031 C 
ATOM     55  C   UNL A   1      42.815  33.695  32.075  1.00  0.00     0.031 A 
BRANCH  42  56
ATOM     56  C   UNL A   1      46.070  28.464  31.493  1.00  0.00    -0.014 A 
ATOM     57  C   UNL A   1      46.225  27.667  32.643  1.00  0.00     0.010 A 
ATOM     58  C   UNL A   1      47.128  28.540  30.569  1.00  0.00     0.010 A 
ATOM     59  C   UNL A   1      47.428  27.001  32.888  1.00  0.00     0.020 A 
ATOM     60  C   UNL A   1      48.322  27.850  30.794  1.00  0.00     0.020 A 
ATOM     61  C   UNL A   1      48.471  27.099  31.963  1.00  0.00     0.054 A 
BRANCH  61  62
ATOM     62  S   UNL A   1      50.014  26.206  32.296  1.00  0.00     0.124 S 
ATOM     63  O   UNL A   1      49.566  24.815  32.283  1.00  0.00    -0.237 OA
ATOM     64  O   UNL A   1      50.863  26.603  31.176  1.00  0.00    -0.237 OA
ATOM     65  O   UNL A   1      50.433  26.712  33.602  1.00  0.00    -0.744 OA
ENDBRANCH  61  62
ENDBRANCH  42  56
BRANCH  43  66
ATOM     66  C   UNL A   1      37.261  32.890  29.786  1.00  0.00    -0.014 A 
ATOM     67  C   UNL A   1      36.276  32.909  30.791  1.00  0.00     0.010 A 
ATOM     68  C   UNL A   1      36.989  33.510  28.553  1.00  0.00     0.010 A 
ATOM     69  C   UNL A   1      35.038  33.515  30.559  1.00  0.00     0.020 A 
ATOM     70  C   UNL A   1      35.762  34.142  28.328  1.00  0.00     0.020 A 
ATOM     71  C   UNL A   1      34.789  34.129  29.329  1.00  0.00     0.054 A 
BRANCH  71  72
ATOM     72  S   UNL A   1      33.192  34.951  29.068  1.00  0.00     0.124 S 
ATOM     73  O   UNL A   1      32.566  34.087  28.073  1.00  0.00    -0.237 OA
ATOM     74  O   UNL A   1      32.598  34.916  30.401  1.00  0.00    -0.237 OA
ATOM     75  O   UNL A   1      33.566  36.282  28.597  1.00  0.00    -0.744 OA
ENDBRANCH  71  72
ENDBRANCH  43  66
BRANCH  55  76
ATOM     76  C   UNL A   1      43.251  35.019  32.645  1.00  0.00    -0.014 A 
ATOM     77  C   UNL A   1      42.885  35.412  33.945  1.00  0.00     0.010 A 
ATOM     78  C   UNL A   1      44.060  35.873  31.873  1.00  0.00     0.010 A 
ATOM     79  C   UNL A   1      43.277  36.657  34.442  1.00  0.00     0.020 A 
ATOM     80  C   UNL A   1      44.480  37.104  32.379  1.00  0.00     0.020 A 
ATOM     81  C   UNL A   1      44.068  37.498  33.653  1.00  0.00     0.054 A 
BRANCH  81  82
ATOM     82  S   UNL A   1      44.571  39.106  34.323  1.00  0.00     0.124 S 
ATOM     83  O   UNL A   1      45.556  39.548  33.341  1.00  0.00    -0.237 OA
ATOM     84  O   UNL A   1      43.317  39.855  34.337  1.00  0.00    -0.237 OA
ATOM     85  O   UNL A   1      45.108  38.778  35.642  1.00  0.00    -0.744 OA
ENDBRANCH  81  82
ENDBRANCH  55  76
ENDBRANCH  29  30
ENDBRANCH  21  24
ENDBRANCH  19  20
ENDBRANCH  18  19
ENDBRANCH   1  18
TORSDOF 19
ENDMDL
