MODEL 1
REMARK VINA RESULT:     -13.8      0.000      0.000
REMARK SMILES C[C@]1(C(=O)NCCCCNC(=O)c2ccc(-c3c4nc(c(-c5ccc(S(=O)(=O)[O-])cc5)c5ccc([nH]5)c(-c5ccc(S(=O)(=O)[O-])cc5)c5nc(c(-c6ccc(S(=O)(=O)[O-])cc6)c6ccc3[nH]6)C=C5)C=C4)cc2)[NH2+]C2(C(=O)c3ccccc3C2=O)[C@@H]2C(=O)N(c3ccccc3)C(=O)[C@H]21
REMARK SMILES IDX 8 1 7 2 6 3 5 4 3 5 4 6 2 8 1 9 73 10 97 11 74 12 85 15
REMARK SMILES IDX 95 16 75 17 83 18 86 19 88 20 96 21 76 22 77 23 82 24 84 25
REMARK SMILES IDX 87 26 78 27 81 28 79 29 80 30 89 31 90 32 94 33 91 34 93 35
REMARK SMILES IDX 92 36 9 37 10 38 11 39 12 41 13 42 14 43 72 44 15 45 71 46
REMARK SMILES IDX 16 47 17 48 18 49 65 50 19 51 70 52 64 53 66 54 20 55 69 56
REMARK SMILES IDX 63 57 62 58 21 60 51 61 32 62 50 63 33 64 36 65 49 66 67 67
REMARK SMILES IDX 34 68 35 69 48 71 68 72 37 73 22 74 23 75 31 76 24 77 30 78
REMARK SMILES IDX 25 79 26 80 27 81 28 82 29 83 52 84 53 85 61 86 54 87 60 88
REMARK SMILES IDX 55 89 56 90 57 91 58 92 59 93 38 94 39 95 47 96 40 97 46 98
REMARK SMILES IDX 41 99 42 100 43 101 44 102 45 103
REMARK H PARENT 5 7 73 13 73 14 10 40 66 59 36 70
REMARK Flexibility Score: inf
ROOT
ATOM      1  C   UNL A   1      41.149  22.077  26.261  1.00  0.00     0.023 C 
ENDROOT
BRANCH   1   2
ATOM      2  C   UNL A   1      39.736  22.498  26.588  1.00  0.00     0.023 C 
BRANCH   2   3
ATOM      3  C   UNL A   1      38.633  21.788  25.817  1.00  0.00     0.116 C 
BRANCH   3   4
ATOM      4  N   UNL A   1      38.155  22.364  24.600  1.00  0.00    -0.351 N 
ATOM      5  C   UNL A   1      36.970  22.981  24.318  1.00  0.00     0.281 C 
ATOM      6  O   UNL A   1      36.899  23.395  23.150  1.00  0.00    -0.268 OA
ATOM      7  H   UNL A   1      38.780  22.306  23.842  1.00  0.00     0.163 HD
BRANCH   5   8
ATOM      8  C   UNL A   1      35.738  23.215  25.315  1.00  0.00     0.186 C 
ATOM      9  C   UNL A   1      36.386  23.407  26.713  1.00  0.00     0.091 C 
ATOM     10  N   UNL A   1      34.908  24.451  25.020  1.00  0.00    -0.314 N 
ATOM     11  C   UNL A   1      34.655  22.183  25.447  1.00  0.00     0.170 C 
ATOM     12  C   UNL A   1      33.517  24.032  24.547  1.00  0.00     0.236 C 
ATOM     13  H   UNL A   1      35.364  24.999  24.291  1.00  0.00     0.348 HD
ATOM     14  H   UNL A   1      34.823  25.011  25.867  1.00  0.00     0.348 HD
ATOM     15  C   UNL A   1      33.614  22.532  24.402  1.00  0.00     0.177 C 
ATOM     16  C   UNL A   1      34.793  20.720  25.255  1.00  0.00     0.244 C 
ATOM     17  C   UNL A   1      32.373  24.513  25.449  1.00  0.00     0.232 C 
ATOM     18  C   UNL A   1      33.237  24.852  23.266  1.00  0.00     0.232 C 
ATOM     19  C   UNL A   1      32.666  21.394  24.633  1.00  0.00     0.245 C 
ATOM     20  N   UNL A   1      33.504  20.308  24.924  1.00  0.00    -0.250 N 
ATOM     21  O   UNL A   1      35.811  20.071  25.421  1.00  0.00    -0.273 OA
ATOM     22  O   UNL A   1      32.243  24.281  26.638  1.00  0.00    -0.286 OA
ATOM     23  C   UNL A   1      31.450  25.343  24.645  1.00  0.00     0.036 A 
ATOM     24  C   UNL A   1      31.957  25.500  23.369  1.00  0.00     0.036 A 
ATOM     25  O   UNL A   1      33.949  25.111  22.313  1.00  0.00    -0.286 OA
ATOM     26  O   UNL A   1      31.467  21.434  24.422  1.00  0.00    -0.273 OA
ATOM     27  C   UNL A   1      30.271  25.977  24.988  1.00  0.00     0.013 A 
ATOM     28  C   UNL A   1      31.356  26.268  22.385  1.00  0.00     0.013 A 
ATOM     29  C   UNL A   1      29.631  26.759  24.008  1.00  0.00     0.001 A 
ATOM     30  C   UNL A   1      30.168  26.902  22.715  1.00  0.00     0.001 A 
BRANCH  20  31
ATOM     31  C   UNL A   1      33.206  18.949  24.717  1.00  0.00     0.052 A 
ATOM     32  C   UNL A   1      32.691  18.179  25.768  1.00  0.00     0.027 A 
ATOM     33  C   UNL A   1      33.586  18.321  23.527  1.00  0.00     0.027 A 
ATOM     34  C   UNL A   1      32.546  16.797  25.629  1.00  0.00     0.002 A 
ATOM     35  C   UNL A   1      33.494  16.930  23.413  1.00  0.00     0.002 A 
ATOM     36  C   UNL A   1      32.967  16.170  24.458  1.00  0.00     0.000 A 
ENDBRANCH  20  31
ENDBRANCH   5   8
ENDBRANCH   3   4
ENDBRANCH   2   3
ENDBRANCH   1   2
BRANCH   1  37
ATOM     37  C   UNL A   1      42.186  23.189  26.352  1.00  0.00     0.116 C 
BRANCH  37  38
ATOM     38  N   UNL A   1      41.944  24.353  25.494  1.00  0.00    -0.352 N 
ATOM     39  C   UNL A   1      41.746  25.679  25.841  1.00  0.00     0.251 C 
ATOM     40  H   UNL A   1      41.917  24.165  24.529  1.00  0.00     0.163 HD
ATOM     41  O   UNL A   1      41.538  26.528  24.979  1.00  0.00    -0.269 OA
BRANCH  39  42
ATOM     42  C   UNL A   1      41.721  26.042  27.273  1.00  0.00     0.039 A 
ATOM     43  C   UNL A   1      40.545  25.879  27.991  1.00  0.00     0.014 A 
ATOM     44  C   UNL A   1      42.805  26.718  27.839  1.00  0.00     0.014 A 
ATOM     45  C   UNL A   1      40.333  26.682  29.099  1.00  0.00     0.010 A 
ATOM     46  C   UNL A   1      42.641  27.374  29.065  1.00  0.00     0.010 A 
ATOM     47  C   UNL A   1      41.375  27.442  29.662  1.00  0.00    -0.014 A 
BRANCH  47  48
ATOM     48  C   UNL A   1      41.075  28.286  30.856  1.00  0.00     0.031 A 
ATOM     49  C   UNL A   1      41.994  28.325  32.057  1.00  0.00     0.074 A 
ATOM     50  C   UNL A   1      40.013  29.118  30.802  1.00  0.00     0.049 A 
ATOM     51  N   UNL A   1      41.902  29.073  33.130  1.00  0.00    -0.248 NA
ATOM     52  C   UNL A   1      43.150  27.413  32.072  1.00  0.00     0.031 C 
ATOM     53  C   UNL A   1      39.059  29.183  29.690  1.00  0.00     0.029 A 
ATOM     54  N   UNL A   1      39.591  30.110  31.650  1.00  0.00    -0.354 N 
ATOM     55  C   UNL A   1      42.962  28.703  33.953  1.00  0.00     0.074 A 
ATOM     56  C   UNL A   1      43.670  27.643  33.271  1.00  0.00     0.031 C 
ATOM     57  C   UNL A   1      38.254  30.236  29.860  1.00  0.00     0.029 A 
ATOM     58  C   UNL A   1      38.545  30.850  31.150  1.00  0.00     0.049 A 
ATOM     59  H   UNL A   1      40.000  30.277  32.531  1.00  0.00     0.167 HD
ATOM     60  C   UNL A   1      43.318  29.209  35.160  1.00  0.00     0.031 A 
ATOM     61  C   UNL A   1      37.874  31.900  31.661  1.00  0.00     0.031 A 
ATOM     62  C   UNL A   1      42.624  30.289  35.816  1.00  0.00     0.049 A 
ATOM     63  C   UNL A   1      38.271  32.422  33.007  1.00  0.00     0.074 A 
ATOM     64  C   UNL A   1      42.920  30.881  37.033  1.00  0.00     0.029 A 
ATOM     65  N   UNL A   1      41.509  30.947  35.317  1.00  0.00    -0.354 N 
ATOM     66  N   UNL A   1      39.268  32.044  33.771  1.00  0.00    -0.248 NA
ATOM     67  C   UNL A   1      37.452  33.503  33.569  1.00  0.00     0.031 C 
ATOM     68  C   UNL A   1      41.949  31.848  37.299  1.00  0.00     0.029 A 
ATOM     69  C   UNL A   1      41.089  31.916  36.214  1.00  0.00     0.049 A 
ATOM     70  H   UNL A   1      41.081  30.754  34.451  1.00  0.00     0.167 HD
ATOM     71  C   UNL A   1      39.190  32.835  34.910  1.00  0.00     0.074 A 
ATOM     72  C   UNL A   1      38.077  33.741  34.714  1.00  0.00     0.031 C 
ATOM     73  C   UNL A   1      39.964  32.799  36.021  1.00  0.00     0.031 A 
BRANCH  60  74
ATOM     74  C   UNL A   1      44.510  28.614  35.873  1.00  0.00    -0.014 A 
ATOM     75  C   UNL A   1      45.804  29.087  35.578  1.00  0.00     0.010 A 
ATOM     76  C   UNL A   1      44.372  27.504  36.725  1.00  0.00     0.010 A 
ATOM     77  C   UNL A   1      46.935  28.442  36.089  1.00  0.00     0.020 A 
ATOM     78  C   UNL A   1      45.501  26.873  37.263  1.00  0.00     0.020 A 
ATOM     79  C   UNL A   1      46.775  27.330  36.920  1.00  0.00     0.054 A 
BRANCH  79  80
ATOM     80  S   UNL A   1      48.255  26.483  37.542  1.00  0.00     0.124 S 
ATOM     81  O   UNL A   1      49.310  27.447  37.248  1.00  0.00    -0.237 OA
ATOM     82  O   UNL A   1      47.945  26.298  38.958  1.00  0.00    -0.237 OA
ATOM     83  O   UNL A   1      48.298  25.250  36.758  1.00  0.00    -0.744 OA
ENDBRANCH  79  80
ENDBRANCH  60  74
BRANCH  61  84
ATOM     84  C   UNL A   1      36.763  32.503  30.872  1.00  0.00    -0.014 A 
ATOM     85  C   UNL A   1      37.035  33.484  29.899  1.00  0.00     0.010 A 
ATOM     86  C   UNL A   1      35.426  32.185  31.163  1.00  0.00     0.010 A 
ATOM     87  C   UNL A   1      35.997  34.195  29.295  1.00  0.00     0.020 A 
ATOM     88  C   UNL A   1      34.381  32.866  30.529  1.00  0.00     0.020 A 
ATOM     89  C   UNL A   1      34.675  33.891  29.628  1.00  0.00     0.054 A 
BRANCH  89  90
ATOM     90  S   UNL A   1      33.347  34.875  28.882  1.00  0.00     0.124 S 
ATOM     91  O   UNL A   1      32.782  33.932  27.920  1.00  0.00    -0.237 OA
ATOM     92  O   UNL A   1      32.498  35.187  30.029  1.00  0.00    -0.237 OA
ATOM     93  O   UNL A   1      34.051  36.016  28.301  1.00  0.00    -0.744 OA
ENDBRANCH  89  90
ENDBRANCH  61  84
BRANCH  73  94
ATOM     94  C   UNL A   1      39.626  33.752  37.138  1.00  0.00    -0.014 A 
ATOM     95  C   UNL A   1      40.244  35.014  37.197  1.00  0.00     0.010 A 
ATOM     96  C   UNL A   1      38.765  33.361  38.180  1.00  0.00     0.010 A 
ATOM     97  C   UNL A   1      40.028  35.859  38.289  1.00  0.00     0.020 A 
ATOM     98  C   UNL A   1      38.520  34.216  39.256  1.00  0.00     0.020 A 
ATOM     99  C   UNL A   1      39.170  35.451  39.315  1.00  0.00     0.054 A 
BRANCH  99 100
ATOM    100  S   UNL A   1      38.905  36.558  40.726  1.00  0.00     0.124 S 
ATOM    101  O   UNL A   1      37.968  35.794  41.544  1.00  0.00    -0.237 OA
ATOM    102  O   UNL A   1      40.249  36.705  41.278  1.00  0.00    -0.237 OA
ATOM    103  O   UNL A   1      38.357  37.767  40.114  1.00  0.00    -0.744 OA
ENDBRANCH  99 100
ENDBRANCH  73  94
ENDBRANCH  47  48
ENDBRANCH  39  42
ENDBRANCH  37  38
ENDBRANCH   1  37
TORSDOF 15
ENDMDL
MODEL 2
REMARK VINA RESULT:     -13.8      5.932     11.756
REMARK SMILES C[C@]1(C(=O)NCCCCNC(=O)c2ccc(-c3c4nc(c(-c5ccc(S(=O)(=O)[O-])cc5)c5ccc([nH]5)c(-c5ccc(S(=O)(=O)[O-])cc5)c5nc(c(-c6ccc(S(=O)(=O)[O-])cc6)c6ccc3[nH]6)C=C5)C=C4)cc2)[NH2+]C2(C(=O)c3ccccc3C2=O)[C@@H]2C(=O)N(c3ccccc3)C(=O)[C@H]21
REMARK SMILES IDX 8 1 7 2 6 3 5 4 3 5 4 6 2 8 1 9 73 10 97 11 74 12 85 15
REMARK SMILES IDX 95 16 75 17 83 18 86 19 88 20 96 21 76 22 77 23 82 24 84 25
REMARK SMILES IDX 87 26 78 27 81 28 79 29 80 30 89 31 90 32 94 33 91 34 93 35
REMARK SMILES IDX 92 36 9 37 10 38 11 39 12 41 13 42 14 43 72 44 15 45 71 46
REMARK SMILES IDX 16 47 17 48 18 49 65 50 19 51 70 52 64 53 66 54 20 55 69 56
REMARK SMILES IDX 63 57 62 58 21 60 51 61 32 62 50 63 33 64 36 65 49 66 67 67
REMARK SMILES IDX 34 68 35 69 48 71 68 72 37 73 22 74 23 75 31 76 24 77 30 78
REMARK SMILES IDX 25 79 26 80 27 81 28 82 29 83 52 84 53 85 61 86 54 87 60 88
REMARK SMILES IDX 55 89 56 90 57 91 58 92 59 93 38 94 39 95 47 96 40 97 46 98
REMARK SMILES IDX 41 99 42 100 43 101 44 102 45 103
REMARK H PARENT 5 7 73 13 73 14 10 40 66 59 36 70
REMARK Flexibility Score: inf
ROOT
ATOM      1  C   UNL A   1      34.793  32.571  28.748  1.00  0.00     0.023 C 
ENDROOT
BRANCH   1   2
ATOM      2  C   UNL A   1      33.548  32.177  27.989  1.00  0.00     0.023 C 
BRANCH   2   3
ATOM      3  C   UNL A   1      33.587  30.818  27.304  1.00  0.00     0.116 C 
BRANCH   3   4
ATOM      4  N   UNL A   1      32.828  29.741  27.856  1.00  0.00    -0.351 N 
ATOM      5  C   UNL A   1      32.654  28.461  27.412  1.00  0.00     0.281 C 
ATOM      6  O   UNL A   1      31.945  27.774  28.164  1.00  0.00    -0.268 OA
ATOM      7  H   UNL A   1      32.352  29.956  28.690  1.00  0.00     0.163 HD
BRANCH   5   8
ATOM      8  C   UNL A   1      33.266  27.804  26.086  1.00  0.00     0.186 C 
ATOM      9  C   UNL A   1      34.625  28.525  25.874  1.00  0.00     0.091 C 
ATOM     10  N   UNL A   1      33.546  26.316  26.185  1.00  0.00    -0.314 N 
ATOM     11  C   UNL A   1      32.511  27.855  24.789  1.00  0.00     0.170 C 
ATOM     12  C   UNL A   1      32.598  25.555  25.262  1.00  0.00     0.236 C 
ATOM     13  H   UNL A   1      33.405  26.008  27.147  1.00  0.00     0.348 HD
ATOM     14  H   UNL A   1      34.510  26.134  25.906  1.00  0.00     0.348 HD
ATOM     15  C   UNL A   1      31.643  26.613  24.761  1.00  0.00     0.177 C 
ATOM     16  C   UNL A   1      31.551  28.900  24.360  1.00  0.00     0.244 C 
ATOM     17  C   UNL A   1      33.299  24.754  24.156  1.00  0.00     0.232 C 
ATOM     18  C   UNL A   1      32.003  24.408  26.113  1.00  0.00     0.232 C 
ATOM     19  C   UNL A   1      30.935  26.855  23.462  1.00  0.00     0.245 C 
ATOM     20  N   UNL A   1      30.741  28.243  23.435  1.00  0.00    -0.250 N 
ATOM     21  O   UNL A   1      31.555  30.064  24.720  1.00  0.00    -0.273 OA
ATOM     22  O   UNL A   1      34.061  25.198  23.315  1.00  0.00    -0.286 OA
ATOM     23  C   UNL A   1      32.926  23.329  24.290  1.00  0.00     0.036 A 
ATOM     24  C   UNL A   1      32.145  23.157  25.417  1.00  0.00     0.036 A 
ATOM     25  O   UNL A   1      31.582  24.398  27.255  1.00  0.00    -0.286 OA
ATOM     26  O   UNL A   1      30.502  25.982  22.732  1.00  0.00    -0.273 OA
ATOM     27  C   UNL A   1      33.271  22.229  23.531  1.00  0.00     0.013 A 
ATOM     28  C   UNL A   1      31.673  21.929  25.854  1.00  0.00     0.013 A 
ATOM     29  C   UNL A   1      32.802  20.966  23.943  1.00  0.00     0.001 A 
ATOM     30  C   UNL A   1      32.007  20.818  25.095  1.00  0.00     0.001 A 
BRANCH  20  31
ATOM     31  C   UNL A   1      29.724  28.927  22.746  1.00  0.00     0.052 A 
ATOM     32  C   UNL A   1      30.057  29.901  21.795  1.00  0.00     0.027 A 
ATOM     33  C   UNL A   1      28.388  28.770  23.130  1.00  0.00     0.027 A 
ATOM     34  C   UNL A   1      29.065  30.701  21.224  1.00  0.00     0.002 A 
ATOM     35  C   UNL A   1      27.406  29.613  22.599  1.00  0.00     0.002 A 
ATOM     36  C   UNL A   1      27.743  30.571  21.642  1.00  0.00     0.000 A 
ENDBRANCH  20  31
ENDBRANCH   5   8
ENDBRANCH   3   4
ENDBRANCH   2   3
ENDBRANCH   1   2
BRANCH   1  37
ATOM     37  C   UNL A   1      35.737  31.421  29.074  1.00  0.00     0.116 C 
BRANCH  37  38
ATOM     38  N   UNL A   1      35.704  30.948  30.462  1.00  0.00    -0.352 N 
ATOM     39  C   UNL A   1      36.526  30.037  31.104  1.00  0.00     0.251 C 
ATOM     40  H   UNL A   1      34.992  31.335  31.020  1.00  0.00     0.163 HD
ATOM     41  O   UNL A   1      36.339  29.745  32.281  1.00  0.00    -0.269 OA
BRANCH  39  42
ATOM     42  C   UNL A   1      37.592  29.372  30.326  1.00  0.00     0.039 A 
ATOM     43  C   UNL A   1      38.432  28.471  30.964  1.00  0.00     0.014 A 
ATOM     44  C   UNL A   1      37.868  29.791  29.022  1.00  0.00     0.014 A 
ATOM     45  C   UNL A   1      39.703  28.277  30.450  1.00  0.00     0.010 A 
ATOM     46  C   UNL A   1      39.082  29.430  28.426  1.00  0.00     0.010 A 
ATOM     47  C   UNL A   1      40.054  28.748  29.171  1.00  0.00    -0.014 A 
BRANCH  47  48
ATOM     48  C   UNL A   1      41.442  28.503  28.679  1.00  0.00     0.031 A 
ATOM     49  C   UNL A   1      42.544  29.523  28.859  1.00  0.00     0.074 A 
ATOM     50  C   UNL A   1      41.733  27.290  28.163  1.00  0.00     0.049 A 
ATOM     51  N   UNL A   1      43.815  29.413  28.555  1.00  0.00    -0.248 NA
ATOM     52  C   UNL A   1      42.189  30.829  29.439  1.00  0.00     0.031 C 
ATOM     53  C   UNL A   1      40.757  26.217  27.950  1.00  0.00     0.029 A 
ATOM     54  N   UNL A   1      42.926  26.723  27.791  1.00  0.00    -0.354 N 
ATOM     55  C   UNL A   1      44.398  30.635  28.876  1.00  0.00     0.074 A 
ATOM     56  C   UNL A   1      43.340  31.486  29.373  1.00  0.00     0.031 C 
ATOM     57  C   UNL A   1      41.401  25.094  27.616  1.00  0.00     0.029 A 
ATOM     58  C   UNL A   1      42.820  25.391  27.465  1.00  0.00     0.049 A 
ATOM     59  H   UNL A   1      43.775  27.222  27.762  1.00  0.00     0.167 HD
ATOM     60  C   UNL A   1      45.698  31.008  28.776  1.00  0.00     0.031 A 
ATOM     61  C   UNL A   1      43.748  24.496  27.075  1.00  0.00     0.031 A 
ATOM     62  C   UNL A   1      46.752  30.141  28.310  1.00  0.00     0.049 A 
ATOM     63  C   UNL A   1      45.172  24.941  26.949  1.00  0.00     0.074 A 
ATOM     64  C   UNL A   1      48.102  30.424  28.191  1.00  0.00     0.029 A 
ATOM     65  N   UNL A   1      46.585  28.826  27.899  1.00  0.00    -0.354 N 
ATOM     66  N   UNL A   1      45.694  26.107  27.245  1.00  0.00    -0.248 NA
ATOM     67  C   UNL A   1      46.131  23.960  26.428  1.00  0.00     0.031 C 
ATOM     68  C   UNL A   1      48.738  29.307  27.646  1.00  0.00     0.029 A 
ATOM     69  C   UNL A   1      47.801  28.298  27.497  1.00  0.00     0.049 A 
ATOM     70  H   UNL A   1      45.728  28.340  27.895  1.00  0.00     0.167 HD
ATOM     71  C   UNL A   1      47.044  26.003  26.936  1.00  0.00     0.074 A 
ATOM     72  C   UNL A   1      47.264  24.648  26.474  1.00  0.00     0.031 C 
ATOM     73  C   UNL A   1      48.007  26.953  27.016  1.00  0.00     0.031 A 
BRANCH  60  74
ATOM     74  C   UNL A   1      46.082  32.416  29.172  1.00  0.00    -0.014 A 
ATOM     75  C   UNL A   1      46.106  33.431  28.196  1.00  0.00     0.010 A 
ATOM     76  C   UNL A   1      46.549  32.708  30.466  1.00  0.00     0.010 A 
ATOM     77  C   UNL A   1      46.622  34.696  28.493  1.00  0.00     0.020 A 
ATOM     78  C   UNL A   1      47.039  33.983  30.776  1.00  0.00     0.020 A 
ATOM     79  C   UNL A   1      47.097  34.960  29.780  1.00  0.00     0.054 A 
BRANCH  79  80
ATOM     80  S   UNL A   1      47.798  36.596  30.136  1.00  0.00     0.124 S 
ATOM     81  O   UNL A   1      47.252  36.885  31.458  1.00  0.00    -0.237 OA
ATOM     82  O   UNL A   1      49.236  36.344  30.087  1.00  0.00    -0.237 OA
ATOM     83  O   UNL A   1      47.285  37.431  29.051  1.00  0.00    -0.744 OA
ENDBRANCH  79  80
ENDBRANCH  60  74
BRANCH  61  84
ATOM     84  C   UNL A   1      43.325  23.097  26.783  1.00  0.00    -0.014 A 
ATOM     85  C   UNL A   1      42.834  22.274  27.816  1.00  0.00     0.010 A 
ATOM     86  C   UNL A   1      43.514  22.545  25.505  1.00  0.00     0.010 A 
ATOM     87  C   UNL A   1      42.621  20.912  27.600  1.00  0.00     0.020 A 
ATOM     88  C   UNL A   1      43.262  21.189  25.273  1.00  0.00     0.020 A 
ATOM     89  C   UNL A   1      42.854  20.374  26.332  1.00  0.00     0.054 A 
BRANCH  89  90
ATOM     90  S   UNL A   1      42.637  18.590  26.094  1.00  0.00     0.124 S 
ATOM     91  O   UNL A   1      42.976  18.069  27.416  1.00  0.00    -0.237 OA
ATOM     92  O   UNL A   1      41.229  18.486  25.719  1.00  0.00    -0.237 OA
ATOM     93  O   UNL A   1      43.587  18.269  25.032  1.00  0.00    -0.744 OA
ENDBRANCH  89  90
ENDBRANCH  61  84
BRANCH  73  94
ATOM     94  C   UNL A   1      49.397  26.577  26.569  1.00  0.00    -0.014 A 
ATOM     95  C   UNL A   1      49.811  26.852  25.253  1.00  0.00     0.010 A 
ATOM     96  C   UNL A   1      50.258  25.868  27.425  1.00  0.00     0.010 A 
ATOM     97  C   UNL A   1      51.051  26.404  24.792  1.00  0.00     0.020 A 
ATOM     98  C   UNL A   1      51.513  25.448  26.978  1.00  0.00     0.020 A 
ATOM     99  C   UNL A   1      51.893  25.699  25.657  1.00  0.00     0.054 A 
BRANCH  99 100
ATOM    100  S   UNL A   1      53.497  25.122  25.041  1.00  0.00     0.124 S 
ATOM    101  O   UNL A   1      53.436  23.690  25.320  1.00  0.00    -0.237 OA
ATOM    102  O   UNL A   1      53.452  25.491  23.628  1.00  0.00    -0.237 OA
ATOM    103  O   UNL A   1      54.462  25.873  25.841  1.00  0.00    -0.744 OA
ENDBRANCH  99 100
ENDBRANCH  73  94
ENDBRANCH  47  48
ENDBRANCH  39  42
ENDBRANCH  37  38
ENDBRANCH   1  37
TORSDOF 15
ENDMDL
MODEL 3
REMARK VINA RESULT:     -13.6      5.950     11.682
REMARK SMILES C[C@]1(C(=O)NCCCCNC(=O)c2ccc(-c3c4nc(c(-c5ccc(S(=O)(=O)[O-])cc5)c5ccc([nH]5)c(-c5ccc(S(=O)(=O)[O-])cc5)c5nc(c(-c6ccc(S(=O)(=O)[O-])cc6)c6ccc3[nH]6)C=C5)C=C4)cc2)[NH2+]C2(C(=O)c3ccccc3C2=O)[C@@H]2C(=O)N(c3ccccc3)C(=O)[C@H]21
REMARK SMILES IDX 8 1 7 2 6 3 5 4 3 5 4 6 2 8 1 9 73 10 97 11 74 12 85 15
REMARK SMILES IDX 95 16 75 17 83 18 86 19 88 20 96 21 76 22 77 23 82 24 84 25
REMARK SMILES IDX 87 26 78 27 81 28 79 29 80 30 89 31 90 32 94 33 91 34 93 35
REMARK SMILES IDX 92 36 9 37 10 38 11 39 12 41 13 42 14 43 72 44 15 45 71 46
REMARK SMILES IDX 16 47 17 48 18 49 65 50 19 51 70 52 64 53 66 54 20 55 69 56
REMARK SMILES IDX 63 57 62 58 21 60 51 61 32 62 50 63 33 64 36 65 49 66 67 67
REMARK SMILES IDX 34 68 35 69 48 71 68 72 37 73 22 74 23 75 31 76 24 77 30 78
REMARK SMILES IDX 25 79 26 80 27 81 28 82 29 83 52 84 53 85 61 86 54 87 60 88
REMARK SMILES IDX 55 89 56 90 57 91 58 92 59 93 38 94 39 95 47 96 40 97 46 98
REMARK SMILES IDX 41 99 42 100 43 101 44 102 45 103
REMARK H PARENT 5 7 73 13 73 14 10 40 66 59 36 70
REMARK Flexibility Score: inf
ROOT
ATOM      1  C   UNL A   1      34.368  32.768  28.889  1.00  0.00     0.023 C 
ENDROOT
BRANCH   1   2
ATOM      2  C   UNL A   1      33.555  32.140  27.781  1.00  0.00     0.023 C 
BRANCH   2   3
ATOM      3  C   UNL A   1      33.865  30.683  27.470  1.00  0.00     0.116 C 
BRANCH   3   4
ATOM      4  N   UNL A   1      32.964  29.670  27.920  1.00  0.00    -0.351 N 
ATOM      5  C   UNL A   1      32.675  28.444  27.394  1.00  0.00     0.281 C 
ATOM      6  O   UNL A   1      31.855  27.801  28.069  1.00  0.00    -0.268 OA
ATOM      7  H   UNL A   1      32.470  29.893  28.742  1.00  0.00     0.163 HD
BRANCH   5   8
ATOM      8  C   UNL A   1      33.282  27.794  26.061  1.00  0.00     0.186 C 
ATOM      9  C   UNL A   1      34.643  28.511  25.852  1.00  0.00     0.091 C 
ATOM     10  N   UNL A   1      33.557  26.304  26.150  1.00  0.00    -0.314 N 
ATOM     11  C   UNL A   1      32.524  27.857  24.767  1.00  0.00     0.170 C 
ATOM     12  C   UNL A   1      32.603  25.553  25.223  1.00  0.00     0.236 C 
ATOM     13  H   UNL A   1      33.417  25.989  27.109  1.00  0.00     0.348 HD
ATOM     14  H   UNL A   1      34.519  26.120  25.867  1.00  0.00     0.348 HD
ATOM     15  C   UNL A   1      31.652  26.617  24.732  1.00  0.00     0.177 C 
ATOM     16  C   UNL A   1      31.567  28.908  24.347  1.00  0.00     0.244 C 
ATOM     17  C   UNL A   1      33.299  24.758  24.110  1.00  0.00     0.232 C 
ATOM     18  C   UNL A   1      32.006  24.402  26.067  1.00  0.00     0.232 C 
ATOM     19  C   UNL A   1      30.942  26.871  23.436  1.00  0.00     0.245 C 
ATOM     20  N   UNL A   1      30.753  28.261  23.420  1.00  0.00    -0.250 N 
ATOM     21  O   UNL A   1      31.576  30.070  24.716  1.00  0.00    -0.273 OA
ATOM     22  O   UNL A   1      34.061  25.204  23.271  1.00  0.00    -0.286 OA
ATOM     23  C   UNL A   1      32.921  23.333  24.235  1.00  0.00     0.036 A 
ATOM     24  C   UNL A   1      32.142  23.155  25.362  1.00  0.00     0.036 A 
ATOM     25  O   UNL A   1      31.588  24.386  27.210  1.00  0.00    -0.286 OA
ATOM     26  O   UNL A   1      30.504  26.005  22.701  1.00  0.00    -0.273 OA
ATOM     27  C   UNL A   1      33.261  22.237  23.467  1.00  0.00     0.013 A 
ATOM     28  C   UNL A   1      31.667  21.927  25.791  1.00  0.00     0.013 A 
ATOM     29  C   UNL A   1      32.788  20.973  23.871  1.00  0.00     0.001 A 
ATOM     30  C   UNL A   1      31.995  20.819  25.024  1.00  0.00     0.001 A 
BRANCH  20  31
ATOM     31  C   UNL A   1      29.736  28.953  22.737  1.00  0.00     0.052 A 
ATOM     32  C   UNL A   1      30.070  29.944  21.805  1.00  0.00     0.027 A 
ATOM     33  C   UNL A   1      28.399  28.785  23.112  1.00  0.00     0.027 A 
ATOM     34  C   UNL A   1      29.079  30.752  21.244  1.00  0.00     0.002 A 
ATOM     35  C   UNL A   1      27.417  29.634  22.591  1.00  0.00     0.002 A 
ATOM     36  C   UNL A   1      27.755  30.610  21.653  1.00  0.00     0.000 A 
ENDBRANCH  20  31
ENDBRANCH   5   8
ENDBRANCH   3   4
ENDBRANCH   2   3
ENDBRANCH   1   2
BRANCH   1  37
ATOM     37  C   UNL A   1      35.662  32.040  29.227  1.00  0.00     0.116 C 
BRANCH  37  38
ATOM     38  N   UNL A   1      35.567  31.041  30.296  1.00  0.00    -0.352 N 
ATOM     39  C   UNL A   1      36.562  30.275  30.880  1.00  0.00     0.251 C 
ATOM     40  H   UNL A   1      34.662  30.894  30.652  1.00  0.00     0.163 HD
ATOM     41  O   UNL A   1      36.294  29.467  31.763  1.00  0.00    -0.269 OA
BRANCH  39  42
ATOM     42  C   UNL A   1      37.944  30.399  30.370  1.00  0.00     0.039 A 
ATOM     43  C   UNL A   1      38.201  30.109  29.038  1.00  0.00     0.014 A 
ATOM     44  C   UNL A   1      38.998  30.614  31.262  1.00  0.00     0.014 A 
ATOM     45  C   UNL A   1      39.474  29.689  28.689  1.00  0.00     0.010 A 
ATOM     46  C   UNL A   1      40.312  30.372  30.843  1.00  0.00     0.010 A 
ATOM     47  C   UNL A   1      40.555  29.814  29.581  1.00  0.00    -0.014 A 
BRANCH  47  48
ATOM     48  C   UNL A   1      41.901  29.341  29.139  1.00  0.00     0.031 A 
ATOM     49  C   UNL A   1      42.116  27.948  28.592  1.00  0.00     0.074 A 
ATOM     50  C   UNL A   1      42.918  30.228  29.127  1.00  0.00     0.049 A 
ATOM     51  N   UNL A   1      43.213  27.427  28.095  1.00  0.00    -0.248 NA
ATOM     52  C   UNL A   1      40.978  27.014  28.608  1.00  0.00     0.031 C 
ATOM     53  C   UNL A   1      42.831  31.607  29.618  1.00  0.00     0.029 A 
ATOM     54  N   UNL A   1      44.194  30.140  28.630  1.00  0.00    -0.354 N 
ATOM     55  C   UNL A   1      42.905  26.109  27.771  1.00  0.00     0.074 A 
ATOM     56  C   UNL A   1      41.527  25.896  28.153  1.00  0.00     0.031 C 
ATOM     57  C   UNL A   1      43.943  32.267  29.281  1.00  0.00     0.029 A 
ATOM     58  C   UNL A   1      44.878  31.333  28.665  1.00  0.00     0.049 A 
ATOM     59  H   UNL A   1      44.582  29.304  28.282  1.00  0.00     0.167 HD
ATOM     60  C   UNL A   1      43.696  25.168  27.198  1.00  0.00     0.031 A 
ATOM     61  C   UNL A   1      46.122  31.656  28.262  1.00  0.00     0.031 A 
ATOM     62  C   UNL A   1      45.059  25.402  26.790  1.00  0.00     0.049 A 
ATOM     63  C   UNL A   1      46.983  30.592  27.656  1.00  0.00     0.074 A 
ATOM     64  C   UNL A   1      45.934  24.515  26.185  1.00  0.00     0.029 A 
ATOM     65  N   UNL A   1      45.744  26.600  26.932  1.00  0.00    -0.354 N 
ATOM     66  N   UNL A   1      46.672  29.349  27.375  1.00  0.00    -0.248 NA
ATOM     67  C   UNL A   1      48.363  30.964  27.321  1.00  0.00     0.031 C 
ATOM     68  C   UNL A   1      47.165  25.154  26.023  1.00  0.00     0.029 A 
ATOM     69  C   UNL A   1      47.038  26.465  26.454  1.00  0.00     0.049 A 
ATOM     70  H   UNL A   1      45.366  27.425  27.314  1.00  0.00     0.167 HD
ATOM     71  C   UNL A   1      47.822  28.787  26.838  1.00  0.00     0.074 A 
ATOM     72  C   UNL A   1      48.820  29.837  26.793  1.00  0.00     0.031 C 
ATOM     73  C   UNL A   1      48.033  27.510  26.434  1.00  0.00     0.031 A 
BRANCH  60  74
ATOM     74  C   UNL A   1      43.129  23.787  26.966  1.00  0.00    -0.014 A 
ATOM     75  C   UNL A   1      43.169  22.836  28.005  1.00  0.00     0.010 A 
ATOM     76  C   UNL A   1      42.686  23.383  25.694  1.00  0.00     0.010 A 
ATOM     77  C   UNL A   1      42.814  21.504  27.768  1.00  0.00     0.020 A 
ATOM     78  C   UNL A   1      42.301  22.057  25.461  1.00  0.00     0.020 A 
ATOM     79  C   UNL A   1      42.393  21.120  26.493  1.00  0.00     0.054 A 
BRANCH  79  80
ATOM     80  S   UNL A   1      41.973  19.379  26.196  1.00  0.00     0.124 S 
ATOM     81  O   UNL A   1      42.312  18.757  27.472  1.00  0.00    -0.237 OA
ATOM     82  O   UNL A   1      40.548  19.444  25.883  1.00  0.00    -0.237 OA
ATOM     83  O   UNL A   1      42.831  19.008  25.072  1.00  0.00    -0.744 OA
ENDBRANCH  79  80
ENDBRANCH  60  74
BRANCH  61  84
ATOM     84  C   UNL A   1      46.597  33.059  28.435  1.00  0.00    -0.014 A 
ATOM     85  C   UNL A   1      46.431  33.997  27.397  1.00  0.00     0.010 A 
ATOM     86  C   UNL A   1      47.313  33.434  29.583  1.00  0.00     0.010 A 
ATOM     87  C   UNL A   1      47.040  35.250  27.465  1.00  0.00     0.020 A 
ATOM     88  C   UNL A   1      47.891  34.705  29.675  1.00  0.00     0.020 A 
ATOM     89  C   UNL A   1      47.782  35.589  28.599  1.00  0.00     0.054 A 
BRANCH  89  90
ATOM     90  S   UNL A   1      48.622  37.196  28.635  1.00  0.00     0.124 S 
ATOM     91  O   UNL A   1      49.971  36.818  29.049  1.00  0.00    -0.237 OA
ATOM     92  O   UNL A   1      48.493  37.655  27.255  1.00  0.00    -0.237 OA
ATOM     93  O   UNL A   1      47.857  37.959  29.618  1.00  0.00    -0.744 OA
ENDBRANCH  89  90
ENDBRANCH  61  84
BRANCH  73  94
ATOM     94  C   UNL A   1      49.407  27.157  25.928  1.00  0.00    -0.014 A 
ATOM     95  C   UNL A   1      49.742  27.388  24.581  1.00  0.00     0.010 A 
ATOM     96  C   UNL A   1      50.336  26.510  26.763  1.00  0.00     0.010 A 
ATOM     97  C   UNL A   1      50.969  26.958  24.071  1.00  0.00     0.020 A 
ATOM     98  C   UNL A   1      51.578  26.109  26.266  1.00  0.00     0.020 A 
ATOM     99  C   UNL A   1      51.878  26.315  24.917  1.00  0.00     0.054 A 
BRANCH  99 100
ATOM    100  S   UNL A   1      53.465  25.760  24.237  1.00  0.00     0.124 S 
ATOM    101  O   UNL A   1      53.552  24.392  24.739  1.00  0.00    -0.237 OA
ATOM    102  O   UNL A   1      53.262  25.891  22.796  1.00  0.00    -0.237 OA
ATOM    103  O   UNL A   1      54.428  26.698  24.810  1.00  0.00    -0.744 OA
ENDBRANCH  99 100
ENDBRANCH  73  94
ENDBRANCH  47  48
ENDBRANCH  39  42
ENDBRANCH  37  38
ENDBRANCH   1  37
TORSDOF 15
ENDMDL
