MODEL 1
REMARK VINA RESULT:     -10.1      0.000      0.000
REMARK SMILES CSc1ncccc1C(=O)NCCCC(=O)NCCCCNC(=O)c1ccc(-c2c3nc(c(-c4ccc(S(=O)(=O)[O-])cc4)c4ccc([nH]4)c(-c4ccc(S(=O)(=O)[O-])cc4)c4nc(c(-c5ccc(S(=O)(=O)[O-])cc5)c5ccc2[nH]5)C=C4)C=C3)cc1
REMARK SMILES IDX 18 1 17 2 15 3 16 4 14 6 13 7 12 8 11 9 9 10 10 11 8 13 3 14
REMARK SMILES IDX 4 15 5 16 7 17 6 18 2 19 1 20 19 21 20 22 21 23 22 24 23 25
REMARK SMILES IDX 24 27 25 28 26 29 84 30 27 31 83 32 28 33 29 34 30 35 77 36
REMARK SMILES IDX 31 37 82 38 76 39 78 40 32 41 81 42 75 43 74 44 33 46 63 47
REMARK SMILES IDX 44 48 62 49 45 50 48 51 61 52 79 53 46 54 47 55 60 57 80 58
REMARK SMILES IDX 49 59 34 60 35 61 43 62 36 63 42 64 37 65 38 66 39 67 40 68
REMARK SMILES IDX 41 69 64 70 65 71 73 72 66 73 72 74 67 75 68 76 69 77 70 78
REMARK SMILES IDX 71 79 50 80 51 81 59 82 52 83 58 84 53 85 54 86 55 87 56 88
REMARK SMILES IDX 57 89
REMARK H PARENT 17 5 11 12 22 26 78 45 48 56
REMARK Flexibility Score: inf
ROOT
ATOM      1  C   UNL A   1      33.359  28.991  23.451  1.00  0.00     0.116 C 
ENDROOT
BRANCH   1   2
ATOM      2  N   UNL A   1      32.087  29.293  22.822  1.00  0.00    -0.356 N 
ATOM      3  C   UNL A   1      30.902  28.626  22.869  1.00  0.00     0.220 C 
ATOM      4  O   UNL A   1      29.991  28.991  22.125  1.00  0.00    -0.275 OA
ATOM      5  H   UNL A   1      32.080  30.111  22.274  1.00  0.00     0.163 HD
BRANCH   3   6
ATOM      6  C   UNL A   1      30.694  27.477  23.834  1.00  0.00     0.102 C 
BRANCH   6   7
ATOM      7  C   UNL A   1      29.706  26.408  23.349  1.00  0.00     0.031 C 
BRANCH   7   8
ATOM      8  C   UNL A   1      30.023  24.964  23.741  1.00  0.00     0.116 C 
BRANCH   8   9
ATOM      9  N   UNL A   1      30.200  24.800  25.169  1.00  0.00    -0.352 N 
ATOM     10  C   UNL A   1      31.263  24.264  25.845  1.00  0.00     0.254 C 
ATOM     11  O   UNL A   1      31.583  24.772  26.915  1.00  0.00    -0.269 OA
ATOM     12  H   UNL A   1      29.455  25.117  25.730  1.00  0.00     0.163 HD
BRANCH  10  13
ATOM     13  C   UNL A   1      32.019  23.121  25.318  1.00  0.00     0.072 A 
ATOM     14  C   UNL A   1      33.174  23.310  24.551  1.00  0.00     0.108 A 
ATOM     15  N   UNL A   1      33.852  22.253  24.020  1.00  0.00    -0.249 NA
ATOM     16  C   UNL A   1      33.379  21.008  24.241  1.00  0.00     0.112 A 
ATOM     17  C   UNL A   1      31.547  21.817  25.519  1.00  0.00     0.018 A 
ATOM     18  C   UNL A   1      32.247  20.741  24.986  1.00  0.00     0.021 A 
BRANCH  14  19
ATOM     19  S   UNL A   1      34.044  24.857  24.313  1.00  0.00    -0.109 SA
ATOM     20  C   UNL A   1      33.567  25.330  22.626  1.00  0.00     0.092 C 
ENDBRANCH  14  19
ENDBRANCH  10  13
ENDBRANCH   8   9
ENDBRANCH   7   8
ENDBRANCH   6   7
ENDBRANCH   3   6
ENDBRANCH   1   2
BRANCH   1  21
ATOM     21  C   UNL A   1      33.307  29.319  24.944  1.00  0.00     0.023 C 
BRANCH  21  22
ATOM     22  C   UNL A   1      33.652  28.150  25.861  1.00  0.00     0.023 C 
BRANCH  22  23
ATOM     23  C   UNL A   1      33.494  28.449  27.345  1.00  0.00     0.116 C 
BRANCH  23  24
ATOM     24  N   UNL A   1      33.453  29.872  27.657  1.00  0.00    -0.352 N 
ATOM     25  C   UNL A   1      34.465  30.659  28.157  1.00  0.00     0.251 C 
ATOM     26  H   UNL A   1      32.595  30.325  27.490  1.00  0.00     0.163 HD
ATOM     27  O   UNL A   1      34.253  31.826  28.473  1.00  0.00    -0.269 OA
BRANCH  25  28
ATOM     28  C   UNL A   1      35.802  30.061  28.351  1.00  0.00     0.039 A 
ATOM     29  C   UNL A   1      36.708  30.063  27.290  1.00  0.00     0.014 A 
ATOM     30  C   UNL A   1      36.179  29.573  29.605  1.00  0.00     0.014 A 
ATOM     31  C   UNL A   1      38.025  29.652  27.511  1.00  0.00     0.010 A 
ATOM     32  C   UNL A   1      37.508  29.249  29.844  1.00  0.00     0.010 A 
ATOM     33  C   UNL A   1      38.446  29.285  28.800  1.00  0.00    -0.014 A 
BRANCH  33  34
ATOM     34  C   UNL A   1      39.861  28.936  29.083  1.00  0.00     0.031 A 
ATOM     35  C   UNL A   1      40.786  29.971  29.664  1.00  0.00     0.074 A 
ATOM     36  C   UNL A   1      40.332  27.718  28.748  1.00  0.00     0.049 A 
ATOM     37  N   UNL A   1      42.069  29.888  29.904  1.00  0.00    -0.248 NA
ATOM     38  C   UNL A   1      40.198  31.283  29.987  1.00  0.00     0.031 C 
ATOM     39  C   UNL A   1      39.550  26.646  28.125  1.00  0.00     0.029 A 
ATOM     40  N   UNL A   1      41.589  27.180  28.873  1.00  0.00    -0.354 N 
ATOM     41  C   UNL A   1      42.444  31.136  30.385  1.00  0.00     0.074 A 
ATOM     42  C   UNL A   1      41.267  31.976  30.350  1.00  0.00     0.031 C 
ATOM     43  C   UNL A   1      40.338  25.573  27.948  1.00  0.00     0.029 A 
ATOM     44  C   UNL A   1      41.686  25.889  28.408  1.00  0.00     0.049 A 
ATOM     45  H   UNL A   1      42.348  27.671  29.261  1.00  0.00     0.167 HD
ATOM     46  C   UNL A   1      43.652  31.543  30.844  1.00  0.00     0.031 A 
ATOM     47  C   UNL A   1      42.743  25.055  28.351  1.00  0.00     0.031 A 
ATOM     48  C   UNL A   1      44.816  30.700  30.898  1.00  0.00     0.049 A 
ATOM     49  C   UNL A   1      44.072  25.522  28.881  1.00  0.00     0.074 A 
ATOM     50  C   UNL A   1      46.073  31.001  31.390  1.00  0.00     0.029 A 
ATOM     51  N   UNL A   1      44.863  29.389  30.450  1.00  0.00    -0.354 N 
ATOM     52  N   UNL A   1      44.391  26.689  29.388  1.00  0.00    -0.248 NA
ATOM     53  C   UNL A   1      45.178  24.556  28.844  1.00  0.00     0.031 C 
ATOM     54  C   UNL A   1      46.893  29.882  31.205  1.00  0.00     0.029 A 
ATOM     55  C   UNL A   1      46.131  28.870  30.644  1.00  0.00     0.049 A 
ATOM     56  H   UNL A   1      44.107  28.900  30.053  1.00  0.00     0.167 HD
ATOM     57  C   UNL A   1      45.729  26.589  29.753  1.00  0.00     0.074 A 
ATOM     58  C   UNL A   1      46.153  25.244  29.423  1.00  0.00     0.031 C 
ATOM     59  C   UNL A   1      46.534  27.527  30.310  1.00  0.00     0.031 A 
BRANCH  46  60
ATOM     60  C   UNL A   1      43.765  32.962  31.331  1.00  0.00    -0.014 A 
ATOM     61  C   UNL A   1      43.544  33.281  32.684  1.00  0.00     0.010 A 
ATOM     62  C   UNL A   1      44.117  33.988  30.436  1.00  0.00     0.010 A 
ATOM     63  C   UNL A   1      43.628  34.604  33.123  1.00  0.00     0.020 A 
ATOM     64  C   UNL A   1      44.230  35.310  30.878  1.00  0.00     0.020 A 
ATOM     65  C   UNL A   1      43.966  35.611  32.216  1.00  0.00     0.054 A 
BRANCH  65  66
ATOM     66  S   UNL A   1      44.085  37.318  32.817  1.00  0.00     0.124 S 
ATOM     67  O   UNL A   1      43.882  38.083  31.589  1.00  0.00    -0.237 OA
ATOM     68  O   UNL A   1      42.998  37.393  33.789  1.00  0.00    -0.237 OA
ATOM     69  O   UNL A   1      45.430  37.394  33.383  1.00  0.00    -0.744 OA
ENDBRANCH  65  66
ENDBRANCH  46  60
BRANCH  47  70
ATOM     70  C   UNL A   1      42.582  23.688  27.788  1.00  0.00    -0.014 A 
ATOM     71  C   UNL A   1      42.267  22.602  28.624  1.00  0.00     0.010 A 
ATOM     72  C   UNL A   1      42.730  23.465  26.407  1.00  0.00     0.010 A 
ATOM     73  C   UNL A   1      42.120  21.318  28.094  1.00  0.00     0.020 A 
ATOM     74  C   UNL A   1      42.558  22.186  25.868  1.00  0.00     0.020 A 
ATOM     75  C   UNL A   1      42.265  21.118  26.718  1.00  0.00     0.054 A 
BRANCH  75  76
ATOM     76  S   UNL A   1      42.017  19.451  26.043  1.00  0.00     0.124 S 
ATOM     77  O   UNL A   1      40.576  19.427  25.817  1.00  0.00    -0.237 OA
ATOM     78  O   UNL A   1      42.848  19.468  24.843  1.00  0.00    -0.237 OA
ATOM     79  O   UNL A   1      42.499  18.578  27.111  1.00  0.00    -0.744 OA
ENDBRANCH  75  76
ENDBRANCH  47  70
BRANCH  59  80
ATOM     80  C   UNL A   1      47.948  27.124  30.629  1.00  0.00    -0.014 A 
ATOM     81  C   UNL A   1      48.997  27.373  29.729  1.00  0.00     0.010 A 
ATOM     82  C   UNL A   1      48.237  26.539  31.877  1.00  0.00     0.010 A 
ATOM     83  C   UNL A   1      50.308  27.019  30.057  1.00  0.00     0.020 A 
ATOM     84  C   UNL A   1      49.550  26.207  32.219  1.00  0.00     0.020 A 
ATOM     85  C   UNL A   1      50.576  26.437  31.301  1.00  0.00     0.054 A 
BRANCH  85  86
ATOM     86  S   UNL A   1      52.292  26.029  31.724  1.00  0.00     0.124 S 
ATOM     87  O   UNL A   1      52.605  27.044  32.727  1.00  0.00    -0.237 OA
ATOM     88  O   UNL A   1      52.182  24.662  32.226  1.00  0.00    -0.237 OA
ATOM     89  O   UNL A   1      53.003  26.165  30.455  1.00  0.00    -0.744 OA
ENDBRANCH  85  86
ENDBRANCH  59  80
ENDBRANCH  33  34
ENDBRANCH  25  28
ENDBRANCH  23  24
ENDBRANCH  22  23
ENDBRANCH  21  22
ENDBRANCH   1  21
TORSDOF 19
ENDMDL
MODEL 2
REMARK VINA RESULT:      -9.6      4.489      5.696
REMARK SMILES CSc1ncccc1C(=O)NCCCC(=O)NCCCCNC(=O)c1ccc(-c2c3nc(c(-c4ccc(S(=O)(=O)[O-])cc4)c4ccc([nH]4)c(-c4ccc(S(=O)(=O)[O-])cc4)c4nc(c(-c5ccc(S(=O)(=O)[O-])cc5)c5ccc2[nH]5)C=C4)C=C3)cc1
REMARK SMILES IDX 18 1 17 2 15 3 16 4 14 6 13 7 12 8 11 9 9 10 10 11 8 13 3 14
REMARK SMILES IDX 4 15 5 16 7 17 6 18 2 19 1 20 19 21 20 22 21 23 22 24 23 25
REMARK SMILES IDX 24 27 25 28 26 29 84 30 27 31 83 32 28 33 29 34 30 35 77 36
REMARK SMILES IDX 31 37 82 38 76 39 78 40 32 41 81 42 75 43 74 44 33 46 63 47
REMARK SMILES IDX 44 48 62 49 45 50 48 51 61 52 79 53 46 54 47 55 60 57 80 58
REMARK SMILES IDX 49 59 34 60 35 61 43 62 36 63 42 64 37 65 38 66 39 67 40 68
REMARK SMILES IDX 41 69 64 70 65 71 73 72 66 73 72 74 67 75 68 76 69 77 70 78
REMARK SMILES IDX 71 79 50 80 51 81 59 82 52 83 58 84 53 85 54 86 55 87 56 88
REMARK SMILES IDX 57 89
REMARK H PARENT 17 5 11 12 22 26 78 45 48 56
REMARK Flexibility Score: inf
ROOT
ATOM      1  C   UNL A   1      34.881  29.345  27.135  1.00  0.00     0.116 C 
ENDROOT
BRANCH   1   2
ATOM      2  N   UNL A   1      34.028  29.551  25.979  1.00  0.00    -0.356 N 
ATOM      3  C   UNL A   1      33.570  28.662  25.056  1.00  0.00     0.220 C 
ATOM      4  O   UNL A   1      32.978  29.094  24.066  1.00  0.00    -0.275 OA
ATOM      5  H   UNL A   1      33.734  30.480  25.840  1.00  0.00     0.163 HD
BRANCH   3   6
ATOM      6  C   UNL A   1      33.755  27.171  25.252  1.00  0.00     0.102 C 
BRANCH   6   7
ATOM      7  C   UNL A   1      32.454  26.358  25.218  1.00  0.00     0.031 C 
BRANCH   7   8
ATOM      8  C   UNL A   1      31.792  26.082  26.569  1.00  0.00     0.116 C 
BRANCH   8   9
ATOM      9  N   UNL A   1      30.780  25.048  26.494  1.00  0.00    -0.352 N 
ATOM     10  C   UNL A   1      30.879  23.726  26.835  1.00  0.00     0.254 C 
ATOM     11  O   UNL A   1      29.904  23.189  27.353  1.00  0.00    -0.269 OA
ATOM     12  H   UNL A   1      29.903  25.334  26.150  1.00  0.00     0.163 HD
BRANCH  10  13
ATOM     13  C   UNL A   1      32.108  22.957  26.607  1.00  0.00     0.072 A 
ATOM     14  C   UNL A   1      32.437  22.483  25.332  1.00  0.00     0.108 A 
ATOM     15  N   UNL A   1      33.553  21.727  25.124  1.00  0.00    -0.249 NA
ATOM     16  C   UNL A   1      34.336  21.431  26.183  1.00  0.00     0.112 A 
ATOM     17  C   UNL A   1      32.935  22.622  27.687  1.00  0.00     0.018 A 
ATOM     18  C   UNL A   1      34.077  21.861  27.470  1.00  0.00     0.021 A 
BRANCH  14  19
ATOM     19  S   UNL A   1      31.628  22.926  23.797  1.00  0.00    -0.109 SA
ATOM     20  C   UNL A   1      32.160  21.607  22.668  1.00  0.00     0.092 C 
ENDBRANCH  14  19
ENDBRANCH  10  13
ENDBRANCH   8   9
ENDBRANCH   7   8
ENDBRANCH   6   7
ENDBRANCH   3   6
ENDBRANCH   1   2
BRANCH   1  21
ATOM     21  C   UNL A   1      34.882  30.590  28.025  1.00  0.00     0.023 C 
BRANCH  21  22
ATOM     22  C   UNL A   1      34.337  31.846  27.355  1.00  0.00     0.023 C 
BRANCH  22  23
ATOM     23  C   UNL A   1      33.044  32.372  27.962  1.00  0.00     0.116 C 
BRANCH  23  24
ATOM     24  N   UNL A   1      32.916  33.822  27.906  1.00  0.00    -0.352 N 
ATOM     25  C   UNL A   1      33.630  34.764  28.611  1.00  0.00     0.251 C 
ATOM     26  H   UNL A   1      32.233  34.171  27.287  1.00  0.00     0.163 HD
ATOM     27  O   UNL A   1      33.338  35.955  28.539  1.00  0.00    -0.269 OA
BRANCH  25  28
ATOM     28  C   UNL A   1      34.726  34.313  29.492  1.00  0.00     0.039 A 
ATOM     29  C   UNL A   1      34.416  33.624  30.666  1.00  0.00     0.014 A 
ATOM     30  C   UNL A   1      36.058  34.506  29.113  1.00  0.00     0.014 A 
ATOM     31  C   UNL A   1      35.446  33.054  31.418  1.00  0.00     0.010 A 
ATOM     32  C   UNL A   1      37.071  33.864  29.814  1.00  0.00     0.010 A 
ATOM     33  C   UNL A   1      36.776  33.130  30.973  1.00  0.00    -0.014 A 
BRANCH  33  34
ATOM     34  C   UNL A   1      37.877  32.451  31.702  1.00  0.00     0.031 A 
ATOM     35  C   UNL A   1      38.338  32.988  33.031  1.00  0.00     0.074 A 
ATOM     36  C   UNL A   1      38.512  31.405  31.137  1.00  0.00     0.049 A 
ATOM     37  N   UNL A   1      39.334  32.588  33.780  1.00  0.00    -0.248 NA
ATOM     38  C   UNL A   1      37.604  34.144  33.572  1.00  0.00     0.031 C 
ATOM     39  C   UNL A   1      38.198  30.827  29.827  1.00  0.00     0.029 A 
ATOM     40  N   UNL A   1      39.563  30.647  31.588  1.00  0.00    -0.354 N 
ATOM     41  C   UNL A   1      39.357  33.454  34.867  1.00  0.00     0.074 A 
ATOM     42  C   UNL A   1      38.315  34.433  34.653  1.00  0.00     0.031 C 
ATOM     43  C   UNL A   1      39.020  29.791  29.594  1.00  0.00     0.029 A 
ATOM     44  C   UNL A   1      39.943  29.653  30.716  1.00  0.00     0.049 A 
ATOM     45  H   UNL A   1      40.004  30.799  32.455  1.00  0.00     0.167 HD
ATOM     46  C   UNL A   1      40.155  33.422  35.961  1.00  0.00     0.031 A 
ATOM     47  C   UNL A   1      40.927  28.737  30.806  1.00  0.00     0.031 A 
ATOM     48  C   UNL A   1      41.176  32.435  36.183  1.00  0.00     0.049 A 
ATOM     49  C   UNL A   1      41.790  28.710  32.038  1.00  0.00     0.074 A 
ATOM     50  C   UNL A   1      42.005  32.285  37.280  1.00  0.00     0.029 A 
ATOM     51  N   UNL A   1      41.505  31.424  35.291  1.00  0.00    -0.354 N 
ATOM     52  N   UNL A   1      41.757  29.501  33.083  1.00  0.00    -0.248 NA
ATOM     53  C   UNL A   1      42.814  27.658  32.108  1.00  0.00     0.031 C 
ATOM     54  C   UNL A   1      42.861  31.207  37.037  1.00  0.00     0.029 A 
ATOM     55  C   UNL A   1      42.531  30.654  35.809  1.00  0.00     0.049 A 
ATOM     56  H   UNL A   1      41.071  31.277  34.420  1.00  0.00     0.167 HD
ATOM     57  C   UNL A   1      42.739  29.028  33.947  1.00  0.00     0.074 A 
ATOM     58  C   UNL A   1      43.336  27.872  33.309  1.00  0.00     0.031 C 
ATOM     59  C   UNL A   1      43.112  29.506  35.159  1.00  0.00     0.031 A 
BRANCH  46  60
ATOM     60  C   UNL A   1      39.939  34.485  37.004  1.00  0.00    -0.014 A 
ATOM     61  C   UNL A   1      40.639  35.704  36.949  1.00  0.00     0.010 A 
ATOM     62  C   UNL A   1      39.011  34.276  38.041  1.00  0.00     0.010 A 
ATOM     63  C   UNL A   1      40.450  36.676  37.935  1.00  0.00     0.020 A 
ATOM     64  C   UNL A   1      38.797  35.258  39.013  1.00  0.00     0.020 A 
ATOM     65  C   UNL A   1      39.533  36.444  38.963  1.00  0.00     0.054 A 
BRANCH  65  66
ATOM     66  S   UNL A   1      39.294  37.730  40.220  1.00  0.00     0.124 S 
ATOM     67  O   UNL A   1      38.187  38.499  39.654  1.00  0.00    -0.237 OA
ATOM     68  O   UNL A   1      38.973  36.956  41.415  1.00  0.00    -0.237 OA
ATOM     69  O   UNL A   1      40.580  38.423  40.256  1.00  0.00    -0.744 OA
ENDBRANCH  65  66
ENDBRANCH  46  60
BRANCH  47  70
ATOM     70  C   UNL A   1      41.136  27.759  29.704  1.00  0.00    -0.014 A 
ATOM     71  C   UNL A   1      40.249  26.683  29.526  1.00  0.00     0.010 A 
ATOM     72  C   UNL A   1      42.216  27.907  28.816  1.00  0.00     0.010 A 
ATOM     73  C   UNL A   1      40.448  25.763  28.493  1.00  0.00     0.020 A 
ATOM     74  C   UNL A   1      42.405  27.004  27.765  1.00  0.00     0.020 A 
ATOM     75  C   UNL A   1      41.525  25.930  27.618  1.00  0.00     0.054 A 
BRANCH  75  76
ATOM     76  S   UNL A   1      41.734  24.755  26.251  1.00  0.00     0.124 S 
ATOM     77  O   UNL A   1      41.810  25.643  25.096  1.00  0.00    -0.237 OA
ATOM     78  O   UNL A   1      42.975  24.071  26.607  1.00  0.00    -0.237 OA
ATOM     79  O   UNL A   1      40.532  23.926  26.328  1.00  0.00    -0.744 OA
ENDBRANCH  75  76
ENDBRANCH  47  70
BRANCH  59  80
ATOM     80  C   UNL A   1      44.196  28.765  35.892  1.00  0.00    -0.014 A 
ATOM     81  C   UNL A   1      45.543  29.149  35.781  1.00  0.00     0.010 A 
ATOM     82  C   UNL A   1      43.852  27.704  36.750  1.00  0.00     0.010 A 
ATOM     83  C   UNL A   1      46.532  28.467  36.494  1.00  0.00     0.020 A 
ATOM     84  C   UNL A   1      44.835  27.036  37.484  1.00  0.00     0.020 A 
ATOM     85  C   UNL A   1      46.172  27.413  37.341  1.00  0.00     0.054 A 
BRANCH  85  86
ATOM     86  S   UNL A   1      47.467  26.573  38.292  1.00  0.00     0.124 S 
ATOM     87  O   UNL A   1      47.712  25.382  37.483  1.00  0.00    -0.237 OA
ATOM     88  O   UNL A   1      48.546  27.558  38.304  1.00  0.00    -0.237 OA
ATOM     89  O   UNL A   1      46.841  26.329  39.589  1.00  0.00    -0.744 OA
ENDBRANCH  85  86
ENDBRANCH  59  80
ENDBRANCH  33  34
ENDBRANCH  25  28
ENDBRANCH  23  24
ENDBRANCH  22  23
ENDBRANCH  21  22
ENDBRANCH   1  21
TORSDOF 19
ENDMDL
MODEL 3
REMARK VINA RESULT:      -9.5      2.854      3.806
REMARK SMILES CSc1ncccc1C(=O)NCCCC(=O)NCCCCNC(=O)c1ccc(-c2c3nc(c(-c4ccc(S(=O)(=O)[O-])cc4)c4ccc([nH]4)c(-c4ccc(S(=O)(=O)[O-])cc4)c4nc(c(-c5ccc(S(=O)(=O)[O-])cc5)c5ccc2[nH]5)C=C4)C=C3)cc1
REMARK SMILES IDX 18 1 17 2 15 3 16 4 14 6 13 7 12 8 11 9 9 10 10 11 8 13 3 14
REMARK SMILES IDX 4 15 5 16 7 17 6 18 2 19 1 20 19 21 20 22 21 23 22 24 23 25
REMARK SMILES IDX 24 27 25 28 26 29 84 30 27 31 83 32 28 33 29 34 30 35 77 36
REMARK SMILES IDX 31 37 82 38 76 39 78 40 32 41 81 42 75 43 74 44 33 46 63 47
REMARK SMILES IDX 44 48 62 49 45 50 48 51 61 52 79 53 46 54 47 55 60 57 80 58
REMARK SMILES IDX 49 59 34 60 35 61 43 62 36 63 42 64 37 65 38 66 39 67 40 68
REMARK SMILES IDX 41 69 64 70 65 71 73 72 66 73 72 74 67 75 68 76 69 77 70 78
REMARK SMILES IDX 71 79 50 80 51 81 59 82 52 83 58 84 53 85 54 86 55 87 56 88
REMARK SMILES IDX 57 89
REMARK H PARENT 17 5 11 12 22 26 78 45 48 56
REMARK Flexibility Score: inf
ROOT
ATOM      1  C   UNL A   1      32.281  30.485  26.535  1.00  0.00     0.116 C 
ENDROOT
BRANCH   1   2
ATOM      2  N   UNL A   1      31.772  29.127  26.470  1.00  0.00    -0.356 N 
ATOM      3  C   UNL A   1      31.272  28.425  25.418  1.00  0.00     0.220 C 
ATOM      4  O   UNL A   1      30.755  27.328  25.634  1.00  0.00    -0.275 OA
ATOM      5  H   UNL A   1      31.793  28.636  27.323  1.00  0.00     0.163 HD
BRANCH   3   6
ATOM      6  C   UNL A   1      31.373  28.963  24.005  1.00  0.00     0.102 C 
BRANCH   6   7
ATOM      7  C   UNL A   1      30.298  28.436  23.045  1.00  0.00     0.031 C 
BRANCH   7   8
ATOM      8  C   UNL A   1      30.544  27.050  22.446  1.00  0.00     0.116 C 
BRANCH   8   9
ATOM      9  N   UNL A   1      31.850  26.933  21.829  1.00  0.00    -0.352 N 
ATOM     10  C   UNL A   1      32.853  26.046  22.110  1.00  0.00     0.254 C 
ATOM     11  O   UNL A   1      33.524  25.617  21.176  1.00  0.00    -0.269 OA
ATOM     12  H   UNL A   1      32.042  27.579  21.111  1.00  0.00     0.163 HD
BRANCH  10  13
ATOM     13  C   UNL A   1      33.131  25.598  23.480  1.00  0.00     0.072 A 
ATOM     14  C   UNL A   1      32.580  24.410  23.978  1.00  0.00     0.108 A 
ATOM     15  N   UNL A   1      32.797  24.015  25.264  1.00  0.00    -0.249 NA
ATOM     16  C   UNL A   1      33.549  24.801  26.062  1.00  0.00     0.112 A 
ATOM     17  C   UNL A   1      33.897  26.398  24.337  1.00  0.00     0.018 A 
ATOM     18  C   UNL A   1      34.124  25.986  25.645  1.00  0.00     0.021 A 
BRANCH  14  19
ATOM     19  S   UNL A   1      31.722  23.162  23.023  1.00  0.00    -0.109 SA
ATOM     20  C   UNL A   1      32.278  21.615  23.796  1.00  0.00     0.092 C 
ENDBRANCH  14  19
ENDBRANCH  10  13
ENDBRANCH   8   9
ENDBRANCH   7   8
ENDBRANCH   6   7
ENDBRANCH   3   6
ENDBRANCH   1   2
BRANCH   1  21
ATOM     21  C   UNL A   1      33.534  30.544  27.409  1.00  0.00     0.023 C 
BRANCH  21  22
ATOM     22  C   UNL A   1      34.568  29.465  27.107  1.00  0.00     0.023 C 
BRANCH  22  23
ATOM     23  C   UNL A   1      35.836  29.558  27.943  1.00  0.00     0.116 C 
BRANCH  23  24
ATOM     24  N   UNL A   1      35.588  29.755  29.366  1.00  0.00    -0.352 N 
ATOM     25  C   UNL A   1      36.504  29.753  30.393  1.00  0.00     0.251 C 
ATOM     26  H   UNL A   1      34.650  29.908  29.623  1.00  0.00     0.163 HD
ATOM     27  O   UNL A   1      36.135  29.827  31.562  1.00  0.00    -0.269 OA
BRANCH  25  28
ATOM     28  C   UNL A   1      37.938  29.614  30.069  1.00  0.00     0.039 A 
ATOM     29  C   UNL A   1      38.806  29.094  31.030  1.00  0.00     0.014 A 
ATOM     30  C   UNL A   1      38.403  29.927  28.788  1.00  0.00     0.014 A 
ATOM     31  C   UNL A   1      40.127  28.807  30.678  1.00  0.00     0.010 A 
ATOM     32  C   UNL A   1      39.690  29.559  28.416  1.00  0.00     0.010 A 
ATOM     33  C   UNL A   1      40.566  28.994  29.356  1.00  0.00    -0.014 A 
BRANCH  33  34
ATOM     34  C   UNL A   1      41.935  28.608  28.932  1.00  0.00     0.031 A 
ATOM     35  C   UNL A   1      43.025  29.645  28.885  1.00  0.00     0.074 A 
ATOM     36  C   UNL A   1      42.179  27.349  28.517  1.00  0.00     0.049 A 
ATOM     37  N   UNL A   1      44.258  29.526  28.465  1.00  0.00    -0.248 NA
ATOM     38  C   UNL A   1      42.673  31.001  29.339  1.00  0.00     0.031 C 
ATOM     39  C   UNL A   1      41.193  26.266  28.460  1.00  0.00     0.029 A 
ATOM     40  N   UNL A   1      43.333  26.769  28.052  1.00  0.00    -0.354 N 
ATOM     41  C   UNL A   1      44.821  30.791  28.586  1.00  0.00     0.074 A 
ATOM     42  C   UNL A   1      43.780  31.675  29.063  1.00  0.00     0.031 C 
ATOM     43  C   UNL A   1      41.790  25.150  28.013  1.00  0.00     0.029 A 
ATOM     44  C   UNL A   1      43.189  25.443  27.715  1.00  0.00     0.049 A 
ATOM     45  H   UNL A   1      44.185  27.255  27.968  1.00  0.00     0.167 HD
ATOM     46  C   UNL A   1      46.097  31.179  28.349  1.00  0.00     0.031 A 
ATOM     47  C   UNL A   1      44.079  24.563  27.217  1.00  0.00     0.031 A 
ATOM     48  C   UNL A   1      47.135  30.294  27.895  1.00  0.00     0.049 A 
ATOM     49  C   UNL A   1      45.495  25.012  26.978  1.00  0.00     0.074 A 
ATOM     50  C   UNL A   1      48.470  30.578  27.672  1.00  0.00     0.029 A 
ATOM     51  N   UNL A   1      46.955  28.951  27.600  1.00  0.00    -0.354 N 
ATOM     52  N   UNL A   1      46.022  26.200  27.154  1.00  0.00    -0.248 NA
ATOM     53  C   UNL A   1      46.438  23.999  26.484  1.00  0.00     0.031 C 
ATOM     54  C   UNL A   1      49.092  29.415  27.206  1.00  0.00     0.029 A 
ATOM     55  C   UNL A   1      48.153  28.395  27.187  1.00  0.00     0.049 A 
ATOM     56  H   UNL A   1      46.102  28.466  27.674  1.00  0.00     0.167 HD
ATOM     57  C   UNL A   1      47.365  26.071  26.818  1.00  0.00     0.074 A 
ATOM     58  C   UNL A   1      47.572  24.687  26.442  1.00  0.00     0.031 C 
ATOM     59  C   UNL A   1      48.339  27.014  26.818  1.00  0.00     0.031 A 
BRANCH  46  60
ATOM     60  C   UNL A   1      46.434  32.626  28.589  1.00  0.00    -0.014 A 
ATOM     61  C   UNL A   1      46.891  33.062  29.847  1.00  0.00     0.010 A 
ATOM     62  C   UNL A   1      46.318  33.559  27.543  1.00  0.00     0.010 A 
ATOM     63  C   UNL A   1      47.180  34.411  30.068  1.00  0.00     0.020 A 
ATOM     64  C   UNL A   1      46.634  34.905  27.752  1.00  0.00     0.020 A 
ATOM     65  C   UNL A   1      47.045  35.324  29.019  1.00  0.00     0.054 A 
BRANCH  65  66
ATOM     66  S   UNL A   1      47.444  37.066  29.329  1.00  0.00     0.124 S 
ATOM     67  O   UNL A   1      48.655  36.956  30.140  1.00  0.00    -0.237 OA
ATOM     68  O   UNL A   1      47.638  37.596  27.982  1.00  0.00    -0.237 OA
ATOM     69  O   UNL A   1      46.268  37.572  30.031  1.00  0.00    -0.744 OA
ENDBRANCH  65  66
ENDBRANCH  46  60
BRANCH  47  70
ATOM     70  C   UNL A   1      43.662  23.164  26.931  1.00  0.00    -0.014 A 
ATOM     71  C   UNL A   1      44.116  22.505  25.775  1.00  0.00     0.010 A 
ATOM     72  C   UNL A   1      42.817  22.477  27.822  1.00  0.00     0.010 A 
ATOM     73  C   UNL A   1      43.720  21.192  25.506  1.00  0.00     0.020 A 
ATOM     74  C   UNL A   1      42.439  21.154  27.569  1.00  0.00     0.020 A 
ATOM     75  C   UNL A   1      42.884  20.524  26.405  1.00  0.00     0.054 A 
BRANCH  75  76
ATOM     76  S   UNL A   1      42.426  18.802  26.063  1.00  0.00     0.124 S 
ATOM     77  O   UNL A   1      43.318  18.463  24.960  1.00  0.00    -0.237 OA
ATOM     78  O   UNL A   1      42.709  18.139  27.334  1.00  0.00    -0.237 OA
ATOM     79  O   UNL A   1      41.008  18.890  25.720  1.00  0.00    -0.744 OA
ENDBRANCH  75  76
ENDBRANCH  47  70
BRANCH  59  80
ATOM     80  C   UNL A   1      49.726  26.577  26.431  1.00  0.00    -0.014 A 
ATOM     81  C   UNL A   1      50.175  26.673  25.103  1.00  0.00     0.010 A 
ATOM     82  C   UNL A   1      50.610  26.118  27.425  1.00  0.00     0.010 A 
ATOM     83  C   UNL A   1      51.476  26.291  24.769  1.00  0.00     0.020 A 
ATOM     84  C   UNL A   1      51.920  25.758  27.099  1.00  0.00     0.020 A 
ATOM     85  C   UNL A   1      52.341  25.835  25.770  1.00  0.00     0.054 A 
BRANCH  85  86
ATOM     86  S   UNL A   1      54.040  25.389  25.321  1.00  0.00     0.124 S 
ATOM     87  O   UNL A   1      54.727  25.479  26.607  1.00  0.00    -0.237 OA
ATOM     88  O   UNL A   1      53.887  24.039  24.783  1.00  0.00    -0.237 OA
ATOM     89  O   UNL A   1      54.417  26.404  24.340  1.00  0.00    -0.744 OA
ENDBRANCH  85  86
ENDBRANCH  59  80
ENDBRANCH  33  34
ENDBRANCH  25  28
ENDBRANCH  23  24
ENDBRANCH  22  23
ENDBRANCH  21  22
ENDBRANCH   1  21
TORSDOF 19
ENDMDL
