MODEL 1
REMARK VINA RESULT:     -11.0      0.000      0.000
REMARK SMILES CC[C@@H]1CCC[C@@](C[C@@H]2CSc3ccccc32)(C(=O)NCCCCNC(=O)c2ccc(-c3c4nc(c(-c5ccc(S(=O)(=O)[O-])cc5)c5ccc([nH]5)c(-c5ccc(S(=O)(=O)[O-])cc5)c5nc(c(-c6ccc(S(=O)(=O)[O-])cc6)c6ccc3[nH]6)C=C5)C=C4)cc2)C1
REMARK SMILES IDX 23 1 22 2 21 3 20 4 18 5 19 6 7 8 3 9 4 10 88 11 5 12 6 13
REMARK SMILES IDX 2 14 1 15 8 16 9 17 10 18 17 19 11 20 12 21 16 22 13 23
REMARK SMILES IDX 15 24 14 25 24 26 25 27 26 28 27 30 28 31 29 32 87 33 30 34
REMARK SMILES IDX 86 35 31 36 32 37 33 38 80 39 34 40 85 41 79 42 81 43 35 44
REMARK SMILES IDX 84 45 78 46 77 47 36 49 66 50 47 51 65 52 48 53 51 54 64 55
REMARK SMILES IDX 82 56 49 57 50 58 63 60 83 61 52 62 37 63 38 64 46 65 39 66
REMARK SMILES IDX 45 67 40 68 41 69 42 70 43 71 44 72 67 73 68 74 76 75 69 76
REMARK SMILES IDX 75 77 70 78 71 79 72 80 73 81 74 82 53 83 54 84 62 85 55 86
REMARK SMILES IDX 61 87 56 88 57 89 58 90 59 91 60 92
REMARK H PARENT 20 7 25 29 81 48 51 59
REMARK Flexibility Score: inf
ROOT
ATOM      1  C   UNL A   1      35.979  22.475  26.080  1.00  0.00     0.023 C 
ENDROOT
BRANCH   1   2
ATOM      2  C   UNL A   1      34.990  21.617  25.302  1.00  0.00     0.023 C 
BRANCH   2   3
ATOM      3  C   UNL A   1      33.631  22.263  25.071  1.00  0.00     0.116 C 
BRANCH   3   4
ATOM      4  N   UNL A   1      33.024  22.795  26.266  1.00  0.00    -0.356 N 
ATOM      5  C   UNL A   1      32.297  23.937  26.439  1.00  0.00     0.226 C 
ATOM      6  O   UNL A   1      31.701  24.041  27.515  1.00  0.00    -0.274 OA
ATOM      7  H   UNL A   1      33.154  22.253  27.078  1.00  0.00     0.163 HD
BRANCH   5   8
ATOM      8  C   UNL A   1      32.180  25.022  25.319  1.00  0.00     0.050 C 
ATOM      9  C   UNL A   1      32.355  27.049  27.014  1.00  0.00    -0.010 C 
ATOM     10  C   UNL A   1      33.764  27.342  26.494  1.00  0.00     0.003 C 
ATOM     11  C   UNL A   1      31.507  26.291  25.960  1.00  0.00     0.020 C 
ATOM     12  C   UNL A   1      34.430  26.087  25.946  1.00  0.00     0.001 C 
ATOM     13  C   UNL A   1      33.576  25.472  24.838  1.00  0.00     0.017 C 
BRANCH   9  14
ATOM     14  C   UNL A   1      31.596  28.319  27.461  1.00  0.00     0.000 C 
ATOM     15  C   UNL A   1      31.715  29.504  26.513  1.00  0.00     0.004 C 
ENDBRANCH   9  14
BRANCH   8  16
ATOM     16  C   UNL A   1      31.167  24.463  24.229  1.00  0.00     0.026 C 
BRANCH  16  17
ATOM     17  C   UNL A   1      30.776  25.146  22.883  1.00  0.00     0.032 C 
ATOM     18  C   UNL A   1      31.862  25.151  21.782  1.00  0.00     0.083 C 
ATOM     19  C   UNL A   1      30.208  26.537  22.925  1.00  0.00    -0.030 A 
ATOM     20  S   UNL A   1      32.493  26.847  21.626  1.00  0.00    -0.125 SA
ATOM     21  C   UNL A   1      31.025  27.517  22.346  1.00  0.00     0.011 A 
ATOM     22  C   UNL A   1      28.993  26.892  23.499  1.00  0.00     0.005 A 
ATOM     23  C   UNL A   1      30.680  28.858  22.390  1.00  0.00     0.015 A 
ATOM     24  C   UNL A   1      28.628  28.240  23.528  1.00  0.00     0.000 A 
ATOM     25  C   UNL A   1      29.474  29.219  22.989  1.00  0.00     0.001 A 
ENDBRANCH  16  17
ENDBRANCH   8  16
ENDBRANCH   5   8
ENDBRANCH   3   4
ENDBRANCH   2   3
ENDBRANCH   1   2
BRANCH   1  26
ATOM     26  C   UNL A   1      37.216  22.917  25.305  1.00  0.00     0.116 C 
BRANCH  26  27
ATOM     27  N   UNL A   1      38.438  22.192  25.638  1.00  0.00    -0.352 N 
ATOM     28  C   UNL A   1      39.527  22.662  26.347  1.00  0.00     0.251 C 
ATOM     29  H   UNL A   1      38.493  21.262  25.320  1.00  0.00     0.163 HD
ATOM     30  O   UNL A   1      40.510  21.965  26.541  1.00  0.00    -0.269 OA
BRANCH  28  31
ATOM     31  C   UNL A   1      39.488  24.066  26.808  1.00  0.00     0.039 A 
ATOM     32  C   UNL A   1      40.072  25.064  26.028  1.00  0.00     0.014 A 
ATOM     33  C   UNL A   1      39.040  24.336  28.102  1.00  0.00     0.014 A 
ATOM     34  C   UNL A   1      40.400  26.277  26.619  1.00  0.00     0.010 A 
ATOM     35  C   UNL A   1      39.293  25.589  28.664  1.00  0.00     0.010 A 
ATOM     36  C   UNL A   1      40.041  26.542  27.953  1.00  0.00    -0.014 A 
BRANCH  36  37
ATOM     37  C   UNL A   1      40.510  27.794  28.602  1.00  0.00     0.031 A 
ATOM     38  C   UNL A   1      41.967  27.980  28.948  1.00  0.00     0.074 A 
ATOM     39  C   UNL A   1      39.637  28.799  28.807  1.00  0.00     0.049 A 
ATOM     40  N   UNL A   1      42.550  29.003  29.520  1.00  0.00    -0.248 NA
ATOM     41  C   UNL A   1      42.891  26.884  28.608  1.00  0.00     0.031 C 
ATOM     42  C   UNL A   1      38.215  28.756  28.463  1.00  0.00     0.029 A 
ATOM     43  N   UNL A   1      39.821  30.060  29.311  1.00  0.00    -0.354 N 
ATOM     44  C   UNL A   1      43.895  28.667  29.629  1.00  0.00     0.074 A 
ATOM     45  C   UNL A   1      44.044  27.337  29.083  1.00  0.00     0.031 C 
ATOM     46  C   UNL A   1      37.671  29.958  28.700  1.00  0.00     0.029 A 
ATOM     47  C   UNL A   1      38.684  30.832  29.288  1.00  0.00     0.049 A 
ATOM     48  H   UNL A   1      40.685  30.382  29.658  1.00  0.00     0.167 HD
ATOM     49  C   UNL A   1      44.913  29.405  30.130  1.00  0.00     0.031 A 
ATOM     50  C   UNL A   1      38.467  32.096  29.701  1.00  0.00     0.031 A 
ATOM     51  C   UNL A   1      44.763  30.739  30.651  1.00  0.00     0.049 A 
ATOM     52  C   UNL A   1      39.597  32.872  30.307  1.00  0.00     0.074 A 
ATOM     53  C   UNL A   1      45.737  31.562  31.189  1.00  0.00     0.029 A 
ATOM     54  N   UNL A   1      43.573  31.449  30.688  1.00  0.00    -0.354 N 
ATOM     55  N   UNL A   1      40.851  32.517  30.447  1.00  0.00    -0.248 NA
ATOM     56  C   UNL A   1      39.286  34.212  30.824  1.00  0.00     0.031 C 
ATOM     57  C   UNL A   1      45.128  32.751  31.595  1.00  0.00     0.029 A 
ATOM     58  C   UNL A   1      43.786  32.693  31.256  1.00  0.00     0.049 A 
ATOM     59  H   UNL A   1      42.706  31.119  30.358  1.00  0.00     0.167 HD
ATOM     60  C   UNL A   1      41.480  33.588  31.068  1.00  0.00     0.074 A 
ATOM     61  C   UNL A   1      40.475  34.613  31.260  1.00  0.00     0.031 C 
ATOM     62  C   UNL A   1      42.776  33.703  31.449  1.00  0.00     0.031 A 
BRANCH  49  63
ATOM     63  C   UNL A   1      46.292  28.800  30.155  1.00  0.00    -0.014 A 
ATOM     64  C   UNL A   1      46.727  28.104  31.298  1.00  0.00     0.010 A 
ATOM     65  C   UNL A   1      47.197  29.014  29.100  1.00  0.00     0.010 A 
ATOM     66  C   UNL A   1      48.046  27.654  31.399  1.00  0.00     0.020 A 
ATOM     67  C   UNL A   1      48.512  28.544  29.186  1.00  0.00     0.020 A 
ATOM     68  C   UNL A   1      48.933  27.885  30.345  1.00  0.00     0.054 A 
BRANCH  68  69
ATOM     69  S   UNL A   1      50.645  27.300  30.492  1.00  0.00     0.124 S 
ATOM     70  O   UNL A   1      50.894  26.739  29.167  1.00  0.00    -0.237 OA
ATOM     71  O   UNL A   1      51.378  28.522  30.809  1.00  0.00    -0.237 OA
ATOM     72  O   UNL A   1      50.578  26.327  31.581  1.00  0.00    -0.744 OA
ENDBRANCH  68  69
ENDBRANCH  49  63
BRANCH  50  73
ATOM     73  C   UNL A   1      37.109  32.680  29.538  1.00  0.00    -0.014 A 
ATOM     74  C   UNL A   1      36.780  33.390  28.368  1.00  0.00     0.010 A 
ATOM     75  C   UNL A   1      36.184  32.629  30.593  1.00  0.00     0.010 A 
ATOM     76  C   UNL A   1      35.579  34.098  28.284  1.00  0.00     0.020 A 
ATOM     77  C   UNL A   1      34.968  33.314  30.501  1.00  0.00     0.020 A 
ATOM     78  C   UNL A   1      34.690  34.072  29.361  1.00  0.00     0.054 A 
BRANCH  78  79
ATOM     79  S   UNL A   1      33.170  35.057  29.264  1.00  0.00     0.124 S 
ATOM     80  O   UNL A   1      32.385  34.299  28.293  1.00  0.00    -0.237 OA
ATOM     81  O   UNL A   1      32.674  35.023  30.637  1.00  0.00    -0.237 OA
ATOM     82  O   UNL A   1      33.641  36.363  28.807  1.00  0.00    -0.744 OA
ENDBRANCH  78  79
ENDBRANCH  50  73
BRANCH  62  83
ATOM     83  C   UNL A   1      43.207  34.976  32.123  1.00  0.00    -0.014 A 
ATOM     84  C   UNL A   1      42.890  35.191  33.477  1.00  0.00     0.010 A 
ATOM     85  C   UNL A   1      43.791  36.016  31.378  1.00  0.00     0.010 A 
ATOM     86  C   UNL A   1      43.112  36.438  34.065  1.00  0.00     0.020 A 
ATOM     87  C   UNL A   1      44.035  37.257  31.970  1.00  0.00     0.020 A 
ATOM     88  C   UNL A   1      43.668  37.468  33.302  1.00  0.00     0.054 A 
BRANCH  88  89
ATOM     89  S   UNL A   1      43.901  39.097  34.067  1.00  0.00     0.124 S 
ATOM     90  O   UNL A   1      44.032  38.756  35.480  1.00  0.00    -0.237 OA
ATOM     91  O   UNL A   1      45.117  39.586  33.421  1.00  0.00    -0.237 OA
ATOM     92  O   UNL A   1      42.683  39.820  33.708  1.00  0.00    -0.744 OA
ENDBRANCH  88  89
ENDBRANCH  62  83
ENDBRANCH  36  37
ENDBRANCH  28  31
ENDBRANCH  26  27
ENDBRANCH   1  26
TORSDOF 17
ENDMDL
MODEL 2
REMARK VINA RESULT:     -11.0      1.535      3.241
REMARK SMILES CC[C@@H]1CCC[C@@](C[C@@H]2CSc3ccccc32)(C(=O)NCCCCNC(=O)c2ccc(-c3c4nc(c(-c5ccc(S(=O)(=O)[O-])cc5)c5ccc([nH]5)c(-c5ccc(S(=O)(=O)[O-])cc5)c5nc(c(-c6ccc(S(=O)(=O)[O-])cc6)c6ccc3[nH]6)C=C5)C=C4)cc2)C1
REMARK SMILES IDX 23 1 22 2 21 3 20 4 18 5 19 6 7 8 3 9 4 10 88 11 5 12 6 13
REMARK SMILES IDX 2 14 1 15 8 16 9 17 10 18 17 19 11 20 12 21 16 22 13 23
REMARK SMILES IDX 15 24 14 25 24 26 25 27 26 28 27 30 28 31 29 32 87 33 30 34
REMARK SMILES IDX 86 35 31 36 32 37 33 38 80 39 34 40 85 41 79 42 81 43 35 44
REMARK SMILES IDX 84 45 78 46 77 47 36 49 66 50 47 51 65 52 48 53 51 54 64 55
REMARK SMILES IDX 82 56 49 57 50 58 63 60 83 61 52 62 37 63 38 64 46 65 39 66
REMARK SMILES IDX 45 67 40 68 41 69 42 70 43 71 44 72 67 73 68 74 76 75 69 76
REMARK SMILES IDX 75 77 70 78 71 79 72 80 73 81 74 82 53 83 54 84 62 85 55 86
REMARK SMILES IDX 61 87 56 88 57 89 58 90 59 91 60 92
REMARK H PARENT 20 7 25 29 81 48 51 59
REMARK Flexibility Score: inf
ROOT
ATOM      1  C   UNL A   1      37.157  23.534  24.909  1.00  0.00     0.023 C 
ENDROOT
BRANCH   1   2
ATOM      2  C   UNL A   1      36.719  22.904  23.594  1.00  0.00     0.023 C 
BRANCH   2   3
ATOM      3  C   UNL A   1      35.347  23.345  23.103  1.00  0.00     0.116 C 
BRANCH   3   4
ATOM      4  N   UNL A   1      34.684  24.280  23.978  1.00  0.00    -0.356 N 
ATOM      5  C   UNL A   1      33.369  24.641  24.029  1.00  0.00     0.226 C 
ATOM      6  O   UNL A   1      33.025  25.289  25.021  1.00  0.00    -0.274 OA
ATOM      7  H   UNL A   1      35.267  24.723  24.636  1.00  0.00     0.163 HD
BRANCH   5   8
ATOM      8  C   UNL A   1      32.348  24.211  22.926  1.00  0.00     0.050 C 
ATOM      9  C   UNL A   1      30.575  26.063  23.589  1.00  0.00    -0.010 C 
ATOM     10  C   UNL A   1      30.917  26.827  22.308  1.00  0.00     0.003 C 
ATOM     11  C   UNL A   1      30.906  24.554  23.457  1.00  0.00     0.020 C 
ATOM     12  C   UNL A   1      32.340  26.542  21.851  1.00  0.00     0.001 C 
ATOM     13  C   UNL A   1      32.541  25.042  21.640  1.00  0.00     0.017 C 
BRANCH   9  14
ATOM     14  C   UNL A   1      29.099  26.224  24.018  1.00  0.00     0.000 C 
ATOM     15  C   UNL A   1      28.411  27.475  23.490  1.00  0.00     0.004 C 
ENDBRANCH   9  14
BRANCH   8  16
ATOM     16  C   UNL A   1      32.430  22.628  22.804  1.00  0.00     0.026 C 
BRANCH  16  17
ATOM     17  C   UNL A   1      32.082  21.588  23.913  1.00  0.00     0.032 C 
ATOM     18  C   UNL A   1      32.470  21.980  25.358  1.00  0.00     0.083 C 
ATOM     19  C   UNL A   1      32.528  20.166  23.725  1.00  0.00    -0.030 A 
ATOM     20  S   UNL A   1      33.887  20.957  25.854  1.00  0.00    -0.125 SA
ATOM     21  C   UNL A   1      33.497  19.733  24.641  1.00  0.00     0.011 A 
ATOM     22  C   UNL A   1      32.077  19.307  22.729  1.00  0.00     0.005 A 
ATOM     23  C   UNL A   1      34.072  18.478  24.539  1.00  0.00     0.015 A 
ATOM     24  C   UNL A   1      32.637  18.031  22.633  1.00  0.00     0.000 A 
ATOM     25  C   UNL A   1      33.640  17.624  23.524  1.00  0.00     0.001 A 
ENDBRANCH  16  17
ENDBRANCH   8  16
ENDBRANCH   5   8
ENDBRANCH   3   4
ENDBRANCH   2   3
ENDBRANCH   1   2
BRANCH   1  26
ATOM     26  C   UNL A   1      37.564  22.554  26.003  1.00  0.00     0.116 C 
BRANCH  26  27
ATOM     27  N   UNL A   1      38.927  22.045  25.894  1.00  0.00    -0.352 N 
ATOM     28  C   UNL A   1      40.096  22.692  26.246  1.00  0.00     0.251 C 
ATOM     29  H   UNL A   1      39.025  21.137  25.526  1.00  0.00     0.163 HD
ATOM     30  O   UNL A   1      41.187  22.170  26.083  1.00  0.00    -0.269 OA
BRANCH  28  31
ATOM     31  C   UNL A   1      39.984  24.070  26.770  1.00  0.00     0.039 A 
ATOM     32  C   UNL A   1      40.373  25.145  25.970  1.00  0.00     0.014 A 
ATOM     33  C   UNL A   1      39.674  24.253  28.119  1.00  0.00     0.014 A 
ATOM     34  C   UNL A   1      40.657  26.364  26.571  1.00  0.00     0.010 A 
ATOM     35  C   UNL A   1      39.877  25.505  28.701  1.00  0.00     0.010 A 
ATOM     36  C   UNL A   1      40.440  26.549  27.948  1.00  0.00    -0.014 A 
BRANCH  36  37
ATOM     37  C   UNL A   1      40.867  27.819  28.592  1.00  0.00     0.031 A 
ATOM     38  C   UNL A   1      42.317  28.057  28.935  1.00  0.00     0.074 A 
ATOM     39  C   UNL A   1      39.961  28.795  28.794  1.00  0.00     0.049 A 
ATOM     40  N   UNL A   1      42.866  29.102  29.502  1.00  0.00    -0.248 NA
ATOM     41  C   UNL A   1      43.278  26.992  28.598  1.00  0.00     0.031 C 
ATOM     42  C   UNL A   1      38.540  28.702  28.453  1.00  0.00     0.029 A 
ATOM     43  N   UNL A   1      40.102  30.064  29.293  1.00  0.00    -0.354 N 
ATOM     44  C   UNL A   1      44.222  28.813  29.609  1.00  0.00     0.074 A 
ATOM     45  C   UNL A   1      44.415  27.486  29.069  1.00  0.00     0.031 C 
ATOM     46  C   UNL A   1      37.956  29.886  28.686  1.00  0.00     0.029 A 
ATOM     47  C   UNL A   1      38.939  30.796  29.268  1.00  0.00     0.049 A 
ATOM     48  H   UNL A   1      40.955  30.417  29.636  1.00  0.00     0.167 HD
ATOM     49  C   UNL A   1      45.215  29.588  30.105  1.00  0.00     0.031 A 
ATOM     50  C   UNL A   1      38.680  32.053  29.677  1.00  0.00     0.031 A 
ATOM     51  C   UNL A   1      45.020  30.917  30.622  1.00  0.00     0.049 A 
ATOM     52  C   UNL A   1      39.783  32.871  30.277  1.00  0.00     0.074 A 
ATOM     53  C   UNL A   1      45.966  31.776  31.155  1.00  0.00     0.029 A 
ATOM     54  N   UNL A   1      43.807  31.587  30.657  1.00  0.00    -0.354 N 
ATOM     55  N   UNL A   1      41.049  32.559  30.417  1.00  0.00    -0.248 NA
ATOM     56  C   UNL A   1      39.427  34.201  30.789  1.00  0.00     0.031 C 
ATOM     57  C   UNL A   1      45.317  32.945  31.557  1.00  0.00     0.029 A 
ATOM     58  C   UNL A   1      43.977  32.840  31.220  1.00  0.00     0.049 A 
ATOM     59  H   UNL A   1      42.951  31.225  30.331  1.00  0.00     0.167 HD
ATOM     60  C   UNL A   1      41.642  33.654  31.032  1.00  0.00     0.074 A 
ATOM     61  C   UNL A   1      40.602  34.644  31.222  1.00  0.00     0.031 C 
ATOM     62  C   UNL A   1      42.933  33.815  31.410  1.00  0.00     0.031 A 
BRANCH  49  63
ATOM     63  C   UNL A   1      46.614  29.030  30.131  1.00  0.00    -0.014 A 
ATOM     64  C   UNL A   1      47.440  29.169  29.000  1.00  0.00     0.010 A 
ATOM     65  C   UNL A   1      47.073  28.274  31.223  1.00  0.00     0.010 A 
ATOM     66  C   UNL A   1      48.689  28.544  28.949  1.00  0.00     0.020 A 
ATOM     67  C   UNL A   1      48.332  27.666  31.187  1.00  0.00     0.020 A 
ATOM     68  C   UNL A   1      49.123  27.787  30.041  1.00  0.00     0.054 A 
BRANCH  68  69
ATOM     69  S   UNL A   1      50.744  26.976  29.959  1.00  0.00     0.124 S 
ATOM     70  O   UNL A   1      50.388  25.614  29.575  1.00  0.00    -0.237 OA
ATOM     71  O   UNL A   1      51.445  27.757  28.943  1.00  0.00    -0.237 OA
ATOM     72  O   UNL A   1      51.268  27.128  31.315  1.00  0.00    -0.744 OA
ENDBRANCH  68  69
ENDBRANCH  49  63
BRANCH  50  73
ATOM     73  C   UNL A   1      37.302  32.590  29.513  1.00  0.00    -0.014 A 
ATOM     74  C   UNL A   1      36.900  33.145  28.283  1.00  0.00     0.010 A 
ATOM     75  C   UNL A   1      36.431  32.654  30.613  1.00  0.00     0.010 A 
ATOM     76  C   UNL A   1      35.680  33.817  28.176  1.00  0.00     0.020 A 
ATOM     77  C   UNL A   1      35.197  33.302  30.500  1.00  0.00     0.020 A 
ATOM     78  C   UNL A   1      34.846  33.909  29.292  1.00  0.00     0.054 A 
BRANCH  78  79
ATOM     79  S   UNL A   1      33.301  34.848  29.153  1.00  0.00     0.124 S 
ATOM     80  O   UNL A   1      32.561  34.062  28.169  1.00  0.00    -0.237 OA
ATOM     81  O   UNL A   1      32.774  34.808  30.515  1.00  0.00    -0.237 OA
ATOM     82  O   UNL A   1      33.744  36.164  28.699  1.00  0.00    -0.744 OA
ENDBRANCH  78  79
ENDBRANCH  50  73
BRANCH  62  83
ATOM     83  C   UNL A   1      43.322  35.105  32.078  1.00  0.00    -0.014 A 
ATOM     84  C   UNL A   1      43.077  35.281  33.453  1.00  0.00     0.010 A 
ATOM     85  C   UNL A   1      43.789  36.191  31.317  1.00  0.00     0.010 A 
ATOM     86  C   UNL A   1      43.253  36.532  34.047  1.00  0.00     0.020 A 
ATOM     87  C   UNL A   1      43.987  37.438  31.914  1.00  0.00     0.020 A 
ATOM     88  C   UNL A   1      43.691  37.606  33.270  1.00  0.00     0.054 A 
BRANCH  88  89
ATOM     89  S   UNL A   1      43.865  39.237  34.046  1.00  0.00     0.124 S 
ATOM     90  O   UNL A   1      42.651  39.918  33.604  1.00  0.00    -0.237 OA
ATOM     91  O   UNL A   1      43.921  38.913  35.470  1.00  0.00    -0.237 OA
ATOM     92  O   UNL A   1      45.111  39.752  33.484  1.00  0.00    -0.744 OA
ENDBRANCH  88  89
ENDBRANCH  62  83
ENDBRANCH  36  37
ENDBRANCH  28  31
ENDBRANCH  26  27
ENDBRANCH   1  26
TORSDOF 17
ENDMDL
MODEL 3
REMARK VINA RESULT:     -10.9      2.706      9.143
REMARK SMILES CC[C@@H]1CCC[C@@](C[C@@H]2CSc3ccccc32)(C(=O)NCCCCNC(=O)c2ccc(-c3c4nc(c(-c5ccc(S(=O)(=O)[O-])cc5)c5ccc([nH]5)c(-c5ccc(S(=O)(=O)[O-])cc5)c5nc(c(-c6ccc(S(=O)(=O)[O-])cc6)c6ccc3[nH]6)C=C5)C=C4)cc2)C1
REMARK SMILES IDX 23 1 22 2 21 3 20 4 18 5 19 6 7 8 3 9 4 10 88 11 5 12 6 13
REMARK SMILES IDX 2 14 1 15 8 16 9 17 10 18 17 19 11 20 12 21 16 22 13 23
REMARK SMILES IDX 15 24 14 25 24 26 25 27 26 28 27 30 28 31 29 32 87 33 30 34
REMARK SMILES IDX 86 35 31 36 32 37 33 38 80 39 34 40 85 41 79 42 81 43 35 44
REMARK SMILES IDX 84 45 78 46 77 47 36 49 66 50 47 51 65 52 48 53 51 54 64 55
REMARK SMILES IDX 82 56 49 57 50 58 63 60 83 61 52 62 37 63 38 64 46 65 39 66
REMARK SMILES IDX 45 67 40 68 41 69 42 70 43 71 44 72 67 73 68 74 76 75 69 76
REMARK SMILES IDX 75 77 70 78 71 79 72 80 73 81 74 82 53 83 54 84 62 85 55 86
REMARK SMILES IDX 61 87 56 88 57 89 58 90 59 91 60 92
REMARK H PARENT 20 7 25 29 81 48 51 59
REMARK Flexibility Score: inf
ROOT
ATOM      1  C   UNL A   1      33.268  28.512  27.247  1.00  0.00     0.023 C 
ENDROOT
BRANCH   1   2
ATOM      2  C   UNL A   1      31.850  27.998  27.032  1.00  0.00     0.023 C 
BRANCH   2   3
ATOM      3  C   UNL A   1      31.762  26.541  26.600  1.00  0.00     0.116 C 
BRANCH   3   4
ATOM      4  N   UNL A   1      33.021  25.975  26.185  1.00  0.00    -0.356 N 
ATOM      5  C   UNL A   1      33.291  24.745  25.659  1.00  0.00     0.226 C 
ATOM      6  O   UNL A   1      34.418  24.598  25.178  1.00  0.00    -0.274 OA
ATOM      7  H   UNL A   1      33.802  26.564  26.296  1.00  0.00     0.163 HD
BRANCH   5   8
ATOM      8  C   UNL A   1      32.218  23.608  25.619  1.00  0.00     0.050 C 
ATOM      9  C   UNL A   1      34.017  21.668  25.493  1.00  0.00    -0.010 C 
ATOM     10  C   UNL A   1      33.682  21.285  26.936  1.00  0.00     0.003 C 
ATOM     11  C   UNL A   1      32.835  22.405  24.812  1.00  0.00     0.020 C 
ATOM     12  C   UNL A   1      33.158  22.478  27.723  1.00  0.00     0.001 C 
ATOM     13  C   UNL A   1      31.929  23.070  27.036  1.00  0.00     0.017 C 
BRANCH   9  14
ATOM     14  C   UNL A   1      34.431  20.459  24.624  1.00  0.00     0.000 C 
ATOM     15  C   UNL A   1      33.694  19.164  24.935  1.00  0.00     0.004 C 
ENDBRANCH   9  14
BRANCH   8  16
ATOM     16  C   UNL A   1      30.991  24.152  24.768  1.00  0.00     0.026 C 
BRANCH  16  17
ATOM     17  C   UNL A   1      31.052  24.793  23.348  1.00  0.00     0.032 C 
ATOM     18  C   UNL A   1      32.296  24.444  22.497  1.00  0.00     0.083 C 
ATOM     19  C   UNL A   1      30.855  26.277  23.223  1.00  0.00    -0.030 A 
ATOM     20  S   UNL A   1      33.351  25.920  22.419  1.00  0.00    -0.125 SA
ATOM     21  C   UNL A   1      31.989  26.981  22.794  1.00  0.00     0.011 A 
ATOM     22  C   UNL A   1      29.681  26.961  23.520  1.00  0.00     0.005 A 
ATOM     23  C   UNL A   1      31.991  28.364  22.719  1.00  0.00     0.015 A 
ATOM     24  C   UNL A   1      29.669  28.354  23.426  1.00  0.00     0.000 A 
ATOM     25  C   UNL A   1      30.822  29.053  23.042  1.00  0.00     0.001 A 
ENDBRANCH  16  17
ENDBRANCH   8  16
ENDBRANCH   5   8
ENDBRANCH   3   4
ENDBRANCH   2   3
ENDBRANCH   1   2
BRANCH   1  26
ATOM     26  C   UNL A   1      33.602  29.826  26.549  1.00  0.00     0.116 C 
BRANCH  26  27
ATOM     27  N   UNL A   1      33.623  30.995  27.421  1.00  0.00    -0.352 N 
ATOM     28  C   UNL A   1      34.614  31.361  28.312  1.00  0.00     0.251 C 
ATOM     29  H   UNL A   1      32.842  31.592  27.369  1.00  0.00     0.163 HD
ATOM     30  O   UNL A   1      34.506  32.355  29.012  1.00  0.00    -0.269 OA
BRANCH  28  31
ATOM     31  C   UNL A   1      35.784  30.467  28.437  1.00  0.00     0.039 A 
ATOM     32  C   UNL A   1      35.950  29.707  29.595  1.00  0.00     0.014 A 
ATOM     33  C   UNL A   1      36.797  30.548  27.480  1.00  0.00     0.014 A 
ATOM     34  C   UNL A   1      37.208  29.200  29.894  1.00  0.00     0.010 A 
ATOM     35  C   UNL A   1      38.036  29.961  27.746  1.00  0.00     0.010 A 
ATOM     36  C   UNL A   1      38.272  29.347  28.987  1.00  0.00    -0.014 A 
BRANCH  36  37
ATOM     37  C   UNL A   1      39.637  28.908  29.382  1.00  0.00     0.031 A 
ATOM     38  C   UNL A   1      40.462  29.732  30.338  1.00  0.00     0.074 A 
ATOM     39  C   UNL A   1      40.101  27.723  28.942  1.00  0.00     0.049 A 
ATOM     40  N   UNL A   1      41.671  29.503  30.787  1.00  0.00    -0.248 NA
ATOM     41  C   UNL A   1      39.858  30.970  30.863  1.00  0.00     0.031 C 
ATOM     42  C   UNL A   1      39.372  26.812  28.058  1.00  0.00     0.029 A 
ATOM     43  N   UNL A   1      41.273  27.062  29.209  1.00  0.00    -0.354 N 
ATOM     44  C   UNL A   1      41.979  30.571  31.623  1.00  0.00     0.074 A 
ATOM     45  C   UNL A   1      40.841  31.463  31.607  1.00  0.00     0.031 C 
ATOM     46  C   UNL A   1      40.080  25.683  27.912  1.00  0.00     0.029 A 
ATOM     47  C   UNL A   1      41.348  25.821  28.625  1.00  0.00     0.049 A 
ATOM     48  H   UNL A   1      41.992  27.441  29.765  1.00  0.00     0.167 HD
ATOM     49  C   UNL A   1      43.104  30.783  32.344  1.00  0.00     0.031 A 
ATOM     50  C   UNL A   1      42.327  24.895  28.643  1.00  0.00     0.031 A 
ATOM     51  C   UNL A   1      44.226  29.880  32.374  1.00  0.00     0.049 A 
ATOM     52  C   UNL A   1      43.588  25.178  29.401  1.00  0.00     0.074 A 
ATOM     53  C   UNL A   1      45.415  30.016  33.070  1.00  0.00     0.029 A 
ATOM     54  N   UNL A   1      44.293  28.673  31.696  1.00  0.00    -0.354 N 
ATOM     55  N   UNL A   1      43.880  26.218  30.144  1.00  0.00    -0.248 NA
ATOM     56  C   UNL A   1      44.659  24.176  29.315  1.00  0.00     0.031 C 
ATOM     57  C   UNL A   1      46.221  28.914  32.774  1.00  0.00     0.029 A 
ATOM     58  C   UNL A   1      45.511  28.064  31.942  1.00  0.00     0.049 A 
ATOM     59  H   UNL A   1      43.581  28.305  31.124  1.00  0.00     0.167 HD
ATOM     60  C   UNL A   1      45.168  25.996  30.615  1.00  0.00     0.074 A 
ATOM     61  C   UNL A   1      45.593  24.715  30.090  1.00  0.00     0.031 C 
ATOM     62  C   UNL A   1      45.927  26.791  31.407  1.00  0.00     0.031 A 
BRANCH  49  63
ATOM     63  C   UNL A   1      43.204  32.042  33.164  1.00  0.00    -0.014 A 
ATOM     64  C   UNL A   1      43.792  33.192  32.606  1.00  0.00     0.010 A 
ATOM     65  C   UNL A   1      42.821  32.058  34.517  1.00  0.00     0.010 A 
ATOM     66  C   UNL A   1      44.020  34.327  33.389  1.00  0.00     0.020 A 
ATOM     67  C   UNL A   1      43.025  33.201  35.299  1.00  0.00     0.020 A 
ATOM     68  C   UNL A   1      43.642  34.321  34.735  1.00  0.00     0.054 A 
BRANCH  68  69
ATOM     69  S   UNL A   1      43.948  35.799  35.741  1.00  0.00     0.124 S 
ATOM     70  O   UNL A   1      44.966  36.497  34.963  1.00  0.00    -0.237 OA
ATOM     71  O   UNL A   1      42.636  36.439  35.783  1.00  0.00    -0.237 OA
ATOM     72  O   UNL A   1      44.402  35.251  37.018  1.00  0.00    -0.744 OA
ENDBRANCH  68  69
ENDBRANCH  49  63
BRANCH  50  73
ATOM     73  C   UNL A   1      42.118  23.617  27.911  1.00  0.00    -0.014 A 
ATOM     74  C   UNL A   1      41.304  22.609  28.463  1.00  0.00     0.010 A 
ATOM     75  C   UNL A   1      42.821  23.358  26.723  1.00  0.00     0.010 A 
ATOM     76  C   UNL A   1      41.252  21.342  27.878  1.00  0.00     0.020 A 
ATOM     77  C   UNL A   1      42.749  22.098  26.120  1.00  0.00     0.020 A 
ATOM     78  C   UNL A   1      41.993  21.089  26.721  1.00  0.00     0.054 A 
BRANCH  78  79
ATOM     79  S   UNL A   1      41.971  19.418  26.018  1.00  0.00     0.124 S 
ATOM     80  O   UNL A   1      42.552  18.630  27.102  1.00  0.00    -0.237 OA
ATOM     81  O   UNL A   1      40.550  19.191  25.767  1.00  0.00    -0.237 OA
ATOM     82  O   UNL A   1      42.800  19.542  24.821  1.00  0.00    -0.744 OA
ENDBRANCH  78  79
ENDBRANCH  50  73
BRANCH  62  83
ATOM     83  C   UNL A   1      47.310  26.322  31.767  1.00  0.00    -0.014 A 
ATOM     84  C   UNL A   1      48.352  26.438  30.828  1.00  0.00     0.010 A 
ATOM     85  C   UNL A   1      47.541  25.636  32.972  1.00  0.00     0.010 A 
ATOM     86  C   UNL A   1      49.590  25.838  31.069  1.00  0.00     0.020 A 
ATOM     87  C   UNL A   1      48.786  25.054  33.225  1.00  0.00     0.020 A 
ATOM     88  C   UNL A   1      49.793  25.136  32.260  1.00  0.00     0.054 A 
BRANCH  88  89
ATOM     89  S   UNL A   1      51.389  24.319  32.534  1.00  0.00     0.124 S 
ATOM     90  O   UNL A   1      51.546  24.432  33.981  1.00  0.00    -0.237 OA
ATOM     91  O   UNL A   1      51.152  22.968  32.031  1.00  0.00    -0.237 OA
ATOM     92  O   UNL A   1      52.322  25.116  31.740  1.00  0.00    -0.744 OA
ENDBRANCH  88  89
ENDBRANCH  62  83
ENDBRANCH  36  37
ENDBRANCH  28  31
ENDBRANCH  26  27
ENDBRANCH   1  26
TORSDOF 17
ENDMDL
