MODEL 1
REMARK VINA RESULT:     -11.0      0.000      0.000
REMARK SMILES COc1ccc(S(=O)(=O)N[C@H]2C=C[C@@H](C(=O)NCCCCNC(=O)c3ccc(-c4c5nc(c(-c6ccc(S(=O)(=O)[O-])cc6)c6ccc([nH]6)c(-c6ccc(S(=O)(=O)[O-])cc6)c6nc(c(-c7ccc(S(=O)(=O)[O-])cc7)c7ccc4[nH]7)C=C6)C=C5)cc3)C2)cc1
REMARK SMILES IDX 19 1 18 2 17 3 15 4 16 5 14 7 11 8 12 9 85 10 13 11 10 12
REMARK SMILES IDX 7 14 8 15 9 16 6 17 3 18 4 19 87 20 5 21 86 22 2 23 1 24
REMARK SMILES IDX 20 25 21 26 22 27 23 28 24 30 25 31 26 32 84 33 27 34 83 35
REMARK SMILES IDX 28 36 29 37 30 38 77 39 31 40 82 41 76 42 78 43 32 44 81 45
REMARK SMILES IDX 75 46 74 47 33 49 63 50 44 51 62 52 45 53 48 54 61 55 79 56
REMARK SMILES IDX 46 57 47 58 60 60 80 61 49 62 34 63 35 64 43 65 36 66 42 67
REMARK SMILES IDX 37 68 38 69 39 70 40 71 41 72 64 73 65 74 73 75 66 76 72 77
REMARK SMILES IDX 67 78 68 79 69 80 70 81 71 82 50 83 51 84 59 85 52 86 58 87
REMARK SMILES IDX 53 88 54 89 55 90 56 91 57 92
REMARK H PARENT 17 6 10 13 22 29 78 48 48 59
REMARK Flexibility Score: inf
ROOT
ATOM      1  C   UNL A   1      35.341  22.176  26.442  1.00  0.00     0.023 C 
ENDROOT
BRANCH   1   2
ATOM      2  C   UNL A   1      33.879  21.978  26.839  1.00  0.00     0.116 C 
BRANCH   2   3
ATOM      3  N   UNL A   1      33.377  20.685  26.416  1.00  0.00    -0.356 N 
ATOM      4  C   UNL A   1      32.611  20.330  25.351  1.00  0.00     0.226 C 
ATOM      5  O   UNL A   1      32.347  19.129  25.216  1.00  0.00    -0.274 OA
ATOM      6  H   UNL A   1      33.636  19.935  26.999  1.00  0.00     0.163 HD
BRANCH   4   7
ATOM      7  C   UNL A   1      32.074  21.341  24.332  1.00  0.00     0.103 C 
ATOM      8  C   UNL A   1      31.805  23.800  24.329  1.00  0.00     0.093 C 
ATOM      9  C   UNL A   1      32.994  23.354  23.553  1.00  0.00    -0.011 C 
ATOM     10  C   UNL A   1      31.245  22.486  24.921  1.00  0.00     0.042 C 
ATOM     11  C   UNL A   1      33.142  22.025  23.543  1.00  0.00    -0.016 C 
BRANCH   8  12
ATOM     12  N   UNL A   1      32.119  24.706  25.423  1.00  0.00    -0.204 NA
ATOM     13  H   UNL A   1      32.400  24.102  26.197  1.00  0.00     0.142 HD
BRANCH  12  14
ATOM     14  S   UNL A   1      31.085  25.827  26.099  1.00  0.00     0.241 S 
ATOM     15  O   UNL A   1      31.819  26.592  27.081  1.00  0.00    -0.207 OA
ATOM     16  O   UNL A   1      29.896  25.084  26.451  1.00  0.00    -0.207 OA
BRANCH  14  17
ATOM     17  C   UNL A   1      30.620  26.931  24.792  1.00  0.00     0.082 A 
ATOM     18  C   UNL A   1      29.970  28.685  22.711  1.00  0.00     0.118 A 
ATOM     19  C   UNL A   1      31.221  28.757  23.330  1.00  0.00     0.048 A 
ATOM     20  C   UNL A   1      29.046  27.728  23.137  1.00  0.00     0.048 A 
ATOM     21  C   UNL A   1      31.552  27.883  24.367  1.00  0.00     0.025 A 
ATOM     22  C   UNL A   1      29.362  26.863  24.191  1.00  0.00     0.025 A 
BRANCH  18  23
ATOM     23  O   UNL A   1      29.777  29.584  21.699  1.00  0.00    -0.497 OA
ATOM     24  C   UNL A   1      28.448  30.056  21.518  1.00  0.00     0.278 C 
ENDBRANCH  18  23
ENDBRANCH  14  17
ENDBRANCH  12  14
ENDBRANCH   8  12
ENDBRANCH   4   7
ENDBRANCH   2   3
ENDBRANCH   1   2
BRANCH   1  25
ATOM     25  C   UNL A   1      35.689  23.594  25.988  1.00  0.00     0.023 C 
BRANCH  25  26
ATOM     26  C   UNL A   1      36.986  23.723  25.195  1.00  0.00     0.116 C 
BRANCH  26  27
ATOM     27  N   UNL A   1      37.987  22.737  25.572  1.00  0.00    -0.352 N 
ATOM     28  C   UNL A   1      39.149  22.921  26.283  1.00  0.00     0.251 C 
ATOM     29  H   UNL A   1      37.809  21.814  25.277  1.00  0.00     0.163 HD
ATOM     30  O   UNL A   1      39.950  22.001  26.410  1.00  0.00    -0.269 OA
BRANCH  28  31
ATOM     31  C   UNL A   1      39.442  24.249  26.864  1.00  0.00     0.039 A 
ATOM     32  C   UNL A   1      39.008  24.525  28.163  1.00  0.00     0.014 A 
ATOM     33  C   UNL A   1      40.165  25.202  26.143  1.00  0.00     0.014 A 
ATOM     34  C   UNL A   1      39.360  25.737  28.763  1.00  0.00     0.010 A 
ATOM     35  C   UNL A   1      40.575  26.376  26.768  1.00  0.00     0.010 A 
ATOM     36  C   UNL A   1      40.177  26.655  28.085  1.00  0.00    -0.014 A 
BRANCH  36  37
ATOM     37  C   UNL A   1      40.631  27.909  28.736  1.00  0.00     0.031 A 
ATOM     38  C   UNL A   1      42.024  28.007  29.297  1.00  0.00     0.074 A 
ATOM     39  C   UNL A   1      39.771  28.937  28.880  1.00  0.00     0.049 A 
ATOM     40  N   UNL A   1      42.583  28.995  29.949  1.00  0.00    -0.248 NA
ATOM     41  C   UNL A   1      42.894  26.832  29.127  1.00  0.00     0.031 C 
ATOM     42  C   UNL A   1      38.381  28.949  28.418  1.00  0.00     0.029 A 
ATOM     43  N   UNL A   1      39.937  30.169  29.460  1.00  0.00    -0.354 N 
ATOM     44  C   UNL A   1      43.860  28.556  30.280  1.00  0.00     0.074 A 
ATOM     45  C   UNL A   1      43.975  27.195  29.803  1.00  0.00     0.031 C 
ATOM     46  C   UNL A   1      37.831  30.140  28.708  1.00  0.00     0.029 A 
ATOM     47  C   UNL A   1      38.813  30.960  29.409  1.00  0.00     0.049 A 
ATOM     48  H   UNL A   1      40.782  30.458  29.876  1.00  0.00     0.167 HD
ATOM     49  C   UNL A   1      44.852  29.229  30.907  1.00  0.00     0.031 A 
ATOM     50  C   UNL A   1      38.597  32.205  29.875  1.00  0.00     0.031 A 
ATOM     51  C   UNL A   1      44.739  30.587  31.370  1.00  0.00     0.049 A 
ATOM     52  C   UNL A   1      39.715  32.933  30.570  1.00  0.00     0.074 A 
ATOM     53  C   UNL A   1      45.706  31.376  31.969  1.00  0.00     0.029 A 
ATOM     54  N   UNL A   1      43.590  31.358  31.285  1.00  0.00    -0.354 N 
ATOM     55  N   UNL A   1      40.937  32.523  30.818  1.00  0.00    -0.248 NA
ATOM     56  C   UNL A   1      39.431  34.298  31.033  1.00  0.00     0.031 C 
ATOM     57  C   UNL A   1      45.128  32.609  32.287  1.00  0.00     0.029 A 
ATOM     58  C   UNL A   1      43.816  32.608  31.837  1.00  0.00     0.049 A 
ATOM     59  H   UNL A   1      42.739  31.061  30.891  1.00  0.00     0.167 HD
ATOM     60  C   UNL A   1      41.573  33.589  31.444  1.00  0.00     0.074 A 
ATOM     61  C   UNL A   1      40.606  34.665  31.523  1.00  0.00     0.031 C 
ATOM     62  C   UNL A   1      42.844  33.668  31.909  1.00  0.00     0.031 A 
BRANCH  49  63
ATOM     63  C   UNL A   1      46.151  28.500  31.130  1.00  0.00    -0.014 A 
ATOM     64  C   UNL A   1      47.136  28.449  30.126  1.00  0.00     0.010 A 
ATOM     65  C   UNL A   1      46.404  27.881  32.367  1.00  0.00     0.010 A 
ATOM     66  C   UNL A   1      48.329  27.754  30.339  1.00  0.00     0.020 A 
ATOM     67  C   UNL A   1      47.609  27.208  32.594  1.00  0.00     0.020 A 
ATOM     68  C   UNL A   1      48.555  27.133  31.570  1.00  0.00     0.054 A 
BRANCH  68  69
ATOM     69  S   UNL A   1      50.119  26.249  31.824  1.00  0.00     0.124 S 
ATOM     70  O   UNL A   1      51.031  27.001  30.965  1.00  0.00    -0.237 OA
ATOM     71  O   UNL A   1      50.343  26.399  33.261  1.00  0.00    -0.237 OA
ATOM     72  O   UNL A   1      49.825  24.889  31.382  1.00  0.00    -0.744 OA
ENDBRANCH  68  69
ENDBRANCH  49  63
BRANCH  50  73
ATOM     73  C   UNL A   1      37.270  32.851  29.681  1.00  0.00    -0.014 A 
ATOM     74  C   UNL A   1      36.320  32.851  30.719  1.00  0.00     0.010 A 
ATOM     75  C   UNL A   1      36.954  33.482  28.464  1.00  0.00     0.010 A 
ATOM     76  C   UNL A   1      35.073  33.455  30.537  1.00  0.00     0.020 A 
ATOM     77  C   UNL A   1      35.717  34.109  28.289  1.00  0.00     0.020 A 
ATOM     78  C   UNL A   1      34.779  34.082  29.323  1.00  0.00     0.054 A 
BRANCH  78  79
ATOM     79  S   UNL A   1      33.173  34.903  29.128  1.00  0.00     0.124 S 
ATOM     80  O   UNL A   1      33.565  36.229  28.662  1.00  0.00    -0.237 OA
ATOM     81  O   UNL A   1      32.502  34.057  28.144  1.00  0.00    -0.237 OA
ATOM     82  O   UNL A   1      32.600  34.855  30.472  1.00  0.00    -0.744 OA
ENDBRANCH  78  79
ENDBRANCH  50  73
BRANCH  62  83
ATOM     83  C   UNL A   1      43.277  34.976  32.515  1.00  0.00    -0.014 A 
ATOM     84  C   UNL A   1      43.748  36.031  31.714  1.00  0.00     0.010 A 
ATOM     85  C   UNL A   1      43.163  35.166  33.904  1.00  0.00     0.010 A 
ATOM     86  C   UNL A   1      44.127  37.244  32.297  1.00  0.00     0.020 A 
ATOM     87  C   UNL A   1      43.515  36.386  34.488  1.00  0.00     0.020 A 
ATOM     88  C   UNL A   1      44.009  37.413  33.680  1.00  0.00     0.054 A 
BRANCH  88  89
ATOM     89  S   UNL A   1      44.468  39.011  34.408  1.00  0.00     0.124 S 
ATOM     90  O   UNL A   1      43.758  39.951  33.547  1.00  0.00    -0.237 OA
ATOM     91  O   UNL A   1      43.958  38.900  35.773  1.00  0.00    -0.237 OA
ATOM     92  O   UNL A   1      45.924  39.037  34.294  1.00  0.00    -0.744 OA
ENDBRANCH  88  89
ENDBRANCH  62  83
ENDBRANCH  36  37
ENDBRANCH  28  31
ENDBRANCH  26  27
ENDBRANCH  25  26
ENDBRANCH   1  25
TORSDOF 18
ENDMDL
MODEL 2
REMARK VINA RESULT:     -10.9      2.732      9.459
REMARK SMILES COc1ccc(S(=O)(=O)N[C@H]2C=C[C@@H](C(=O)NCCCCNC(=O)c3ccc(-c4c5nc(c(-c6ccc(S(=O)(=O)[O-])cc6)c6ccc([nH]6)c(-c6ccc(S(=O)(=O)[O-])cc6)c6nc(c(-c7ccc(S(=O)(=O)[O-])cc7)c7ccc4[nH]7)C=C6)C=C5)cc3)C2)cc1
REMARK SMILES IDX 19 1 18 2 17 3 15 4 16 5 14 7 11 8 12 9 85 10 13 11 10 12
REMARK SMILES IDX 7 14 8 15 9 16 6 17 3 18 4 19 87 20 5 21 86 22 2 23 1 24
REMARK SMILES IDX 20 25 21 26 22 27 23 28 24 30 25 31 26 32 84 33 27 34 83 35
REMARK SMILES IDX 28 36 29 37 30 38 77 39 31 40 82 41 76 42 78 43 32 44 81 45
REMARK SMILES IDX 75 46 74 47 33 49 63 50 44 51 62 52 45 53 48 54 61 55 79 56
REMARK SMILES IDX 46 57 47 58 60 60 80 61 49 62 34 63 35 64 43 65 36 66 42 67
REMARK SMILES IDX 37 68 38 69 39 70 40 71 41 72 64 73 65 74 73 75 66 76 72 77
REMARK SMILES IDX 67 78 68 79 69 80 70 81 71 82 50 83 51 84 59 85 52 86 58 87
REMARK SMILES IDX 53 88 54 89 55 90 56 91 57 92
REMARK H PARENT 17 6 10 13 22 29 78 48 48 59
REMARK Flexibility Score: inf
ROOT
ATOM      1  C   UNL A   1      31.421  28.537  26.068  1.00  0.00     0.023 C 
ENDROOT
BRANCH   1   2
ATOM      2  C   UNL A   1      31.360  28.259  24.567  1.00  0.00     0.116 C 
BRANCH   2   3
ATOM      3  N   UNL A   1      32.534  28.761  23.878  1.00  0.00    -0.356 N 
ATOM      4  C   UNL A   1      33.391  28.153  23.016  1.00  0.00     0.226 C 
ATOM      5  O   UNL A   1      34.309  28.838  22.550  1.00  0.00    -0.274 OA
ATOM      6  H   UNL A   1      32.746  29.704  24.067  1.00  0.00     0.163 HD
BRANCH   4   7
ATOM      7  C   UNL A   1      33.264  26.682  22.607  1.00  0.00     0.103 C 
ATOM      8  C   UNL A   1      32.192  24.701  23.631  1.00  0.00     0.093 C 
ATOM      9  C   UNL A   1      31.383  25.280  22.524  1.00  0.00    -0.011 C 
ATOM     10  C   UNL A   1      33.389  25.672  23.752  1.00  0.00     0.042 C 
ATOM     11  C   UNL A   1      31.960  26.347  21.961  1.00  0.00    -0.016 C 
BRANCH   8  12
ATOM     12  N   UNL A   1      31.499  24.656  24.909  1.00  0.00    -0.204 NA
ATOM     13  H   UNL A   1      31.756  25.522  25.383  1.00  0.00     0.142 HD
BRANCH  12  14
ATOM     14  S   UNL A   1      31.647  23.464  26.067  1.00  0.00     0.241 S 
ATOM     15  O   UNL A   1      30.763  22.376  25.719  1.00  0.00    -0.207 OA
ATOM     16  O   UNL A   1      31.540  24.151  27.335  1.00  0.00    -0.207 OA
BRANCH  14  17
ATOM     17  C   UNL A   1      33.313  22.865  25.958  1.00  0.00     0.082 A 
ATOM     18  C   UNL A   1      35.917  21.872  25.717  1.00  0.00     0.118 A 
ATOM     19  C   UNL A   1      34.839  21.163  25.181  1.00  0.00     0.048 A 
ATOM     20  C   UNL A   1      35.685  23.083  26.373  1.00  0.00     0.048 A 
ATOM     21  C   UNL A   1      33.537  21.654  25.296  1.00  0.00     0.025 A 
ATOM     22  C   UNL A   1      34.381  23.572  26.512  1.00  0.00     0.025 A 
BRANCH  18  23
ATOM     23  O   UNL A   1      37.140  21.293  25.523  1.00  0.00    -0.497 OA
ATOM     24  C   UNL A   1      37.149  20.047  24.837  1.00  0.00     0.278 C 
ENDBRANCH  18  23
ENDBRANCH  14  17
ENDBRANCH  12  14
ENDBRANCH   8  12
ENDBRANCH   4   7
ENDBRANCH   2   3
ENDBRANCH   1   2
BRANCH   1  25
ATOM     25  C   UNL A   1      32.485  27.735  26.819  1.00  0.00     0.023 C 
BRANCH  25  26
ATOM     26  C   UNL A   1      33.833  28.432  26.976  1.00  0.00     0.116 C 
BRANCH  26  27
ATOM     27  N   UNL A   1      33.718  29.802  27.451  1.00  0.00    -0.352 N 
ATOM     28  C   UNL A   1      34.639  30.550  28.144  1.00  0.00     0.251 C 
ATOM     29  H   UNL A   1      32.867  30.254  27.248  1.00  0.00     0.163 HD
ATOM     30  O   UNL A   1      34.337  31.656  28.580  1.00  0.00    -0.269 OA
BRANCH  28  31
ATOM     31  C   UNL A   1      35.987  29.996  28.392  1.00  0.00     0.039 A 
ATOM     32  C   UNL A   1      36.951  30.096  27.386  1.00  0.00     0.014 A 
ATOM     33  C   UNL A   1      36.305  29.408  29.619  1.00  0.00     0.014 A 
ATOM     34  C   UNL A   1      38.257  29.666  27.638  1.00  0.00     0.010 A 
ATOM     35  C   UNL A   1      37.622  29.048  29.892  1.00  0.00     0.010 A 
ATOM     36  C   UNL A   1      38.611  29.173  28.904  1.00  0.00    -0.014 A 
BRANCH  36  37
ATOM     37  C   UNL A   1      40.010  28.790  29.217  1.00  0.00     0.031 A 
ATOM     38  C   UNL A   1      40.934  29.779  29.876  1.00  0.00     0.074 A 
ATOM     39  C   UNL A   1      40.468  27.577  28.851  1.00  0.00     0.049 A 
ATOM     40  N   UNL A   1      42.202  29.649  30.176  1.00  0.00    -0.248 NA
ATOM     41  C   UNL A   1      40.368  31.093  30.218  1.00  0.00     0.031 C 
ATOM     42  C   UNL A   1      39.684  26.545  28.166  1.00  0.00     0.029 A 
ATOM     43  N   UNL A   1      41.708  27.006  28.999  1.00  0.00    -0.354 N 
ATOM     44  C   UNL A   1      42.586  30.866  30.726  1.00  0.00     0.074 A 
ATOM     45  C   UNL A   1      41.433  31.738  30.670  1.00  0.00     0.031 C 
ATOM     46  C   UNL A   1      40.453  25.460  27.979  1.00  0.00     0.029 A 
ATOM     47  C   UNL A   1      41.791  25.729  28.494  1.00  0.00     0.049 A 
ATOM     48  H   UNL A   1      42.465  27.468  29.425  1.00  0.00     0.167 HD
ATOM     49  C   UNL A   1      43.784  31.221  31.247  1.00  0.00     0.031 A 
ATOM     50  C   UNL A   1      42.830  24.872  28.447  1.00  0.00     0.031 A 
ATOM     51  C   UNL A   1      44.926  30.348  31.312  1.00  0.00     0.049 A 
ATOM     52  C   UNL A   1      44.151  25.289  29.032  1.00  0.00     0.074 A 
ATOM     53  C   UNL A   1      46.169  30.595  31.870  1.00  0.00     0.029 A 
ATOM     54  N   UNL A   1      44.965  29.058  30.805  1.00  0.00    -0.354 N 
ATOM     55  N   UNL A   1      44.478  26.424  29.604  1.00  0.00    -0.248 NA
ATOM     56  C   UNL A   1      45.241  24.304  28.979  1.00  0.00     0.031 C 
ATOM     57  C   UNL A   1      46.974  29.471  31.659  1.00  0.00     0.029 A 
ATOM     58  C   UNL A   1      46.216  28.503  31.018  1.00  0.00     0.049 A 
ATOM     59  H   UNL A   1      44.215  28.604  30.357  1.00  0.00     0.167 HD
ATOM     60  C   UNL A   1      45.803  26.279  30.001  1.00  0.00     0.074 A 
ATOM     61  C   UNL A   1      46.211  24.943  29.617  1.00  0.00     0.031 C 
ATOM     62  C   UNL A   1      46.607  27.171  30.629  1.00  0.00     0.031 A 
BRANCH  49  63
ATOM     63  C   UNL A   1      43.918  32.620  31.787  1.00  0.00    -0.014 A 
ATOM     64  C   UNL A   1      44.295  33.688  30.950  1.00  0.00     0.010 A 
ATOM     65  C   UNL A   1      43.639  32.879  33.140  1.00  0.00     0.010 A 
ATOM     66  C   UNL A   1      44.433  34.978  31.467  1.00  0.00     0.020 A 
ATOM     67  C   UNL A   1      43.748  34.175  33.655  1.00  0.00     0.020 A 
ATOM     68  C   UNL A   1      44.164  35.212  32.818  1.00  0.00     0.054 A 
BRANCH  68  69
ATOM     69  S   UNL A   1      44.338  36.900  33.460  1.00  0.00     0.124 S 
ATOM     70  O   UNL A   1      42.948  37.267  33.717  1.00  0.00    -0.237 OA
ATOM     71  O   UNL A   1      45.166  36.709  34.648  1.00  0.00    -0.237 OA
ATOM     72  O   UNL A   1      44.981  37.623  32.366  1.00  0.00    -0.744 OA
ENDBRANCH  68  69
ENDBRANCH  49  63
BRANCH  50  73
ATOM     73  C   UNL A   1      42.654  23.524  27.843  1.00  0.00    -0.014 A 
ATOM     74  C   UNL A   1      43.207  23.231  26.584  1.00  0.00     0.010 A 
ATOM     75  C   UNL A   1      41.945  22.520  28.528  1.00  0.00     0.010 A 
ATOM     76  C   UNL A   1      43.041  21.966  26.013  1.00  0.00     0.020 A 
ATOM     77  C   UNL A   1      41.799  21.246  27.972  1.00  0.00     0.020 A 
ATOM     78  C   UNL A   1      42.338  20.980  26.712  1.00  0.00     0.054 A 
BRANCH  78  79
ATOM     79  S   UNL A   1      42.178  19.330  25.974  1.00  0.00     0.124 S 
ATOM     80  O   UNL A   1      40.736  19.217  25.792  1.00  0.00    -0.237 OA
ATOM     81  O   UNL A   1      42.966  19.453  24.750  1.00  0.00    -0.237 OA
ATOM     82  O   UNL A   1      42.753  18.447  26.988  1.00  0.00    -0.744 OA
ENDBRANCH  78  79
ENDBRANCH  50  73
BRANCH  62  83
ATOM     83  C   UNL A   1      48.002  26.723  30.973  1.00  0.00    -0.014 A 
ATOM     84  C   UNL A   1      49.064  26.885  30.068  1.00  0.00     0.010 A 
ATOM     85  C   UNL A   1      48.259  26.177  32.245  1.00  0.00     0.010 A 
ATOM     86  C   UNL A   1      50.356  26.478  30.416  1.00  0.00     0.020 A 
ATOM     87  C   UNL A   1      49.553  25.795  32.607  1.00  0.00     0.020 A 
ATOM     88  C   UNL A   1      50.591  25.936  31.683  1.00  0.00     0.054 A 
BRANCH  88  89
ATOM     89  S   UNL A   1      52.284  25.455  32.127  1.00  0.00     0.124 S 
ATOM     90  O   UNL A   1      52.159  24.008  32.275  1.00  0.00    -0.237 OA
ATOM     91  O   UNL A   1      53.059  25.905  30.973  1.00  0.00    -0.237 OA
ATOM     92  O   UNL A   1      52.538  26.189  33.365  1.00  0.00    -0.744 OA
ENDBRANCH  88  89
ENDBRANCH  62  83
ENDBRANCH  36  37
ENDBRANCH  28  31
ENDBRANCH  26  27
ENDBRANCH  25  26
ENDBRANCH   1  25
TORSDOF 18
ENDMDL
MODEL 3
REMARK VINA RESULT:     -10.7      4.194     10.360
REMARK SMILES COc1ccc(S(=O)(=O)N[C@H]2C=C[C@@H](C(=O)NCCCCNC(=O)c3ccc(-c4c5nc(c(-c6ccc(S(=O)(=O)[O-])cc6)c6ccc([nH]6)c(-c6ccc(S(=O)(=O)[O-])cc6)c6nc(c(-c7ccc(S(=O)(=O)[O-])cc7)c7ccc4[nH]7)C=C6)C=C5)cc3)C2)cc1
REMARK SMILES IDX 19 1 18 2 17 3 15 4 16 5 14 7 11 8 12 9 85 10 13 11 10 12
REMARK SMILES IDX 7 14 8 15 9 16 6 17 3 18 4 19 87 20 5 21 86 22 2 23 1 24
REMARK SMILES IDX 20 25 21 26 22 27 23 28 24 30 25 31 26 32 84 33 27 34 83 35
REMARK SMILES IDX 28 36 29 37 30 38 77 39 31 40 82 41 76 42 78 43 32 44 81 45
REMARK SMILES IDX 75 46 74 47 33 49 63 50 44 51 62 52 45 53 48 54 61 55 79 56
REMARK SMILES IDX 46 57 47 58 60 60 80 61 49 62 34 63 35 64 43 65 36 66 42 67
REMARK SMILES IDX 37 68 38 69 39 70 40 71 41 72 64 73 65 74 73 75 66 76 72 77
REMARK SMILES IDX 67 78 68 79 69 80 70 81 71 82 50 83 51 84 59 85 52 86 58 87
REMARK SMILES IDX 53 88 54 89 55 90 56 91 57 92
REMARK H PARENT 17 6 10 13 22 29 78 48 48 59
REMARK Flexibility Score: inf
ROOT
ATOM      1  C   UNL A   1      33.673  29.691  25.899  1.00  0.00     0.023 C 
ENDROOT
BRANCH   1   2
ATOM      2  C   UNL A   1      32.193  29.849  26.245  1.00  0.00     0.116 C 
BRANCH   2   3
ATOM      3  N   UNL A   1      31.658  28.660  26.879  1.00  0.00    -0.356 N 
ATOM      4  C   UNL A   1      31.175  27.505  26.347  1.00  0.00     0.226 C 
ATOM      5  O   UNL A   1      30.800  26.631  27.136  1.00  0.00    -0.274 OA
ATOM      6  H   UNL A   1      31.641  28.693  27.863  1.00  0.00     0.163 HD
BRANCH   4   7
ATOM      7  C   UNL A   1      31.083  27.253  24.839  1.00  0.00     0.103 C 
ATOM      8  C   UNL A   1      31.802  25.406  23.359  1.00  0.00     0.093 C 
ATOM      9  C   UNL A   1      30.343  25.369  23.651  1.00  0.00    -0.011 C 
ATOM     10  C   UNL A   1      32.313  26.590  24.210  1.00  0.00     0.042 C 
ATOM     11  C   UNL A   1      29.946  26.369  24.444  1.00  0.00    -0.016 C 
BRANCH   8  12
ATOM     12  N   UNL A   1      32.515  24.203  23.760  1.00  0.00    -0.204 NA
ATOM     13  H   UNL A   1      33.265  24.529  24.371  1.00  0.00     0.142 HD
BRANCH  12  14
ATOM     14  S   UNL A   1      33.235  23.099  22.738  1.00  0.00     0.241 S 
ATOM     15  O   UNL A   1      33.775  23.812  21.603  1.00  0.00    -0.207 OA
ATOM     16  O   UNL A   1      32.264  22.041  22.575  1.00  0.00    -0.207 OA
BRANCH  14  17
ATOM     17  C   UNL A   1      34.596  22.399  23.634  1.00  0.00     0.082 A 
ATOM     18  C   UNL A   1      36.785  21.371  25.041  1.00  0.00     0.118 A 
ATOM     19  C   UNL A   1      36.952  22.443  24.160  1.00  0.00     0.048 A 
ATOM     20  C   UNL A   1      35.515  20.816  25.215  1.00  0.00     0.048 A 
ATOM     21  C   UNL A   1      35.863  22.963  23.458  1.00  0.00     0.025 A 
ATOM     22  C   UNL A   1      34.422  21.317  24.498  1.00  0.00     0.025 A 
BRANCH  18  23
ATOM     23  O   UNL A   1      37.925  20.968  25.679  1.00  0.00    -0.497 OA
ATOM     24  C   UNL A   1      38.960  21.936  25.798  1.00  0.00     0.278 C 
ENDBRANCH  18  23
ENDBRANCH  14  17
ENDBRANCH  12  14
ENDBRANCH   8  12
ENDBRANCH   4   7
ENDBRANCH   2   3
ENDBRANCH   1   2
BRANCH   1  25
ATOM     25  C   UNL A   1      34.506  29.001  26.980  1.00  0.00     0.023 C 
BRANCH  25  26
ATOM     26  C   UNL A   1      35.566  29.879  27.640  1.00  0.00     0.116 C 
BRANCH  26  27
ATOM     27  N   UNL A   1      35.401  29.990  29.081  1.00  0.00    -0.352 N 
ATOM     28  C   UNL A   1      36.346  29.839  30.068  1.00  0.00     0.251 C 
ATOM     29  H   UNL A   1      34.491  30.202  29.392  1.00  0.00     0.163 HD
ATOM     30  O   UNL A   1      36.015  29.844  31.249  1.00  0.00    -0.269 OA
BRANCH  28  31
ATOM     31  C   UNL A   1      37.762  29.634  29.693  1.00  0.00     0.039 A 
ATOM     32  C   UNL A   1      38.674  29.266  30.684  1.00  0.00     0.014 A 
ATOM     33  C   UNL A   1      38.179  29.776  28.367  1.00  0.00     0.014 A 
ATOM     34  C   UNL A   1      39.994  28.972  30.331  1.00  0.00     0.010 A 
ATOM     35  C   UNL A   1      39.474  29.414  28.007  1.00  0.00     0.010 A 
ATOM     36  C   UNL A   1      40.394  29.008  28.986  1.00  0.00    -0.014 A 
BRANCH  36  37
ATOM     37  C   UNL A   1      41.769  28.620  28.581  1.00  0.00     0.031 A 
ATOM     38  C   UNL A   1      42.858  29.656  28.517  1.00  0.00     0.074 A 
ATOM     39  C   UNL A   1      42.022  27.349  28.212  1.00  0.00     0.049 A 
ATOM     40  N   UNL A   1      44.102  29.521  28.134  1.00  0.00    -0.248 NA
ATOM     41  C   UNL A   1      42.496  31.028  28.909  1.00  0.00     0.031 C 
ATOM     42  C   UNL A   1      41.040  26.261  28.188  1.00  0.00     0.029 A 
ATOM     43  N   UNL A   1      43.182  26.757  27.778  1.00  0.00    -0.354 N 
ATOM     44  C   UNL A   1      44.665  30.789  28.223  1.00  0.00     0.074 A 
ATOM     45  C   UNL A   1      43.614  31.689  28.646  1.00  0.00     0.031 C 
ATOM     46  C   UNL A   1      41.646  25.130  27.790  1.00  0.00     0.029 A 
ATOM     47  C   UNL A   1      43.045  25.418  27.493  1.00  0.00     0.049 A 
ATOM     48  H   UNL A   1      44.030  27.245  27.679  1.00  0.00     0.167 HD
ATOM     49  C   UNL A   1      45.944  31.168  27.992  1.00  0.00     0.031 A 
ATOM     50  C   UNL A   1      43.945  24.523  27.041  1.00  0.00     0.031 A 
ATOM     51  C   UNL A   1      46.990  30.269  27.583  1.00  0.00     0.049 A 
ATOM     52  C   UNL A   1      45.360  24.968  26.791  1.00  0.00     0.074 A 
ATOM     53  C   UNL A   1      48.331  30.545  27.376  1.00  0.00     0.029 A 
ATOM     54  N   UNL A   1      46.815  28.919  27.321  1.00  0.00    -0.354 N 
ATOM     55  N   UNL A   1      45.888  26.160  26.940  1.00  0.00    -0.248 NA
ATOM     56  C   UNL A   1      46.305  23.943  26.325  1.00  0.00     0.031 C 
ATOM     57  C   UNL A   1      48.957  29.372  26.944  1.00  0.00     0.029 A 
ATOM     58  C   UNL A   1      48.018  28.351  26.935  1.00  0.00     0.049 A 
ATOM     59  H   UNL A   1      45.961  28.435  27.397  1.00  0.00     0.167 HD
ATOM     60  C   UNL A   1      47.232  26.022  26.612  1.00  0.00     0.074 A 
ATOM     61  C   UNL A   1      47.438  24.629  26.270  1.00  0.00     0.031 C 
ATOM     62  C   UNL A   1      48.206  26.964  26.597  1.00  0.00     0.031 A 
BRANCH  49  63
ATOM     63  C   UNL A   1      46.279  32.625  28.176  1.00  0.00    -0.014 A 
ATOM     64  C   UNL A   1      46.314  33.505  27.078  1.00  0.00     0.010 A 
ATOM     65  C   UNL A   1      46.535  33.128  29.464  1.00  0.00     0.010 A 
ATOM     66  C   UNL A   1      46.645  34.850  27.260  1.00  0.00     0.020 A 
ATOM     67  C   UNL A   1      46.838  34.481  29.654  1.00  0.00     0.020 A 
ATOM     68  C   UNL A   1      46.909  35.328  28.546  1.00  0.00     0.054 A 
BRANCH  68  69
ATOM     69  S   UNL A   1      47.321  37.082  28.755  1.00  0.00     0.124 S 
ATOM     70  O   UNL A   1      48.779  37.040  28.835  1.00  0.00    -0.237 OA
ATOM     71  O   UNL A   1      46.776  37.687  27.542  1.00  0.00    -0.237 OA
ATOM     72  O   UNL A   1      46.640  37.454  29.992  1.00  0.00    -0.744 OA
ENDBRANCH  68  69
ENDBRANCH  49  63
BRANCH  50  73
ATOM     73  C   UNL A   1      43.538  23.110  26.817  1.00  0.00    -0.014 A 
ATOM     74  C   UNL A   1      43.782  22.487  25.580  1.00  0.00     0.010 A 
ATOM     75  C   UNL A   1      42.919  22.372  27.843  1.00  0.00     0.010 A 
ATOM     76  C   UNL A   1      43.398  21.160  25.366  1.00  0.00     0.020 A 
ATOM     77  C   UNL A   1      42.557  21.037  27.641  1.00  0.00     0.020 A 
ATOM     78  C   UNL A   1      42.789  20.442  26.399  1.00  0.00     0.054 A 
BRANCH  78  79
ATOM     79  S   UNL A   1      42.346  18.705  26.117  1.00  0.00     0.124 S 
ATOM     80  O   UNL A   1      43.270  18.325  25.054  1.00  0.00    -0.237 OA
ATOM     81  O   UNL A   1      42.596  18.099  27.423  1.00  0.00    -0.237 OA
ATOM     82  O   UNL A   1      40.938  18.772  25.730  1.00  0.00    -0.744 OA
ENDBRANCH  78  79
ENDBRANCH  50  73
BRANCH  62  83
ATOM     83  C   UNL A   1      49.596  26.515  26.232  1.00  0.00    -0.014 A 
ATOM     84  C   UNL A   1      50.085  26.652  24.921  1.00  0.00     0.010 A 
ATOM     85  C   UNL A   1      50.440  25.995  27.229  1.00  0.00     0.010 A 
ATOM     86  C   UNL A   1      51.386  26.246  24.608  1.00  0.00     0.020 A 
ATOM     87  C   UNL A   1      51.750  25.614  26.927  1.00  0.00     0.020 A 
ATOM     88  C   UNL A   1      52.209  25.729  25.613  1.00  0.00     0.054 A 
BRANCH  88  89
ATOM     89  S   UNL A   1      53.908  25.248  25.191  1.00  0.00     0.124 S 
ATOM     90  O   UNL A   1      54.242  26.208  24.144  1.00  0.00    -0.237 OA
ATOM     91  O   UNL A   1      54.615  25.426  26.457  1.00  0.00    -0.237 OA
ATOM     92  O   UNL A   1      53.775  23.862  24.748  1.00  0.00    -0.744 OA
ENDBRANCH  88  89
ENDBRANCH  62  83
ENDBRANCH  36  37
ENDBRANCH  28  31
ENDBRANCH  26  27
ENDBRANCH  25  26
ENDBRANCH   1  25
TORSDOF 18
ENDMDL
