MODEL 1
REMARK VINA RESULT:      -8.6      0.000      0.000
REMARK SMILES N#C/C(=C\c1ccc(-c2cc(C(F)(F)F)ccc2Cl)o1)C(=O)NCCCCNC(=O)c1ccc(-c2c3nc(c(-c4ccc(S(=O)(=O)[O-])cc4)c4ccc([nH]4)c(-c4ccc(S(=O)(=O)[O-])cc4)c4nc(c(-c5ccc(S(=O)(=O)[O-])cc5)c5ccc2[nH]5)C=C4)C=C3)cc1
REMARK SMILES IDX 25 1 24 2 23 3 21 4 22 5 3 7 4 8 2 9 1 10 5 11 6 12 20 13
REMARK SMILES IDX 7 14 8 15 9 16 10 17 18 18 11 19 17 20 19 21 16 22 12 23
REMARK SMILES IDX 13 24 14 25 15 26 26 27 27 28 28 29 29 30 30 32 31 33 32 34
REMARK SMILES IDX 90 35 33 36 89 37 34 38 35 39 36 40 83 41 37 42 88 43 82 44
REMARK SMILES IDX 84 45 38 46 87 47 81 48 80 49 39 51 69 52 50 53 68 54 51 55
REMARK SMILES IDX 54 56 67 57 85 58 52 59 53 60 66 62 86 63 55 64 40 65 41 66
REMARK SMILES IDX 49 67 42 68 48 69 43 70 44 71 45 72 46 73 47 74 70 75 71 76
REMARK SMILES IDX 79 77 72 78 78 79 73 80 74 81 75 82 76 83 77 84 56 85 57 86
REMARK SMILES IDX 65 87 58 88 64 89 59 90 60 91 61 92 62 93 63 94
REMARK H PARENT 23 6 28 31 84 50 54 61
REMARK Flexibility Score: inf
ROOT
ATOM      1  C   UNL A   1      35.177  34.030  32.403  1.00  0.00     0.023 C 
ENDROOT
BRANCH   1   2
ATOM      2  C   UNL A   1      35.892  33.007  33.290  1.00  0.00     0.116 C 
BRANCH   2   3
ATOM      3  N   UNL A   1      36.735  33.651  34.281  1.00  0.00    -0.351 N 
ATOM      4  C   UNL A   1      37.916  33.315  34.868  1.00  0.00     0.262 C 
ATOM      5  O   UNL A   1      38.405  34.141  35.641  1.00  0.00    -0.268 OA
ATOM      6  H   UNL A   1      36.378  34.514  34.594  1.00  0.00     0.163 HD
BRANCH   4   7
ATOM      7  C   UNL A   1      38.636  32.031  34.633  1.00  0.00     0.120 C 
ATOM      8  C   UNL A   1      39.315  31.639  33.529  1.00  0.00     0.072 C 
BRANCH   7   9
ATOM      9  C   UNL A   1      38.552  30.989  35.737  1.00  0.00     0.105 C 
ATOM     10  N   UNL A   1      38.483  30.125  36.652  1.00  0.00    -0.192 NA
ENDBRANCH   7   9
BRANCH   8  11
ATOM     11  C   UNL A   1      39.923  30.344  33.389  1.00  0.00     0.129 A 
ATOM     12  C   UNL A   1      39.362  29.139  32.971  1.00  0.00     0.051 A 
ATOM     13  O   UNL A   1      41.265  30.100  33.640  1.00  0.00    -0.457 OA
ATOM     14  C   UNL A   1      40.360  28.143  33.022  1.00  0.00     0.051 A 
ATOM     15  C   UNL A   1      41.516  28.777  33.410  1.00  0.00     0.136 A 
BRANCH  15  16
ATOM     16  C   UNL A   1      42.885  28.306  33.591  1.00  0.00     0.036 A 
ATOM     17  C   UNL A   1      43.215  26.977  33.265  1.00  0.00     0.026 A 
ATOM     18  C   UNL A   1      43.917  29.166  34.007  1.00  0.00     0.052 A 
ATOM     19  C   UNL A   1      44.545  26.515  33.324  1.00  0.00     0.056 A 
ATOM     20  C   UNL A   1      45.238  28.713  34.083  1.00  0.00     0.022 A 
ATOM     21  Cl  UNL A   1      43.635  30.816  34.455  1.00  0.00    -0.084 Cl
ATOM     22  C   UNL A   1      45.552  27.398  33.740  1.00  0.00     0.014 A 
BRANCH  19  23
ATOM     23  C   UNL A   1      44.883  25.095  32.931  1.00  0.00     0.416 C 
ATOM     24  F   UNL A   1      46.204  24.929  32.653  1.00  0.00    -0.166 F 
ATOM     25  F   UNL A   1      44.585  24.199  33.910  1.00  0.00    -0.166 F 
ATOM     26  F   UNL A   1      44.212  24.669  31.823  1.00  0.00    -0.166 F 
ENDBRANCH  19  23
ENDBRANCH  15  16
ENDBRANCH   8  11
ENDBRANCH   4   7
ENDBRANCH   2   3
ENDBRANCH   1   2
BRANCH   1  27
ATOM     27  C   UNL A   1      34.324  33.415  31.287  1.00  0.00     0.023 C 
BRANCH  27  28
ATOM     28  C   UNL A   1      35.093  32.591  30.255  1.00  0.00     0.116 C 
BRANCH  28  29
ATOM     29  N   UNL A   1      34.252  32.019  29.214  1.00  0.00    -0.352 N 
ATOM     30  C   UNL A   1      34.540  30.964  28.377  1.00  0.00     0.251 C 
ATOM     31  H   UNL A   1      33.369  32.438  29.094  1.00  0.00     0.163 HD
ATOM     32  O   UNL A   1      33.761  30.638  27.492  1.00  0.00    -0.269 OA
BRANCH  30  33
ATOM     33  C   UNL A   1      35.836  30.270  28.534  1.00  0.00     0.039 A 
ATOM     34  C   UNL A   1      36.752  30.316  27.481  1.00  0.00     0.014 A 
ATOM     35  C   UNL A   1      36.171  29.661  29.745  1.00  0.00     0.014 A 
ATOM     36  C   UNL A   1      38.047  29.836  27.677  1.00  0.00     0.010 A 
ATOM     37  C   UNL A   1      37.478  29.230  29.956  1.00  0.00     0.010 A 
ATOM     38  C   UNL A   1      38.434  29.339  28.933  1.00  0.00    -0.014 A 
BRANCH  38  39
ATOM     39  C   UNL A   1      39.851  29.007  29.228  1.00  0.00     0.031 A 
ATOM     40  C   UNL A   1      40.788  30.059  29.749  1.00  0.00     0.074 A 
ATOM     41  C   UNL A   1      40.312  27.778  28.920  1.00  0.00     0.049 A 
ATOM     42  N   UNL A   1      42.074  29.974  29.967  1.00  0.00    -0.248 NA
ATOM     43  C   UNL A   1      40.214  31.382  30.040  1.00  0.00     0.031 C 
ATOM     44  C   UNL A   1      39.513  26.688  28.351  1.00  0.00     0.029 A 
ATOM     45  N   UNL A   1      41.572  27.243  29.019  1.00  0.00    -0.354 N 
ATOM     46  C   UNL A   1      42.470  31.235  30.397  1.00  0.00     0.074 A 
ATOM     47  C   UNL A   1      41.291  32.074  30.385  1.00  0.00     0.031 C 
ATOM     48  C   UNL A   1      40.300  25.618  28.154  1.00  0.00     0.029 A 
ATOM     49  C   UNL A   1      41.664  25.954  28.548  1.00  0.00     0.049 A 
ATOM     50  H   UNL A   1      42.339  27.736  29.391  1.00  0.00     0.167 HD
ATOM     51  C   UNL A   1      43.701  31.650  30.775  1.00  0.00     0.031 A 
ATOM     52  C   UNL A   1      42.729  25.137  28.425  1.00  0.00     0.031 A 
ATOM     53  C   UNL A   1      44.864  30.803  30.815  1.00  0.00     0.049 A 
ATOM     54  C   UNL A   1      44.083  25.626  28.858  1.00  0.00     0.074 A 
ATOM     55  C   UNL A   1      46.129  31.107  31.290  1.00  0.00     0.029 A 
ATOM     56  N   UNL A   1      44.910  29.498  30.356  1.00  0.00    -0.354 N 
ATOM     57  N   UNL A   1      44.413  26.790  29.365  1.00  0.00    -0.248 NA
ATOM     58  C   UNL A   1      45.208  24.692  28.705  1.00  0.00     0.031 C 
ATOM     59  C   UNL A   1      46.953  29.999  31.072  1.00  0.00     0.029 A 
ATOM     60  C   UNL A   1      46.191  28.994  30.500  1.00  0.00     0.049 A 
ATOM     61  H   UNL A   1      44.146  29.002  29.983  1.00  0.00     0.167 HD
ATOM     62  C   UNL A   1      45.781  26.723  29.599  1.00  0.00     0.074 A 
ATOM     63  C   UNL A   1      46.214  25.399  29.202  1.00  0.00     0.031 C 
ATOM     64  C   UNL A   1      46.607  27.676  30.095  1.00  0.00     0.031 A 
BRANCH  51  65
ATOM     65  C   UNL A   1      43.867  33.087  31.184  1.00  0.00    -0.014 A 
ATOM     66  C   UNL A   1      43.693  33.482  32.522  1.00  0.00     0.010 A 
ATOM     67  C   UNL A   1      44.290  34.035  30.236  1.00  0.00     0.010 A 
ATOM     68  C   UNL A   1      43.925  34.806  32.901  1.00  0.00     0.020 A 
ATOM     69  C   UNL A   1      44.542  35.356  30.615  1.00  0.00     0.020 A 
ATOM     70  C   UNL A   1      44.349  35.735  31.945  1.00  0.00     0.054 A 
BRANCH  70  71
ATOM     71  S   UNL A   1      44.700  37.433  32.478  1.00  0.00     0.124 S 
ATOM     72  O   UNL A   1      45.694  37.220  33.527  1.00  0.00    -0.237 OA
ATOM     73  O   UNL A   1      45.201  38.056  31.256  1.00  0.00    -0.237 OA
ATOM     74  O   UNL A   1      43.404  37.927  32.938  1.00  0.00    -0.744 OA
ENDBRANCH  70  71
ENDBRANCH  51  65
BRANCH  52  75
ATOM     75  C   UNL A   1      42.569  23.778  27.842  1.00  0.00    -0.014 A 
ATOM     76  C   UNL A   1      42.218  22.688  28.656  1.00  0.00     0.010 A 
ATOM     77  C   UNL A   1      42.788  23.566  26.469  1.00  0.00     0.010 A 
ATOM     78  C   UNL A   1      42.117  21.403  28.114  1.00  0.00     0.020 A 
ATOM     79  C   UNL A   1      42.664  22.288  25.919  1.00  0.00     0.020 A 
ATOM     80  C   UNL A   1      42.346  21.211  26.749  1.00  0.00     0.054 A 
BRANCH  80  81
ATOM     81  S   UNL A   1      42.187  19.542  26.055  1.00  0.00     0.124 S 
ATOM     82  O   UNL A   1      40.763  19.479  25.745  1.00  0.00    -0.237 OA
ATOM     83  O   UNL A   1      43.085  19.588  24.903  1.00  0.00    -0.237 OA
ATOM     84  O   UNL A   1      42.634  18.678  27.147  1.00  0.00    -0.744 OA
ENDBRANCH  80  81
ENDBRANCH  52  75
BRANCH  64  85
ATOM     85  C   UNL A   1      48.060  27.323  30.241  1.00  0.00    -0.014 A 
ATOM     86  C   UNL A   1      48.993  27.707  29.261  1.00  0.00     0.010 A 
ATOM     87  C   UNL A   1      48.507  26.660  31.397  1.00  0.00     0.010 A 
ATOM     88  C   UNL A   1      50.350  27.416  29.429  1.00  0.00     0.020 A 
ATOM     89  C   UNL A   1      49.866  26.387  31.578  1.00  0.00     0.020 A 
ATOM     90  C   UNL A   1      50.777  26.759  30.586  1.00  0.00     0.054 A 
BRANCH  90  91
ATOM     91  S   UNL A   1      52.550  26.445  30.808  1.00  0.00     0.124 S 
ATOM     92  O   UNL A   1      53.029  27.737  31.287  1.00  0.00    -0.237 OA
ATOM     93  O   UNL A   1      52.565  25.364  31.791  1.00  0.00    -0.237 OA
ATOM     94  O   UNL A   1      53.003  26.068  29.470  1.00  0.00    -0.744 OA
ENDBRANCH  90  91
ENDBRANCH  64  85
ENDBRANCH  38  39
ENDBRANCH  30  33
ENDBRANCH  28  29
ENDBRANCH  27  28
ENDBRANCH   1  27
TORSDOF 18
ENDMDL
MODEL 2
REMARK VINA RESULT:      -8.2      3.759     10.458
REMARK SMILES N#C/C(=C\c1ccc(-c2cc(C(F)(F)F)ccc2Cl)o1)C(=O)NCCCCNC(=O)c1ccc(-c2c3nc(c(-c4ccc(S(=O)(=O)[O-])cc4)c4ccc([nH]4)c(-c4ccc(S(=O)(=O)[O-])cc4)c4nc(c(-c5ccc(S(=O)(=O)[O-])cc5)c5ccc2[nH]5)C=C4)C=C3)cc1
REMARK SMILES IDX 25 1 24 2 23 3 21 4 22 5 3 7 4 8 2 9 1 10 5 11 6 12 20 13
REMARK SMILES IDX 7 14 8 15 9 16 10 17 18 18 11 19 17 20 19 21 16 22 12 23
REMARK SMILES IDX 13 24 14 25 15 26 26 27 27 28 28 29 29 30 30 32 31 33 32 34
REMARK SMILES IDX 90 35 33 36 89 37 34 38 35 39 36 40 83 41 37 42 88 43 82 44
REMARK SMILES IDX 84 45 38 46 87 47 81 48 80 49 39 51 69 52 50 53 68 54 51 55
REMARK SMILES IDX 54 56 67 57 85 58 52 59 53 60 66 62 86 63 55 64 40 65 41 66
REMARK SMILES IDX 49 67 42 68 48 69 43 70 44 71 45 72 46 73 47 74 70 75 71 76
REMARK SMILES IDX 79 77 72 78 78 79 73 80 74 81 75 82 76 83 77 84 56 85 57 86
REMARK SMILES IDX 65 87 58 88 64 89 59 90 60 91 61 92 62 93 63 94
REMARK H PARENT 23 6 28 31 84 50 54 61
REMARK Flexibility Score: inf
ROOT
ATOM      1  C   UNL A   1      42.160  22.513  25.593  1.00  0.00     0.023 C 
ENDROOT
BRANCH   1   2
ATOM      2  C   UNL A   1      43.658  22.249  25.769  1.00  0.00     0.116 C 
BRANCH   2   3
ATOM      3  N   UNL A   1      44.050  22.289  27.166  1.00  0.00    -0.351 N 
ATOM      4  C   UNL A   1      44.726  23.195  27.924  1.00  0.00     0.262 C 
ATOM      5  O   UNL A   1      44.833  22.941  29.126  1.00  0.00    -0.268 OA
ATOM      6  H   UNL A   1      43.765  21.494  27.673  1.00  0.00     0.163 HD
BRANCH   4   7
ATOM      7  C   UNL A   1      45.331  24.449  27.394  1.00  0.00     0.120 C 
ATOM      8  C   UNL A   1      44.712  25.490  26.790  1.00  0.00     0.072 C 
BRANCH   7   9
ATOM      9  C   UNL A   1      46.845  24.562  27.472  1.00  0.00     0.105 C 
ATOM     10  N   UNL A   1      48.101  24.657  27.537  1.00  0.00    -0.192 NA
ENDBRANCH   7   9
BRANCH   8  11
ATOM     11  C   UNL A   1      45.410  26.630  26.259  1.00  0.00     0.129 A 
ATOM     12  C   UNL A   1      45.965  26.824  24.996  1.00  0.00     0.051 A 
ATOM     13  O   UNL A   1      45.616  27.799  26.976  1.00  0.00    -0.457 OA
ATOM     14  C   UNL A   1      46.563  28.100  24.965  1.00  0.00     0.051 A 
ATOM     15  C   UNL A   1      46.304  28.676  26.185  1.00  0.00     0.136 A 
BRANCH  15  16
ATOM     16  C   UNL A   1      46.609  29.992  26.739  1.00  0.00     0.036 A 
ATOM     17  C   UNL A   1      45.561  30.887  27.026  1.00  0.00     0.026 A 
ATOM     18  C   UNL A   1      47.921  30.369  27.077  1.00  0.00     0.052 A 
ATOM     19  C   UNL A   1      45.805  32.123  27.659  1.00  0.00     0.056 A 
ATOM     20  C   UNL A   1      48.174  31.600  27.693  1.00  0.00     0.022 A 
ATOM     21  Cl  UNL A   1      49.295  29.364  26.757  1.00  0.00    -0.084 Cl
ATOM     22  C   UNL A   1      47.124  32.469  27.986  1.00  0.00     0.014 A 
BRANCH  19  23
ATOM     23  C   UNL A   1      44.661  33.052  27.995  1.00  0.00     0.416 C 
ATOM     24  F   UNL A   1      43.551  32.388  28.412  1.00  0.00    -0.166 F 
ATOM     25  F   UNL A   1      44.976  33.928  28.988  1.00  0.00    -0.166 F 
ATOM     26  F   UNL A   1      44.263  33.819  26.940  1.00  0.00    -0.166 F 
ENDBRANCH  19  23
ENDBRANCH  15  16
ENDBRANCH   8  11
ENDBRANCH   4   7
ENDBRANCH   2   3
ENDBRANCH   1   2
BRANCH   1  27
ATOM     27  C   UNL A   1      41.255  21.362  26.052  1.00  0.00     0.023 C 
BRANCH  27  28
ATOM     28  C   UNL A   1      40.139  21.753  27.019  1.00  0.00     0.116 C 
BRANCH  28  29
ATOM     29  N   UNL A   1      38.941  22.256  26.362  1.00  0.00    -0.352 N 
ATOM     30  C   UNL A   1      38.466  23.548  26.342  1.00  0.00     0.251 C 
ATOM     31  H   UNL A   1      38.406  21.590  25.873  1.00  0.00     0.163 HD
ATOM     32  O   UNL A   1      37.398  23.813  25.808  1.00  0.00    -0.269 OA
BRANCH  30  33
ATOM     33  C   UNL A   1      39.246  24.600  27.028  1.00  0.00     0.039 A 
ATOM     34  C   UNL A   1      40.124  25.382  26.274  1.00  0.00     0.014 A 
ATOM     35  C   UNL A   1      39.039  24.865  28.383  1.00  0.00     0.014 A 
ATOM     36  C   UNL A   1      40.724  26.498  26.859  1.00  0.00     0.010 A 
ATOM     37  C   UNL A   1      39.597  26.007  28.951  1.00  0.00     0.010 A 
ATOM     38  C   UNL A   1      40.421  26.848  28.186  1.00  0.00    -0.014 A 
BRANCH  38  39
ATOM     39  C   UNL A   1      40.885  28.133  28.769  1.00  0.00     0.031 A 
ATOM     40  C   UNL A   1      42.272  28.257  29.331  1.00  0.00     0.074 A 
ATOM     41  C   UNL A   1      40.011  29.153  28.884  1.00  0.00     0.049 A 
ATOM     42  N   UNL A   1      42.811  29.266  29.965  1.00  0.00    -0.248 NA
ATOM     43  C   UNL A   1      43.160  27.093  29.187  1.00  0.00     0.031 C 
ATOM     44  C   UNL A   1      38.616  29.133  28.430  1.00  0.00     0.029 A 
ATOM     45  N   UNL A   1      40.156  30.399  29.440  1.00  0.00    -0.354 N 
ATOM     46  C   UNL A   1      44.091  28.852  30.317  1.00  0.00     0.074 A 
ATOM     47  C   UNL A   1      44.239  27.492  29.847  1.00  0.00     0.031 C 
ATOM     48  C   UNL A   1      38.038  30.308  28.724  1.00  0.00     0.029 A 
ATOM     49  C   UNL A   1      39.005  31.152  29.417  1.00  0.00     0.049 A 
ATOM     50  H   UNL A   1      41.004  30.724  29.821  1.00  0.00     0.167 HD
ATOM     51  C   UNL A   1      45.055  29.549  30.962  1.00  0.00     0.031 A 
ATOM     52  C   UNL A   1      38.747  32.377  29.916  1.00  0.00     0.031 A 
ATOM     53  C   UNL A   1      44.914  30.912  31.399  1.00  0.00     0.049 A 
ATOM     54  C   UNL A   1      39.840  33.127  30.625  1.00  0.00     0.074 A 
ATOM     55  C   UNL A   1      45.875  31.736  31.962  1.00  0.00     0.029 A 
ATOM     56  N   UNL A   1      43.743  31.649  31.334  1.00  0.00    -0.354 N 
ATOM     57  N   UNL A   1      41.078  32.756  30.849  1.00  0.00    -0.248 NA
ATOM     58  C   UNL A   1      39.504  34.460  31.147  1.00  0.00     0.031 C 
ATOM     59  C   UNL A   1      45.270  32.955  32.283  1.00  0.00     0.029 A 
ATOM     60  C   UNL A   1      43.945  32.904  31.882  1.00  0.00     0.049 A 
ATOM     61  H   UNL A   1      42.893  31.328  30.954  1.00  0.00     0.167 HD
ATOM     62  C   UNL A   1      41.669  33.815  31.529  1.00  0.00     0.074 A 
ATOM     63  C   UNL A   1      40.662  34.849  31.659  1.00  0.00     0.031 C 
ATOM     64  C   UNL A   1      42.932  33.919  32.008  1.00  0.00     0.031 A 
BRANCH  51  65
ATOM     65  C   UNL A   1      46.360  28.857  31.240  1.00  0.00    -0.014 A 
ATOM     66  C   UNL A   1      47.447  28.983  30.357  1.00  0.00     0.010 A 
ATOM     67  C   UNL A   1      46.528  28.146  32.442  1.00  0.00     0.010 A 
ATOM     68  C   UNL A   1      48.677  28.397  30.665  1.00  0.00     0.020 A 
ATOM     69  C   UNL A   1      47.763  27.575  32.763  1.00  0.00     0.020 A 
ATOM     70  C   UNL A   1      48.827  27.697  31.867  1.00  0.00     0.054 A 
BRANCH  70  71
ATOM     71  S   UNL A   1      50.452  26.998  32.268  1.00  0.00     0.124 S 
ATOM     72  O   UNL A   1      51.202  28.187  32.665  1.00  0.00    -0.237 OA
ATOM     73  O   UNL A   1      50.142  26.063  33.347  1.00  0.00    -0.237 OA
ATOM     74  O   UNL A   1      50.881  26.377  31.017  1.00  0.00    -0.744 OA
ENDBRANCH  70  71
ENDBRANCH  51  65
BRANCH  52  75
ATOM     75  C   UNL A   1      37.387  32.967  29.791  1.00  0.00    -0.014 A 
ATOM     76  C   UNL A   1      36.995  33.613  28.606  1.00  0.00     0.010 A 
ATOM     77  C   UNL A   1      36.484  32.902  30.867  1.00  0.00     0.010 A 
ATOM     78  C   UNL A   1      35.734  34.210  28.509  1.00  0.00     0.020 A 
ATOM     79  C   UNL A   1      35.214  33.475  30.765  1.00  0.00     0.020 A 
ATOM     80  C   UNL A   1      34.854  34.141  29.592  1.00  0.00     0.054 A 
BRANCH  80  81
ATOM     81  S   UNL A   1      33.212  34.899  29.442  1.00  0.00     0.124 S 
ATOM     82  O   UNL A   1      32.535  33.975  28.539  1.00  0.00    -0.237 OA
ATOM     83  O   UNL A   1      32.734  34.901  30.823  1.00  0.00    -0.237 OA
ATOM     84  O   UNL A   1      33.499  36.222  28.890  1.00  0.00    -0.744 OA
ENDBRANCH  80  81
ENDBRANCH  52  75
BRANCH  64  85
ATOM     85  C   UNL A   1      43.301  35.194  32.712  1.00  0.00    -0.014 A 
ATOM     86  C   UNL A   1      43.088  35.338  34.095  1.00  0.00     0.010 A 
ATOM     87  C   UNL A   1      43.926  36.233  31.999  1.00  0.00     0.010 A 
ATOM     88  C   UNL A   1      43.479  36.509  34.750  1.00  0.00     0.020 A 
ATOM     89  C   UNL A   1      44.337  37.396  32.655  1.00  0.00     0.020 A 
ATOM     90  C   UNL A   1      44.101  37.530  34.026  1.00  0.00     0.054 A 
BRANCH  90  91
ATOM     91  S   UNL A   1      44.651  39.016  34.908  1.00  0.00     0.124 S 
ATOM     92  O   UNL A   1      43.608  39.977  34.564  1.00  0.00    -0.237 OA
ATOM     93  O   UNL A   1      44.667  38.576  36.301  1.00  0.00    -0.237 OA
ATOM     94  O   UNL A   1      45.967  39.291  34.334  1.00  0.00    -0.744 OA
ENDBRANCH  90  91
ENDBRANCH  64  85
ENDBRANCH  38  39
ENDBRANCH  30  33
ENDBRANCH  28  29
ENDBRANCH  27  28
ENDBRANCH   1  27
TORSDOF 18
ENDMDL
MODEL 3
REMARK VINA RESULT:      -8.1      5.875     12.409
REMARK SMILES N#C/C(=C\c1ccc(-c2cc(C(F)(F)F)ccc2Cl)o1)C(=O)NCCCCNC(=O)c1ccc(-c2c3nc(c(-c4ccc(S(=O)(=O)[O-])cc4)c4ccc([nH]4)c(-c4ccc(S(=O)(=O)[O-])cc4)c4nc(c(-c5ccc(S(=O)(=O)[O-])cc5)c5ccc2[nH]5)C=C4)C=C3)cc1
REMARK SMILES IDX 25 1 24 2 23 3 21 4 22 5 3 7 4 8 2 9 1 10 5 11 6 12 20 13
REMARK SMILES IDX 7 14 8 15 9 16 10 17 18 18 11 19 17 20 19 21 16 22 12 23
REMARK SMILES IDX 13 24 14 25 15 26 26 27 27 28 28 29 29 30 30 32 31 33 32 34
REMARK SMILES IDX 90 35 33 36 89 37 34 38 35 39 36 40 83 41 37 42 88 43 82 44
REMARK SMILES IDX 84 45 38 46 87 47 81 48 80 49 39 51 69 52 50 53 68 54 51 55
REMARK SMILES IDX 54 56 67 57 85 58 52 59 53 60 66 62 86 63 55 64 40 65 41 66
REMARK SMILES IDX 49 67 42 68 48 69 43 70 44 71 45 72 46 73 47 74 70 75 71 76
REMARK SMILES IDX 79 77 72 78 78 79 73 80 74 81 75 82 76 83 77 84 56 85 57 86
REMARK SMILES IDX 65 87 58 88 64 89 59 90 60 91 61 92 62 93 63 94
REMARK H PARENT 23 6 28 31 84 50 54 61
REMARK Flexibility Score: inf
ROOT
ATOM      1  C   UNL A   1      39.030  23.544  26.889  1.00  0.00     0.023 C 
ENDROOT
BRANCH   1   2
ATOM      2  C   UNL A   1      37.833  23.593  25.935  1.00  0.00     0.116 C 
BRANCH   2   3
ATOM      3  N   UNL A   1      37.235  22.283  25.756  1.00  0.00    -0.351 N 
ATOM      4  C   UNL A   1      35.969  21.859  25.491  1.00  0.00     0.262 C 
ATOM      5  O   UNL A   1      35.812  20.647  25.332  1.00  0.00    -0.268 OA
ATOM      6  H   UNL A   1      37.881  21.545  25.842  1.00  0.00     0.163 HD
BRANCH   4   7
ATOM      7  C   UNL A   1      34.786  22.759  25.386  1.00  0.00     0.120 C 
ATOM      8  C   UNL A   1      34.264  23.575  26.334  1.00  0.00     0.072 C 
BRANCH   7   9
ATOM      9  C   UNL A   1      34.012  22.722  24.079  1.00  0.00     0.105 C 
ATOM     10  N   UNL A   1      33.370  22.690  22.994  1.00  0.00    -0.192 NA
ENDBRANCH   7   9
BRANCH   8  11
ATOM     11  C   UNL A   1      33.074  24.358  26.140  1.00  0.00     0.129 A 
ATOM     12  C   UNL A   1      31.737  23.993  26.279  1.00  0.00     0.051 A 
ATOM     13  O   UNL A   1      33.094  25.700  25.792  1.00  0.00    -0.457 OA
ATOM     14  C   UNL A   1      30.937  25.109  25.957  1.00  0.00     0.051 A 
ATOM     15  C   UNL A   1      31.804  26.141  25.691  1.00  0.00     0.136 A 
BRANCH  15  16
ATOM     16  C   UNL A   1      31.592  27.545  25.356  1.00  0.00     0.036 A 
ATOM     17  C   UNL A   1      30.781  27.885  24.257  1.00  0.00     0.026 A 
ATOM     18  C   UNL A   1      32.108  28.584  26.150  1.00  0.00     0.052 A 
ATOM     19  C   UNL A   1      30.466  29.228  23.964  1.00  0.00     0.056 A 
ATOM     20  C   UNL A   1      31.813  29.920  25.859  1.00  0.00     0.022 A 
ATOM     21  Cl  UNL A   1      33.135  28.295  27.516  1.00  0.00    -0.084 Cl
ATOM     22  C   UNL A   1      30.994  30.241  24.777  1.00  0.00     0.014 A 
BRANCH  19  23
ATOM     23  C   UNL A   1      29.561  29.568  22.803  1.00  0.00     0.416 C 
ATOM     24  F   UNL A   1      28.484  28.742  22.718  1.00  0.00    -0.166 F 
ATOM     25  F   UNL A   1      29.064  30.832  22.883  1.00  0.00    -0.166 F 
ATOM     26  F   UNL A   1      30.185  29.494  21.593  1.00  0.00    -0.166 F 
ENDBRANCH  19  23
ENDBRANCH  15  16
ENDBRANCH   8  11
ENDBRANCH   4   7
ENDBRANCH   2   3
ENDBRANCH   1   2
BRANCH   1  27
ATOM     27  C   UNL A   1      39.592  24.919  27.272  1.00  0.00     0.023 C 
BRANCH  27  28
ATOM     28  C   UNL A   1      40.388  25.628  26.179  1.00  0.00     0.116 C 
BRANCH  28  29
ATOM     29  N   UNL A   1      41.660  24.992  25.870  1.00  0.00    -0.352 N 
ATOM     30  C   UNL A   1      42.878  25.194  26.479  1.00  0.00     0.251 C 
ATOM     31  H   UNL A   1      41.647  24.336  25.135  1.00  0.00     0.163 HD
ATOM     32  O   UNL A   1      43.885  24.639  26.062  1.00  0.00    -0.269 OA
BRANCH  30  33
ATOM     33  C   UNL A   1      42.953  26.139  27.614  1.00  0.00     0.039 A 
ATOM     34  C   UNL A   1      43.336  27.458  27.362  1.00  0.00     0.014 A 
ATOM     35  C   UNL A   1      42.560  25.742  28.894  1.00  0.00     0.014 A 
ATOM     36  C   UNL A   1      43.229  28.409  28.379  1.00  0.00     0.010 A 
ATOM     37  C   UNL A   1      42.405  26.700  29.891  1.00  0.00     0.010 A 
ATOM     38  C   UNL A   1      42.712  28.046  29.633  1.00  0.00    -0.014 A 
BRANCH  38  39
ATOM     39  C   UNL A   1      42.403  29.070  30.664  1.00  0.00     0.031 A 
ATOM     40  C   UNL A   1      43.219  29.155  31.922  1.00  0.00     0.074 A 
ATOM     41  C   UNL A   1      41.314  29.850  30.505  1.00  0.00     0.049 A 
ATOM     42  N   UNL A   1      43.032  29.916  32.969  1.00  0.00    -0.248 NA
ATOM     43  C   UNL A   1      44.378  28.255  32.031  1.00  0.00     0.031 C 
ATOM     44  C   UNL A   1      40.406  29.819  29.354  1.00  0.00     0.029 A 
ATOM     45  N   UNL A   1      40.770  30.807  31.325  1.00  0.00    -0.354 N 
ATOM     46  C   UNL A   1      44.032  29.572  33.870  1.00  0.00     0.074 A 
ATOM     47  C   UNL A   1      44.808  28.517  33.258  1.00  0.00     0.031 C 
ATOM     48  C   UNL A   1      39.423  30.713  29.540  1.00  0.00     0.029 A 
ATOM     49  C   UNL A   1      39.607  31.357  30.837  1.00  0.00     0.049 A 
ATOM     50  H   UNL A   1      41.173  31.074  32.183  1.00  0.00     0.167 HD
ATOM     51  C   UNL A   1      44.284  30.098  35.092  1.00  0.00     0.031 A 
ATOM     52  C   UNL A   1      38.769  32.263  31.378  1.00  0.00     0.031 A 
ATOM     53  C   UNL A   1      43.528  31.169  35.684  1.00  0.00     0.049 A 
ATOM     54  C   UNL A   1      39.079  32.831  32.736  1.00  0.00     0.074 A 
ATOM     55  C   UNL A   1      43.777  31.841  36.869  1.00  0.00     0.029 A 
ATOM     56  N   UNL A   1      42.375  31.717  35.147  1.00  0.00    -0.354 N 
ATOM     57  N   UNL A   1      40.094  32.568  33.524  1.00  0.00    -0.248 NA
ATOM     58  C   UNL A   1      38.132  33.817  33.277  1.00  0.00     0.031 C 
ATOM     59  C   UNL A   1      42.746  32.763  37.073  1.00  0.00     0.029 A 
ATOM     60  C   UNL A   1      41.879  32.692  35.995  1.00  0.00     0.049 A 
ATOM     61  H   UNL A   1      41.969  31.453  34.290  1.00  0.00     0.167 HD
ATOM     62  C   UNL A   1      39.911  33.365  34.648  1.00  0.00     0.074 A 
ATOM     63  C   UNL A   1      38.704  34.134  34.429  1.00  0.00     0.031 C 
ATOM     64  C   UNL A   1      40.674  33.446  35.765  1.00  0.00     0.031 A 
BRANCH  51  65
ATOM     65  C   UNL A   1      45.428  29.528  35.883  1.00  0.00    -0.014 A 
ATOM     66  C   UNL A   1      45.229  28.457  36.772  1.00  0.00     0.010 A 
ATOM     67  C   UNL A   1      46.731  30.010  35.666  1.00  0.00     0.010 A 
ATOM     68  C   UNL A   1      46.314  27.887  37.443  1.00  0.00     0.020 A 
ATOM     69  C   UNL A   1      47.822  29.430  36.320  1.00  0.00     0.020 A 
ATOM     70  C   UNL A   1      47.604  28.377  37.212  1.00  0.00     0.054 A 
BRANCH  70  71
ATOM     71  S   UNL A   1      49.000  27.579  38.051  1.00  0.00     0.124 S 
ATOM     72  O   UNL A   1      48.386  26.354  38.558  1.00  0.00    -0.237 OA
ATOM     73  O   UNL A   1      49.964  27.397  36.969  1.00  0.00    -0.237 OA
ATOM     74  O   UNL A   1      49.392  28.549  39.071  1.00  0.00    -0.744 OA
ENDBRANCH  70  71
ENDBRANCH  51  65
BRANCH  52  75
ATOM     75  C   UNL A   1      37.539  32.674  30.652  1.00  0.00    -0.014 A 
ATOM     76  C   UNL A   1      36.309  32.050  30.920  1.00  0.00     0.010 A 
ATOM     77  C   UNL A   1      37.597  33.681  29.672  1.00  0.00     0.010 A 
ATOM     78  C   UNL A   1      35.163  32.404  30.200  1.00  0.00     0.020 A 
ATOM     79  C   UNL A   1      36.450  34.055  28.968  1.00  0.00     0.020 A 
ATOM     80  C   UNL A   1      35.243  33.401  29.225  1.00  0.00     0.054 A 
BRANCH  80  81
ATOM     81  S   UNL A   1      33.743  33.867  28.317  1.00  0.00     0.124 S 
ATOM     82  O   UNL A   1      33.307  32.585  27.776  1.00  0.00    -0.237 OA
ATOM     83  O   UNL A   1      32.898  34.434  29.366  1.00  0.00    -0.237 OA
ATOM     84  O   UNL A   1      34.230  34.833  27.333  1.00  0.00    -0.744 OA
ENDBRANCH  80  81
ENDBRANCH  52  75
BRANCH  64  85
ATOM     85  C   UNL A   1      40.231  34.403  36.836  1.00  0.00    -0.014 A 
ATOM     86  C   UNL A   1      39.463  33.956  37.925  1.00  0.00     0.010 A 
ATOM     87  C   UNL A   1      40.640  35.748  36.786  1.00  0.00     0.010 A 
ATOM     88  C   UNL A   1      39.096  34.844  38.940  1.00  0.00     0.020 A 
ATOM     89  C   UNL A   1      40.293  36.633  37.810  1.00  0.00     0.020 A 
ATOM     90  C   UNL A   1      39.514  36.176  38.876  1.00  0.00     0.054 A 
BRANCH  90  91
ATOM     91  S   UNL A   1      39.075  37.295  40.234  1.00  0.00     0.124 S 
ATOM     92  O   UNL A   1      38.309  36.418  41.115  1.00  0.00    -0.237 OA
ATOM     93  O   UNL A   1      40.379  37.714  40.741  1.00  0.00    -0.237 OA
ATOM     94  O   UNL A   1      38.302  38.348  39.577  1.00  0.00    -0.744 OA
ENDBRANCH  90  91
ENDBRANCH  64  85
ENDBRANCH  38  39
ENDBRANCH  30  33
ENDBRANCH  28  29
ENDBRANCH  27  28
ENDBRANCH   1  27
TORSDOF 18
ENDMDL
