MODEL 1
REMARK VINA RESULT:     -14.4      0.000      0.000
REMARK SMILES Cc1ccccc1[C@@H]1[NH2+][C@@H](C(=O)NCCCCNC(=O)c2ccc(-c3c4nc(c(-c5ccc(S(=O)(=O)[O-])cc5)c5ccc([nH]5)c(-c5ccc(S(=O)(=O)[O-])cc5)c5nc(c(-c6ccc(S(=O)(=O)[O-])cc6)c6ccc3[nH]6)C=C5)C=C4)cc2)CC2=c3ccccc3=N[C@H]21
REMARK SMILES IDX 16 1 15 2 14 3 13 4 11 5 12 6 10 8 8 9 9 10 90 11 82 14
REMARK SMILES IDX 89 15 81 16 83 17 88 18 84 19 87 20 85 21 86 22 7 23 1 24
REMARK SMILES IDX 2 25 3 26 4 27 6 28 5 29 17 30 18 31 19 32 20 34 21 35 22 36
REMARK SMILES IDX 80 37 23 38 79 39 24 40 25 41 26 42 73 43 27 44 78 45 72 46
REMARK SMILES IDX 74 47 28 48 77 49 71 50 70 51 29 53 59 54 40 55 58 56 41 57
REMARK SMILES IDX 44 58 57 59 75 60 42 61 43 62 56 64 76 65 45 66 30 67 31 68
REMARK SMILES IDX 39 69 32 70 38 71 33 72 34 73 35 74 36 75 37 76 60 77 61 78
REMARK SMILES IDX 69 79 62 80 68 81 63 82 64 83 65 84 66 85 67 86 46 87 47 88
REMARK SMILES IDX 55 89 48 90 54 91 49 92 50 93 51 94 52 95 53 96
REMARK H PARENT 13 7 9 12 9 13 18 33 74 52 44 63
REMARK Flexibility Score: inf
ROOT
ATOM      1  C   UNL A   1      40.720  21.627  27.546  1.00  0.00     0.023 C 
ENDROOT
BRANCH   1   2
ATOM      2  C   UNL A   1      40.051  21.090  26.130  1.00  0.00     0.023 C 
BRANCH   2   3
ATOM      3  C   UNL A   1      38.550  21.139  25.603  1.00  0.00     0.116 C 
BRANCH   3   4
ATOM      4  N   UNL A   1      37.942  22.408  25.185  1.00  0.00    -0.351 N 
ATOM      5  C   UNL A   1      36.872  23.050  25.760  1.00  0.00     0.278 C 
ATOM      6  O   UNL A   1      36.934  24.262  25.987  1.00  0.00    -0.268 OA
ATOM      7  H   UNL A   1      38.346  22.849  24.403  1.00  0.00     0.163 HD
BRANCH   5   8
ATOM      8  C   UNL A   1      35.550  22.263  25.923  1.00  0.00     0.277 C 
ATOM      9  C   UNL A   1      33.595  21.726  24.353  1.00  0.00     0.243 C 
ATOM     10  N   UNL A   1      35.063  21.778  24.593  1.00  0.00    -0.327 N 
ATOM     11  C   UNL A   1      32.608  22.440  25.336  1.00  0.00     0.196 C 
ATOM     12  H   UNL A   1      35.462  22.392  23.883  1.00  0.00     0.347 HD
ATOM     13  H   UNL A   1      35.358  20.802  24.558  1.00  0.00     0.347 HD
ATOM     14  C   UNL A   1      33.381  23.472  26.053  1.00  0.00    -0.024 C 
ATOM     15  N   UNL A   1      31.521  23.205  24.651  1.00  0.00    -0.270 NA
ATOM     16  C   UNL A   1      34.513  22.940  26.813  1.00  0.00     0.109 C 
ATOM     17  C   UNL A   1      32.972  24.703  25.791  1.00  0.00     0.002 A 
ATOM     18  C   UNL A   1      31.778  24.438  24.978  1.00  0.00     0.066 A 
ATOM     19  C   UNL A   1      33.439  26.021  26.065  1.00  0.00     0.010 A 
ATOM     20  C   UNL A   1      30.968  25.624  24.629  1.00  0.00     0.028 A 
ATOM     21  C   UNL A   1      32.698  27.056  25.634  1.00  0.00     0.001 A 
ATOM     22  C   UNL A   1      31.426  26.844  24.961  1.00  0.00     0.002 A 
BRANCH   9  23
ATOM     23  C   UNL A   1      33.112  20.295  24.095  1.00  0.00     0.015 A 
ATOM     24  C   UNL A   1      31.817  20.799  21.914  1.00  0.00     0.045 C 
ATOM     25  C   UNL A   1      32.397  19.875  22.949  1.00  0.00    -0.042 A 
ATOM     26  C   UNL A   1      32.256  18.499  22.701  1.00  0.00     0.004 A 
ATOM     27  C   UNL A   1      32.736  17.549  23.598  1.00  0.00     0.000 A 
ATOM     28  C   UNL A   1      33.520  19.318  25.027  1.00  0.00     0.010 A 
ATOM     29  C   UNL A   1      33.337  17.960  24.780  1.00  0.00     0.001 A 
ENDBRANCH   9  23
ENDBRANCH   5   8
ENDBRANCH   3   4
ENDBRANCH   2   3
ENDBRANCH   1   2
BRANCH   1  30
ATOM     30  C   UNL A   1      42.038  22.555  27.588  1.00  0.00     0.116 C 
BRANCH  30  31
ATOM     31  N   UNL A   1      42.347  23.797  26.637  1.00  0.00    -0.352 N 
ATOM     32  C   UNL A   1      42.197  25.243  26.521  1.00  0.00     0.251 C 
ATOM     33  H   UNL A   1      42.809  23.466  25.833  1.00  0.00     0.163 HD
ATOM     34  O   UNL A   1      43.243  25.803  26.136  1.00  0.00    -0.269 OA
BRANCH  32  35
ATOM     35  C   UNL A   1      41.030  26.275  26.787  1.00  0.00     0.039 A 
ATOM     36  C   UNL A   1      40.978  27.524  26.119  1.00  0.00     0.014 A 
ATOM     37  C   UNL A   1      39.994  26.119  27.699  1.00  0.00     0.014 A 
ATOM     38  C   UNL A   1      40.451  28.682  26.791  1.00  0.00     0.010 A 
ATOM     39  C   UNL A   1      39.479  27.259  28.383  1.00  0.00     0.010 A 
ATOM     40  C   UNL A   1      39.881  28.562  28.061  1.00  0.00    -0.014 A 
BRANCH  40  41
ATOM     41  C   UNL A   1      39.805  29.684  29.074  1.00  0.00     0.031 A 
ATOM     42  C   UNL A   1      38.729  30.666  29.044  1.00  0.00     0.074 A 
ATOM     43  C   UNL A   1      40.594  29.883  30.171  1.00  0.00     0.049 A 
ATOM     44  N   UNL A   1      38.908  31.947  29.096  1.00  0.00    -0.248 NA
ATOM     45  C   UNL A   1      37.343  30.240  29.074  1.00  0.00     0.031 C 
ATOM     46  C   UNL A   1      40.559  30.851  31.286  1.00  0.00     0.029 A 
ATOM     47  N   UNL A   1      41.680  29.134  30.551  1.00  0.00    -0.354 N 
ATOM     48  C   UNL A   1      37.700  32.472  29.496  1.00  0.00     0.074 A 
ATOM     49  C   UNL A   1      36.734  31.407  29.295  1.00  0.00     0.031 C 
ATOM     50  C   UNL A   1      41.746  30.839  31.937  1.00  0.00     0.029 A 
ATOM     51  C   UNL A   1      42.608  29.891  31.262  1.00  0.00     0.049 A 
ATOM     52  H   UNL A   1      41.789  28.177  30.347  1.00  0.00     0.167 HD
ATOM     53  C   UNL A   1      37.630  33.646  30.193  1.00  0.00     0.031 A 
ATOM     54  C   UNL A   1      43.851  30.065  30.716  1.00  0.00     0.031 A 
ATOM     55  C   UNL A   1      38.954  34.114  30.638  1.00  0.00     0.049 A 
ATOM     56  C   UNL A   1      43.989  31.472  30.201  1.00  0.00     0.074 A 
ATOM     57  C   UNL A   1      39.546  34.172  31.893  1.00  0.00     0.029 A 
ATOM     58  N   UNL A   1      39.987  34.305  29.723  1.00  0.00    -0.354 N 
ATOM     59  N   UNL A   1      43.013  32.331  30.263  1.00  0.00    -0.248 NA
ATOM     60  C   UNL A   1      45.179  32.054  29.589  1.00  0.00     0.031 C 
ATOM     61  C   UNL A   1      40.951  34.303  31.718  1.00  0.00     0.029 A 
ATOM     62  C   UNL A   1      41.217  34.368  30.362  1.00  0.00     0.049 A 
ATOM     63  H   UNL A   1      39.860  34.387  28.749  1.00  0.00     0.167 HD
ATOM     64  C   UNL A   1      43.363  33.511  29.694  1.00  0.00     0.074 A 
ATOM     65  C   UNL A   1      44.752  33.304  29.317  1.00  0.00     0.031 C 
ATOM     66  C   UNL A   1      42.456  34.527  29.593  1.00  0.00     0.031 A 
BRANCH  53  67
ATOM     67  C   UNL A   1      36.317  34.182  30.740  1.00  0.00    -0.014 A 
ATOM     68  C   UNL A   1      35.194  34.356  29.908  1.00  0.00     0.010 A 
ATOM     69  C   UNL A   1      36.124  34.501  32.101  1.00  0.00     0.010 A 
ATOM     70  C   UNL A   1      33.990  34.903  30.386  1.00  0.00     0.020 A 
ATOM     71  C   UNL A   1      34.955  35.105  32.582  1.00  0.00     0.020 A 
ATOM     72  C   UNL A   1      33.887  35.299  31.718  1.00  0.00     0.054 A 
BRANCH  72  73
ATOM     73  S   UNL A   1      32.334  36.008  32.325  1.00  0.00     0.124 S 
ATOM     74  O   UNL A   1      31.778  36.634  31.127  1.00  0.00    -0.237 OA
ATOM     75  O   UNL A   1      31.622  34.830  32.810  1.00  0.00    -0.237 OA
ATOM     76  O   UNL A   1      32.760  36.943  33.366  1.00  0.00    -0.744 OA
ENDBRANCH  72  73
ENDBRANCH  53  67
BRANCH  54  77
ATOM     77  C   UNL A   1      44.442  28.779  30.123  1.00  0.00    -0.014 A 
ATOM     78  C   UNL A   1      43.767  28.380  28.954  1.00  0.00     0.010 A 
ATOM     79  C   UNL A   1      45.825  28.720  30.013  1.00  0.00     0.010 A 
ATOM     80  C   UNL A   1      44.300  28.746  27.701  1.00  0.00     0.020 A 
ATOM     81  C   UNL A   1      46.374  28.952  28.728  1.00  0.00     0.020 A 
ATOM     82  C   UNL A   1      45.580  29.253  27.620  1.00  0.00     0.054 A 
BRANCH  82  83
ATOM     83  S   UNL A   1      46.150  30.557  26.210  1.00  0.00     0.124 S 
ATOM     84  O   UNL A   1      47.346  31.231  26.644  1.00  0.00    -0.237 OA
ATOM     85  O   UNL A   1      46.447  29.710  25.063  1.00  0.00    -0.237 OA
ATOM     86  O   UNL A   1      45.091  31.509  26.091  1.00  0.00    -0.744 OA
ENDBRANCH  82  83
ENDBRANCH  54  77
BRANCH  66  87
ATOM     87  C   UNL A   1      42.670  35.813  28.842  1.00  0.00    -0.014 A 
ATOM     88  C   UNL A   1      42.276  36.030  27.516  1.00  0.00     0.010 A 
ATOM     89  C   UNL A   1      43.227  36.915  29.536  1.00  0.00     0.010 A 
ATOM     90  C   UNL A   1      42.505  37.257  26.883  1.00  0.00     0.020 A 
ATOM     91  C   UNL A   1      43.406  38.160  28.935  1.00  0.00     0.020 A 
ATOM     92  C   UNL A   1      43.075  38.311  27.596  1.00  0.00     0.054 A 
BRANCH  92  93
ATOM     93  S   UNL A   1      43.343  39.894  26.766  1.00  0.00     0.124 S 
ATOM     94  O   UNL A   1      44.485  39.590  25.907  1.00  0.00    -0.237 OA
ATOM     95  O   UNL A   1      42.077  40.112  26.071  1.00  0.00    -0.237 OA
ATOM     96  O   UNL A   1      43.613  40.820  27.863  1.00  0.00    -0.744 OA
ENDBRANCH  92  93
ENDBRANCH  66  87
ENDBRANCH  40  41
ENDBRANCH  32  35
ENDBRANCH  30  31
ENDBRANCH   1  30
TORSDOF 15
ENDMDL
MODEL 2
REMARK VINA RESULT:     -14.0      4.955     11.184
REMARK SMILES Cc1ccccc1[C@@H]1[NH2+][C@@H](C(=O)NCCCCNC(=O)c2ccc(-c3c4nc(c(-c5ccc(S(=O)(=O)[O-])cc5)c5ccc([nH]5)c(-c5ccc(S(=O)(=O)[O-])cc5)c5nc(c(-c6ccc(S(=O)(=O)[O-])cc6)c6ccc3[nH]6)C=C5)C=C4)cc2)CC2=c3ccccc3=N[C@H]21
REMARK SMILES IDX 16 1 15 2 14 3 13 4 11 5 12 6 10 8 8 9 9 10 90 11 82 14
REMARK SMILES IDX 89 15 81 16 83 17 88 18 84 19 87 20 85 21 86 22 7 23 1 24
REMARK SMILES IDX 2 25 3 26 4 27 6 28 5 29 17 30 18 31 19 32 20 34 21 35 22 36
REMARK SMILES IDX 80 37 23 38 79 39 24 40 25 41 26 42 73 43 27 44 78 45 72 46
REMARK SMILES IDX 74 47 28 48 77 49 71 50 70 51 29 53 59 54 40 55 58 56 41 57
REMARK SMILES IDX 44 58 57 59 75 60 42 61 43 62 56 64 76 65 45 66 30 67 31 68
REMARK SMILES IDX 39 69 32 70 38 71 33 72 34 73 35 74 36 75 37 76 60 77 61 78
REMARK SMILES IDX 69 79 62 80 68 81 63 82 64 83 65 84 66 85 67 86 46 87 47 88
REMARK SMILES IDX 55 89 48 90 54 91 49 92 50 93 51 94 52 95 53 96
REMARK H PARENT 13 7 9 12 9 13 18 33 74 52 44 63
REMARK Flexibility Score: inf
ROOT
ATOM      1  C   UNL A   1      35.294  32.962  28.005  1.00  0.00     0.023 C 
ENDROOT
BRANCH   1   2
ATOM      2  C   UNL A   1      34.760  31.460  27.558  1.00  0.00     0.023 C 
BRANCH   2   3
ATOM      3  C   UNL A   1      33.287  30.905  27.323  1.00  0.00     0.116 C 
BRANCH   3   4
ATOM      4  N   UNL A   1      32.997  29.470  27.443  1.00  0.00    -0.351 N 
ATOM      5  C   UNL A   1      33.284  28.482  26.533  1.00  0.00     0.278 C 
ATOM      6  O   UNL A   1      33.805  27.429  26.914  1.00  0.00    -0.268 OA
ATOM      7  H   UNL A   1      32.545  29.183  28.270  1.00  0.00     0.163 HD
BRANCH   5   8
ATOM      8  C   UNL A   1      32.764  28.650  25.085  1.00  0.00     0.277 C 
ATOM      9  C   UNL A   1      30.888  27.545  23.732  1.00  0.00     0.243 C 
ATOM     10  N   UNL A   1      31.338  28.203  24.988  1.00  0.00    -0.327 N 
ATOM     11  C   UNL A   1      31.936  27.058  22.675  1.00  0.00     0.196 C 
ATOM     12  H   UNL A   1      31.176  27.544  25.749  1.00  0.00     0.347 HD
ATOM     13  H   UNL A   1      30.801  29.069  25.024  1.00  0.00     0.347 HD
ATOM     14  C   UNL A   1      33.221  26.898  23.380  1.00  0.00    -0.024 C 
ATOM     15  N   UNL A   1      31.649  25.699  22.121  1.00  0.00    -0.270 NA
ATOM     16  C   UNL A   1      33.708  28.129  24.007  1.00  0.00     0.109 C 
ATOM     17  C   UNL A   1      33.647  25.646  23.408  1.00  0.00     0.002 A 
ATOM     18  C   UNL A   1      32.654  24.990  22.546  1.00  0.00     0.066 A 
ATOM     19  C   UNL A   1      34.690  24.928  24.063  1.00  0.00     0.010 A 
ATOM     20  C   UNL A   1      32.922  23.572  22.230  1.00  0.00     0.028 A 
ATOM     21  C   UNL A   1      34.816  23.616  23.801  1.00  0.00     0.001 A 
ATOM     22  C   UNL A   1      33.954  22.956  22.832  1.00  0.00     0.002 A 
BRANCH   9  23
ATOM     23  C   UNL A   1      29.792  28.351  23.029  1.00  0.00     0.015 A 
ATOM     24  C   UNL A   1      27.795  26.923  23.842  1.00  0.00     0.045 C 
ATOM     25  C   UNL A   1      28.402  28.119  23.164  1.00  0.00    -0.042 A 
ATOM     26  C   UNL A   1      27.501  29.091  22.695  1.00  0.00     0.004 A 
ATOM     27  C   UNL A   1      27.947  30.233  22.034  1.00  0.00     0.000 A 
ATOM     28  C   UNL A   1      30.216  29.474  22.289  1.00  0.00     0.010 A 
ATOM     29  C   UNL A   1      29.304  30.406  21.799  1.00  0.00     0.001 A 
ENDBRANCH   9  23
ENDBRANCH   5   8
ENDBRANCH   3   4
ENDBRANCH   2   3
ENDBRANCH   1   2
BRANCH   1  30
ATOM     30  C   UNL A   1      35.887  33.273  29.471  1.00  0.00     0.116 C 
BRANCH  30  31
ATOM     31  N   UNL A   1      36.237  32.197  30.594  1.00  0.00    -0.352 N 
ATOM     32  C   UNL A   1      37.096  31.055  30.888  1.00  0.00     0.251 C 
ATOM     33  H   UNL A   1      35.664  32.365  31.377  1.00  0.00     0.163 HD
ATOM     34  O   UNL A   1      37.607  31.120  32.024  1.00  0.00    -0.269 OA
BRANCH  32  35
ATOM     35  C   UNL A   1      37.552  29.762  30.101  1.00  0.00     0.039 A 
ATOM     36  C   UNL A   1      37.752  28.524  30.761  1.00  0.00     0.014 A 
ATOM     37  C   UNL A   1      37.850  29.693  28.745  1.00  0.00     0.014 A 
ATOM     38  C   UNL A   1      38.778  27.621  30.311  1.00  0.00     0.010 A 
ATOM     39  C   UNL A   1      38.878  28.815  28.294  1.00  0.00     0.010 A 
ATOM     40  C   UNL A   1      39.506  27.903  29.152  1.00  0.00    -0.014 A 
BRANCH  40  41
ATOM     41  C   UNL A   1      40.903  27.393  28.875  1.00  0.00     0.031 A 
ATOM     42  C   UNL A   1      41.148  26.004  28.506  1.00  0.00     0.074 A 
ATOM     43  C   UNL A   1      42.064  28.109  28.807  1.00  0.00     0.049 A 
ATOM     44  N   UNL A   1      42.038  25.247  29.063  1.00  0.00    -0.248 NA
ATOM     45  C   UNL A   1      40.462  25.411  27.375  1.00  0.00     0.031 C 
ATOM     46  C   UNL A   1      43.452  27.764  28.439  1.00  0.00     0.029 A 
ATOM     47  N   UNL A   1      42.219  29.451  29.049  1.00  0.00    -0.354 N 
ATOM     48  C   UNL A   1      42.263  24.225  28.169  1.00  0.00     0.074 A 
ATOM     49  C   UNL A   1      41.150  24.276  27.239  1.00  0.00     0.031 C 
ATOM     50  C   UNL A   1      44.290  28.745  28.849  1.00  0.00     0.029 A 
ATOM     51  C   UNL A   1      43.494  29.749  29.523  1.00  0.00     0.049 A 
ATOM     52  H   UNL A   1      41.513  30.123  28.904  1.00  0.00     0.167 HD
ATOM     53  C   UNL A   1      43.469  23.583  28.112  1.00  0.00     0.031 A 
ATOM     54  C   UNL A   1      43.609  30.263  30.786  1.00  0.00     0.031 A 
ATOM     55  C   UNL A   1      44.502  24.255  28.919  1.00  0.00     0.049 A 
ATOM     56  C   UNL A   1      44.158  29.214  31.715  1.00  0.00     0.074 A 
ATOM     57  C   UNL A   1      45.625  24.991  28.567  1.00  0.00     0.029 A 
ATOM     58  N   UNL A   1      44.296  24.504  30.275  1.00  0.00    -0.354 N 
ATOM     59  N   UNL A   1      44.423  28.004  31.313  1.00  0.00    -0.248 NA
ATOM     60  C   UNL A   1      44.462  29.389  33.131  1.00  0.00     0.031 C 
ATOM     61  C   UNL A   1      46.031  25.755  29.695  1.00  0.00     0.029 A 
ATOM     62  C   UNL A   1      45.185  25.457  30.749  1.00  0.00     0.049 A 
ATOM     63  H   UNL A   1      43.609  24.060  30.824  1.00  0.00     0.167 HD
ATOM     64  C   UNL A   1      44.862  27.234  32.339  1.00  0.00     0.074 A 
ATOM     65  C   UNL A   1      44.907  28.158  33.460  1.00  0.00     0.031 C 
ATOM     66  C   UNL A   1      45.130  25.908  32.143  1.00  0.00     0.031 A 
BRANCH  53  67
ATOM     67  C   UNL A   1      43.774  22.532  27.057  1.00  0.00    -0.014 A 
ATOM     68  C   UNL A   1      42.906  21.445  26.834  1.00  0.00     0.010 A 
ATOM     69  C   UNL A   1      44.907  22.590  26.218  1.00  0.00     0.010 A 
ATOM     70  C   UNL A   1      43.200  20.435  25.902  1.00  0.00     0.020 A 
ATOM     71  C   UNL A   1      45.249  21.562  25.330  1.00  0.00     0.020 A 
ATOM     72  C   UNL A   1      44.387  20.486  25.172  1.00  0.00     0.054 A 
BRANCH  72  73
ATOM     73  S   UNL A   1      44.761  19.177  23.977  1.00  0.00     0.124 S 
ATOM     74  O   UNL A   1      46.178  18.916  24.222  1.00  0.00    -0.237 OA
ATOM     75  O   UNL A   1      43.845  18.115  24.379  1.00  0.00    -0.237 OA
ATOM     76  O   UNL A   1      44.465  19.791  22.682  1.00  0.00    -0.744 OA
ENDBRANCH  72  73
ENDBRANCH  53  67
BRANCH  54  77
ATOM     77  C   UNL A   1      42.574  31.353  31.098  1.00  0.00    -0.014 A 
ATOM     78  C   UNL A   1      41.260  30.850  31.088  1.00  0.00     0.010 A 
ATOM     79  C   UNL A   1      42.845  32.179  32.182  1.00  0.00     0.010 A 
ATOM     80  C   UNL A   1      40.666  30.474  32.311  1.00  0.00     0.020 A 
ATOM     81  C   UNL A   1      42.152  31.900  33.384  1.00  0.00     0.020 A 
ATOM     82  C   UNL A   1      41.257  30.835  33.503  1.00  0.00     0.054 A 
BRANCH  82  83
ATOM     83  S   UNL A   1      41.097  29.744  35.175  1.00  0.00     0.124 S 
ATOM     84  O   UNL A   1      41.855  30.374  36.226  1.00  0.00    -0.237 OA
ATOM     85  O   UNL A   1      39.676  29.800  35.484  1.00  0.00    -0.237 OA
ATOM     86  O   UNL A   1      41.675  28.469  34.880  1.00  0.00    -0.744 OA
ENDBRANCH  82  83
ENDBRANCH  54  77
BRANCH  66  87
ATOM     87  C   UNL A   1      45.460  24.919  33.228  1.00  0.00    -0.014 A 
ATOM     88  C   UNL A   1      46.671  24.891  33.931  1.00  0.00     0.010 A 
ATOM     89  C   UNL A   1      44.459  24.004  33.635  1.00  0.00     0.010 A 
ATOM     90  C   UNL A   1      46.906  23.941  34.933  1.00  0.00     0.020 A 
ATOM     91  C   UNL A   1      44.659  23.093  34.670  1.00  0.00     0.020 A 
ATOM     92  C   UNL A   1      45.900  23.045  35.290  1.00  0.00     0.054 A 
BRANCH  92  93
ATOM     93  S   UNL A   1      46.215  21.841  36.600  1.00  0.00     0.124 S 
ATOM     94  O   UNL A   1      47.671  21.724  36.552  1.00  0.00    -0.237 OA
ATOM     95  O   UNL A   1      45.679  22.506  37.785  1.00  0.00    -0.237 OA
ATOM     96  O   UNL A   1      45.477  20.657  36.169  1.00  0.00    -0.744 OA
ENDBRANCH  92  93
ENDBRANCH  66  87
ENDBRANCH  40  41
ENDBRANCH  32  35
ENDBRANCH  30  31
ENDBRANCH   1  30
TORSDOF 15
ENDMDL
MODEL 3
REMARK VINA RESULT:     -13.7      1.564      2.135
REMARK SMILES Cc1ccccc1[C@@H]1[NH2+][C@@H](C(=O)NCCCCNC(=O)c2ccc(-c3c4nc(c(-c5ccc(S(=O)(=O)[O-])cc5)c5ccc([nH]5)c(-c5ccc(S(=O)(=O)[O-])cc5)c5nc(c(-c6ccc(S(=O)(=O)[O-])cc6)c6ccc3[nH]6)C=C5)C=C4)cc2)CC2=c3ccccc3=N[C@H]21
REMARK SMILES IDX 16 1 15 2 14 3 13 4 11 5 12 6 10 8 8 9 9 10 90 11 82 14
REMARK SMILES IDX 89 15 81 16 83 17 88 18 84 19 87 20 85 21 86 22 7 23 1 24
REMARK SMILES IDX 2 25 3 26 4 27 6 28 5 29 17 30 18 31 19 32 20 34 21 35 22 36
REMARK SMILES IDX 80 37 23 38 79 39 24 40 25 41 26 42 73 43 27 44 78 45 72 46
REMARK SMILES IDX 74 47 28 48 77 49 71 50 70 51 29 53 59 54 40 55 58 56 41 57
REMARK SMILES IDX 44 58 57 59 75 60 42 61 43 62 56 64 76 65 45 66 30 67 31 68
REMARK SMILES IDX 39 69 32 70 38 71 33 72 34 73 35 74 36 75 37 76 60 77 61 78
REMARK SMILES IDX 69 79 62 80 68 81 63 82 64 83 65 84 66 85 67 86 46 87 47 88
REMARK SMILES IDX 55 89 48 90 54 91 49 92 50 93 51 94 52 95 53 96
REMARK H PARENT 13 7 9 12 9 13 18 33 74 52 44 63
REMARK Flexibility Score: inf
ROOT
ATOM      1  C   UNL A   1      41.114  20.431  26.453  1.00  0.00     0.023 C 
ENDROOT
BRANCH   1   2
ATOM      2  C   UNL A   1      39.830  21.474  26.380  1.00  0.00     0.023 C 
BRANCH   2   3
ATOM      3  C   UNL A   1      38.446  21.370  25.602  1.00  0.00     0.116 C 
BRANCH   3   4
ATOM      4  N   UNL A   1      37.777  22.576  25.095  1.00  0.00    -0.351 N 
ATOM      5  C   UNL A   1      36.703  23.228  25.649  1.00  0.00     0.278 C 
ATOM      6  O   UNL A   1      36.726  24.458  25.768  1.00  0.00    -0.268 OA
ATOM      7  H   UNL A   1      38.139  22.959  24.264  1.00  0.00     0.163 HD
BRANCH   5   8
ATOM      8  C   UNL A   1      35.418  22.414  25.928  1.00  0.00     0.277 C 
ATOM      9  C   UNL A   1      33.358  21.807  24.525  1.00  0.00     0.243 C 
ATOM     10  N   UNL A   1      34.839  21.897  24.647  1.00  0.00    -0.327 N 
ATOM     11  C   UNL A   1      32.436  22.514  25.574  1.00  0.00     0.196 C 
ATOM     12  H   UNL A   1      35.166  22.509  23.900  1.00  0.00     0.347 HD
ATOM     13  H   UNL A   1      35.154  20.928  24.602  1.00  0.00     0.347 HD
ATOM     14  C   UNL A   1      33.237  23.574  26.214  1.00  0.00    -0.024 C 
ATOM     15  N   UNL A   1      31.279  23.243  24.968  1.00  0.00    -0.270 NA
ATOM     16  C   UNL A   1      34.439  23.080  26.888  1.00  0.00     0.109 C 
ATOM     17  C   UNL A   1      32.779  24.791  25.969  1.00  0.00     0.002 A 
ATOM     18  C   UNL A   1      31.531  24.486  25.257  1.00  0.00     0.066 A 
ATOM     19  C   UNL A   1      33.234  26.124  26.187  1.00  0.00     0.010 A 
ATOM     20  C   UNL A   1      30.668  25.647  24.958  1.00  0.00     0.028 A 
ATOM     21  C   UNL A   1      32.437  27.135  25.803  1.00  0.00     0.001 A 
ATOM     22  C   UNL A   1      31.121  26.883  25.236  1.00  0.00     0.002 A 
BRANCH   9  23
ATOM     23  C   UNL A   1      32.891  20.363  24.326  1.00  0.00     0.015 A 
ATOM     24  C   UNL A   1      31.966  20.670  21.931  1.00  0.00     0.045 C 
ATOM     25  C   UNL A   1      32.356  19.842  23.124  1.00  0.00    -0.042 A 
ATOM     26  C   UNL A   1      32.226  18.449  22.983  1.00  0.00     0.004 A 
ATOM     27  C   UNL A   1      32.540  17.584  24.028  1.00  0.00     0.000 A 
ATOM     28  C   UNL A   1      33.127  19.474  25.395  1.00  0.00     0.010 A 
ATOM     29  C   UNL A   1      32.956  18.100  25.247  1.00  0.00     0.001 A 
ENDBRANCH   9  23
ENDBRANCH   5   8
ENDBRANCH   3   4
ENDBRANCH   2   3
ENDBRANCH   1   2
BRANCH   1  30
ATOM     30  C   UNL A   1      42.567  20.796  25.857  1.00  0.00     0.116 C 
BRANCH  30  31
ATOM     31  N   UNL A   1      43.007  22.200  25.241  1.00  0.00    -0.352 N 
ATOM     32  C   UNL A   1      42.948  23.640  25.461  1.00  0.00     0.251 C 
ATOM     33  H   UNL A   1      43.499  22.032  24.405  1.00  0.00     0.163 HD
ATOM     34  O   UNL A   1      44.047  24.199  25.269  1.00  0.00    -0.269 OA
BRANCH  32  35
ATOM     35  C   UNL A   1      41.828  24.663  25.906  1.00  0.00     0.039 A 
ATOM     36  C   UNL A   1      41.779  25.982  25.387  1.00  0.00     0.014 A 
ATOM     37  C   UNL A   1      40.836  24.428  26.849  1.00  0.00     0.014 A 
ATOM     38  C   UNL A   1      41.323  27.067  26.213  1.00  0.00     0.010 A 
ATOM     39  C   UNL A   1      40.392  25.495  27.685  1.00  0.00     0.010 A 
ATOM     40  C   UNL A   1      40.816  26.817  27.491  1.00  0.00    -0.014 A 
BRANCH  40  41
ATOM     41  C   UNL A   1      40.827  27.816  28.627  1.00  0.00     0.031 A 
ATOM     42  C   UNL A   1      39.816  28.861  28.732  1.00  0.00     0.074 A 
ATOM     43  C   UNL A   1      41.641  27.837  29.723  1.00  0.00     0.049 A 
ATOM     44  N   UNL A   1      40.078  30.113  28.926  1.00  0.00    -0.248 NA
ATOM     45  C   UNL A   1      38.406  28.522  28.742  1.00  0.00     0.031 C 
ATOM     46  C   UNL A   1      41.685  28.670  30.941  1.00  0.00     0.029 A 
ATOM     47  N   UNL A   1      42.682  26.983  29.992  1.00  0.00    -0.354 N 
ATOM     48  C   UNL A   1      38.912  30.663  29.408  1.00  0.00     0.074 A 
ATOM     49  C   UNL A   1      37.877  29.691  29.108  1.00  0.00     0.031 C 
ATOM     50  C   UNL A   1      42.877  28.509  31.562  1.00  0.00     0.029 A 
ATOM     51  C   UNL A   1      43.666  27.594  30.765  1.00  0.00     0.049 A 
ATOM     52  H   UNL A   1      42.726  26.052  29.678  1.00  0.00     0.167 HD
ATOM     53  C   UNL A   1      38.927  31.751  30.236  1.00  0.00     0.031 A 
ATOM     54  C   UNL A   1      44.911  27.751  30.217  1.00  0.00     0.031 A 
ATOM     55  C   UNL A   1      40.285  32.080  30.705  1.00  0.00     0.049 A 
ATOM     56  C   UNL A   1      45.132  29.197  29.862  1.00  0.00     0.074 A 
ATOM     57  C   UNL A   1      40.897  31.957  31.945  1.00  0.00     0.029 A 
ATOM     58  N   UNL A   1      41.316  32.311  29.795  1.00  0.00    -0.354 N 
ATOM     59  N   UNL A   1      44.214  30.102  30.043  1.00  0.00    -0.248 NA
ATOM     60  C   UNL A   1      46.349  29.770  29.297  1.00  0.00     0.031 C 
ATOM     61  C   UNL A   1      42.305  32.018  31.757  1.00  0.00     0.029 A 
ATOM     62  C   UNL A   1      42.555  32.223  30.412  1.00  0.00     0.049 A 
ATOM     63  H   UNL A   1      41.181  32.512  28.841  1.00  0.00     0.167 HD
ATOM     64  C   UNL A   1      44.633  31.316  29.606  1.00  0.00     0.074 A 
ATOM     65  C   UNL A   1      46.000  31.067  29.178  1.00  0.00     0.031 C 
ATOM     66  C   UNL A   1      43.791  32.392  29.641  1.00  0.00     0.031 A 
BRANCH  53  67
ATOM     67  C   UNL A   1      37.660  32.301  30.869  1.00  0.00    -0.014 A 
ATOM     68  C   UNL A   1      36.899  33.301  30.232  1.00  0.00     0.010 A 
ATOM     69  C   UNL A   1      37.146  31.832  32.097  1.00  0.00     0.010 A 
ATOM     70  C   UNL A   1      35.755  33.861  30.829  1.00  0.00     0.020 A 
ATOM     71  C   UNL A   1      36.047  32.421  32.736  1.00  0.00     0.020 A 
ATOM     72  C   UNL A   1      35.350  33.434  32.092  1.00  0.00     0.054 A 
BRANCH  72  73
ATOM     73  S   UNL A   1      33.879  34.164  32.856  1.00  0.00     0.124 S 
ATOM     74  O   UNL A   1      34.447  34.993  33.917  1.00  0.00    -0.237 OA
ATOM     75  O   UNL A   1      33.277  34.890  31.743  1.00  0.00    -0.237 OA
ATOM     76  O   UNL A   1      33.116  33.007  33.322  1.00  0.00    -0.744 OA
ENDBRANCH  72  73
ENDBRANCH  53  67
BRANCH  54  77
ATOM     77  C   UNL A   1      45.409  26.508  29.468  1.00  0.00    -0.014 A 
ATOM     78  C   UNL A   1      44.586  26.187  28.373  1.00  0.00     0.010 A 
ATOM     79  C   UNL A   1      46.766  26.457  29.176  1.00  0.00     0.010 A 
ATOM     80  C   UNL A   1      44.955  26.637  27.088  1.00  0.00     0.020 A 
ATOM     81  C   UNL A   1      47.146  26.774  27.849  1.00  0.00     0.020 A 
ATOM     82  C   UNL A   1      46.218  27.149  26.875  1.00  0.00     0.054 A 
BRANCH  82  83
ATOM     83  S   UNL A   1      46.612  28.543  25.493  1.00  0.00     0.124 S 
ATOM     84  O   UNL A   1      46.230  28.046  24.196  1.00  0.00    -0.237 OA
ATOM     85  O   UNL A   1      45.750  29.653  25.873  1.00  0.00    -0.237 OA
ATOM     86  O   UNL A   1      48.027  28.747  25.519  1.00  0.00    -0.744 OA
ENDBRANCH  82  83
ENDBRANCH  54  77
BRANCH  66  87
ATOM     87  C   UNL A   1      44.078  33.740  29.037  1.00  0.00    -0.014 A 
ATOM     88  C   UNL A   1      44.022  34.021  27.666  1.00  0.00     0.010 A 
ATOM     89  C   UNL A   1      44.338  34.827  29.906  1.00  0.00     0.010 A 
ATOM     90  C   UNL A   1      44.298  35.304  27.178  1.00  0.00     0.020 A 
ATOM     91  C   UNL A   1      44.556  36.121  29.437  1.00  0.00     0.020 A 
ATOM     92  C   UNL A   1      44.570  36.343  28.067  1.00  0.00     0.054 A 
BRANCH  92  93
ATOM     93  S   UNL A   1      44.902  37.995  27.417  1.00  0.00     0.124 S 
ATOM     94  O   UNL A   1      45.998  37.734  26.485  1.00  0.00    -0.237 OA
ATOM     95  O   UNL A   1      43.630  38.361  26.799  1.00  0.00    -0.237 OA
ATOM     96  O   UNL A   1      45.258  38.770  28.602  1.00  0.00    -0.744 OA
ENDBRANCH  92  93
ENDBRANCH  66  87
ENDBRANCH  40  41
ENDBRANCH  32  35
ENDBRANCH  30  31
ENDBRANCH   1  30
TORSDOF 15
ENDMDL
