MODEL 1
REMARK VINA RESULT:     -11.2      0.000      0.000
REMARK SMILES CN(C(=O)N1CCC(C(=O)NCCCCNC(=O)c2ccc(-c3c4nc(c(-c5ccc(S(=O)(=O)[O-])cc5)c5ccc([nH]5)c(-c5ccc(S(=O)(=O)[O-])cc5)c5nc(c(-c6ccc(S(=O)(=O)[O-])cc6)c6ccc3[nH]6)C=C5)C=C4)cc2)CC1)[C@H]1CCSC1
REMARK SMILES IDX 14 1 13 2 12 3 11 4 9 5 10 6 8 8 3 9 4 10 5 11 6 12 80 13
REMARK SMILES IDX 7 14 79 15 2 16 1 17 81 18 82 19 85 20 83 21 84 22 15 23
REMARK SMILES IDX 16 24 17 25 18 27 19 28 20 29 78 30 21 31 77 32 22 33 23 34
REMARK SMILES IDX 24 35 71 36 25 37 76 38 70 39 72 40 26 41 75 42 69 43 68 44
REMARK SMILES IDX 27 46 57 47 38 48 56 49 39 50 42 51 55 52 73 53 40 54 41 55
REMARK SMILES IDX 54 57 74 58 43 59 28 60 29 61 37 62 30 63 36 64 31 65 32 66
REMARK SMILES IDX 33 67 34 68 35 69 58 70 59 71 67 72 60 73 66 74 61 75 62 76
REMARK SMILES IDX 63 77 64 78 65 79 44 80 45 81 53 82 46 83 52 84 47 85 48 86
REMARK SMILES IDX 49 87 50 88 51 89
REMARK H PARENT 11 7 16 26 72 45 42 56
REMARK Flexibility Score: inf
ROOT
ATOM      1  C   UNL A   1      35.951  22.939  24.348  1.00  0.00     0.023 C 
ENDROOT
BRANCH   1   2
ATOM      2  C   UNL A   1      35.808  21.437  24.586  1.00  0.00     0.023 C 
BRANCH   2   3
ATOM      3  C   UNL A   1      35.025  21.062  25.840  1.00  0.00     0.116 C 
BRANCH   3   4
ATOM      4  N   UNL A   1      34.029  20.037  25.574  1.00  0.00    -0.356 N 
ATOM      5  C   UNL A   1      32.696  20.134  25.320  1.00  0.00     0.223 C 
ATOM      6  O   UNL A   1      32.065  19.092  25.132  1.00  0.00    -0.275 OA
ATOM      7  H   UNL A   1      34.379  19.116  25.578  1.00  0.00     0.163 HD
BRANCH   5   8
ATOM      8  C   UNL A   1      31.990  21.479  25.238  1.00  0.00     0.082 C 
ATOM      9  C   UNL A   1      32.972  25.426  24.815  1.00  0.00     0.320 C 
ATOM     10  O   UNL A   1      33.812  25.644  25.691  1.00  0.00    -0.248 OA
ATOM     11  N   UNL A   1      32.125  24.338  24.901  1.00  0.00    -0.325 N 
ATOM     12  C   UNL A   1      31.809  23.802  26.218  1.00  0.00     0.122 C 
ATOM     13  C   UNL A   1      31.655  23.542  23.772  1.00  0.00     0.122 C 
ATOM     14  C   UNL A   1      32.361  22.400  26.405  1.00  0.00     0.035 C 
ATOM     15  C   UNL A   1      32.149  22.102  23.845  1.00  0.00     0.035 C 
BRANCH   9  16
ATOM     16  N   UNL A   1      32.810  26.303  23.748  1.00  0.00    -0.324 N 
ATOM     17  C   UNL A   1      33.463  26.115  22.456  1.00  0.00     0.149 C 
BRANCH  16  18
ATOM     18  C   UNL A   1      31.642  27.209  23.796  1.00  0.00     0.097 C 
ATOM     19  C   UNL A   1      31.936  28.605  24.357  1.00  0.00     0.037 C 
ATOM     20  C   UNL A   1      31.010  27.401  22.406  1.00  0.00     0.094 C 
ATOM     21  C   UNL A   1      30.701  29.450  24.105  1.00  0.00     0.072 C 
ATOM     22  S   UNL A   1      30.190  29.024  22.422  1.00  0.00    -0.160 SA
ENDBRANCH  16  18
ENDBRANCH   9  16
ENDBRANCH   5   8
ENDBRANCH   3   4
ENDBRANCH   2   3
ENDBRANCH   1   2
BRANCH   1  23
ATOM     23  C   UNL A   1      37.150  23.593  25.027  1.00  0.00     0.116 C 
BRANCH  23  24
ATOM     24  N   UNL A   1      38.114  22.632  25.542  1.00  0.00    -0.352 N 
ATOM     25  C   UNL A   1      39.206  22.857  26.346  1.00  0.00     0.251 C 
ATOM     26  H   UNL A   1      37.963  21.695  25.279  1.00  0.00     0.163 HD
ATOM     27  O   UNL A   1      39.983  21.942  26.605  1.00  0.00    -0.269 OA
BRANCH  25  28
ATOM     28  C   UNL A   1      39.456  24.217  26.862  1.00  0.00     0.039 A 
ATOM     29  C   UNL A   1      39.059  24.529  28.164  1.00  0.00     0.014 A 
ATOM     30  C   UNL A   1      40.118  25.165  26.077  1.00  0.00     0.014 A 
ATOM     31  C   UNL A   1      39.391  25.773  28.706  1.00  0.00     0.010 A 
ATOM     32  C   UNL A   1      40.511  26.373  26.643  1.00  0.00     0.010 A 
ATOM     33  C   UNL A   1      40.151  26.689  27.962  1.00  0.00    -0.014 A 
BRANCH  33  34
ATOM     34  C   UNL A   1      40.593  27.978  28.549  1.00  0.00     0.031 A 
ATOM     35  C   UNL A   1      41.987  28.127  29.088  1.00  0.00     0.074 A 
ATOM     36  C   UNL A   1      39.710  28.988  28.676  1.00  0.00     0.049 A 
ATOM     37  N   UNL A   1      42.535  29.150  29.692  1.00  0.00    -0.248 NA
ATOM     38  C   UNL A   1      42.874  26.958  28.960  1.00  0.00     0.031 C 
ATOM     39  C   UNL A   1      38.308  28.947  28.251  1.00  0.00     0.029 A 
ATOM     40  N   UNL A   1      39.857  30.241  29.216  1.00  0.00    -0.354 N 
ATOM     41  C   UNL A   1      43.816  28.742  30.038  1.00  0.00     0.074 A 
ATOM     42  C   UNL A   1      43.948  27.364  29.620  1.00  0.00     0.031 C 
ATOM     43  C   UNL A   1      37.730  30.125  28.533  1.00  0.00     0.029 A 
ATOM     44  C   UNL A   1      38.707  30.992  29.186  1.00  0.00     0.049 A 
ATOM     45  H   UNL A   1      40.706  30.570  29.590  1.00  0.00     0.167 HD
ATOM     46  C   UNL A   1      44.802  29.454  30.637  1.00  0.00     0.031 A 
ATOM     47  C   UNL A   1      38.460  32.237  29.637  1.00  0.00     0.031 A 
ATOM     48  C   UNL A   1      44.670  30.827  31.044  1.00  0.00     0.049 A 
ATOM     49  C   UNL A   1      39.572  33.023  30.271  1.00  0.00     0.074 A 
ATOM     50  C   UNL A   1      45.631  31.661  31.589  1.00  0.00     0.029 A 
ATOM     51  N   UNL A   1      43.500  31.569  30.957  1.00  0.00    -0.354 N 
ATOM     52  N   UNL A   1      40.806  32.651  30.511  1.00  0.00    -0.248 NA
ATOM     53  C   UNL A   1      39.264  34.401  30.677  1.00  0.00     0.031 C 
ATOM     54  C   UNL A   1      45.028  32.892  31.875  1.00  0.00     0.029 A 
ATOM     55  C   UNL A   1      43.707  32.842  31.461  1.00  0.00     0.049 A 
ATOM     56  H   UNL A   1      42.648  31.238  30.592  1.00  0.00     0.167 HD
ATOM     57  C   UNL A   1      41.429  33.754  31.085  1.00  0.00     0.074 A 
ATOM     58  C   UNL A   1      40.438  34.811  31.139  1.00  0.00     0.031 C 
ATOM     59  C   UNL A   1      42.706  33.879  31.522  1.00  0.00     0.031 A 
BRANCH  46  60
ATOM     60  C   UNL A   1      46.101  28.737  30.897  1.00  0.00    -0.014 A 
ATOM     61  C   UNL A   1      46.330  28.060  32.109  1.00  0.00     0.010 A 
ATOM     62  C   UNL A   1      47.116  28.757  29.923  1.00  0.00     0.010 A 
ATOM     63  C   UNL A   1      47.574  27.481  32.373  1.00  0.00     0.020 A 
ATOM     64  C   UNL A   1      48.351  28.153  30.171  1.00  0.00     0.020 A 
ATOM     65  C   UNL A   1      48.582  27.545  31.407  1.00  0.00     0.054 A 
BRANCH  65  66
ATOM     66  S   UNL A   1      50.200  26.816  31.784  1.00  0.00     0.124 S 
ATOM     67  O   UNL A   1      50.827  27.874  32.575  1.00  0.00    -0.237 OA
ATOM     68  O   UNL A   1      49.846  25.607  32.524  1.00  0.00    -0.237 OA
ATOM     69  O   UNL A   1      50.791  26.587  30.468  1.00  0.00    -0.744 OA
ENDBRANCH  65  66
ENDBRANCH  46  60
BRANCH  47  70
ATOM     70  C   UNL A   1      37.098  32.811  29.473  1.00  0.00    -0.014 A 
ATOM     71  C   UNL A   1      36.239  32.932  30.578  1.00  0.00     0.010 A 
ATOM     72  C   UNL A   1      36.685  33.311  28.224  1.00  0.00     0.010 A 
ATOM     73  C   UNL A   1      34.993  33.551  30.440  1.00  0.00     0.020 A 
ATOM     74  C   UNL A   1      35.450  33.951  28.087  1.00  0.00     0.020 A 
ATOM     75  C   UNL A   1      34.611  34.066  29.197  1.00  0.00     0.054 A 
BRANCH  75  76
ATOM     76  S   UNL A   1      33.038  34.963  29.067  1.00  0.00     0.124 S 
ATOM     77  O   UNL A   1      33.478  36.287  28.639  1.00  0.00    -0.237 OA
ATOM     78  O   UNL A   1      32.312  34.184  28.067  1.00  0.00    -0.237 OA
ATOM     79  O   UNL A   1      32.491  34.890  30.420  1.00  0.00    -0.744 OA
ENDBRANCH  75  76
ENDBRANCH  47  70
BRANCH  59  80
ATOM     80  C   UNL A   1      43.114  35.212  32.089  1.00  0.00    -0.014 A 
ATOM     81  C   UNL A   1      43.789  36.161  31.300  1.00  0.00     0.010 A 
ATOM     82  C   UNL A   1      42.763  35.542  33.410  1.00  0.00     0.010 A 
ATOM     83  C   UNL A   1      44.131  37.407  31.834  1.00  0.00     0.020 A 
ATOM     84  C   UNL A   1      43.081  36.797  33.939  1.00  0.00     0.020 A 
ATOM     85  C   UNL A   1      43.775  37.716  33.150  1.00  0.00     0.054 A 
BRANCH  85  86
ATOM     86  S   UNL A   1      44.186  39.358  33.805  1.00  0.00     0.124 S 
ATOM     87  O   UNL A   1      42.866  39.967  33.949  1.00  0.00    -0.237 OA
ATOM     88  O   UNL A   1      44.873  39.043  35.056  1.00  0.00    -0.237 OA
ATOM     89  O   UNL A   1      45.032  39.942  32.768  1.00  0.00    -0.744 OA
ENDBRANCH  85  86
ENDBRANCH  59  80
ENDBRANCH  33  34
ENDBRANCH  25  28
ENDBRANCH  23  24
ENDBRANCH   1  23
TORSDOF 16
ENDMDL
MODEL 2
REMARK VINA RESULT:     -11.1      2.848      9.431
REMARK SMILES CN(C(=O)N1CCC(C(=O)NCCCCNC(=O)c2ccc(-c3c4nc(c(-c5ccc(S(=O)(=O)[O-])cc5)c5ccc([nH]5)c(-c5ccc(S(=O)(=O)[O-])cc5)c5nc(c(-c6ccc(S(=O)(=O)[O-])cc6)c6ccc3[nH]6)C=C5)C=C4)cc2)CC1)[C@H]1CCSC1
REMARK SMILES IDX 14 1 13 2 12 3 11 4 9 5 10 6 8 8 3 9 4 10 5 11 6 12 80 13
REMARK SMILES IDX 7 14 79 15 2 16 1 17 81 18 82 19 85 20 83 21 84 22 15 23
REMARK SMILES IDX 16 24 17 25 18 27 19 28 20 29 78 30 21 31 77 32 22 33 23 34
REMARK SMILES IDX 24 35 71 36 25 37 76 38 70 39 72 40 26 41 75 42 69 43 68 44
REMARK SMILES IDX 27 46 57 47 38 48 56 49 39 50 42 51 55 52 73 53 40 54 41 55
REMARK SMILES IDX 54 57 74 58 43 59 28 60 29 61 37 62 30 63 36 64 31 65 32 66
REMARK SMILES IDX 33 67 34 68 35 69 58 70 59 71 67 72 60 73 66 74 61 75 62 76
REMARK SMILES IDX 63 77 64 78 65 79 44 80 45 81 53 82 46 83 52 84 47 85 48 86
REMARK SMILES IDX 49 87 50 88 51 89
REMARK H PARENT 11 7 16 26 72 45 42 56
REMARK Flexibility Score: inf
ROOT
ATOM      1  C   UNL A   1      33.468  28.041  25.789  1.00  0.00     0.023 C 
ENDROOT
BRANCH   1   2
ATOM      2  C   UNL A   1      33.357  29.201  24.801  1.00  0.00     0.023 C 
BRANCH   2   3
ATOM      3  C   UNL A   1      33.183  28.783  23.344  1.00  0.00     0.116 C 
BRANCH   3   4
ATOM      4  N   UNL A   1      31.832  29.026  22.866  1.00  0.00    -0.356 N 
ATOM      5  C   UNL A   1      30.870  28.164  22.437  1.00  0.00     0.223 C 
ATOM      6  O   UNL A   1      29.791  28.635  22.071  1.00  0.00    -0.275 OA
ATOM      7  H   UNL A   1      31.569  29.975  22.849  1.00  0.00     0.163 HD
BRANCH   5   8
ATOM      8  C   UNL A   1      31.086  26.658  22.430  1.00  0.00     0.082 C 
ATOM      9  C   UNL A   1      33.922  23.971  23.637  1.00  0.00     0.320 C 
ATOM     10  O   UNL A   1      34.977  24.371  23.139  1.00  0.00    -0.248 OA
ATOM     11  N   UNL A   1      32.702  24.378  23.133  1.00  0.00    -0.325 N 
ATOM     12  C   UNL A   1      32.622  24.776  21.734  1.00  0.00     0.122 C 
ATOM     13  C   UNL A   1      31.503  24.630  23.924  1.00  0.00     0.122 C 
ATOM     14  C   UNL A   1      32.296  26.251  21.583  1.00  0.00     0.035 C 
ATOM     15  C   UNL A   1      31.072  26.091  23.856  1.00  0.00     0.035 C 
BRANCH   9  16
ATOM     16  N   UNL A   1      33.929  23.049  24.678  1.00  0.00    -0.324 N 
ATOM     17  C   UNL A   1      33.656  23.412  26.065  1.00  0.00     0.149 C 
BRANCH  16  18
ATOM     18  C   UNL A   1      33.810  21.621  24.311  1.00  0.00     0.097 C 
ATOM     19  C   UNL A   1      34.826  20.697  24.992  1.00  0.00     0.037 C 
ATOM     20  C   UNL A   1      32.409  21.066  24.623  1.00  0.00     0.094 C 
ATOM     21  C   UNL A   1      34.399  19.273  24.687  1.00  0.00     0.072 C 
ATOM     22  S   UNL A   1      32.602  19.279  24.896  1.00  0.00    -0.160 SA
ENDBRANCH  16  18
ENDBRANCH   9  16
ENDBRANCH   5   8
ENDBRANCH   3   4
ENDBRANCH   2   3
ENDBRANCH   1   2
BRANCH   1  23
ATOM     23  C   UNL A   1      33.357  28.428  27.260  1.00  0.00     0.116 C 
BRANCH  23  24
ATOM     24  N   UNL A   1      33.323  29.867  27.476  1.00  0.00    -0.352 N 
ATOM     25  C   UNL A   1      34.316  30.686  27.959  1.00  0.00     0.251 C 
ATOM     26  H   UNL A   1      32.477  30.312  27.243  1.00  0.00     0.163 HD
ATOM     27  O   UNL A   1      34.085  31.872  28.180  1.00  0.00    -0.269 OA
BRANCH  25  28
ATOM     28  C   UNL A   1      35.647  30.118  28.248  1.00  0.00     0.039 A 
ATOM     29  C   UNL A   1      36.616  30.123  27.242  1.00  0.00     0.014 A 
ATOM     30  C   UNL A   1      35.949  29.621  29.519  1.00  0.00     0.014 A 
ATOM     31  C   UNL A   1      37.913  29.695  27.533  1.00  0.00     0.010 A 
ATOM     32  C   UNL A   1      37.257  29.265  29.825  1.00  0.00     0.010 A 
ATOM     33  C   UNL A   1      38.252  29.299  28.836  1.00  0.00    -0.014 A 
BRANCH  33  34
ATOM     34  C   UNL A   1      39.644  28.927  29.190  1.00  0.00     0.031 A 
ATOM     35  C   UNL A   1      40.557  29.934  29.830  1.00  0.00     0.074 A 
ATOM     36  C   UNL A   1      40.113  27.710  28.854  1.00  0.00     0.049 A 
ATOM     37  N   UNL A   1      41.819  29.816  30.154  1.00  0.00    -0.248 NA
ATOM     38  C   UNL A   1      39.983  31.259  30.115  1.00  0.00     0.031 C 
ATOM     39  C   UNL A   1      39.346  26.665  28.170  1.00  0.00     0.029 A 
ATOM     40  N   UNL A   1      41.355  27.151  29.026  1.00  0.00    -0.354 N 
ATOM     41  C   UNL A   1      42.197  31.054  30.655  1.00  0.00     0.074 A 
ATOM     42  C   UNL A   1      41.046  31.923  30.548  1.00  0.00     0.031 C 
ATOM     43  C   UNL A   1      40.129  25.589  27.996  1.00  0.00     0.029 A 
ATOM     44  C   UNL A   1      41.460  25.877  28.525  1.00  0.00     0.049 A 
ATOM     45  H   UNL A   1      42.099  27.620  29.468  1.00  0.00     0.167 HD
ATOM     46  C   UNL A   1      43.392  31.433  31.172  1.00  0.00     0.031 A 
ATOM     47  C   UNL A   1      42.509  25.033  28.486  1.00  0.00     0.031 A 
ATOM     48  C   UNL A   1      44.532  30.565  31.284  1.00  0.00     0.049 A 
ATOM     49  C   UNL A   1      43.816  25.457  29.092  1.00  0.00     0.074 A 
ATOM     50  C   UNL A   1      45.763  30.828  31.861  1.00  0.00     0.029 A 
ATOM     51  N   UNL A   1      44.587  29.265  30.802  1.00  0.00    -0.354 N 
ATOM     52  N   UNL A   1      44.132  26.605  29.642  1.00  0.00    -0.248 NA
ATOM     53  C   UNL A   1      44.903  24.469  29.087  1.00  0.00     0.031 C 
ATOM     54  C   UNL A   1      46.576  29.702  31.686  1.00  0.00     0.029 A 
ATOM     55  C   UNL A   1      45.836  28.720  31.046  1.00  0.00     0.049 A 
ATOM     56  H   UNL A   1      43.846  28.798  30.353  1.00  0.00     0.167 HD
ATOM     57  C   UNL A   1      45.450  26.474  30.064  1.00  0.00     0.074 A 
ATOM     58  C   UNL A   1      45.866  25.128  29.717  1.00  0.00     0.031 C 
ATOM     59  C   UNL A   1      46.241  27.384  30.683  1.00  0.00     0.031 A 
BRANCH  46  60
ATOM     60  C   UNL A   1      43.512  32.861  31.636  1.00  0.00    -0.014 A 
ATOM     61  C   UNL A   1      43.951  33.876  30.765  1.00  0.00     0.010 A 
ATOM     62  C   UNL A   1      43.202  33.191  32.968  1.00  0.00     0.010 A 
ATOM     63  C   UNL A   1      44.149  35.177  31.236  1.00  0.00     0.020 A 
ATOM     64  C   UNL A   1      43.369  34.497  33.435  1.00  0.00     0.020 A 
ATOM     65  C   UNL A   1      43.871  35.475  32.573  1.00  0.00     0.054 A 
BRANCH  65  66
ATOM     66  S   UNL A   1      44.166  37.162  33.171  1.00  0.00     0.124 S 
ATOM     67  O   UNL A   1      45.463  37.022  33.831  1.00  0.00    -0.237 OA
ATOM     68  O   UNL A   1      44.173  37.946  31.937  1.00  0.00    -0.237 OA
ATOM     69  O   UNL A   1      43.036  37.417  34.061  1.00  0.00    -0.744 OA
ENDBRANCH  65  66
ENDBRANCH  46  60
BRANCH  47  70
ATOM     70  C   UNL A   1      42.338  23.690  27.869  1.00  0.00    -0.014 A 
ATOM     71  C   UNL A   1      42.568  23.505  26.495  1.00  0.00     0.010 A 
ATOM     72  C   UNL A   1      42.021  22.577  28.668  1.00  0.00     0.010 A 
ATOM     73  C   UNL A   1      42.492  22.228  25.932  1.00  0.00     0.020 A 
ATOM     74  C   UNL A   1      41.967  21.295  28.113  1.00  0.00     0.020 A 
ATOM     75  C   UNL A   1      42.202  21.129  26.747  1.00  0.00     0.054 A 
BRANCH  75  76
ATOM     76  S   UNL A   1      42.218  19.468  26.016  1.00  0.00     0.124 S 
ATOM     77  O   UNL A   1      43.161  19.630  24.913  1.00  0.00    -0.237 OA
ATOM     78  O   UNL A   1      42.680  18.638  27.125  1.00  0.00    -0.237 OA
ATOM     79  O   UNL A   1      40.826  19.254  25.626  1.00  0.00    -0.744 OA
ENDBRANCH  75  76
ENDBRANCH  47  70
BRANCH  59  80
ATOM     80  C   UNL A   1      47.638  26.954  31.043  1.00  0.00    -0.014 A 
ATOM     81  C   UNL A   1      48.704  27.122  30.142  1.00  0.00     0.010 A 
ATOM     82  C   UNL A   1      47.895  26.431  32.323  1.00  0.00     0.010 A 
ATOM     83  C   UNL A   1      50.001  26.746  30.506  1.00  0.00     0.020 A 
ATOM     84  C   UNL A   1      49.194  26.078  32.699  1.00  0.00     0.020 A 
ATOM     85  C   UNL A   1      50.237  26.226  31.782  1.00  0.00     0.054 A 
BRANCH  85  86
ATOM     86  S   UNL A   1      51.936  25.792  32.249  1.00  0.00     0.124 S 
ATOM     87  O   UNL A   1      52.015  26.303  33.615  1.00  0.00    -0.237 OA
ATOM     88  O   UNL A   1      51.942  24.336  32.122  1.00  0.00    -0.237 OA
ATOM     89  O   UNL A   1      52.755  26.500  31.269  1.00  0.00    -0.744 OA
ENDBRANCH  85  86
ENDBRANCH  59  80
ENDBRANCH  33  34
ENDBRANCH  25  28
ENDBRANCH  23  24
ENDBRANCH   1  23
TORSDOF 16
ENDMDL
MODEL 3
REMARK VINA RESULT:     -10.7      4.815     11.608
REMARK SMILES CN(C(=O)N1CCC(C(=O)NCCCCNC(=O)c2ccc(-c3c4nc(c(-c5ccc(S(=O)(=O)[O-])cc5)c5ccc([nH]5)c(-c5ccc(S(=O)(=O)[O-])cc5)c5nc(c(-c6ccc(S(=O)(=O)[O-])cc6)c6ccc3[nH]6)C=C5)C=C4)cc2)CC1)[C@H]1CCSC1
REMARK SMILES IDX 14 1 13 2 12 3 11 4 9 5 10 6 8 8 3 9 4 10 5 11 6 12 80 13
REMARK SMILES IDX 7 14 79 15 2 16 1 17 81 18 82 19 85 20 83 21 84 22 15 23
REMARK SMILES IDX 16 24 17 25 18 27 19 28 20 29 78 30 21 31 77 32 22 33 23 34
REMARK SMILES IDX 24 35 71 36 25 37 76 38 70 39 72 40 26 41 75 42 69 43 68 44
REMARK SMILES IDX 27 46 57 47 38 48 56 49 39 50 42 51 55 52 73 53 40 54 41 55
REMARK SMILES IDX 54 57 74 58 43 59 28 60 29 61 37 62 30 63 36 64 31 65 32 66
REMARK SMILES IDX 33 67 34 68 35 69 58 70 59 71 67 72 60 73 66 74 61 75 62 76
REMARK SMILES IDX 63 77 64 78 65 79 44 80 45 81 53 82 46 83 52 84 47 85 48 86
REMARK SMILES IDX 49 87 50 88 51 89
REMARK H PARENT 11 7 16 26 72 45 42 56
REMARK Flexibility Score: inf
ROOT
ATOM      1  C   UNL A   1      34.881  32.630  30.928  1.00  0.00     0.023 C 
ENDROOT
BRANCH   1   2
ATOM      2  C   UNL A   1      34.682  33.943  31.684  1.00  0.00     0.023 C 
BRANCH   2   3
ATOM      3  C   UNL A   1      35.778  34.269  32.694  1.00  0.00     0.116 C 
BRANCH   3   4
ATOM      4  N   UNL A   1      37.038  34.591  32.044  1.00  0.00    -0.356 N 
ATOM      5  C   UNL A   1      38.291  34.098  32.236  1.00  0.00     0.223 C 
ATOM      6  O   UNL A   1      39.206  34.554  31.547  1.00  0.00    -0.275 OA
ATOM      7  H   UNL A   1      36.973  35.284  31.347  1.00  0.00     0.163 HD
BRANCH   5   8
ATOM      8  C   UNL A   1      38.575  32.995  33.245  1.00  0.00     0.082 C 
ATOM      9  C   UNL A   1      40.404  29.339  33.344  1.00  0.00     0.320 C 
ATOM     10  O   UNL A   1      39.895  28.700  32.421  1.00  0.00    -0.248 OA
ATOM     11  N   UNL A   1      39.771  30.448  33.870  1.00  0.00    -0.325 N 
ATOM     12  C   UNL A   1      38.321  30.537  33.773  1.00  0.00     0.122 C 
ATOM     13  C   UNL A   1      40.439  31.651  34.357  1.00  0.00     0.122 C 
ATOM     14  C   UNL A   1      37.882  31.680  32.875  1.00  0.00     0.035 C 
ATOM     15  C   UNL A   1      40.078  32.878  33.528  1.00  0.00     0.035 C 
BRANCH   9  16
ATOM     16  N   UNL A   1      41.598  28.925  33.926  1.00  0.00    -0.324 N 
ATOM     17  C   UNL A   1      42.823  29.717  33.881  1.00  0.00     0.149 C 
BRANCH  16  18
ATOM     18  C   UNL A   1      41.510  27.862  34.951  1.00  0.00     0.097 C 
ATOM     19  C   UNL A   1      42.129  26.521  34.538  1.00  0.00     0.037 C 
ATOM     20  C   UNL A   1      42.180  28.284  36.271  1.00  0.00     0.094 C 
ATOM     21  C   UNL A   1      42.162  25.650  35.780  1.00  0.00     0.072 C 
ATOM     22  S   UNL A   1      42.712  26.757  37.101  1.00  0.00    -0.160 SA
ENDBRANCH  16  18
ENDBRANCH   9  16
ENDBRANCH   5   8
ENDBRANCH   3   4
ENDBRANCH   2   3
ENDBRANCH   1   2
BRANCH   1  23
ATOM     23  C   UNL A   1      34.958  32.760  29.410  1.00  0.00     0.116 C 
BRANCH  23  24
ATOM     24  N   UNL A   1      34.095  31.822  28.709  1.00  0.00    -0.352 N 
ATOM     25  C   UNL A   1      34.412  30.592  28.182  1.00  0.00     0.251 C 
ATOM     26  H   UNL A   1      33.159  32.106  28.596  1.00  0.00     0.163 HD
ATOM     27  O   UNL A   1      33.583  29.969  27.523  1.00  0.00    -0.269 OA
BRANCH  25  28
ATOM     28  C   UNL A   1      35.769  30.046  28.383  1.00  0.00     0.039 A 
ATOM     29  C   UNL A   1      36.688  30.120  27.335  1.00  0.00     0.014 A 
ATOM     30  C   UNL A   1      36.142  29.505  29.616  1.00  0.00     0.014 A 
ATOM     31  C   UNL A   1      38.007  29.714  27.547  1.00  0.00     0.010 A 
ATOM     32  C   UNL A   1      37.472  29.171  29.846  1.00  0.00     0.010 A 
ATOM     33  C   UNL A   1      38.417  29.272  28.814  1.00  0.00    -0.014 A 
BRANCH  33  34
ATOM     34  C   UNL A   1      39.834  28.923  29.088  1.00  0.00     0.031 A 
ATOM     35  C   UNL A   1      40.773  29.952  29.649  1.00  0.00     0.074 A 
ATOM     36  C   UNL A   1      40.295  27.704  28.746  1.00  0.00     0.049 A 
ATOM     37  N   UNL A   1      42.054  29.854  29.895  1.00  0.00    -0.248 NA
ATOM     38  C   UNL A   1      40.202  31.276  29.944  1.00  0.00     0.031 C 
ATOM     39  C   UNL A   1      39.499  26.637  28.132  1.00  0.00     0.029 A 
ATOM     40  N   UNL A   1      41.552  27.163  28.851  1.00  0.00    -0.354 N 
ATOM     41  C   UNL A   1      42.448  31.106  30.347  1.00  0.00     0.074 A 
ATOM     42  C   UNL A   1      41.281  31.960  30.296  1.00  0.00     0.031 C 
ATOM     43  C   UNL A   1      40.283  25.567  27.930  1.00  0.00     0.029 A 
ATOM     44  C   UNL A   1      41.641  25.879  28.368  1.00  0.00     0.049 A 
ATOM     45  H   UNL A   1      42.317  27.648  29.236  1.00  0.00     0.167 HD
ATOM     46  C   UNL A   1      43.668  31.508  30.781  1.00  0.00     0.031 A 
ATOM     47  C   UNL A   1      42.695  25.046  28.280  1.00  0.00     0.031 A 
ATOM     48  C   UNL A   1      44.823  30.654  30.838  1.00  0.00     0.049 A 
ATOM     49  C   UNL A   1      44.033  25.497  28.794  1.00  0.00     0.074 A 
ATOM     50  C   UNL A   1      46.084  30.942  31.331  1.00  0.00     0.029 A 
ATOM     51  N   UNL A   1      44.863  29.346  30.379  1.00  0.00    -0.354 N 
ATOM     52  N   UNL A   1      44.368  26.659  29.301  1.00  0.00    -0.248 NA
ATOM     53  C   UNL A   1      45.129  24.520  28.739  1.00  0.00     0.031 C 
ATOM     54  C   UNL A   1      46.898  29.822  31.127  1.00  0.00     0.029 A 
ATOM     55  C   UNL A   1      46.132  28.819  30.554  1.00  0.00     0.049 A 
ATOM     56  H   UNL A   1      44.101  28.862  29.986  1.00  0.00     0.167 HD
ATOM     57  C   UNL A   1      45.712  26.550  29.641  1.00  0.00     0.074 A 
ATOM     58  C   UNL A   1      46.121  25.202  29.296  1.00  0.00     0.031 C 
ATOM     59  C   UNL A   1      46.529  27.481  30.192  1.00  0.00     0.031 A 
BRANCH  46  60
ATOM     60  C   UNL A   1      43.800  32.946  31.208  1.00  0.00    -0.014 A 
ATOM     61  C   UNL A   1      44.105  33.958  30.279  1.00  0.00     0.010 A 
ATOM     62  C   UNL A   1      43.637  33.290  32.563  1.00  0.00     0.010 A 
ATOM     63  C   UNL A   1      44.319  35.271  30.706  1.00  0.00     0.020 A 
ATOM     64  C   UNL A   1      43.819  34.607  32.990  1.00  0.00     0.020 A 
ATOM     65  C   UNL A   1      44.189  35.584  32.062  1.00  0.00     0.054 A 
BRANCH  65  66
ATOM     66  S   UNL A   1      44.503  37.288  32.599  1.00  0.00     0.124 S 
ATOM     67  O   UNL A   1      45.730  37.134  33.379  1.00  0.00    -0.237 OA
ATOM     68  O   UNL A   1      44.651  38.005  31.334  1.00  0.00    -0.237 OA
ATOM     69  O   UNL A   1      43.312  37.633  33.372  1.00  0.00    -0.744 OA
ENDBRANCH  65  66
ENDBRANCH  46  60
BRANCH  47  70
ATOM     70  C   UNL A   1      42.501  23.690  27.701  1.00  0.00    -0.014 A 
ATOM     71  C   UNL A   1      42.758  23.455  26.340  1.00  0.00     0.010 A 
ATOM     72  C   UNL A   1      42.135  22.611  28.527  1.00  0.00     0.010 A 
ATOM     73  C   UNL A   1      42.661  22.163  25.814  1.00  0.00     0.020 A 
ATOM     74  C   UNL A   1      42.059  21.314  28.010  1.00  0.00     0.020 A 
ATOM     75  C   UNL A   1      42.322  21.099  26.656  1.00  0.00     0.054 A 
BRANCH  75  76
ATOM     76  S   UNL A   1      42.309  19.415  25.978  1.00  0.00     0.124 S 
ATOM     77  O   UNL A   1      43.253  19.527  24.870  1.00  0.00    -0.237 OA
ATOM     78  O   UNL A   1      42.758  18.613  27.113  1.00  0.00    -0.237 OA
ATOM     79  O   UNL A   1      40.913  19.212  25.596  1.00  0.00    -0.744 OA
ENDBRANCH  75  76
ENDBRANCH  47  70
BRANCH  59  80
ATOM     80  C   UNL A   1      47.951  27.073  30.471  1.00  0.00    -0.014 A 
ATOM     81  C   UNL A   1      48.988  27.401  29.581  1.00  0.00     0.010 A 
ATOM     82  C   UNL A   1      48.259  26.405  31.670  1.00  0.00     0.010 A 
ATOM     83  C   UNL A   1      50.308  27.043  29.873  1.00  0.00     0.020 A 
ATOM     84  C   UNL A   1      49.580  26.068  31.977  1.00  0.00     0.020 A 
ATOM     85  C   UNL A   1      50.594  26.377  31.070  1.00  0.00     0.054 A 
BRANCH  85  86
ATOM     86  S   UNL A   1      52.320  25.965  31.450  1.00  0.00     0.124 S 
ATOM     87  O   UNL A   1      52.194  24.626  32.019  1.00  0.00    -0.237 OA
ATOM     88  O   UNL A   1      52.964  26.034  30.140  1.00  0.00    -0.237 OA
ATOM     89  O   UNL A   1      52.725  27.007  32.391  1.00  0.00    -0.744 OA
ENDBRANCH  85  86
ENDBRANCH  59  80
ENDBRANCH  33  34
ENDBRANCH  25  28
ENDBRANCH  23  24
ENDBRANCH   1  23
TORSDOF 16
ENDMDL
