MODEL 1
REMARK VINA RESULT:     -11.0      0.000      0.000
REMARK SMILES CC(C)(C)OC(=O)N1CCC[C@](Cc2ccccc2)(C(=O)NCCCCNC(=O)c2ccc(-c3c4nc(c(-c5ccc(S(=O)(=O)[O-])cc5)c5ccc([nH]5)c(-c5ccc(S(=O)(=O)[O-])cc5)c5nc(c(-c6ccc(S(=O)(=O)[O-])cc6)c6ccc3[nH]6)C=C5)C=C4)cc2)C1
REMARK SMILES IDX 24 1 23 2 22 3 20 4 21 5 12 7 8 8 9 9 90 10 10 11 11 12 6 13
REMARK SMILES IDX 7 14 5 15 2 16 1 17 3 18 4 19 13 20 14 21 15 22 19 23 16 24
REMARK SMILES IDX 18 25 17 26 25 27 26 28 27 29 28 30 29 32 30 33 31 34 89 35
REMARK SMILES IDX 32 36 88 37 33 38 34 39 35 40 82 41 36 42 87 43 81 44 83 45
REMARK SMILES IDX 37 46 86 47 80 48 79 49 38 51 68 52 49 53 67 54 50 55 53 56
REMARK SMILES IDX 66 57 84 58 51 59 52 60 65 62 85 63 54 64 39 65 40 66 48 67
REMARK SMILES IDX 41 68 47 69 42 70 43 71 44 72 45 73 46 74 69 75 70 76 78 77
REMARK SMILES IDX 71 78 77 79 72 80 73 81 74 82 75 83 76 84 55 85 56 86 64 87
REMARK SMILES IDX 57 88 63 89 58 90 59 91 60 92 61 93 62 94
REMARK H PARENT 22 6 27 31 83 50 53 61
REMARK Flexibility Score: inf
ROOT
ATOM      1  C   UNL A   1      33.657  28.106  24.107  1.00  0.00     0.023 C 
ENDROOT
BRANCH   1   2
ATOM      2  C   UNL A   1      33.421  26.666  24.542  1.00  0.00     0.116 C 
BRANCH   2   3
ATOM      3  N   UNL A   1      33.266  25.737  23.454  1.00  0.00    -0.356 N 
ATOM      4  C   UNL A   1      33.420  24.389  23.397  1.00  0.00     0.228 C 
ATOM      5  O   UNL A   1      32.865  23.855  22.428  1.00  0.00    -0.274 OA
ATOM      6  H   UNL A   1      33.002  26.150  22.600  1.00  0.00     0.163 HD
BRANCH   4   7
ATOM      7  C   UNL A   1      34.221  23.535  24.437  1.00  0.00     0.071 C 
ATOM      8  N   UNL A   1      33.184  21.227  24.579  1.00  0.00    -0.307 N 
ATOM      9  C   UNL A   1      33.014  21.303  26.020  1.00  0.00     0.123 C 
ATOM     10  C   UNL A   1      34.242  22.043  23.999  1.00  0.00     0.140 C 
ATOM     11  C   UNL A   1      32.798  22.721  26.520  1.00  0.00     0.023 C 
ATOM     12  C   UNL A   1      33.700  23.778  25.883  1.00  0.00     0.021 C 
BRANCH   8  13
ATOM     13  C   UNL A   1      32.367  20.376  23.842  1.00  0.00     0.410 C 
ATOM     14  O   UNL A   1      31.913  20.694  22.754  1.00  0.00    -0.224 OA
BRANCH  13  15
ATOM     15  O   UNL A   1      32.146  19.190  24.464  1.00  0.00    -0.444 OA
BRANCH  15  16
ATOM     16  C   UNL A   1      32.996  18.021  24.262  1.00  0.00     0.106 C 
ATOM     17  C   UNL A   1      32.775  17.597  22.801  1.00  0.00     0.056 C 
ATOM     18  C   UNL A   1      32.492  16.916  25.194  1.00  0.00     0.056 C 
ATOM     19  C   UNL A   1      34.504  18.242  24.459  1.00  0.00     0.056 C 
ENDBRANCH  15  16
ENDBRANCH  13  15
ENDBRANCH   8  13
BRANCH   7  20
ATOM     20  C   UNL A   1      35.699  24.124  24.318  1.00  0.00     0.054 C 
BRANCH  20  21
ATOM     21  C   UNL A   1      36.817  23.396  25.041  1.00  0.00    -0.047 A 
ATOM     22  C   UNL A   1      37.126  22.070  24.694  1.00  0.00     0.004 A 
ATOM     23  C   UNL A   1      37.582  24.026  26.026  1.00  0.00     0.004 A 
ATOM     24  C   UNL A   1      38.234  21.429  25.248  1.00  0.00     0.000 A 
ATOM     25  C   UNL A   1      38.698  23.391  26.571  1.00  0.00     0.000 A 
ATOM     26  C   UNL A   1      39.033  22.099  26.170  1.00  0.00     0.000 A 
ENDBRANCH  20  21
ENDBRANCH   7  20
ENDBRANCH   4   7
ENDBRANCH   2   3
ENDBRANCH   1   2
BRANCH   1  27
ATOM     27  C   UNL A   1      33.149  29.137  25.099  1.00  0.00     0.023 C 
BRANCH  27  28
ATOM     28  C   UNL A   1      33.847  29.122  26.454  1.00  0.00     0.116 C 
BRANCH  28  29
ATOM     29  N   UNL A   1      33.714  30.352  27.228  1.00  0.00    -0.352 N 
ATOM     30  C   UNL A   1      34.628  30.871  28.122  1.00  0.00     0.251 C 
ATOM     31  H   UNL A   1      32.884  30.865  27.099  1.00  0.00     0.163 HD
ATOM     32  O   UNL A   1      34.382  31.867  28.793  1.00  0.00    -0.269 OA
BRANCH  30  33
ATOM     33  C   UNL A   1      35.910  30.153  28.278  1.00  0.00     0.039 A 
ATOM     34  C   UNL A   1      36.884  30.274  27.287  1.00  0.00     0.014 A 
ATOM     35  C   UNL A   1      36.193  29.517  29.489  1.00  0.00     0.014 A 
ATOM     36  C   UNL A   1      38.181  29.834  27.555  1.00  0.00     0.010 A 
ATOM     37  C   UNL A   1      37.506  29.187  29.791  1.00  0.00     0.010 A 
ATOM     38  C   UNL A   1      38.517  29.339  28.828  1.00  0.00    -0.014 A 
BRANCH  38  39
ATOM     39  C   UNL A   1      39.914  28.971  29.173  1.00  0.00     0.031 A 
ATOM     40  C   UNL A   1      40.802  29.975  29.861  1.00  0.00     0.074 A 
ATOM     41  C   UNL A   1      40.404  27.765  28.819  1.00  0.00     0.049 A 
ATOM     42  N   UNL A   1      42.060  29.866  30.202  1.00  0.00    -0.248 NA
ATOM     43  C   UNL A   1      40.206  31.284  30.180  1.00  0.00     0.031 C 
ATOM     44  C   UNL A   1      39.664  26.720  28.105  1.00  0.00     0.029 A 
ATOM     45  N   UNL A   1      41.646  27.210  29.013  1.00  0.00    -0.354 N 
ATOM     46  C   UNL A   1      42.406  31.091  30.760  1.00  0.00     0.074 A 
ATOM     47  C   UNL A   1      41.250  31.952  30.644  1.00  0.00     0.031 C 
ATOM     48  C   UNL A   1      40.451  25.641  27.960  1.00  0.00     0.029 A 
ATOM     49  C   UNL A   1      41.764  25.927  28.527  1.00  0.00     0.049 A 
ATOM     50  H   UNL A   1      42.384  27.687  29.458  1.00  0.00     0.167 HD
ATOM     51  C   UNL A   1      43.568  31.460  31.345  1.00  0.00     0.031 A 
ATOM     52  C   UNL A   1      42.812  25.079  28.535  1.00  0.00     0.031 A 
ATOM     53  C   UNL A   1      44.712  30.599  31.470  1.00  0.00     0.049 A 
ATOM     54  C   UNL A   1      44.103  25.521  29.172  1.00  0.00     0.074 A 
ATOM     55  C   UNL A   1      45.921  30.860  32.089  1.00  0.00     0.029 A 
ATOM     56  N   UNL A   1      44.789  29.310  30.965  1.00  0.00    -0.354 N 
ATOM     57  N   UNL A   1      44.388  26.661  29.756  1.00  0.00    -0.248 NA
ATOM     58  C   UNL A   1      45.212  24.558  29.159  1.00  0.00     0.031 C 
ATOM     59  C   UNL A   1      46.752  29.750  31.906  1.00  0.00     0.029 A 
ATOM     60  C   UNL A   1      46.036  28.771  31.236  1.00  0.00     0.049 A 
ATOM     61  H   UNL A   1      44.065  28.846  30.485  1.00  0.00     0.167 HD
ATOM     62  C   UNL A   1      45.697  26.538  30.210  1.00  0.00     0.074 A 
ATOM     63  C   UNL A   1      46.141  25.209  29.846  1.00  0.00     0.031 C 
ATOM     64  C   UNL A   1      46.461  27.443  30.870  1.00  0.00     0.031 A 
BRANCH  51  65
ATOM     65  C   UNL A   1      43.653  32.860  31.899  1.00  0.00    -0.014 A 
ATOM     66  C   UNL A   1      43.304  33.135  33.234  1.00  0.00     0.010 A 
ATOM     67  C   UNL A   1      44.118  33.908  31.085  1.00  0.00     0.010 A 
ATOM     68  C   UNL A   1      43.375  34.438  33.732  1.00  0.00     0.020 A 
ATOM     69  C   UNL A   1      44.224  35.208  31.589  1.00  0.00     0.020 A 
ATOM     70  C   UNL A   1      43.835  35.466  32.905  1.00  0.00     0.054 A 
BRANCH  70  71
ATOM     71  S   UNL A   1      43.943  37.143  33.587  1.00  0.00     0.124 S 
ATOM     72  O   UNL A   1      45.110  37.039  34.459  1.00  0.00    -0.237 OA
ATOM     73  O   UNL A   1      44.123  37.963  32.391  1.00  0.00    -0.237 OA
ATOM     74  O   UNL A   1      42.667  37.322  34.275  1.00  0.00    -0.744 OA
ENDBRANCH  70  71
ENDBRANCH  51  65
BRANCH  52  75
ATOM     75  C   UNL A   1      42.683  23.719  27.938  1.00  0.00    -0.014 A 
ATOM     76  C   UNL A   1      43.017  23.493  26.591  1.00  0.00     0.010 A 
ATOM     77  C   UNL A   1      42.222  22.640  28.714  1.00  0.00     0.010 A 
ATOM     78  C   UNL A   1      42.867  22.224  26.023  1.00  0.00     0.020 A 
ATOM     79  C   UNL A   1      42.101  21.362  28.160  1.00  0.00     0.020 A 
ATOM     80  C   UNL A   1      42.411  21.165  26.813  1.00  0.00     0.054 A 
BRANCH  80  81
ATOM     81  S   UNL A   1      42.262  19.518  26.066  1.00  0.00     0.124 S 
ATOM     82  O   UNL A   1      42.760  18.654  27.132  1.00  0.00    -0.237 OA
ATOM     83  O   UNL A   1      40.830  19.426  25.792  1.00  0.00    -0.237 OA
ATOM     84  O   UNL A   1      43.111  19.601  24.880  1.00  0.00    -0.744 OA
ENDBRANCH  80  81
ENDBRANCH  52  75
BRANCH  64  85
ATOM     85  C   UNL A   1      47.846  27.017  31.281  1.00  0.00    -0.014 A 
ATOM     86  C   UNL A   1      48.092  26.436  32.538  1.00  0.00     0.010 A 
ATOM     87  C   UNL A   1      48.907  27.145  30.365  1.00  0.00     0.010 A 
ATOM     88  C   UNL A   1      49.381  26.023  32.883  1.00  0.00     0.020 A 
ATOM     89  C   UNL A   1      50.190  26.701  30.694  1.00  0.00     0.020 A 
ATOM     90  C   UNL A   1      50.422  26.155  31.958  1.00  0.00     0.054 A 
BRANCH  90  91
ATOM     91  S   UNL A   1      52.074  25.567  32.415  1.00  0.00     0.124 S 
ATOM     92  O   UNL A   1      52.934  26.363  31.544  1.00  0.00    -0.237 OA
ATOM     93  O   UNL A   1      52.147  25.892  33.837  1.00  0.00    -0.237 OA
ATOM     94  O   UNL A   1      52.032  24.138  32.110  1.00  0.00    -0.744 OA
ENDBRANCH  90  91
ENDBRANCH  64  85
ENDBRANCH  38  39
ENDBRANCH  30  33
ENDBRANCH  28  29
ENDBRANCH  27  28
ENDBRANCH   1  27
TORSDOF 19
ENDMDL
MODEL 2
REMARK VINA RESULT:     -10.9      1.819      2.415
REMARK SMILES CC(C)(C)OC(=O)N1CCC[C@](Cc2ccccc2)(C(=O)NCCCCNC(=O)c2ccc(-c3c4nc(c(-c5ccc(S(=O)(=O)[O-])cc5)c5ccc([nH]5)c(-c5ccc(S(=O)(=O)[O-])cc5)c5nc(c(-c6ccc(S(=O)(=O)[O-])cc6)c6ccc3[nH]6)C=C5)C=C4)cc2)C1
REMARK SMILES IDX 24 1 23 2 22 3 20 4 21 5 12 7 8 8 9 9 90 10 10 11 11 12 6 13
REMARK SMILES IDX 7 14 5 15 2 16 1 17 3 18 4 19 13 20 14 21 15 22 19 23 16 24
REMARK SMILES IDX 18 25 17 26 25 27 26 28 27 29 28 30 29 32 30 33 31 34 89 35
REMARK SMILES IDX 32 36 88 37 33 38 34 39 35 40 82 41 36 42 87 43 81 44 83 45
REMARK SMILES IDX 37 46 86 47 80 48 79 49 38 51 68 52 49 53 67 54 50 55 53 56
REMARK SMILES IDX 66 57 84 58 51 59 52 60 65 62 85 63 54 64 39 65 40 66 48 67
REMARK SMILES IDX 41 68 47 69 42 70 43 71 44 72 45 73 46 74 69 75 70 76 78 77
REMARK SMILES IDX 71 78 77 79 72 80 73 81 74 82 75 83 76 84 55 85 56 86 64 87
REMARK SMILES IDX 57 88 63 89 58 90 59 91 60 92 61 93 62 94
REMARK H PARENT 22 6 27 31 83 50 53 61
REMARK Flexibility Score: inf
ROOT
ATOM      1  C   UNL A   1      33.849  27.529  23.944  1.00  0.00     0.023 C 
ENDROOT
BRANCH   1   2
ATOM      2  C   UNL A   1      33.589  26.127  24.475  1.00  0.00     0.116 C 
BRANCH   2   3
ATOM      3  N   UNL A   1      33.666  25.092  23.477  1.00  0.00    -0.356 N 
ATOM      4  C   UNL A   1      34.024  23.786  23.566  1.00  0.00     0.228 C 
ATOM      5  O   UNL A   1      33.638  23.089  22.618  1.00  0.00    -0.274 OA
ATOM      6  H   UNL A   1      33.416  25.383  22.570  1.00  0.00     0.163 HD
BRANCH   4   7
ATOM      7  C   UNL A   1      34.852  23.162  24.739  1.00  0.00     0.071 C 
ATOM      8  N   UNL A   1      33.828  20.934  25.377  1.00  0.00    -0.307 N 
ATOM      9  C   UNL A   1      33.692  21.304  26.776  1.00  0.00     0.123 C 
ATOM     10  C   UNL A   1      34.868  21.612  24.616  1.00  0.00     0.140 C 
ATOM     11  C   UNL A   1      33.483  22.795  26.979  1.00  0.00     0.023 C 
ATOM     12  C   UNL A   1      34.366  23.697  26.117  1.00  0.00     0.021 C 
BRANCH   8  13
ATOM     13  C   UNL A   1      32.997  19.951  24.850  1.00  0.00     0.410 C 
ATOM     14  O   UNL A   1      31.819  19.863  25.159  1.00  0.00    -0.224 OA
BRANCH  13  15
ATOM     15  O   UNL A   1      33.639  19.130  23.980  1.00  0.00    -0.444 OA
BRANCH  15  16
ATOM     16  C   UNL A   1      34.052  17.774  24.330  1.00  0.00     0.106 C 
ATOM     17  C   UNL A   1      35.523  17.889  24.760  1.00  0.00     0.056 C 
ATOM     18  C   UNL A   1      33.957  16.921  23.062  1.00  0.00     0.056 C 
ATOM     19  C   UNL A   1      33.282  17.112  25.482  1.00  0.00     0.056 C 
ENDBRANCH  15  16
ENDBRANCH  13  15
ENDBRANCH   8  13
BRANCH   7  20
ATOM     20  C   UNL A   1      36.325  23.712  24.466  1.00  0.00     0.054 C 
BRANCH  20  21
ATOM     21  C   UNL A   1      37.454  23.187  25.332  1.00  0.00    -0.047 A 
ATOM     22  C   UNL A   1      37.873  21.852  25.201  1.00  0.00     0.004 A 
ATOM     23  C   UNL A   1      38.124  24.013  26.240  1.00  0.00     0.004 A 
ATOM     24  C   UNL A   1      38.995  21.387  25.887  1.00  0.00     0.000 A 
ATOM     25  C   UNL A   1      39.253  23.552  26.916  1.00  0.00     0.000 A 
ATOM     26  C   UNL A   1      39.698  22.245  26.728  1.00  0.00     0.000 A 
ENDBRANCH  20  21
ENDBRANCH   7  20
ENDBRANCH   4   7
ENDBRANCH   2   3
ENDBRANCH   1   2
BRANCH   1  27
ATOM     27  C   UNL A   1      33.251  28.631  24.804  1.00  0.00     0.023 C 
BRANCH  27  28
ATOM     28  C   UNL A   1      33.981  28.885  26.118  1.00  0.00     0.116 C 
BRANCH  28  29
ATOM     29  N   UNL A   1      33.749  30.201  26.704  1.00  0.00    -0.352 N 
ATOM     30  C   UNL A   1      34.540  30.843  27.636  1.00  0.00     0.251 C 
ATOM     31  H   UNL A   1      32.944  30.681  26.405  1.00  0.00     0.163 HD
ATOM     32  O   UNL A   1      34.210  31.912  28.136  1.00  0.00    -0.269 OA
BRANCH  30  33
ATOM     33  C   UNL A   1      35.789  30.171  28.047  1.00  0.00     0.039 A 
ATOM     34  C   UNL A   1      36.935  30.325  27.266  1.00  0.00     0.014 A 
ATOM     35  C   UNL A   1      35.850  29.548  29.295  1.00  0.00     0.014 A 
ATOM     36  C   UNL A   1      38.168  29.931  27.788  1.00  0.00     0.010 A 
ATOM     37  C   UNL A   1      37.089  29.264  29.852  1.00  0.00     0.010 A 
ATOM     38  C   UNL A   1      38.264  29.450  29.106  1.00  0.00    -0.014 A 
BRANCH  38  39
ATOM     39  C   UNL A   1      39.577  29.131  29.723  1.00  0.00     0.031 A 
ATOM     40  C   UNL A   1      40.085  29.967  30.868  1.00  0.00     0.074 A 
ATOM     41  C   UNL A   1      40.337  28.136  29.221  1.00  0.00     0.049 A 
ATOM     42  N   UNL A   1      41.223  29.884  31.509  1.00  0.00    -0.248 NA
ATOM     43  C   UNL A   1      39.215  31.061  31.333  1.00  0.00     0.031 C 
ATOM     44  C   UNL A   1      39.983  27.284  28.083  1.00  0.00     0.029 A 
ATOM     45  N   UNL A   1      41.571  27.671  29.606  1.00  0.00    -0.354 N 
ATOM     46  C   UNL A   1      41.208  30.917  32.438  1.00  0.00     0.074 A 
ATOM     47  C   UNL A   1      39.985  31.659  32.229  1.00  0.00     0.031 C 
ATOM     48  C   UNL A   1      40.954  26.375  27.891  1.00  0.00     0.029 A 
ATOM     49  C   UNL A   1      42.021  26.606  28.858  1.00  0.00     0.049 A 
ATOM     50  H   UNL A   1      42.086  28.062  30.348  1.00  0.00     0.167 HD
ATOM     51  C   UNL A   1      42.112  31.206  33.402  1.00  0.00     0.031 A 
ATOM     52  C   UNL A   1      43.165  25.897  28.941  1.00  0.00     0.031 A 
ATOM     53  C   UNL A   1      43.322  30.459  33.616  1.00  0.00     0.049 A 
ATOM     54  C   UNL A   1      44.168  26.252  30.007  1.00  0.00     0.074 A 
ATOM     55  C   UNL A   1      44.282  30.641  34.595  1.00  0.00     0.029 A 
ATOM     56  N   UNL A   1      43.738  29.390  32.837  1.00  0.00    -0.354 N 
ATOM     57  N   UNL A   1      44.102  27.191  30.922  1.00  0.00    -0.248 NA
ATOM     58  C   UNL A   1      45.395  25.446  30.059  1.00  0.00     0.031 C 
ATOM     59  C   UNL A   1      45.309  29.718  34.373  1.00  0.00     0.029 A 
ATOM     60  C   UNL A   1      44.956  28.917  33.299  1.00  0.00     0.049 A 
ATOM     61  H   UNL A   1      43.244  29.022  32.070  1.00  0.00     0.167 HD
ATOM     62  C   UNL A   1      45.263  27.065  31.678  1.00  0.00     0.074 A 
ATOM     63  C   UNL A   1      46.004  25.951  31.123  1.00  0.00     0.031 C 
ATOM     64  C   UNL A   1      45.678  27.804  32.737  1.00  0.00     0.031 A 
BRANCH  51  65
ATOM     65  C   UNL A   1      41.819  32.381  34.299  1.00  0.00    -0.014 A 
ATOM     66  C   UNL A   1      42.389  33.644  34.050  1.00  0.00     0.010 A 
ATOM     67  C   UNL A   1      40.939  32.232  35.385  1.00  0.00     0.010 A 
ATOM     68  C   UNL A   1      42.120  34.722  34.896  1.00  0.00     0.020 A 
ATOM     69  C   UNL A   1      40.640  33.316  36.214  1.00  0.00     0.020 A 
ATOM     70  C   UNL A   1      41.247  34.551  35.973  1.00  0.00     0.054 A 
BRANCH  70  71
ATOM     71  S   UNL A   1      40.895  35.976  37.038  1.00  0.00     0.124 S 
ATOM     72  O   UNL A   1      42.086  36.799  36.843  1.00  0.00    -0.237 OA
ATOM     73  O   UNL A   1      39.662  36.508  36.462  1.00  0.00    -0.237 OA
ATOM     74  O   UNL A   1      40.756  35.391  38.369  1.00  0.00    -0.744 OA
ENDBRANCH  70  71
ENDBRANCH  51  65
BRANCH  52  75
ATOM     75  C   UNL A   1      43.420  24.768  28.002  1.00  0.00    -0.014 A 
ATOM     76  C   UNL A   1      43.020  23.460  28.328  1.00  0.00     0.010 A 
ATOM     77  C   UNL A   1      44.070  24.993  26.775  1.00  0.00     0.010 A 
ATOM     78  C   UNL A   1      43.287  22.396  27.461  1.00  0.00     0.020 A 
ATOM     79  C   UNL A   1      44.311  23.938  25.890  1.00  0.00     0.020 A 
ATOM     80  C   UNL A   1      43.930  22.643  26.245  1.00  0.00     0.054 A 
BRANCH  80  81
ATOM     81  S   UNL A   1      44.232  21.253  25.117  1.00  0.00     0.124 S 
ATOM     82  O   UNL A   1      43.096  20.381  25.399  1.00  0.00    -0.237 OA
ATOM     83  O   UNL A   1      44.224  21.903  23.809  1.00  0.00    -0.237 OA
ATOM     84  O   UNL A   1      45.533  20.743  25.543  1.00  0.00    -0.744 OA
ENDBRANCH  80  81
ENDBRANCH  52  75
BRANCH  64  85
ATOM     85  C   UNL A   1      46.974  27.409  33.396  1.00  0.00    -0.014 A 
ATOM     86  C   UNL A   1      48.181  28.061  33.089  1.00  0.00     0.010 A 
ATOM     87  C   UNL A   1      46.967  26.408  34.386  1.00  0.00     0.010 A 
ATOM     88  C   UNL A   1      49.364  27.695  33.737  1.00  0.00     0.020 A 
ATOM     89  C   UNL A   1      48.141  26.063  35.059  1.00  0.00     0.020 A 
ATOM     90  C   UNL A   1      49.336  26.700  34.720  1.00  0.00     0.054 A 
BRANCH  90  91
ATOM     91  S   UNL A   1      50.877  26.278  35.576  1.00  0.00     0.124 S 
ATOM     92  O   UNL A   1      51.756  25.923  34.466  1.00  0.00    -0.237 OA
ATOM     93  O   UNL A   1      51.208  27.521  36.268  1.00  0.00    -0.237 OA
ATOM     94  O   UNL A   1      50.498  25.169  36.448  1.00  0.00    -0.744 OA
ENDBRANCH  90  91
ENDBRANCH  64  85
ENDBRANCH  38  39
ENDBRANCH  30  33
ENDBRANCH  28  29
ENDBRANCH  27  28
ENDBRANCH   1  27
TORSDOF 19
ENDMDL
MODEL 3
REMARK VINA RESULT:     -10.6      3.213      9.618
REMARK SMILES CC(C)(C)OC(=O)N1CCC[C@](Cc2ccccc2)(C(=O)NCCCCNC(=O)c2ccc(-c3c4nc(c(-c5ccc(S(=O)(=O)[O-])cc5)c5ccc([nH]5)c(-c5ccc(S(=O)(=O)[O-])cc5)c5nc(c(-c6ccc(S(=O)(=O)[O-])cc6)c6ccc3[nH]6)C=C5)C=C4)cc2)C1
REMARK SMILES IDX 24 1 23 2 22 3 20 4 21 5 12 7 8 8 9 9 90 10 10 11 11 12 6 13
REMARK SMILES IDX 7 14 5 15 2 16 1 17 3 18 4 19 13 20 14 21 15 22 19 23 16 24
REMARK SMILES IDX 18 25 17 26 25 27 26 28 27 29 28 30 29 32 30 33 31 34 89 35
REMARK SMILES IDX 32 36 88 37 33 38 34 39 35 40 82 41 36 42 87 43 81 44 83 45
REMARK SMILES IDX 37 46 86 47 80 48 79 49 38 51 68 52 49 53 67 54 50 55 53 56
REMARK SMILES IDX 66 57 84 58 51 59 52 60 65 62 85 63 54 64 39 65 40 66 48 67
REMARK SMILES IDX 41 68 47 69 42 70 43 71 44 72 45 73 46 74 69 75 70 76 78 77
REMARK SMILES IDX 71 78 77 79 72 80 73 81 74 82 75 83 76 84 55 85 56 86 64 87
REMARK SMILES IDX 57 88 63 89 58 90 59 91 60 92 61 93 62 94
REMARK H PARENT 22 6 27 31 83 50 53 61
REMARK Flexibility Score: inf
ROOT
ATOM      1  C   UNL A   1      35.107  23.089  24.118  1.00  0.00     0.023 C 
ENDROOT
BRANCH   1   2
ATOM      2  C   UNL A   1      34.585  24.477  24.457  1.00  0.00     0.116 C 
BRANCH   2   3
ATOM      3  N   UNL A   1      33.277  24.488  25.058  1.00  0.00    -0.356 N 
ATOM      4  C   UNL A   1      32.375  25.489  25.225  1.00  0.00     0.228 C 
ATOM      5  O   UNL A   1      31.220  25.099  25.441  1.00  0.00    -0.274 OA
ATOM      6  H   UNL A   1      32.984  23.616  25.411  1.00  0.00     0.163 HD
BRANCH   4   7
ATOM      7  C   UNL A   1      32.711  27.016  25.162  1.00  0.00     0.071 C 
ATOM      8  N   UNL A   1      31.065  28.158  23.610  1.00  0.00    -0.307 N 
ATOM      9  C   UNL A   1      32.115  28.743  22.794  1.00  0.00     0.123 C 
ATOM     10  C   UNL A   1      31.405  27.844  24.991  1.00  0.00     0.140 C 
ATOM     11  C   UNL A   1      33.376  27.898  22.753  1.00  0.00     0.023 C 
ATOM     12  C   UNL A   1      33.806  27.307  24.095  1.00  0.00     0.021 C 
BRANCH   8  13
ATOM     13  C   UNL A   1      29.805  27.959  23.057  1.00  0.00     0.410 C 
ATOM     14  O   UNL A   1      29.104  27.009  23.366  1.00  0.00    -0.224 OA
BRANCH  13  15
ATOM     15  O   UNL A   1      29.466  28.920  22.160  1.00  0.00    -0.444 OA
BRANCH  15  16
ATOM     16  C   UNL A   1      28.557  30.016  22.481  1.00  0.00     0.106 C 
ATOM     17  C   UNL A   1      27.265  29.348  22.980  1.00  0.00     0.056 C 
ATOM     18  C   UNL A   1      28.268  30.774  21.182  1.00  0.00     0.056 C 
ATOM     19  C   UNL A   1      29.030  30.986  23.575  1.00  0.00     0.056 C 
ENDBRANCH  15  16
ENDBRANCH  13  15
ENDBRANCH   8  13
BRANCH   7  20
ATOM     20  C   UNL A   1      33.315  27.308  26.609  1.00  0.00     0.054 C 
BRANCH  20  21
ATOM     21  C   UNL A   1      33.796  28.714  26.912  1.00  0.00    -0.047 A 
ATOM     22  C   UNL A   1      32.884  29.783  26.900  1.00  0.00     0.004 A 
ATOM     23  C   UNL A   1      35.128  28.975  27.245  1.00  0.00     0.004 A 
ATOM     24  C   UNL A   1      33.275  31.058  27.306  1.00  0.00     0.000 A 
ATOM     25  C   UNL A   1      35.518  30.247  27.664  1.00  0.00     0.000 A 
ATOM     26  C   UNL A   1      34.588  31.284  27.710  1.00  0.00     0.000 A 
ENDBRANCH  20  21
ENDBRANCH   7  20
ENDBRANCH   4   7
ENDBRANCH   2   3
ENDBRANCH   1   2
BRANCH   1  27
ATOM     27  C   UNL A   1      35.843  22.413  25.263  1.00  0.00     0.023 C 
BRANCH  27  28
ATOM     28  C   UNL A   1      37.167  23.063  25.647  1.00  0.00     0.116 C 
BRANCH  28  29
ATOM     29  N   UNL A   1      38.297  22.146  25.742  1.00  0.00    -0.352 N 
ATOM     30  C   UNL A   1      39.558  22.432  26.225  1.00  0.00     0.251 C 
ATOM     31  H   UNL A   1      38.145  21.226  25.428  1.00  0.00     0.163 HD
ATOM     32  O   UNL A   1      40.469  21.613  26.179  1.00  0.00    -0.269 OA
BRANCH  30  33
ATOM     33  C   UNL A   1      39.788  23.787  26.766  1.00  0.00     0.039 A 
ATOM     34  C   UNL A   1      40.116  23.936  28.114  1.00  0.00     0.014 A 
ATOM     35  C   UNL A   1      39.850  24.871  25.888  1.00  0.00     0.014 A 
ATOM     36  C   UNL A   1      40.602  25.167  28.560  1.00  0.00     0.010 A 
ATOM     37  C   UNL A   1      40.438  26.054  26.312  1.00  0.00     0.010 A 
ATOM     38  C   UNL A   1      40.821  26.218  27.653  1.00  0.00    -0.014 A 
BRANCH  38  39
ATOM     39  C   UNL A   1      41.441  27.498  28.083  1.00  0.00     0.031 A 
ATOM     40  C   UNL A   1      42.934  27.672  27.984  1.00  0.00     0.074 A 
ATOM     41  C   UNL A   1      40.679  28.475  28.615  1.00  0.00     0.049 A 
ATOM     42  N   UNL A   1      43.672  28.688  28.350  1.00  0.00    -0.248 NA
ATOM     43  C   UNL A   1      43.703  26.544  27.429  1.00  0.00     0.031 C 
ATOM     44  C   UNL A   1      39.228  28.413  28.813  1.00  0.00     0.029 A 
ATOM     45  N   UNL A   1      41.020  29.719  29.089  1.00  0.00    -0.354 N 
ATOM     46  C   UNL A   1      44.984  28.316  28.083  1.00  0.00     0.074 A 
ATOM     47  C   UNL A   1      44.949  26.957  27.595  1.00  0.00     0.031 C 
ATOM     48  C   UNL A   1      38.801  29.579  29.325  1.00  0.00     0.029 A 
ATOM     49  C   UNL A   1      39.947  30.456  29.537  1.00  0.00     0.049 A 
ATOM     50  H   UNL A   1      41.947  30.052  29.106  1.00  0.00     0.167 HD
ATOM     51  C   UNL A   1      46.115  29.049  28.201  1.00  0.00     0.031 A 
ATOM     52  C   UNL A   1      39.892  31.697  30.060  1.00  0.00     0.031 A 
ATOM     53  C   UNL A   1      46.146  30.406  28.676  1.00  0.00     0.049 A 
ATOM     54  C   UNL A   1      41.168  32.485  30.204  1.00  0.00     0.074 A 
ATOM     55  C   UNL A   1      47.234  31.252  28.789  1.00  0.00     0.029 A 
ATOM     56  N   UNL A   1      45.039  31.113  29.118  1.00  0.00    -0.354 N 
ATOM     57  N   UNL A   1      42.392  32.140  29.880  1.00  0.00    -0.248 NA
ATOM     58  C   UNL A   1      41.054  33.834  30.775  1.00  0.00     0.031 C 
ATOM     59  C   UNL A   1      46.795  32.452  29.355  1.00  0.00     0.029 A 
ATOM     60  C   UNL A   1      45.422  32.379  29.529  1.00  0.00     0.049 A 
ATOM     61  H   UNL A   1      44.117  30.767  29.138  1.00  0.00     0.167 HD
ATOM     62  C   UNL A   1      43.188  33.241  30.176  1.00  0.00     0.074 A 
ATOM     63  C   UNL A   1      42.305  34.268  30.690  1.00  0.00     0.031 C 
ATOM     64  C   UNL A   1      44.529  33.391  30.035  1.00  0.00     0.031 A 
BRANCH  51  65
ATOM     65  C   UNL A   1      47.412  28.392  27.805  1.00  0.00    -0.014 A 
ATOM     66  C   UNL A   1      48.162  27.645  28.734  1.00  0.00     0.010 A 
ATOM     67  C   UNL A   1      47.874  28.492  26.480  1.00  0.00     0.010 A 
ATOM     68  C   UNL A   1      49.369  27.052  28.358  1.00  0.00     0.020 A 
ATOM     69  C   UNL A   1      49.063  27.871  26.091  1.00  0.00     0.020 A 
ATOM     70  C   UNL A   1      49.812  27.169  27.038  1.00  0.00     0.054 A 
BRANCH  70  71
ATOM     71  S   UNL A   1      51.369  26.364  26.573  1.00  0.00     0.124 S 
ATOM     72  O   UNL A   1      52.359  27.331  27.041  1.00  0.00    -0.237 OA
ATOM     73  O   UNL A   1      51.314  25.109  27.319  1.00  0.00    -0.237 OA
ATOM     74  O   UNL A   1      51.270  26.228  25.122  1.00  0.00    -0.744 OA
ENDBRANCH  70  71
ENDBRANCH  51  65
BRANCH  52  75
ATOM     75  C   UNL A   1      38.585  32.284  30.471  1.00  0.00    -0.014 A 
ATOM     76  C   UNL A   1      38.109  32.123  31.785  1.00  0.00     0.010 A 
ATOM     77  C   UNL A   1      37.805  33.005  29.550  1.00  0.00     0.010 A 
ATOM     78  C   UNL A   1      36.869  32.647  32.161  1.00  0.00     0.020 A 
ATOM     79  C   UNL A   1      36.579  33.559  29.930  1.00  0.00     0.020 A 
ATOM     80  C   UNL A   1      36.112  33.364  31.231  1.00  0.00     0.054 A 
BRANCH  80  81
ATOM     81  S   UNL A   1      34.523  34.069  31.753  1.00  0.00     0.124 S 
ATOM     82  O   UNL A   1      33.992  33.017  32.615  1.00  0.00    -0.237 OA
ATOM     83  O   UNL A   1      34.931  35.297  32.430  1.00  0.00    -0.237 OA
ATOM     84  O   UNL A   1      33.807  34.268  30.495  1.00  0.00    -0.744 OA
ENDBRANCH  80  81
ENDBRANCH  52  75
BRANCH  64  85
ATOM     85  C   UNL A   1      45.123  34.726  30.401  1.00  0.00    -0.014 A 
ATOM     86  C   UNL A   1      45.207  35.772  29.466  1.00  0.00     0.010 A 
ATOM     87  C   UNL A   1      45.547  34.952  31.724  1.00  0.00     0.010 A 
ATOM     88  C   UNL A   1      45.736  37.010  29.840  1.00  0.00     0.020 A 
ATOM     89  C   UNL A   1      46.044  36.199  32.110  1.00  0.00     0.020 A 
ATOM     90  C   UNL A   1      46.149  37.217  31.161  1.00  0.00     0.054 A 
BRANCH  90  91
ATOM     91  S   UNL A   1      46.787  38.847  31.629  1.00  0.00     0.124 S 
ATOM     92  O   UNL A   1      46.935  39.501  30.332  1.00  0.00    -0.237 OA
ATOM     93  O   UNL A   1      45.723  39.374  32.481  1.00  0.00    -0.237 OA
ATOM     94  O   UNL A   1      48.039  38.545  32.320  1.00  0.00    -0.744 OA
ENDBRANCH  90  91
ENDBRANCH  64  85
ENDBRANCH  38  39
ENDBRANCH  30  33
ENDBRANCH  28  29
ENDBRANCH  27  28
ENDBRANCH   1  27
TORSDOF 19
ENDMDL
