MODEL 1
REMARK VINA RESULT:     -11.4      0.000      0.000
REMARK SMILES O=C(NCCCCNC(=O)c1cccc(NC(=S)N/N=C\c2c[nH]c3ccccc23)c1)c1ccc(-c2c3nc(c(-c4ccc(S(=O)(=O)[O-])cc4)c4ccc([nH]4)c(-c4ccc(S(=O)(=O)[O-])cc4)c4nc(c(-c5ccc(S(=O)(=O)[O-])cc5)c5ccc2[nH]5)C=C4)C=C3)cc1
REMARK SMILES IDX 6 1 5 2 4 3 3 4 1 5 2 6 32 8 33 9 91 10 34 11 90 12 35 13
REMARK SMILES IDX 36 14 37 15 84 16 38 17 89 18 83 19 85 20 39 21 88 22 82 23
REMARK SMILES IDX 81 24 40 26 70 27 51 28 69 29 52 30 55 31 68 32 86 33 53 34
REMARK SMILES IDX 54 35 67 37 87 38 56 39 41 40 42 41 50 42 43 43 49 44 44 45
REMARK SMILES IDX 45 46 46 47 47 48 48 49 71 50 72 51 80 52 73 53 79 54 74 55
REMARK SMILES IDX 75 56 76 57 77 58 78 59 57 60 58 61 66 62 59 63 65 64 60 65
REMARK SMILES IDX 61 66 62 67 63 68 64 69 7 70 8 71 9 72 10 74 11 75 12 76
REMARK SMILES IDX 31 77 13 78 15 79 14 80 16 81 17 83 18 84 19 85 20 87 21 88
REMARK SMILES IDX 22 89 23 90 30 91 24 92 25 93 29 94 26 96 28 97 27 98
REMARK H PARENT 3 7 85 25 55 36 8 73 16 82 19 86 24 95
REMARK Flexibility Score: inf
ROOT
ATOM      1  C   UNL A   1      37.684  22.884  25.696  1.00  0.00     0.023 C 
ENDROOT
BRANCH   1   2
ATOM      2  C   UNL A   1      38.309  24.075  26.406  1.00  0.00     0.023 C 
BRANCH   2   3
ATOM      3  C   UNL A   1      39.745  23.875  26.863  1.00  0.00     0.116 C 
BRANCH   3   4
ATOM      4  N   UNL A   1      40.722  24.441  25.946  1.00  0.00    -0.352 N 
ATOM      5  O   UNL A   1      42.052  26.053  25.090  1.00  0.00    -0.269 OA
ATOM      6  C   UNL A   1      41.339  25.669  26.010  1.00  0.00     0.251 C 
ATOM      7  H   UNL A   1      40.974  23.873  25.182  1.00  0.00     0.163 HD
BRANCH   6   8
ATOM      8  C   UNL A   1      41.103  26.526  27.190  1.00  0.00     0.039 A 
ATOM      9  C   UNL A   1      41.714  27.780  27.280  1.00  0.00     0.014 A 
ATOM     10  C   UNL A   1      40.293  26.057  28.227  1.00  0.00     0.014 A 
ATOM     11  C   UNL A   1      41.619  28.508  28.458  1.00  0.00     0.010 A 
ATOM     12  C   UNL A   1      40.129  26.831  29.379  1.00  0.00     0.010 A 
ATOM     13  C   UNL A   1      40.803  28.055  29.509  1.00  0.00    -0.014 A 
BRANCH  13  14
ATOM     14  C   UNL A   1      40.572  28.941  30.674  1.00  0.00     0.031 A 
ATOM     15  C   UNL A   1      39.467  29.958  30.688  1.00  0.00     0.074 A 
ATOM     16  C   UNL A   1      41.392  28.805  31.736  1.00  0.00     0.049 A 
ATOM     17  N   UNL A   1      39.150  30.804  31.635  1.00  0.00    -0.248 NA
ATOM     18  C   UNL A   1      38.611  30.047  29.493  1.00  0.00     0.031 C 
ATOM     19  C   UNL A   1      42.511  27.859  31.819  1.00  0.00     0.029 A 
ATOM     20  N   UNL A   1      41.413  29.447  32.946  1.00  0.00    -0.354 N 
ATOM     21  C   UNL A   1      38.078  31.543  31.146  1.00  0.00     0.074 A 
ATOM     22  C   UNL A   1      37.800  31.048  29.814  1.00  0.00     0.031 C 
ATOM     23  C   UNL A   1      43.087  27.961  33.025  1.00  0.00     0.029 A 
ATOM     24  C   UNL A   1      42.425  29.021  33.773  1.00  0.00     0.049 A 
ATOM     25  H   UNL A   1      40.766  30.146  33.198  1.00  0.00     0.167 HD
ATOM     26  C   UNL A   1      37.395  32.540  31.759  1.00  0.00     0.031 A 
ATOM     27  C   UNL A   1      42.806  29.456  34.988  1.00  0.00     0.031 A 
ATOM     28  C   UNL A   1      37.676  33.011  33.090  1.00  0.00     0.049 A 
ATOM     29  C   UNL A   1      42.046  30.581  35.624  1.00  0.00     0.074 A 
ATOM     30  C   UNL A   1      36.993  33.968  33.822  1.00  0.00     0.029 A 
ATOM     31  N   UNL A   1      38.725  32.576  33.885  1.00  0.00    -0.354 N 
ATOM     32  N   UNL A   1      40.992  31.218  35.172  1.00  0.00    -0.248 NA
ATOM     33  C   UNL A   1      42.529  31.053  36.927  1.00  0.00     0.031 C 
ATOM     34  C   UNL A   1      37.665  34.154  35.035  1.00  0.00     0.029 A 
ATOM     35  C   UNL A   1      38.736  33.276  35.079  1.00  0.00     0.049 A 
ATOM     36  H   UNL A   1      39.368  31.873  33.635  1.00  0.00     0.167 HD
ATOM     37  C   UNL A   1      40.686  32.167  36.136  1.00  0.00     0.074 A 
ATOM     38  C   UNL A   1      41.644  31.999  37.210  1.00  0.00     0.031 C 
ATOM     39  C   UNL A   1      39.706  33.103  36.129  1.00  0.00     0.031 A 
BRANCH  26  40
ATOM     40  C   UNL A   1      36.287  33.220  31.000  1.00  0.00    -0.014 A 
ATOM     41  C   UNL A   1      34.992  33.322  31.536  1.00  0.00     0.010 A 
ATOM     42  C   UNL A   1      36.579  33.870  29.786  1.00  0.00     0.010 A 
ATOM     43  C   UNL A   1      34.007  34.057  30.868  1.00  0.00     0.020 A 
ATOM     44  C   UNL A   1      35.602  34.619  29.123  1.00  0.00     0.020 A 
ATOM     45  C   UNL A   1      34.319  34.704  29.668  1.00  0.00     0.054 A 
BRANCH  45  46
ATOM     46  S   UNL A   1      33.041  35.708  28.859  1.00  0.00     0.124 S 
ATOM     47  O   UNL A   1      33.843  36.687  28.131  1.00  0.00    -0.237 OA
ATOM     48  O   UNL A   1      32.340  34.729  28.031  1.00  0.00    -0.237 OA
ATOM     49  O   UNL A   1      32.264  36.245  29.974  1.00  0.00    -0.744 OA
ENDBRANCH  45  46
ENDBRANCH  26  40
BRANCH  27  50
ATOM     50  C   UNL A   1      44.001  28.865  35.645  1.00  0.00    -0.014 A 
ATOM     51  C   UNL A   1      43.877  27.768  36.514  1.00  0.00     0.010 A 
ATOM     52  C   UNL A   1      45.278  29.401  35.393  1.00  0.00     0.010 A 
ATOM     53  C   UNL A   1      45.007  27.235  37.140  1.00  0.00     0.020 A 
ATOM     54  C   UNL A   1      46.412  28.851  35.993  1.00  0.00     0.020 A 
ATOM     55  C   UNL A   1      46.267  27.783  36.878  1.00  0.00     0.054 A 
BRANCH  55  56
ATOM     56  S   UNL A   1      47.726  27.061  37.677  1.00  0.00     0.124 S 
ATOM     57  O   UNL A   1      48.779  27.367  36.715  1.00  0.00    -0.237 OA
ATOM     58  O   UNL A   1      47.791  27.789  38.941  1.00  0.00    -0.237 OA
ATOM     59  O   UNL A   1      47.379  25.646  37.801  1.00  0.00    -0.744 OA
ENDBRANCH  55  56
ENDBRANCH  27  50
BRANCH  39  60
ATOM     60  C   UNL A   1      39.629  34.016  37.320  1.00  0.00    -0.014 A 
ATOM     61  C   UNL A   1      38.897  33.644  38.462  1.00  0.00     0.010 A 
ATOM     62  C   UNL A   1      40.323  35.239  37.313  1.00  0.00     0.010 A 
ATOM     63  C   UNL A   1      38.837  34.495  39.567  1.00  0.00     0.020 A 
ATOM     64  C   UNL A   1      40.287  36.080  38.426  1.00  0.00     0.020 A 
ATOM     65  C   UNL A   1      39.532  35.708  39.542  1.00  0.00     0.054 A 
BRANCH  65  66
ATOM     66  S   UNL A   1      39.474  36.776  41.007  1.00  0.00     0.124 S 
ATOM     67  O   UNL A   1      38.693  37.912  40.523  1.00  0.00    -0.237 OA
ATOM     68  O   UNL A   1      38.810  35.932  41.996  1.00  0.00    -0.237 OA
ATOM     69  O   UNL A   1      40.882  37.060  41.283  1.00  0.00    -0.744 OA
ENDBRANCH  65  66
ENDBRANCH  39  60
ENDBRANCH  13  14
ENDBRANCH   6   8
ENDBRANCH   3   4
ENDBRANCH   2   3
ENDBRANCH   1   2
BRANCH   1  70
ATOM     70  C   UNL A   1      36.196  22.681  25.956  1.00  0.00     0.116 C 
BRANCH  70  71
ATOM     71  N   UNL A   1      35.647  21.495  25.322  1.00  0.00    -0.352 N 
ATOM     72  C   UNL A   1      34.342  21.091  25.099  1.00  0.00     0.251 C 
ATOM     73  H   UNL A   1      36.326  20.864  24.991  1.00  0.00     0.163 HD
ATOM     74  O   UNL A   1      34.122  19.997  24.621  1.00  0.00    -0.269 OA
BRANCH  72  75
ATOM     75  C   UNL A   1      33.212  21.972  25.471  1.00  0.00     0.041 A 
ATOM     76  C   UNL A   1      32.912  22.145  26.826  1.00  0.00     0.014 A 
ATOM     77  C   UNL A   1      32.460  22.639  24.509  1.00  0.00     0.040 A 
ATOM     78  C   UNL A   1      31.897  23.026  27.209  1.00  0.00     0.003 A 
ATOM     79  C   UNL A   1      31.522  23.589  24.895  1.00  0.00     0.041 A 
ATOM     80  C   UNL A   1      31.208  23.758  26.241  1.00  0.00     0.026 A 
BRANCH  79  81
ATOM     81  N   UNL A   1      31.083  24.490  23.919  1.00  0.00    -0.331 N 
ATOM     82  H   UNL A   1      30.722  24.087  23.096  1.00  0.00     0.169 HD
BRANCH  81  83
ATOM     83  C   UNL A   1      31.089  25.846  23.957  1.00  0.00     0.191 C 
ATOM     84  S   UNL A   1      29.630  26.669  23.903  1.00  0.00    -0.039 S 
BRANCH  83  85
ATOM     85  N   UNL A   1      32.254  26.524  24.197  1.00  0.00    -0.254 N 
ATOM     86  H   UNL A   1      32.653  26.424  25.091  1.00  0.00     0.193 HD
BRANCH  85  87
ATOM     87  N   UNL A   1      32.924  27.337  23.299  1.00  0.00    -0.181 NA
ATOM     88  C   UNL A   1      33.079  28.606  23.585  1.00  0.00     0.143 C 
BRANCH  88  89
ATOM     89  C   UNL A   1      32.669  29.187  24.845  1.00  0.00     0.020 A 
ATOM     90  C   UNL A   1      31.448  29.797  25.062  1.00  0.00     0.093 A 
ATOM     91  C   UNL A   1      33.411  29.393  26.038  1.00  0.00     0.008 A 
ATOM     92  N   UNL A   1      31.694  30.801  25.960  1.00  0.00    -0.361 N 
ATOM     93  C   UNL A   1      32.917  30.596  26.547  1.00  0.00     0.046 A 
ATOM     94  C   UNL A   1      34.523  28.807  26.669  1.00  0.00     0.011 A 
ATOM     95  H   UNL A   1      31.089  31.553  26.152  1.00  0.00     0.166 HD
ATOM     96  C   UNL A   1      33.618  31.371  27.470  1.00  0.00     0.027 A 
ATOM     97  C   UNL A   1      35.131  29.489  27.731  1.00  0.00     0.001 A 
ATOM     98  C   UNL A   1      34.734  30.784  28.066  1.00  0.00     0.002 A 
ENDBRANCH  88  89
ENDBRANCH  85  87
ENDBRANCH  83  85
ENDBRANCH  81  83
ENDBRANCH  79  81
ENDBRANCH  72  75
ENDBRANCH  70  71
ENDBRANCH   1  70
TORSDOF 19
ENDMDL
MODEL 2
REMARK VINA RESULT:     -11.4      2.977      8.592
REMARK SMILES O=C(NCCCCNC(=O)c1cccc(NC(=S)N/N=C\c2c[nH]c3ccccc23)c1)c1ccc(-c2c3nc(c(-c4ccc(S(=O)(=O)[O-])cc4)c4ccc([nH]4)c(-c4ccc(S(=O)(=O)[O-])cc4)c4nc(c(-c5ccc(S(=O)(=O)[O-])cc5)c5ccc2[nH]5)C=C4)C=C3)cc1
REMARK SMILES IDX 6 1 5 2 4 3 3 4 1 5 2 6 32 8 33 9 91 10 34 11 90 12 35 13
REMARK SMILES IDX 36 14 37 15 84 16 38 17 89 18 83 19 85 20 39 21 88 22 82 23
REMARK SMILES IDX 81 24 40 26 70 27 51 28 69 29 52 30 55 31 68 32 86 33 53 34
REMARK SMILES IDX 54 35 67 37 87 38 56 39 41 40 42 41 50 42 43 43 49 44 44 45
REMARK SMILES IDX 45 46 46 47 47 48 48 49 71 50 72 51 80 52 73 53 79 54 74 55
REMARK SMILES IDX 75 56 76 57 77 58 78 59 57 60 58 61 66 62 59 63 65 64 60 65
REMARK SMILES IDX 61 66 62 67 63 68 64 69 7 70 8 71 9 72 10 74 11 75 12 76
REMARK SMILES IDX 31 77 13 78 15 79 14 80 16 81 17 83 18 84 19 85 20 87 21 88
REMARK SMILES IDX 22 89 23 90 30 91 24 92 25 93 29 94 26 96 28 97 27 98
REMARK H PARENT 3 7 85 25 55 36 8 73 16 82 19 86 24 95
REMARK Flexibility Score: inf
ROOT
ATOM      1  C   UNL A   1      35.289  22.383  24.380  1.00  0.00     0.023 C 
ENDROOT
BRANCH   1   2
ATOM      2  C   UNL A   1      35.430  23.836  24.811  1.00  0.00     0.023 C 
BRANCH   2   3
ATOM      3  C   UNL A   1      36.744  24.182  25.493  1.00  0.00     0.116 C 
BRANCH   3   4
ATOM      4  N   UNL A   1      37.682  23.071  25.528  1.00  0.00    -0.352 N 
ATOM      5  O   UNL A   1      39.668  22.063  25.902  1.00  0.00    -0.269 OA
ATOM      6  C   UNL A   1      38.951  23.045  26.060  1.00  0.00     0.251 C 
ATOM      7  H   UNL A   1      37.370  22.232  25.118  1.00  0.00     0.163 HD
BRANCH   6   8
ATOM      8  C   UNL A   1      39.442  24.228  26.796  1.00  0.00     0.039 A 
ATOM      9  C   UNL A   1      39.110  24.403  28.143  1.00  0.00     0.014 A 
ATOM     10  C   UNL A   1      40.208  25.183  26.125  1.00  0.00     0.014 A 
ATOM     11  C   UNL A   1      39.436  25.592  28.781  1.00  0.00     0.010 A 
ATOM     12  C   UNL A   1      40.609  26.341  26.796  1.00  0.00     0.010 A 
ATOM     13  C   UNL A   1      40.213  26.561  28.124  1.00  0.00    -0.014 A 
BRANCH  13  14
ATOM     14  C   UNL A   1      40.704  27.731  28.891  1.00  0.00     0.031 A 
ATOM     15  C   UNL A   1      42.063  27.744  29.531  1.00  0.00     0.074 A 
ATOM     16  C   UNL A   1      39.885  28.798  28.996  1.00  0.00     0.049 A 
ATOM     17  N   UNL A   1      42.623  28.694  30.235  1.00  0.00    -0.248 NA
ATOM     18  C   UNL A   1      42.901  26.544  29.370  1.00  0.00     0.031 C 
ATOM     19  C   UNL A   1      38.536  28.882  28.427  1.00  0.00     0.029 A 
ATOM     20  N   UNL A   1      40.063  30.012  29.604  1.00  0.00    -0.354 N 
ATOM     21  C   UNL A   1      43.864  28.203  30.624  1.00  0.00     0.074 A 
ATOM     22  C   UNL A   1      43.975  26.866  30.081  1.00  0.00     0.031 C 
ATOM     23  C   UNL A   1      38.022  30.093  28.686  1.00  0.00     0.029 A 
ATOM     24  C   UNL A   1      38.974  30.844  29.493  1.00  0.00     0.049 A 
ATOM     25  H   UNL A   1      40.890  30.264  30.076  1.00  0.00     0.167 HD
ATOM     26  C   UNL A   1      44.816  28.818  31.366  1.00  0.00     0.031 A 
ATOM     27  C   UNL A   1      38.747  32.064  30.012  1.00  0.00     0.031 A 
ATOM     28  C   UNL A   1      44.695  30.155  31.888  1.00  0.00     0.049 A 
ATOM     29  C   UNL A   1      39.811  32.702  30.853  1.00  0.00     0.074 A 
ATOM     30  C   UNL A   1      45.637  30.888  32.591  1.00  0.00     0.029 A 
ATOM     31  N   UNL A   1      43.568  30.953  31.779  1.00  0.00    -0.354 N 
ATOM     32  N   UNL A   1      41.004  32.247  31.149  1.00  0.00    -0.248 NA
ATOM     33  C   UNL A   1      39.497  34.012  31.436  1.00  0.00     0.031 C 
ATOM     34  C   UNL A   1      45.056  32.107  32.958  1.00  0.00     0.029 A 
ATOM     35  C   UNL A   1      43.772  32.153  32.440  1.00  0.00     0.049 A 
ATOM     36  H   UNL A   1      42.744  30.703  31.303  1.00  0.00     0.167 HD
ATOM     37  C   UNL A   1      41.585  33.216  31.955  1.00  0.00     0.074 A 
ATOM     38  C   UNL A   1      40.626  34.295  32.072  1.00  0.00     0.031 C 
ATOM     39  C   UNL A   1      42.800  33.208  32.556  1.00  0.00     0.031 A 
BRANCH  26  40
ATOM     40  C   UNL A   1      46.074  28.056  31.691  1.00  0.00    -0.014 A 
ATOM     41  C   UNL A   1      47.203  28.123  30.857  1.00  0.00     0.010 A 
ATOM     42  C   UNL A   1      46.163  27.359  32.910  1.00  0.00     0.010 A 
ATOM     43  C   UNL A   1      48.398  27.501  31.234  1.00  0.00     0.020 A 
ATOM     44  C   UNL A   1      47.360  26.750  33.300  1.00  0.00     0.020 A 
ATOM     45  C   UNL A   1      48.470  26.822  32.455  1.00  0.00     0.054 A 
BRANCH  45  46
ATOM     46  S   UNL A   1      50.053  26.085  32.951  1.00  0.00     0.124 S 
ATOM     47  O   UNL A   1      51.002  27.129  32.574  1.00  0.00    -0.237 OA
ATOM     48  O   UNL A   1      49.878  25.885  34.388  1.00  0.00    -0.237 OA
ATOM     49  O   UNL A   1      50.129  24.859  32.159  1.00  0.00    -0.744 OA
ENDBRANCH  45  46
ENDBRANCH  26  40
BRANCH  27  50
ATOM     50  C   UNL A   1      37.433  32.725  29.798  1.00  0.00    -0.014 A 
ATOM     51  C   UNL A   1      36.345  32.460  30.647  1.00  0.00     0.010 A 
ATOM     52  C   UNL A   1      37.270  33.636  28.737  1.00  0.00     0.010 A 
ATOM     53  C   UNL A   1      35.110  33.074  30.422  1.00  0.00     0.020 A 
ATOM     54  C   UNL A   1      36.046  34.274  28.529  1.00  0.00     0.020 A 
ATOM     55  C   UNL A   1      34.968  33.975  29.361  1.00  0.00     0.054 A 
BRANCH  55  56
ATOM     56  S   UNL A   1      33.366  34.784  29.101  1.00  0.00     0.124 S 
ATOM     57  O   UNL A   1      32.805  34.781  30.448  1.00  0.00    -0.237 OA
ATOM     58  O   UNL A   1      33.751  36.092  28.577  1.00  0.00    -0.237 OA
ATOM     59  O   UNL A   1      32.697  33.909  28.140  1.00  0.00    -0.744 OA
ENDBRANCH  55  56
ENDBRANCH  27  50
BRANCH  39  60
ATOM     60  C   UNL A   1      43.152  34.405  33.393  1.00  0.00    -0.014 A 
ATOM     61  C   UNL A   1      42.990  34.376  34.790  1.00  0.00     0.010 A 
ATOM     62  C   UNL A   1      43.683  35.555  32.783  1.00  0.00     0.010 A 
ATOM     63  C   UNL A   1      43.328  35.491  35.560  1.00  0.00     0.020 A 
ATOM     64  C   UNL A   1      44.047  36.661  33.553  1.00  0.00     0.020 A 
ATOM     65  C   UNL A   1      43.854  36.626  34.937  1.00  0.00     0.054 A 
BRANCH  65  66
ATOM     66  S   UNL A   1      44.325  38.045  35.964  1.00  0.00     0.124 S 
ATOM     67  O   UNL A   1      45.755  37.817  36.157  1.00  0.00    -0.237 OA
ATOM     68  O   UNL A   1      43.979  39.184  35.119  1.00  0.00    -0.237 OA
ATOM     69  O   UNL A   1      43.502  37.893  37.163  1.00  0.00    -0.744 OA
ENDBRANCH  65  66
ENDBRANCH  39  60
ENDBRANCH  13  14
ENDBRANCH   6   8
ENDBRANCH   3   4
ENDBRANCH   2   3
ENDBRANCH   1   2
BRANCH   1  70
ATOM     70  C   UNL A   1      34.913  21.411  25.491  1.00  0.00     0.116 C 
BRANCH  70  71
ATOM     71  N   UNL A   1      33.923  20.424  25.097  1.00  0.00    -0.352 N 
ATOM     72  C   UNL A   1      32.555  20.516  24.909  1.00  0.00     0.251 C 
ATOM     73  H   UNL A   1      34.293  19.526  24.933  1.00  0.00     0.163 HD
ATOM     74  O   UNL A   1      31.911  19.517  24.660  1.00  0.00    -0.269 OA
BRANCH  72  75
ATOM     75  C   UNL A   1      31.868  21.820  25.042  1.00  0.00     0.041 A 
ATOM     76  C   UNL A   1      31.594  22.309  26.323  1.00  0.00     0.014 A 
ATOM     77  C   UNL A   1      31.507  22.571  23.927  1.00  0.00     0.040 A 
ATOM     78  C   UNL A   1      31.011  23.570  26.479  1.00  0.00     0.003 A 
ATOM     79  C   UNL A   1      31.022  23.864  24.086  1.00  0.00     0.041 A 
ATOM     80  C   UNL A   1      30.734  24.353  25.358  1.00  0.00     0.026 A 
BRANCH  79  81
ATOM     81  N   UNL A   1      31.043  24.700  22.965  1.00  0.00    -0.331 N 
ATOM     82  H   UNL A   1      30.201  24.758  22.459  1.00  0.00     0.169 HD
BRANCH  81  83
ATOM     83  C   UNL A   1      32.072  25.441  22.482  1.00  0.00     0.191 C 
ATOM     84  S   UNL A   1      32.940  24.870  21.168  1.00  0.00    -0.039 S 
BRANCH  83  85
ATOM     85  N   UNL A   1      32.293  26.705  22.958  1.00  0.00    -0.254 N 
ATOM     86  H   UNL A   1      31.898  26.930  23.830  1.00  0.00     0.193 HD
BRANCH  85  87
ATOM     87  N   UNL A   1      33.022  27.698  22.326  1.00  0.00    -0.181 NA
ATOM     88  C   UNL A   1      33.128  28.871  22.900  1.00  0.00     0.143 C 
BRANCH  88  89
ATOM     89  C   UNL A   1      32.601  29.156  24.216  1.00  0.00     0.020 A 
ATOM     90  C   UNL A   1      31.322  29.618  24.461  1.00  0.00     0.093 A 
ATOM     91  C   UNL A   1      33.256  29.174  25.476  1.00  0.00     0.008 A 
ATOM     92  N   UNL A   1      31.430  30.438  25.552  1.00  0.00    -0.361 N 
ATOM     93  C   UNL A   1      32.632  30.210  26.174  1.00  0.00     0.046 A 
ATOM     94  C   UNL A   1      34.378  28.557  26.058  1.00  0.00     0.011 A 
ATOM     95  H   UNL A   1      30.752  31.089  25.844  1.00  0.00     0.166 HD
ATOM     96  C   UNL A   1      33.212  30.835  27.278  1.00  0.00     0.027 A 
ATOM     97  C   UNL A   1      34.865  29.056  27.273  1.00  0.00     0.001 A 
ATOM     98  C   UNL A   1      34.339  30.225  27.825  1.00  0.00     0.002 A 
ENDBRANCH  88  89
ENDBRANCH  85  87
ENDBRANCH  83  85
ENDBRANCH  81  83
ENDBRANCH  79  81
ENDBRANCH  72  75
ENDBRANCH  70  71
ENDBRANCH   1  70
TORSDOF 19
ENDMDL
MODEL 3
REMARK VINA RESULT:     -11.2      1.416      8.324
REMARK SMILES O=C(NCCCCNC(=O)c1cccc(NC(=S)N/N=C\c2c[nH]c3ccccc23)c1)c1ccc(-c2c3nc(c(-c4ccc(S(=O)(=O)[O-])cc4)c4ccc([nH]4)c(-c4ccc(S(=O)(=O)[O-])cc4)c4nc(c(-c5ccc(S(=O)(=O)[O-])cc5)c5ccc2[nH]5)C=C4)C=C3)cc1
REMARK SMILES IDX 6 1 5 2 4 3 3 4 1 5 2 6 32 8 33 9 91 10 34 11 90 12 35 13
REMARK SMILES IDX 36 14 37 15 84 16 38 17 89 18 83 19 85 20 39 21 88 22 82 23
REMARK SMILES IDX 81 24 40 26 70 27 51 28 69 29 52 30 55 31 68 32 86 33 53 34
REMARK SMILES IDX 54 35 67 37 87 38 56 39 41 40 42 41 50 42 43 43 49 44 44 45
REMARK SMILES IDX 45 46 46 47 47 48 48 49 71 50 72 51 80 52 73 53 79 54 74 55
REMARK SMILES IDX 75 56 76 57 77 58 78 59 57 60 58 61 66 62 59 63 65 64 60 65
REMARK SMILES IDX 61 66 62 67 63 68 64 69 7 70 8 71 9 72 10 74 11 75 12 76
REMARK SMILES IDX 31 77 13 78 15 79 14 80 16 81 17 83 18 84 19 85 20 87 21 88
REMARK SMILES IDX 22 89 23 90 30 91 24 92 25 93 29 94 26 96 28 97 27 98
REMARK H PARENT 3 7 85 25 55 36 8 73 16 82 19 86 24 95
REMARK Flexibility Score: inf
ROOT
ATOM      1  C   UNL A   1      38.338  23.513  26.801  1.00  0.00     0.023 C 
ENDROOT
BRANCH   1   2
ATOM      2  C   UNL A   1      39.598  22.662  26.735  1.00  0.00     0.023 C 
BRANCH   2   3
ATOM      3  C   UNL A   1      40.883  23.380  27.117  1.00  0.00     0.116 C 
BRANCH   3   4
ATOM      4  N   UNL A   1      41.498  24.085  26.004  1.00  0.00    -0.352 N 
ATOM      5  O   UNL A   1      42.219  25.891  24.855  1.00  0.00    -0.269 OA
ATOM      6  C   UNL A   1      41.813  25.421  25.912  1.00  0.00     0.251 C 
ATOM      7  H   UNL A   1      41.716  23.537  25.215  1.00  0.00     0.163 HD
BRANCH   6   8
ATOM      8  C   UNL A   1      41.626  26.282  27.098  1.00  0.00     0.039 A 
ATOM      9  C   UNL A   1      42.551  27.290  27.386  1.00  0.00     0.014 A 
ATOM     10  C   UNL A   1      40.539  26.056  27.945  1.00  0.00     0.014 A 
ATOM     11  C   UNL A   1      42.460  27.985  28.585  1.00  0.00     0.010 A 
ATOM     12  C   UNL A   1      40.401  26.817  29.109  1.00  0.00     0.010 A 
ATOM     13  C   UNL A   1      41.368  27.776  29.445  1.00  0.00    -0.014 A 
BRANCH  13  14
ATOM     14  C   UNL A   1      41.198  28.663  30.620  1.00  0.00     0.031 A 
ATOM     15  C   UNL A   1      42.061  28.533  31.842  1.00  0.00     0.074 A 
ATOM     16  C   UNL A   1      40.235  29.606  30.557  1.00  0.00     0.049 A 
ATOM     17  N   UNL A   1      42.023  29.235  32.945  1.00  0.00    -0.248 NA
ATOM     18  C   UNL A   1      43.093  27.483  31.835  1.00  0.00     0.031 C 
ATOM     19  C   UNL A   1      39.327  29.807  29.422  1.00  0.00     0.029 A 
ATOM     20  N   UNL A   1      39.862  30.572  31.453  1.00  0.00    -0.354 N 
ATOM     21  C   UNL A   1      43.002  28.701  33.774  1.00  0.00     0.074 A 
ATOM     22  C   UNL A   1      43.618  27.610  33.048  1.00  0.00     0.031 C 
ATOM     23  C   UNL A   1      38.525  30.850  29.678  1.00  0.00     0.029 A 
ATOM     24  C   UNL A   1      38.814  31.348  31.016  1.00  0.00     0.049 A 
ATOM     25  H   UNL A   1      40.300  30.698  32.326  1.00  0.00     0.167 HD
ATOM     26  C   UNL A   1      43.350  29.090  35.024  1.00  0.00     0.031 A 
ATOM     27  C   UNL A   1      38.134  32.330  31.633  1.00  0.00     0.031 A 
ATOM     28  C   UNL A   1      42.737  30.187  35.728  1.00  0.00     0.049 A 
ATOM     29  C   UNL A   1      38.526  32.716  33.028  1.00  0.00     0.074 A 
ATOM     30  C   UNL A   1      43.069  30.701  36.971  1.00  0.00     0.029 A 
ATOM     31  N   UNL A   1      41.662  30.929  35.265  1.00  0.00    -0.354 N 
ATOM     32  N   UNL A   1      39.502  32.243  33.765  1.00  0.00    -0.248 NA
ATOM     33  C   UNL A   1      37.723  33.759  33.676  1.00  0.00     0.031 C 
ATOM     34  C   UNL A   1      42.157  31.714  37.283  1.00  0.00     0.029 A 
ATOM     35  C   UNL A   1      41.290  31.866  36.214  1.00  0.00     0.049 A 
ATOM     36  H   UNL A   1      41.228  30.807  34.390  1.00  0.00     0.167 HD
ATOM     37  C   UNL A   1      39.429  32.932  34.968  1.00  0.00     0.074 A 
ATOM     38  C   UNL A   1      38.338  33.876  34.846  1.00  0.00     0.031 C 
ATOM     39  C   UNL A   1      40.191  32.787  36.079  1.00  0.00     0.031 A 
BRANCH  26  40
ATOM     40  C   UNL A   1      44.427  28.320  35.741  1.00  0.00    -0.014 A 
ATOM     41  C   UNL A   1      44.121  27.188  36.516  1.00  0.00     0.010 A 
ATOM     42  C   UNL A   1      45.776  28.666  35.538  1.00  0.00     0.010 A 
ATOM     43  C   UNL A   1      45.145  26.420  37.080  1.00  0.00     0.020 A 
ATOM     44  C   UNL A   1      46.803  27.892  36.085  1.00  0.00     0.020 A 
ATOM     45  C   UNL A   1      46.480  26.775  36.857  1.00  0.00     0.054 A 
BRANCH  45  46
ATOM     46  S   UNL A   1      47.789  25.719  37.542  1.00  0.00     0.124 S 
ATOM     47  O   UNL A   1      48.926  26.059  36.690  1.00  0.00    -0.237 OA
ATOM     48  O   UNL A   1      47.881  26.180  38.925  1.00  0.00    -0.237 OA
ATOM     49  O   UNL A   1      47.268  24.365  37.373  1.00  0.00    -0.744 OA
ENDBRANCH  45  46
ENDBRANCH  26  40
BRANCH  27  50
ATOM     50  C   UNL A   1      36.975  32.968  30.954  1.00  0.00    -0.014 A 
ATOM     51  C   UNL A   1      37.160  33.786  29.827  1.00  0.00     0.010 A 
ATOM     52  C   UNL A   1      35.671  32.747  31.437  1.00  0.00     0.010 A 
ATOM     53  C   UNL A   1      36.063  34.395  29.212  1.00  0.00     0.020 A 
ATOM     54  C   UNL A   1      34.571  33.329  30.805  1.00  0.00     0.020 A 
ATOM     55  C   UNL A   1      34.775  34.165  29.707  1.00  0.00     0.054 A 
BRANCH  55  56
ATOM     56  S   UNL A   1      33.360  34.940  28.879  1.00  0.00     0.124 S 
ATOM     57  O   UNL A   1      32.405  35.070  29.973  1.00  0.00    -0.237 OA
ATOM     58  O   UNL A   1      33.928  36.189  28.380  1.00  0.00    -0.237 OA
ATOM     59  O   UNL A   1      33.002  33.971  27.843  1.00  0.00    -0.744 OA
ENDBRANCH  55  56
ENDBRANCH  27  50
BRANCH  39  60
ATOM     60  C   UNL A   1      39.864  33.672  37.248  1.00  0.00    -0.014 A 
ATOM     61  C   UNL A   1      38.953  33.251  38.234  1.00  0.00     0.010 A 
ATOM     62  C   UNL A   1      40.498  34.920  37.382  1.00  0.00     0.010 A 
ATOM     63  C   UNL A   1      38.662  34.077  39.321  1.00  0.00     0.020 A 
ATOM     64  C   UNL A   1      40.228  35.737  38.482  1.00  0.00     0.020 A 
ATOM     65  C   UNL A   1      39.300  35.315  39.438  1.00  0.00     0.054 A 
BRANCH  65  66
ATOM     66  S   UNL A   1      38.936  36.351  40.881  1.00  0.00     0.124 S 
ATOM     67  O   UNL A   1      40.224  36.374  41.569  1.00  0.00    -0.237 OA
ATOM     68  O   UNL A   1      38.524  37.615  40.276  1.00  0.00    -0.237 OA
ATOM     69  O   UNL A   1      37.874  35.622  41.571  1.00  0.00    -0.744 OA
ENDBRANCH  65  66
ENDBRANCH  39  60
ENDBRANCH  13  14
ENDBRANCH   6   8
ENDBRANCH   3   4
ENDBRANCH   2   3
ENDBRANCH   1   2
BRANCH   1  70
ATOM     70  C   UNL A   1      37.610  23.697  25.475  1.00  0.00     0.116 C 
BRANCH  70  71
ATOM     71  N   UNL A   1      36.943  22.496  25.001  1.00  0.00    -0.352 N 
ATOM     72  C   UNL A   1      35.609  22.130  24.986  1.00  0.00     0.251 C 
ATOM     73  H   UNL A   1      37.552  21.821  24.621  1.00  0.00     0.163 HD
ATOM     74  O   UNL A   1      35.293  21.018  24.614  1.00  0.00    -0.269 OA
BRANCH  72  75
ATOM     75  C   UNL A   1      34.568  23.073  25.452  1.00  0.00     0.041 A 
ATOM     76  C   UNL A   1      33.612  22.621  26.368  1.00  0.00     0.014 A 
ATOM     77  C   UNL A   1      34.533  24.393  25.014  1.00  0.00     0.040 A 
ATOM     78  C   UNL A   1      32.662  23.509  26.879  1.00  0.00     0.003 A 
ATOM     79  C   UNL A   1      33.652  25.297  25.599  1.00  0.00     0.041 A 
ATOM     80  C   UNL A   1      32.689  24.852  26.502  1.00  0.00     0.026 A 
BRANCH  79  81
ATOM     81  N   UNL A   1      33.913  26.658  25.413  1.00  0.00    -0.331 N 
ATOM     82  H   UNL A   1      34.687  26.871  24.845  1.00  0.00     0.169 HD
BRANCH  81  83
ATOM     83  C   UNL A   1      33.238  27.724  25.914  1.00  0.00     0.191 C 
ATOM     84  S   UNL A   1      33.962  28.662  27.099  1.00  0.00    -0.039 S 
BRANCH  83  85
ATOM     85  N   UNL A   1      32.056  28.120  25.347  1.00  0.00    -0.254 N 
ATOM     86  H   UNL A   1      31.235  27.702  25.690  1.00  0.00     0.193 HD
BRANCH  85  87
ATOM     87  N   UNL A   1      31.910  29.054  24.337  1.00  0.00    -0.181 NA
ATOM     88  C   UNL A   1      31.228  28.729  23.266  1.00  0.00     0.143 C 
BRANCH  88  89
ATOM     89  C   UNL A   1      30.533  27.469  23.125  1.00  0.00     0.020 A 
ATOM     90  C   UNL A   1      29.212  27.263  23.475  1.00  0.00     0.093 A 
ATOM     91  C   UNL A   1      31.030  26.189  22.758  1.00  0.00     0.008 A 
ATOM     92  N   UNL A   1      29.148  25.969  23.918  1.00  0.00    -0.361 N 
ATOM     93  C   UNL A   1      30.276  25.296  23.521  1.00  0.00     0.046 A 
ATOM     94  C   UNL A   1      32.103  25.684  22.003  1.00  0.00     0.011 A 
ATOM     95  H   UNL A   1      28.408  25.582  24.440  1.00  0.00     0.166 HD
ATOM     96  C   UNL A   1      30.687  23.988  23.780  1.00  0.00     0.027 A 
ATOM     97  C   UNL A   1      32.415  24.321  22.107  1.00  0.00     0.001 A 
ATOM     98  C   UNL A   1      31.769  23.512  23.042  1.00  0.00     0.002 A 
ENDBRANCH  88  89
ENDBRANCH  85  87
ENDBRANCH  83  85
ENDBRANCH  81  83
ENDBRANCH  79  81
ENDBRANCH  72  75
ENDBRANCH  70  71
ENDBRANCH   1  70
TORSDOF 19
ENDMDL
