MODEL 1
REMARK VINA RESULT:     -12.5      0.000      0.000
REMARK SMILES O=C(Nc1cccc(C(=O)NCCCCNC(=O)c2ccc(-c3c4nc(c(-c5ccc(S(=O)(=O)[O-])cc5)c5ccc([nH]5)c(-c5ccc(S(=O)(=O)[O-])cc5)c5nc(c(-c6ccc(S(=O)(=O)[O-])cc6)c6ccc3[nH]6)C=C5)C=C4)cc2)c1)Nc1cc(Cl)c(Cl)cc1Cl
REMARK SMILES IDX 14 1 13 2 12 3 11 4 9 5 10 6 8 8 4 9 5 10 79 11 6 12 7 13
REMARK SMILES IDX 3 14 1 15 2 16 80 17 81 20 82 21 88 22 83 23 87 24 89 25
REMARK SMILES IDX 84 26 85 27 86 28 15 29 16 30 17 31 18 33 19 34 20 35 78 36
REMARK SMILES IDX 21 37 77 38 22 39 23 40 24 41 71 42 25 43 76 44 70 45 72 46
REMARK SMILES IDX 26 47 75 48 69 49 68 50 27 52 57 53 38 54 56 55 39 56 42 57
REMARK SMILES IDX 55 58 73 59 40 60 41 61 54 63 74 64 43 65 28 66 29 67 37 68
REMARK SMILES IDX 30 69 36 70 31 71 32 72 33 73 34 74 35 75 58 76 59 77 67 78
REMARK SMILES IDX 60 79 66 80 61 81 62 82 63 83 64 84 65 85 44 86 45 87 53 88
REMARK SMILES IDX 46 89 52 90 47 91 48 92 49 93 50 94 51 95
REMARK H PARENT 11 7 3 18 80 19 16 32 72 51 42 62
REMARK Flexibility Score: inf
ROOT
ATOM      1  C   UNL A   1      35.259  31.544  27.988  1.00  0.00     0.023 C 
ENDROOT
BRANCH   1   2
ATOM      2  C   UNL A   1      35.588  30.130  27.501  1.00  0.00     0.023 C 
BRANCH   2   3
ATOM      3  C   UNL A   1      34.376  29.329  27.020  1.00  0.00     0.116 C 
BRANCH   3   4
ATOM      4  N   UNL A   1      33.299  30.207  26.607  1.00  0.00    -0.352 N 
ATOM      5  C   UNL A   1      32.074  29.993  26.028  1.00  0.00     0.251 C 
ATOM      6  O   UNL A   1      31.379  30.991  25.826  1.00  0.00    -0.269 OA
ATOM      7  H   UNL A   1      33.487  31.157  26.777  1.00  0.00     0.163 HD
BRANCH   5   8
ATOM      8  C   UNL A   1      31.515  28.653  25.664  1.00  0.00     0.041 A 
ATOM      9  C   UNL A   1      31.036  26.286  26.019  1.00  0.00     0.043 A 
ATOM     10  C   UNL A   1      30.411  26.211  24.774  1.00  0.00     0.026 A 
ATOM     11  C   UNL A   1      31.636  27.487  26.422  1.00  0.00     0.040 A 
ATOM     12  C   UNL A   1      30.303  27.354  23.987  1.00  0.00     0.003 A 
ATOM     13  C   UNL A   1      30.834  28.565  24.437  1.00  0.00     0.014 A 
BRANCH   9  14
ATOM     14  N   UNL A   1      31.059  25.130  26.821  1.00  0.00    -0.308 N 
ATOM     15  O   UNL A   1      31.597  23.025  27.400  1.00  0.00    -0.248 OA
ATOM     16  C   UNL A   1      31.873  24.023  26.740  1.00  0.00     0.323 C 
ATOM     17  N   UNL A   1      33.047  24.212  26.053  1.00  0.00    -0.306 N 
ATOM     18  H   UNL A   1      30.395  25.111  27.547  1.00  0.00     0.171 HD
ATOM     19  H   UNL A   1      33.245  25.132  25.763  1.00  0.00     0.171 HD
BRANCH  17  20
ATOM     20  C   UNL A   1      33.999  23.225  25.717  1.00  0.00     0.063 A 
ATOM     21  C   UNL A   1      35.336  23.557  25.988  1.00  0.00     0.049 A 
ATOM     22  C   UNL A   1      33.721  21.991  25.102  1.00  0.00     0.066 A 
ATOM     23  C   UNL A   1      36.369  22.649  25.733  1.00  0.00     0.061 A 
ATOM     24  C   UNL A   1      34.760  21.088  24.836  1.00  0.00     0.044 A 
ATOM     25  Cl  UNL A   1      32.167  21.581  24.464  1.00  0.00    -0.082 Cl
ATOM     26  Cl  UNL A   1      37.975  23.133  26.148  1.00  0.00    -0.083 Cl
ATOM     27  C   UNL A   1      36.078  21.407  25.166  1.00  0.00     0.061 A 
ATOM     28  Cl  UNL A   1      37.304  20.236  24.836  1.00  0.00    -0.083 Cl
ENDBRANCH  17  20
ENDBRANCH   9  14
ENDBRANCH   5   8
ENDBRANCH   3   4
ENDBRANCH   2   3
ENDBRANCH   1   2
BRANCH   1  29
ATOM     29  C   UNL A   1      36.013  31.989  29.241  1.00  0.00     0.116 C 
BRANCH  29  30
ATOM     30  N   UNL A   1      35.761  31.153  30.401  1.00  0.00    -0.352 N 
ATOM     31  C   UNL A   1      36.635  30.294  31.039  1.00  0.00     0.251 C 
ATOM     32  H   UNL A   1      34.853  31.207  30.781  1.00  0.00     0.163 HD
ATOM     33  O   UNL A   1      36.254  29.612  31.976  1.00  0.00    -0.269 OA
BRANCH  31  34
ATOM     34  C   UNL A   1      38.017  30.181  30.524  1.00  0.00     0.039 A 
ATOM     35  C   UNL A   1      39.072  30.160  31.439  1.00  0.00     0.014 A 
ATOM     36  C   UNL A   1      38.261  30.024  29.158  1.00  0.00     0.014 A 
ATOM     37  C   UNL A   1      40.369  29.896  30.991  1.00  0.00     0.010 A 
ATOM     38  C   UNL A   1      39.546  29.709  28.719  1.00  0.00     0.010 A 
ATOM     39  C   UNL A   1      40.608  29.624  29.634  1.00  0.00    -0.014 A 
BRANCH  39  40
ATOM     40  C   UNL A   1      41.947  29.196  29.159  1.00  0.00     0.031 A 
ATOM     41  C   UNL A   1      43.071  30.186  29.048  1.00  0.00     0.074 A 
ATOM     42  C   UNL A   1      42.126  27.925  28.744  1.00  0.00     0.049 A 
ATOM     43  N   UNL A   1      44.281  30.009  28.582  1.00  0.00    -0.248 NA
ATOM     44  C   UNL A   1      42.791  31.557  29.497  1.00  0.00     0.031 C 
ATOM     45  C   UNL A   1      41.101  26.879  28.753  1.00  0.00     0.029 A 
ATOM     46  N   UNL A   1      43.230  27.303  28.218  1.00  0.00    -0.354 N 
ATOM     47  C   UNL A   1      44.905  31.247  28.671  1.00  0.00     0.074 A 
ATOM     48  C   UNL A   1      43.925  32.175  29.194  1.00  0.00     0.031 C 
ATOM     49  C   UNL A   1      41.627  25.743  28.267  1.00  0.00     0.029 A 
ATOM     50  C   UNL A   1      43.014  25.987  27.882  1.00  0.00     0.049 A 
ATOM     51  H   UNL A   1      44.097  27.755  28.094  1.00  0.00     0.167 HD
ATOM     52  C   UNL A   1      46.180  31.579  28.359  1.00  0.00     0.031 A 
ATOM     53  C   UNL A   1      43.833  25.079  27.315  1.00  0.00     0.031 A 
ATOM     54  C   UNL A   1      47.155  30.656  27.838  1.00  0.00     0.049 A 
ATOM     55  C   UNL A   1      45.241  25.471  26.970  1.00  0.00     0.074 A 
ATOM     56  C   UNL A   1      48.489  30.886  27.547  1.00  0.00     0.029 A 
ATOM     57  N   UNL A   1      46.900  29.331  27.524  1.00  0.00    -0.354 N 
ATOM     58  N   UNL A   1      45.833  26.631  27.124  1.00  0.00    -0.248 NA
ATOM     59  C   UNL A   1      46.093  24.430  26.378  1.00  0.00     0.031 C 
ATOM     60  C   UNL A   1      49.029  29.708  27.017  1.00  0.00     0.029 A 
ATOM     61  C   UNL A   1      48.043  28.735  27.018  1.00  0.00     0.049 A 
ATOM     62  H   UNL A   1      46.034  28.879  27.642  1.00  0.00     0.167 HD
ATOM     63  C   UNL A   1      47.129  26.459  26.655  1.00  0.00     0.074 A 
ATOM     64  C   UNL A   1      47.241  25.077  26.231  1.00  0.00     0.031 C 
ATOM     65  C   UNL A   1      48.135  27.365  26.581  1.00  0.00     0.031 A 
BRANCH  52  66
ATOM     66  C   UNL A   1      46.587  33.012  28.571  1.00  0.00    -0.014 A 
ATOM     67  C   UNL A   1      47.123  33.436  29.801  1.00  0.00     0.010 A 
ATOM     68  C   UNL A   1      46.438  33.946  27.530  1.00  0.00     0.010 A 
ATOM     69  C   UNL A   1      47.454  34.777  30.004  1.00  0.00     0.020 A 
ATOM     70  C   UNL A   1      46.791  35.286  27.722  1.00  0.00     0.020 A 
ATOM     71  C   UNL A   1      47.275  35.697  28.966  1.00  0.00     0.054 A 
BRANCH  71  72
ATOM     72  S   UNL A   1      47.704  37.435  29.256  1.00  0.00     0.124 S 
ATOM     73  O   UNL A   1      48.046  37.425  30.676  1.00  0.00    -0.237 OA
ATOM     74  O   UNL A   1      48.824  37.648  28.342  1.00  0.00    -0.237 OA
ATOM     75  O   UNL A   1      46.480  38.154  28.913  1.00  0.00    -0.744 OA
ENDBRANCH  71  72
ENDBRANCH  52  66
BRANCH  53  76
ATOM     76  C   UNL A   1      43.331  23.706  27.046  1.00  0.00    -0.014 A 
ATOM     77  C   UNL A   1      42.967  23.325  25.744  1.00  0.00     0.010 A 
ATOM     78  C   UNL A   1      43.257  22.761  28.085  1.00  0.00     0.010 A 
ATOM     79  C   UNL A   1      42.533  22.022  25.484  1.00  0.00     0.020 A 
ATOM     80  C   UNL A   1      42.843  21.451  27.825  1.00  0.00     0.020 A 
ATOM     81  C   UNL A   1      42.478  21.091  26.526  1.00  0.00     0.054 A 
BRANCH  81  82
ATOM     82  S   UNL A   1      41.993  19.383  26.153  1.00  0.00     0.124 S 
ATOM     83  O   UNL A   1      42.796  19.091  24.970  1.00  0.00    -0.237 OA
ATOM     84  O   UNL A   1      42.375  18.671  27.370  1.00  0.00    -0.237 OA
ATOM     85  O   UNL A   1      40.552  19.481  25.928  1.00  0.00    -0.744 OA
ENDBRANCH  81  82
ENDBRANCH  53  76
BRANCH  65  86
ATOM     86  C   UNL A   1      49.447  26.892  26.018  1.00  0.00    -0.014 A 
ATOM     87  C   UNL A   1      49.784  27.138  24.675  1.00  0.00     0.010 A 
ATOM     88  C   UNL A   1      50.373  26.240  26.852  1.00  0.00     0.010 A 
ATOM     89  C   UNL A   1      51.018  26.721  24.170  1.00  0.00     0.020 A 
ATOM     90  C   UNL A   1      51.616  25.840  26.355  1.00  0.00     0.020 A 
ATOM     91  C   UNL A   1      51.926  26.072  25.013  1.00  0.00     0.054 A 
BRANCH  91  92
ATOM     92  S   UNL A   1      53.542  25.584  24.348  1.00  0.00     0.124 S 
ATOM     93  O   UNL A   1      53.590  24.163  24.682  1.00  0.00    -0.237 OA
ATOM     94  O   UNL A   1      53.413  25.891  22.926  1.00  0.00    -0.237 OA
ATOM     95  O   UNL A   1      54.485  26.429  25.078  1.00  0.00    -0.744 OA
ENDBRANCH  91  92
ENDBRANCH  65  86
ENDBRANCH  39  40
ENDBRANCH  31  34
ENDBRANCH  29  30
ENDBRANCH   1  29
TORSDOF 16
ENDMDL
MODEL 2
REMARK VINA RESULT:     -12.3      6.404     13.405
REMARK SMILES O=C(Nc1cccc(C(=O)NCCCCNC(=O)c2ccc(-c3c4nc(c(-c5ccc(S(=O)(=O)[O-])cc5)c5ccc([nH]5)c(-c5ccc(S(=O)(=O)[O-])cc5)c5nc(c(-c6ccc(S(=O)(=O)[O-])cc6)c6ccc3[nH]6)C=C5)C=C4)cc2)c1)Nc1cc(Cl)c(Cl)cc1Cl
REMARK SMILES IDX 14 1 13 2 12 3 11 4 9 5 10 6 8 8 4 9 5 10 79 11 6 12 7 13
REMARK SMILES IDX 3 14 1 15 2 16 80 17 81 20 82 21 88 22 83 23 87 24 89 25
REMARK SMILES IDX 84 26 85 27 86 28 15 29 16 30 17 31 18 33 19 34 20 35 78 36
REMARK SMILES IDX 21 37 77 38 22 39 23 40 24 41 71 42 25 43 76 44 70 45 72 46
REMARK SMILES IDX 26 47 75 48 69 49 68 50 27 52 57 53 38 54 56 55 39 56 42 57
REMARK SMILES IDX 55 58 73 59 40 60 41 61 54 63 74 64 43 65 28 66 29 67 37 68
REMARK SMILES IDX 30 69 36 70 31 71 32 72 33 73 34 74 35 75 58 76 59 77 67 78
REMARK SMILES IDX 60 79 66 80 61 81 62 82 63 83 64 84 65 85 44 86 45 87 53 88
REMARK SMILES IDX 46 89 52 90 47 91 48 92 49 93 50 94 51 95
REMARK H PARENT 11 7 3 18 80 19 16 32 72 51 42 62
REMARK Flexibility Score: inf
ROOT
ATOM      1  C   UNL A   1      39.675  22.496  26.750  1.00  0.00     0.023 C 
ENDROOT
BRANCH   1   2
ATOM      2  C   UNL A   1      39.973  21.029  26.429  1.00  0.00     0.023 C 
BRANCH   2   3
ATOM      3  C   UNL A   1      41.204  20.464  27.141  1.00  0.00     0.116 C 
BRANCH   3   4
ATOM      4  N   UNL A   1      41.508  19.124  26.678  1.00  0.00    -0.352 N 
ATOM      5  C   UNL A   1      42.575  18.572  26.016  1.00  0.00     0.251 C 
ATOM      6  O   UNL A   1      42.516  17.361  25.792  1.00  0.00    -0.269 OA
ATOM      7  H   UNL A   1      40.799  18.474  26.882  1.00  0.00     0.163 HD
BRANCH   5   8
ATOM      8  C   UNL A   1      43.800  19.315  25.585  1.00  0.00     0.041 A 
ATOM      9  C   UNL A   1      45.048  21.270  24.824  1.00  0.00     0.043 A 
ATOM     10  C   UNL A   1      46.223  20.521  24.778  1.00  0.00     0.026 A 
ATOM     11  C   UNL A   1      43.840  20.646  25.164  1.00  0.00     0.040 A 
ATOM     12  C   UNL A   1      46.204  19.184  25.166  1.00  0.00     0.003 A 
ATOM     13  C   UNL A   1      45.007  18.594  25.582  1.00  0.00     0.014 A 
BRANCH   9  14
ATOM     14  N   UNL A   1      45.119  22.637  24.499  1.00  0.00    -0.308 N 
ATOM     15  O   UNL A   1      45.096  24.855  24.869  1.00  0.00    -0.248 OA
ATOM     16  C   UNL A   1      45.270  23.728  25.324  1.00  0.00     0.323 C 
ATOM     17  N   UNL A   1      45.794  23.453  26.564  1.00  0.00    -0.306 N 
ATOM     18  H   UNL A   1      45.051  22.843  23.539  1.00  0.00     0.171 HD
ATOM     19  H   UNL A   1      46.099  22.529  26.718  1.00  0.00     0.171 HD
BRANCH  17  20
ATOM     20  C   UNL A   1      45.941  24.355  27.640  1.00  0.00     0.063 A 
ATOM     21  C   UNL A   1      47.133  25.095  27.650  1.00  0.00     0.049 A 
ATOM     22  C   UNL A   1      45.031  24.524  28.699  1.00  0.00     0.066 A 
ATOM     23  C   UNL A   1      47.380  26.046  28.645  1.00  0.00     0.061 A 
ATOM     24  C   UNL A   1      45.287  25.470  29.701  1.00  0.00     0.044 A 
ATOM     25  Cl  UNL A   1      43.673  23.485  28.956  1.00  0.00    -0.082 Cl
ATOM     26  Cl  UNL A   1      48.855  26.942  28.542  1.00  0.00    -0.083 Cl
ATOM     27  C   UNL A   1      46.450  26.242  29.666  1.00  0.00     0.061 A 
ATOM     28  Cl  UNL A   1      46.688  27.408  30.919  1.00  0.00    -0.083 Cl
ENDBRANCH  17  20
ENDBRANCH   9  14
ENDBRANCH   5   8
ENDBRANCH   3   4
ENDBRANCH   2   3
ENDBRANCH   1   2
BRANCH   1  29
ATOM     29  C   UNL A   1      40.902  23.353  27.063  1.00  0.00     0.116 C 
BRANCH  29  30
ATOM     30  N   UNL A   1      41.360  24.148  25.938  1.00  0.00    -0.352 N 
ATOM     31  C   UNL A   1      41.757  25.471  25.935  1.00  0.00     0.251 C 
ATOM     32  H   UNL A   1      41.393  23.686  25.069  1.00  0.00     0.163 HD
ATOM     33  O   UNL A   1      42.064  26.021  24.890  1.00  0.00    -0.269 OA
BRANCH  31  34
ATOM     34  C   UNL A   1      41.743  26.217  27.214  1.00  0.00     0.039 A 
ATOM     35  C   UNL A   1      42.661  27.254  27.393  1.00  0.00     0.014 A 
ATOM     36  C   UNL A   1      40.786  25.940  28.193  1.00  0.00     0.014 A 
ATOM     37  C   UNL A   1      42.565  28.072  28.521  1.00  0.00     0.010 A 
ATOM     38  C   UNL A   1      40.659  26.788  29.291  1.00  0.00     0.010 A 
ATOM     39  C   UNL A   1      41.535  27.873  29.456  1.00  0.00    -0.014 A 
BRANCH  39  40
ATOM     40  C   UNL A   1      41.322  28.818  30.581  1.00  0.00     0.031 A 
ATOM     41  C   UNL A   1      42.155  28.721  31.827  1.00  0.00     0.074 A 
ATOM     42  C   UNL A   1      40.316  29.713  30.511  1.00  0.00     0.049 A 
ATOM     43  N   UNL A   1      42.059  29.408  32.937  1.00  0.00    -0.248 NA
ATOM     44  C   UNL A   1      43.216  27.704  31.837  1.00  0.00     0.031 C 
ATOM     45  C   UNL A   1      39.404  29.875  29.377  1.00  0.00     0.029 A 
ATOM     46  N   UNL A   1      39.882  30.643  31.421  1.00  0.00    -0.354 N 
ATOM     47  C   UNL A   1      43.039  28.902  33.781  1.00  0.00     0.074 A 
ATOM     48  C   UNL A   1      43.688  27.820  33.070  1.00  0.00     0.031 C 
ATOM     49  C   UNL A   1      38.526  30.853  29.654  1.00  0.00     0.029 A 
ATOM     50  C   UNL A   1      38.791  31.364  30.997  1.00  0.00     0.049 A 
ATOM     51  H   UNL A   1      40.311  30.783  32.297  1.00  0.00     0.167 HD
ATOM     52  C   UNL A   1      43.378  29.308  35.028  1.00  0.00     0.031 A 
ATOM     53  C   UNL A   1      38.074  32.321  31.617  1.00  0.00     0.031 A 
ATOM     54  C   UNL A   1      42.733  30.383  35.735  1.00  0.00     0.049 A 
ATOM     55  C   UNL A   1      38.462  32.750  33.003  1.00  0.00     0.074 A 
ATOM     56  C   UNL A   1      43.044  30.905  36.978  1.00  0.00     0.029 A 
ATOM     57  N   UNL A   1      41.641  31.095  35.264  1.00  0.00    -0.354 N 
ATOM     58  N   UNL A   1      39.435  32.304  33.759  1.00  0.00    -0.248 NA
ATOM     59  C   UNL A   1      37.657  33.815  33.618  1.00  0.00     0.031 C 
ATOM     60  C   UNL A   1      42.113  31.907  37.277  1.00  0.00     0.029 A 
ATOM     61  C   UNL A   1      41.248  32.036  36.202  1.00  0.00     0.049 A 
ATOM     62  H   UNL A   1      41.207  30.954  34.392  1.00  0.00     0.167 HD
ATOM     63  C   UNL A   1      39.366  33.037  34.937  1.00  0.00     0.074 A 
ATOM     64  C   UNL A   1      38.268  33.971  34.784  1.00  0.00     0.031 C 
ATOM     65  C   UNL A   1      40.141  32.945  36.045  1.00  0.00     0.031 A 
BRANCH  52  66
ATOM     66  C   UNL A   1      44.501  28.571  35.706  1.00  0.00    -0.014 A 
ATOM     67  C   UNL A   1      45.836  28.985  35.546  1.00  0.00     0.010 A 
ATOM     68  C   UNL A   1      44.222  27.458  36.519  1.00  0.00     0.010 A 
ATOM     69  C   UNL A   1      46.876  28.267  36.142  1.00  0.00     0.020 A 
ATOM     70  C   UNL A   1      45.258  26.752  37.137  1.00  0.00     0.020 A 
ATOM     71  C   UNL A   1      46.581  27.148  36.925  1.00  0.00     0.054 A 
BRANCH  71  72
ATOM     72  S   UNL A   1      47.948  26.227  37.683  1.00  0.00     0.124 S 
ATOM     73  O   UNL A   1      47.476  26.068  39.056  1.00  0.00    -0.237 OA
ATOM     74  O   UNL A   1      47.992  25.002  36.888  1.00  0.00    -0.237 OA
ATOM     75  O   UNL A   1      49.096  27.115  37.516  1.00  0.00    -0.744 OA
ENDBRANCH  71  72
ENDBRANCH  52  66
BRANCH  53  76
ATOM     76  C   UNL A   1      36.915  32.937  30.920  1.00  0.00    -0.014 A 
ATOM     77  C   UNL A   1      35.604  32.532  31.224  1.00  0.00     0.010 A 
ATOM     78  C   UNL A   1      37.116  33.963  29.979  1.00  0.00     0.010 A 
ATOM     79  C   UNL A   1      34.513  33.140  30.597  1.00  0.00     0.020 A 
ATOM     80  C   UNL A   1      36.026  34.588  29.366  1.00  0.00     0.020 A 
ATOM     81  C   UNL A   1      34.731  34.168  29.674  1.00  0.00     0.054 A 
BRANCH  81  82
ATOM     82  S   UNL A   1      33.299  35.002  28.934  1.00  0.00     0.124 S 
ATOM     83  O   UNL A   1      32.826  34.003  27.981  1.00  0.00    -0.237 OA
ATOM     84  O   UNL A   1      32.435  35.235  30.088  1.00  0.00    -0.237 OA
ATOM     85  O   UNL A   1      33.876  36.209  28.346  1.00  0.00    -0.744 OA
ENDBRANCH  81  82
ENDBRANCH  53  76
BRANCH  65  86
ATOM     86  C   UNL A   1      39.828  33.876  37.184  1.00  0.00    -0.014 A 
ATOM     87  C   UNL A   1      38.985  33.471  38.233  1.00  0.00     0.010 A 
ATOM     88  C   UNL A   1      40.424  35.150  37.231  1.00  0.00     0.010 A 
ATOM     89  C   UNL A   1      38.724  34.333  39.301  1.00  0.00     0.020 A 
ATOM     90  C   UNL A   1      40.182  36.006  38.308  1.00  0.00     0.020 A 
ATOM     91  C   UNL A   1      39.324  35.597  39.332  1.00  0.00     0.054 A 
BRANCH  91  92
ATOM     92  S   UNL A   1      39.010  36.680  40.753  1.00  0.00     0.124 S 
ATOM     93  O   UNL A   1      40.365  37.034  41.169  1.00  0.00    -0.237 OA
ATOM     94  O   UNL A   1      38.230  37.766  40.166  1.00  0.00    -0.237 OA
ATOM     95  O   UNL A   1      38.276  35.825  41.683  1.00  0.00    -0.744 OA
ENDBRANCH  91  92
ENDBRANCH  65  86
ENDBRANCH  39  40
ENDBRANCH  31  34
ENDBRANCH  29  30
ENDBRANCH   1  29
TORSDOF 16
ENDMDL
MODEL 3
REMARK VINA RESULT:     -12.2      4.401      7.229
REMARK SMILES O=C(Nc1cccc(C(=O)NCCCCNC(=O)c2ccc(-c3c4nc(c(-c5ccc(S(=O)(=O)[O-])cc5)c5ccc([nH]5)c(-c5ccc(S(=O)(=O)[O-])cc5)c5nc(c(-c6ccc(S(=O)(=O)[O-])cc6)c6ccc3[nH]6)C=C5)C=C4)cc2)c1)Nc1cc(Cl)c(Cl)cc1Cl
REMARK SMILES IDX 14 1 13 2 12 3 11 4 9 5 10 6 8 8 4 9 5 10 79 11 6 12 7 13
REMARK SMILES IDX 3 14 1 15 2 16 80 17 81 20 82 21 88 22 83 23 87 24 89 25
REMARK SMILES IDX 84 26 85 27 86 28 15 29 16 30 17 31 18 33 19 34 20 35 78 36
REMARK SMILES IDX 21 37 77 38 22 39 23 40 24 41 71 42 25 43 76 44 70 45 72 46
REMARK SMILES IDX 26 47 75 48 69 49 68 50 27 52 57 53 38 54 56 55 39 56 42 57
REMARK SMILES IDX 55 58 73 59 40 60 41 61 54 63 74 64 43 65 28 66 29 67 37 68
REMARK SMILES IDX 30 69 36 70 31 71 32 72 33 73 34 74 35 75 58 76 59 77 67 78
REMARK SMILES IDX 60 79 66 80 61 81 62 82 63 83 64 84 65 85 44 86 45 87 53 88
REMARK SMILES IDX 46 89 52 90 47 91 48 92 49 93 50 94 51 95
REMARK H PARENT 11 7 3 18 80 19 16 32 72 51 42 62
REMARK Flexibility Score: inf
ROOT
ATOM      1  C   UNL A   1      34.743  33.442  30.409  1.00  0.00     0.023 C 
ENDROOT
BRANCH   1   2
ATOM      2  C   UNL A   1      35.091  32.431  31.505  1.00  0.00     0.023 C 
BRANCH   2   3
ATOM      3  C   UNL A   1      36.583  32.349  31.838  1.00  0.00     0.116 C 
BRANCH   3   4
ATOM      4  N   UNL A   1      36.795  32.229  33.267  1.00  0.00    -0.352 N 
ATOM      5  C   UNL A   1      37.552  31.389  34.043  1.00  0.00     0.251 C 
ATOM      6  O   UNL A   1      37.517  31.584  35.260  1.00  0.00    -0.269 OA
ATOM      7  H   UNL A   1      36.288  32.890  33.790  1.00  0.00     0.163 HD
BRANCH   5   8
ATOM      8  C   UNL A   1      38.430  30.294  33.524  1.00  0.00     0.041 A 
ATOM      9  C   UNL A   1      40.556  29.284  32.876  1.00  0.00     0.043 A 
ATOM     10  C   UNL A   1      39.901  28.112  32.500  1.00  0.00     0.026 A 
ATOM     11  C   UNL A   1      39.809  30.383  33.323  1.00  0.00     0.040 A 
ATOM     12  C   UNL A   1      38.522  28.009  32.665  1.00  0.00     0.003 A 
ATOM     13  C   UNL A   1      37.799  29.084  33.188  1.00  0.00     0.014 A 
BRANCH   9  14
ATOM     14  N   UNL A   1      41.958  29.325  32.768  1.00  0.00    -0.308 N 
ATOM     15  O   UNL A   1      44.089  28.860  33.314  1.00  0.00    -0.248 OA
ATOM     16  C   UNL A   1      42.908  28.531  33.368  1.00  0.00     0.323 C 
ATOM     17  N   UNL A   1      42.449  27.319  33.825  1.00  0.00    -0.306 N 
ATOM     18  H   UNL A   1      42.312  30.026  32.174  1.00  0.00     0.171 HD
ATOM     19  H   UNL A   1      41.518  27.087  33.603  1.00  0.00     0.171 HD
BRANCH  17  20
ATOM     20  C   UNL A   1      43.173  26.370  34.580  1.00  0.00     0.063 A 
ATOM     21  C   UNL A   1      43.187  26.584  35.967  1.00  0.00     0.049 A 
ATOM     22  C   UNL A   1      43.903  25.288  34.056  1.00  0.00     0.066 A 
ATOM     23  C   UNL A   1      43.841  25.695  36.826  1.00  0.00     0.061 A 
ATOM     24  C   UNL A   1      44.568  24.406  34.918  1.00  0.00     0.044 A 
ATOM     25  Cl  UNL A   1      44.200  25.077  32.366  1.00  0.00    -0.082 Cl
ATOM     26  Cl  UNL A   1      43.757  26.018  38.521  1.00  0.00    -0.083 Cl
ATOM     27  C   UNL A   1      44.523  24.596  36.301  1.00  0.00     0.061 A 
ATOM     28  Cl  UNL A   1      45.341  23.454  37.305  1.00  0.00    -0.083 Cl
ENDBRANCH  17  20
ENDBRANCH   9  14
ENDBRANCH   5   8
ENDBRANCH   3   4
ENDBRANCH   2   3
ENDBRANCH   1   2
BRANCH   1  29
ATOM     29  C   UNL A   1      35.101  33.006  28.988  1.00  0.00     0.116 C 
BRANCH  29  30
ATOM     30  N   UNL A   1      34.132  32.104  28.393  1.00  0.00    -0.352 N 
ATOM     31  C   UNL A   1      34.315  30.790  28.005  1.00  0.00     0.251 C 
ATOM     32  H   UNL A   1      33.231  32.475  28.247  1.00  0.00     0.163 HD
ATOM     33  O   UNL A   1      33.412  30.176  27.462  1.00  0.00    -0.269 OA
BRANCH  31  34
ATOM     34  C   UNL A   1      35.643  30.171  28.211  1.00  0.00     0.039 A 
ATOM     35  C   UNL A   1      36.560  30.191  27.158  1.00  0.00     0.014 A 
ATOM     36  C   UNL A   1      36.002  29.643  29.453  1.00  0.00     0.014 A 
ATOM     37  C   UNL A   1      37.870  29.756  27.375  1.00  0.00     0.010 A 
ATOM     38  C   UNL A   1      37.321  29.258  29.683  1.00  0.00     0.010 A 
ATOM     39  C   UNL A   1      38.272  29.329  28.652  1.00  0.00    -0.014 A 
BRANCH  39  40
ATOM     40  C   UNL A   1      39.690  29.004  28.944  1.00  0.00     0.031 A 
ATOM     41  C   UNL A   1      40.620  30.055  29.483  1.00  0.00     0.074 A 
ATOM     42  C   UNL A   1      40.164  27.779  28.642  1.00  0.00     0.049 A 
ATOM     43  N   UNL A   1      41.903  29.973  29.723  1.00  0.00    -0.248 NA
ATOM     44  C   UNL A   1      40.035  31.374  29.764  1.00  0.00     0.031 C 
ATOM     45  C   UNL A   1      39.377  26.685  28.067  1.00  0.00     0.029 A 
ATOM     46  N   UNL A   1      41.426  27.253  28.759  1.00  0.00    -0.354 N 
ATOM     47  C   UNL A   1      42.284  31.231  30.174  1.00  0.00     0.074 A 
ATOM     48  C   UNL A   1      41.103  32.068  30.132  1.00  0.00     0.031 C 
ATOM     49  C   UNL A   1      40.170  25.615  27.894  1.00  0.00     0.029 A 
ATOM     50  C   UNL A   1      41.527  25.957  28.312  1.00  0.00     0.049 A 
ATOM     51  H   UNL A   1      42.188  27.755  29.129  1.00  0.00     0.167 HD
ATOM     52  C   UNL A   1      43.500  31.648  30.598  1.00  0.00     0.031 A 
ATOM     53  C   UNL A   1      42.592  25.135  28.233  1.00  0.00     0.031 A 
ATOM     54  C   UNL A   1      44.674  30.817  30.640  1.00  0.00     0.049 A 
ATOM     55  C   UNL A   1      43.934  25.621  28.701  1.00  0.00     0.074 A 
ATOM     56  C   UNL A   1      45.938  31.134  31.109  1.00  0.00     0.029 A 
ATOM     57  N   UNL A   1      44.732  29.507  30.190  1.00  0.00    -0.354 N 
ATOM     58  N   UNL A   1      44.259  26.794  29.187  1.00  0.00    -0.248 NA
ATOM     59  C   UNL A   1      45.051  24.671  28.614  1.00  0.00     0.031 C 
ATOM     60  C   UNL A   1      46.770  30.026  30.904  1.00  0.00     0.029 A 
ATOM     61  C   UNL A   1      46.015  29.008  30.346  1.00  0.00     0.049 A 
ATOM     62  H   UNL A   1      43.973  29.004  29.815  1.00  0.00     0.167 HD
ATOM     63  C   UNL A   1      45.617  26.722  29.471  1.00  0.00     0.074 A 
ATOM     64  C   UNL A   1      46.048  25.383  29.121  1.00  0.00     0.031 C 
ATOM     65  C   UNL A   1      46.434  27.680  29.975  1.00  0.00     0.031 A 
BRANCH  52  66
ATOM     66  C   UNL A   1      43.616  33.080  31.046  1.00  0.00    -0.014 A 
ATOM     67  C   UNL A   1      43.968  34.095  30.137  1.00  0.00     0.010 A 
ATOM     68  C   UNL A   1      43.361  33.420  32.387  1.00  0.00     0.010 A 
ATOM     69  C   UNL A   1      44.118  35.413  30.572  1.00  0.00     0.020 A 
ATOM     70  C   UNL A   1      43.487  34.743  32.821  1.00  0.00     0.020 A 
ATOM     71  C   UNL A   1      43.887  35.728  31.914  1.00  0.00     0.054 A 
BRANCH  71  72
ATOM     72  S   UNL A   1      44.095  37.446  32.458  1.00  0.00     0.124 S 
ATOM     73  O   UNL A   1      43.825  38.183  31.226  1.00  0.00    -0.237 OA
ATOM     74  O   UNL A   1      43.084  37.578  33.504  1.00  0.00    -0.237 OA
ATOM     75  O   UNL A   1      45.479  37.495  32.923  1.00  0.00    -0.744 OA
ENDBRANCH  71  72
ENDBRANCH  52  66
BRANCH  53  76
ATOM     76  C   UNL A   1      42.421  23.762  27.688  1.00  0.00    -0.014 A 
ATOM     77  C   UNL A   1      42.669  23.500  26.331  1.00  0.00     0.010 A 
ATOM     78  C   UNL A   1      42.050  22.704  28.537  1.00  0.00     0.010 A 
ATOM     79  C   UNL A   1      42.547  22.201  25.828  1.00  0.00     0.020 A 
ATOM     80  C   UNL A   1      41.947  21.400  28.042  1.00  0.00     0.020 A 
ATOM     81  C   UNL A   1      42.191  21.158  26.689  1.00  0.00     0.054 A 
BRANCH  81  82
ATOM     82  S   UNL A   1      42.119  19.466  26.035  1.00  0.00     0.124 S 
ATOM     83  O   UNL A   1      42.672  18.691  27.141  1.00  0.00    -0.237 OA
ATOM     84  O   UNL A   1      40.692  19.282  25.784  1.00  0.00    -0.237 OA
ATOM     85  O   UNL A   1      42.950  19.532  24.834  1.00  0.00    -0.744 OA
ENDBRANCH  81  82
ENDBRANCH  53  76
BRANCH  65  86
ATOM     86  C   UNL A   1      47.879  27.316  30.176  1.00  0.00    -0.014 A 
ATOM     87  C   UNL A   1      48.847  27.656  29.215  1.00  0.00     0.010 A 
ATOM     88  C   UNL A   1      48.281  26.673  31.361  1.00  0.00     0.010 A 
ATOM     89  C   UNL A   1      50.191  27.340  29.425  1.00  0.00     0.020 A 
ATOM     90  C   UNL A   1      49.628  26.374  31.583  1.00  0.00     0.020 A 
ATOM     91  C   UNL A   1      50.574  26.699  30.608  1.00  0.00     0.054 A 
BRANCH  91  92
ATOM     92  S   UNL A   1      52.332  26.343  30.882  1.00  0.00     0.124 S 
ATOM     93  O   UNL A   1      52.775  27.536  31.598  1.00  0.00    -0.237 OA
ATOM     94  O   UNL A   1      52.293  25.114  31.672  1.00  0.00    -0.237 OA
ATOM     95  O   UNL A   1      52.867  26.191  29.531  1.00  0.00    -0.744 OA
ENDBRANCH  91  92
ENDBRANCH  65  86
ENDBRANCH  39  40
ENDBRANCH  31  34
ENDBRANCH  29  30
ENDBRANCH   1  29
TORSDOF 16
ENDMDL
