MODEL 1
REMARK VINA RESULT:      -9.2      0.000      0.000
REMARK SMILES O=C(NCCCCNC(=O)[C@@H]1CC(=O)N(CCCCc2ccccn2)C1)c1ccc(-c2c3nc(c(-c4ccc(S(=O)(=O)[O-])cc4)c4ccc([nH]4)c(-c4ccc(S(=O)(=O)[O-])cc4)c4nc(c(-c5ccc(S(=O)(=O)[O-])cc5)c5ccc2[nH]5)C=C4)C=C3)cc1
REMARK SMILES IDX 6 1 5 2 4 3 3 4 1 5 2 6 27 8 28 9 86 10 29 11 85 12 30 13
REMARK SMILES IDX 31 14 32 15 79 16 33 17 84 18 78 19 80 20 34 21 83 22 77 23
REMARK SMILES IDX 76 24 35 26 65 27 46 28 64 29 47 30 50 31 63 32 81 33 48 34
REMARK SMILES IDX 49 35 62 37 82 38 51 39 36 40 37 41 45 42 38 43 44 44 39 45
REMARK SMILES IDX 40 46 41 47 42 48 43 49 66 50 67 51 75 52 68 53 74 54 69 55
REMARK SMILES IDX 70 56 71 57 72 58 73 59 52 60 53 61 61 62 54 63 60 64 55 65
REMARK SMILES IDX 56 66 57 67 58 68 59 69 7 70 8 71 9 72 10 74 11 75 12 76
REMARK SMILES IDX 26 77 13 78 15 79 14 80 16 81 17 82 18 83 19 84 20 85 21 86
REMARK SMILES IDX 25 87 22 88 24 89 23 90
REMARK H PARENT 3 7 80 25 50 36 8 73
REMARK Flexibility Score: inf
ROOT
ATOM      1  C   UNL A   1      32.920  34.724  28.802  1.00  0.00     0.023 C 
ENDROOT
BRANCH   1   2
ATOM      2  C   UNL A   1      33.380  33.734  27.741  1.00  0.00     0.023 C 
BRANCH   2   3
ATOM      3  C   UNL A   1      33.878  32.406  28.294  1.00  0.00     0.116 C 
BRANCH   3   4
ATOM      4  N   UNL A   1      33.604  31.255  27.440  1.00  0.00    -0.352 N 
ATOM      5  O   UNL A   1      34.072  29.250  26.483  1.00  0.00    -0.269 OA
ATOM      6  C   UNL A   1      34.383  30.132  27.274  1.00  0.00     0.251 C 
ATOM      7  H   UNL A   1      32.765  31.285  26.923  1.00  0.00     0.163 HD
BRANCH   6   8
ATOM      8  C   UNL A   1      35.632  30.046  28.054  1.00  0.00     0.039 A 
ATOM      9  C   UNL A   1      36.846  30.330  27.428  1.00  0.00     0.014 A 
ATOM     10  C   UNL A   1      35.594  29.542  29.355  1.00  0.00     0.014 A 
ATOM     11  C   UNL A   1      38.028  29.940  28.036  1.00  0.00     0.010 A 
ATOM     12  C   UNL A   1      36.793  29.262  30.011  1.00  0.00     0.010 A 
ATOM     13  C   UNL A   1      38.018  29.424  29.343  1.00  0.00    -0.014 A 
BRANCH  13  14
ATOM     14  C   UNL A   1      39.312  29.149  30.016  1.00  0.00     0.031 A 
ATOM     15  C   UNL A   1      39.751  29.916  31.231  1.00  0.00     0.074 A 
ATOM     16  C   UNL A   1      40.089  28.173  29.507  1.00  0.00     0.049 A 
ATOM     17  N   UNL A   1      40.860  29.798  31.916  1.00  0.00    -0.248 NA
ATOM     18  C   UNL A   1      38.841  30.954  31.740  1.00  0.00     0.031 C 
ATOM     19  C   UNL A   1      39.762  27.369  28.323  1.00  0.00     0.029 A 
ATOM     20  N   UNL A   1      41.298  27.680  29.915  1.00  0.00    -0.354 N 
ATOM     21  C   UNL A   1      40.799  30.760  32.917  1.00  0.00     0.074 A 
ATOM     22  C   UNL A   1      39.548  31.468  32.738  1.00  0.00     0.031 C 
ATOM     23  C   UNL A   1      40.721  26.457  28.130  1.00  0.00     0.029 A 
ATOM     24  C   UNL A   1      41.772  26.668  29.115  1.00  0.00     0.049 A 
ATOM     25  H   UNL A   1      41.781  28.016  30.705  1.00  0.00     0.167 HD
ATOM     26  C   UNL A   1      41.704  31.026  33.891  1.00  0.00     0.031 A 
ATOM     27  C   UNL A   1      42.942  26.005  29.138  1.00  0.00     0.031 A 
ATOM     28  C   UNL A   1      42.949  30.317  34.046  1.00  0.00     0.049 A 
ATOM     29  C   UNL A   1      43.941  26.344  30.201  1.00  0.00     0.074 A 
ATOM     30  C   UNL A   1      43.919  30.483  35.020  1.00  0.00     0.029 A 
ATOM     31  N   UNL A   1      43.405  29.316  33.198  1.00  0.00    -0.354 N 
ATOM     32  N   UNL A   1      43.845  27.229  31.164  1.00  0.00    -0.248 NA
ATOM     33  C   UNL A   1      45.202  25.596  30.185  1.00  0.00     0.031 C 
ATOM     34  C   UNL A   1      44.990  29.634  34.721  1.00  0.00     0.029 A 
ATOM     35  C   UNL A   1      44.657  28.882  33.606  1.00  0.00     0.049 A 
ATOM     36  H   UNL A   1      42.912  28.966  32.422  1.00  0.00     0.167 HD
ATOM     37  C   UNL A   1      45.030  27.134  31.881  1.00  0.00     0.074 A 
ATOM     38  C   UNL A   1      45.816  26.090  31.251  1.00  0.00     0.031 C 
ATOM     39  C   UNL A   1      45.431  27.849  32.961  1.00  0.00     0.031 A 
BRANCH  26  40
ATOM     40  C   UNL A   1      41.405  32.164  34.837  1.00  0.00    -0.014 A 
ATOM     41  C   UNL A   1      40.579  31.992  35.962  1.00  0.00     0.010 A 
ATOM     42  C   UNL A   1      41.996  33.424  34.616  1.00  0.00     0.010 A 
ATOM     43  C   UNL A   1      40.307  33.067  36.815  1.00  0.00     0.020 A 
ATOM     44  C   UNL A   1      41.752  34.493  35.483  1.00  0.00     0.020 A 
ATOM     45  C   UNL A   1      40.891  34.313  36.566  1.00  0.00     0.054 A 
BRANCH  45  46
ATOM     46  S   UNL A   1      40.519  35.690  37.688  1.00  0.00     0.124 S 
ATOM     47  O   UNL A   1      39.976  36.687  36.768  1.00  0.00    -0.237 OA
ATOM     48  O   UNL A   1      39.555  35.098  38.611  1.00  0.00    -0.237 OA
ATOM     49  O   UNL A   1      41.815  36.023  38.273  1.00  0.00    -0.744 OA
ENDBRANCH  45  46
ENDBRANCH  26  40
BRANCH  27  50
ATOM     50  C   UNL A   1      43.221  24.990  28.088  1.00  0.00    -0.014 A 
ATOM     51  C   UNL A   1      43.856  25.349  26.888  1.00  0.00     0.010 A 
ATOM     52  C   UNL A   1      42.906  23.636  28.319  1.00  0.00     0.010 A 
ATOM     53  C   UNL A   1      44.164  24.373  25.936  1.00  0.00     0.020 A 
ATOM     54  C   UNL A   1      43.243  22.655  27.386  1.00  0.00     0.020 A 
ATOM     55  C   UNL A   1      43.862  23.032  26.195  1.00  0.00     0.054 A 
BRANCH  55  56
ATOM     56  S   UNL A   1      44.332  21.778  24.972  1.00  0.00     0.124 S 
ATOM     57  O   UNL A   1      45.702  21.469  25.367  1.00  0.00    -0.237 OA
ATOM     58  O   UNL A   1      43.350  20.722  25.211  1.00  0.00    -0.237 OA
ATOM     59  O   UNL A   1      44.189  22.473  23.695  1.00  0.00    -0.744 OA
ENDBRANCH  55  56
ENDBRANCH  27  50
BRANCH  39  60
ATOM     60  C   UNL A   1      46.773  27.502  33.552  1.00  0.00    -0.014 A 
ATOM     61  C   UNL A   1      47.938  28.192  33.176  1.00  0.00     0.010 A 
ATOM     62  C   UNL A   1      46.856  26.499  34.535  1.00  0.00     0.010 A 
ATOM     63  C   UNL A   1      49.168  27.866  33.753  1.00  0.00     0.020 A 
ATOM     64  C   UNL A   1      48.077  26.192  35.137  1.00  0.00     0.020 A 
ATOM     65  C   UNL A   1      49.229  26.869  34.732  1.00  0.00     0.054 A 
BRANCH  65  66
ATOM     66  S   UNL A   1      50.829  26.499  35.501  1.00  0.00     0.124 S 
ATOM     67  O   UNL A   1      50.733  27.225  36.766  1.00  0.00    -0.237 OA
ATOM     68  O   UNL A   1      50.803  25.043  35.608  1.00  0.00    -0.237 OA
ATOM     69  O   UNL A   1      51.802  27.032  34.551  1.00  0.00    -0.744 OA
ENDBRANCH  65  66
ENDBRANCH  39  60
ENDBRANCH  13  14
ENDBRANCH   6   8
ENDBRANCH   3   4
ENDBRANCH   2   3
ENDBRANCH   1   2
BRANCH   1  70
ATOM     70  C   UNL A   1      34.031  35.632  29.325  1.00  0.00     0.116 C 
BRANCH  70  71
ATOM     71  N   UNL A   1      33.545  36.531  30.346  1.00  0.00    -0.356 N 
ATOM     72  C   UNL A   1      33.292  36.386  31.665  1.00  0.00     0.225 C 
ATOM     73  H   UNL A   1      33.359  37.438  30.010  1.00  0.00     0.163 HD
ATOM     74  O   UNL A   1      32.808  37.376  32.230  1.00  0.00    -0.275 OA
BRANCH  72  75
ATOM     75  C   UNL A   1      33.642  35.173  32.522  1.00  0.00     0.107 C 
ATOM     76  C   UNL A   1      34.833  35.507  33.420  1.00  0.00     0.115 C 
ATOM     77  C   UNL A   1      34.001  33.833  31.912  1.00  0.00     0.133 C 
ATOM     78  C   UNL A   1      35.975  34.790  32.756  1.00  0.00     0.223 C 
ATOM     79  N   UNL A   1      35.451  33.795  31.938  1.00  0.00    -0.342 N 
ATOM     80  O   UNL A   1      37.157  35.031  32.943  1.00  0.00    -0.275 OA
BRANCH  79  81
ATOM     81  C   UNL A   1      36.297  32.969  31.085  1.00  0.00     0.119 C 
BRANCH  81  82
ATOM     82  C   UNL A   1      36.732  33.571  29.748  1.00  0.00     0.022 C 
BRANCH  82  83
ATOM     83  C   UNL A   1      38.235  33.609  29.437  1.00  0.00     0.008 C 
BRANCH  83  84
ATOM     84  C   UNL A   1      39.069  34.650  30.186  1.00  0.00     0.056 C 
BRANCH  84  85
ATOM     85  C   UNL A   1      40.559  34.579  29.984  1.00  0.00     0.040 A 
ATOM     86  C   UNL A   1      41.386  33.902  30.877  1.00  0.00     0.024 A 
ATOM     87  N   UNL A   1      41.052  35.266  28.925  1.00  0.00    -0.261 NA
ATOM     88  C   UNL A   1      42.762  33.918  30.669  1.00  0.00     0.003 A 
ATOM     89  C   UNL A   1      42.395  35.289  28.765  1.00  0.00     0.111 A 
ATOM     90  C   UNL A   1      43.281  34.629  29.596  1.00  0.00     0.020 A 
ENDBRANCH  84  85
ENDBRANCH  83  84
ENDBRANCH  82  83
ENDBRANCH  81  82
ENDBRANCH  79  81
ENDBRANCH  72  75
ENDBRANCH  70  71
ENDBRANCH   1  70
TORSDOF 19
ENDMDL
MODEL 2
REMARK VINA RESULT:      -9.2      5.496     11.754
REMARK SMILES O=C(NCCCCNC(=O)[C@@H]1CC(=O)N(CCCCc2ccccn2)C1)c1ccc(-c2c3nc(c(-c4ccc(S(=O)(=O)[O-])cc4)c4ccc([nH]4)c(-c4ccc(S(=O)(=O)[O-])cc4)c4nc(c(-c5ccc(S(=O)(=O)[O-])cc5)c5ccc2[nH]5)C=C4)C=C3)cc1
REMARK SMILES IDX 6 1 5 2 4 3 3 4 1 5 2 6 27 8 28 9 86 10 29 11 85 12 30 13
REMARK SMILES IDX 31 14 32 15 79 16 33 17 84 18 78 19 80 20 34 21 83 22 77 23
REMARK SMILES IDX 76 24 35 26 65 27 46 28 64 29 47 30 50 31 63 32 81 33 48 34
REMARK SMILES IDX 49 35 62 37 82 38 51 39 36 40 37 41 45 42 38 43 44 44 39 45
REMARK SMILES IDX 40 46 41 47 42 48 43 49 66 50 67 51 75 52 68 53 74 54 69 55
REMARK SMILES IDX 70 56 71 57 72 58 73 59 52 60 53 61 61 62 54 63 60 64 55 65
REMARK SMILES IDX 56 66 57 67 58 68 59 69 7 70 8 71 9 72 10 74 11 75 12 76
REMARK SMILES IDX 26 77 13 78 15 79 14 80 16 81 17 82 18 83 19 84 20 85 21 86
REMARK SMILES IDX 25 87 22 88 24 89 23 90
REMARK H PARENT 3 7 80 25 50 36 8 73
REMARK Flexibility Score: inf
ROOT
ATOM      1  C   UNL A   1      37.183  21.358  24.683  1.00  0.00     0.023 C 
ENDROOT
BRANCH   1   2
ATOM      2  C   UNL A   1      38.110  20.193  24.998  1.00  0.00     0.023 C 
BRANCH   2   3
ATOM      3  C   UNL A   1      39.168  20.499  26.050  1.00  0.00     0.116 C 
BRANCH   3   4
ATOM      4  N   UNL A   1      40.284  19.558  26.075  1.00  0.00    -0.352 N 
ATOM      5  O   UNL A   1      42.467  18.967  26.272  1.00  0.00    -0.269 OA
ATOM      6  C   UNL A   1      41.608  19.838  26.332  1.00  0.00     0.251 C 
ATOM      7  H   UNL A   1      40.065  18.616  25.887  1.00  0.00     0.163 HD
BRANCH   6   8
ATOM      8  C   UNL A   1      41.963  21.235  26.643  1.00  0.00     0.039 A 
ATOM      9  C   UNL A   1      42.060  22.160  25.602  1.00  0.00     0.014 A 
ATOM     10  C   UNL A   1      42.337  21.574  27.944  1.00  0.00     0.014 A 
ATOM     11  C   UNL A   1      42.703  23.366  25.828  1.00  0.00     0.010 A 
ATOM     12  C   UNL A   1      42.875  22.838  28.189  1.00  0.00     0.010 A 
ATOM     13  C   UNL A   1      43.096  23.730  27.127  1.00  0.00    -0.014 A 
BRANCH  13  14
ATOM     14  C   UNL A   1      43.653  25.086  27.354  1.00  0.00     0.031 A 
ATOM     15  C   UNL A   1      45.089  25.412  27.059  1.00  0.00     0.074 A 
ATOM     16  C   UNL A   1      42.821  26.035  27.829  1.00  0.00     0.049 A 
ATOM     17  N   UNL A   1      45.721  26.546  27.221  1.00  0.00    -0.248 NA
ATOM     18  C   UNL A   1      45.931  24.329  26.525  1.00  0.00     0.031 C 
ATOM     19  C   UNL A   1      41.407  25.825  28.158  1.00  0.00     0.029 A 
ATOM     20  N   UNL A   1      43.032  27.358  28.108  1.00  0.00    -0.354 N 
ATOM     21  C   UNL A   1      47.037  26.313  26.839  1.00  0.00     0.074 A 
ATOM     22  C   UNL A   1      47.117  24.919  26.453  1.00  0.00     0.031 C 
ATOM     23  C   UNL A   1      40.867  26.985  28.548  1.00  0.00     0.029 A 
ATOM     24  C   UNL A   1      41.914  27.998  28.586  1.00  0.00     0.049 A 
ATOM     25  H   UNL A   1      43.898  27.808  27.978  1.00  0.00     0.167 HD
ATOM     26  C   UNL A   1      48.078  27.181  26.815  1.00  0.00     0.031 A 
ATOM     27  C   UNL A   1      41.747  29.250  29.047  1.00  0.00     0.031 A 
ATOM     28  C   UNL A   1      47.980  28.563  27.213  1.00  0.00     0.049 A 
ATOM     29  C   UNL A   1      42.922  30.179  29.046  1.00  0.00     0.074 A 
ATOM     30  C   UNL A   1      48.964  29.537  27.193  1.00  0.00     0.029 A 
ATOM     31  N   UNL A   1      46.835  29.167  27.718  1.00  0.00    -0.354 N 
ATOM     32  N   UNL A   1      44.148  29.950  28.641  1.00  0.00    -0.248 NA
ATOM     33  C   UNL A   1      42.694  31.534  29.560  1.00  0.00     0.031 C 
ATOM     34  C   UNL A   1      48.435  30.706  27.749  1.00  0.00     0.029 A 
ATOM     35  C   UNL A   1      47.099  30.488  28.046  1.00  0.00     0.049 A 
ATOM     36  H   UNL A   1      45.965  28.722  27.827  1.00  0.00     0.167 HD
ATOM     37  C   UNL A   1      44.837  31.139  28.836  1.00  0.00     0.074 A 
ATOM     38  C   UNL A   1      43.883  32.089  29.375  1.00  0.00     0.031 C 
ATOM     39  C   UNL A   1      46.141  31.417  28.592  1.00  0.00     0.031 A 
BRANCH  26  40
ATOM     40  C   UNL A   1      49.426  26.652  26.390  1.00  0.00    -0.014 A 
ATOM     41  C   UNL A   1      50.227  25.887  27.257  1.00  0.00     0.010 A 
ATOM     42  C   UNL A   1      49.885  26.895  25.080  1.00  0.00     0.010 A 
ATOM     43  C   UNL A   1      51.479  25.421  26.841  1.00  0.00     0.020 A 
ATOM     44  C   UNL A   1      51.122  26.405  24.650  1.00  0.00     0.020 A 
ATOM     45  C   UNL A   1      51.921  25.689  25.542  1.00  0.00     0.054 A 
BRANCH  45  46
ATOM     46  S   UNL A   1      53.550  25.074  25.032  1.00  0.00     0.124 S 
ATOM     47  O   UNL A   1      53.428  23.643  25.300  1.00  0.00    -0.237 OA
ATOM     48  O   UNL A   1      53.605  25.445  23.621  1.00  0.00    -0.237 OA
ATOM     49  O   UNL A   1      54.481  25.792  25.899  1.00  0.00    -0.744 OA
ENDBRANCH  45  46
ENDBRANCH  26  40
BRANCH  27  50
ATOM     50  C   UNL A   1      40.420  29.658  29.579  1.00  0.00    -0.014 A 
ATOM     51  C   UNL A   1      40.192  29.744  30.962  1.00  0.00     0.010 A 
ATOM     52  C   UNL A   1      39.392  30.027  28.689  1.00  0.00     0.010 A 
ATOM     53  C   UNL A   1      38.957  30.185  31.445  1.00  0.00     0.020 A 
ATOM     54  C   UNL A   1      38.169  30.500  29.168  1.00  0.00     0.020 A 
ATOM     55  C   UNL A   1      37.957  30.567  30.545  1.00  0.00     0.054 A 
BRANCH  55  56
ATOM     56  S   UNL A   1      36.387  31.198  31.197  1.00  0.00     0.124 S 
ATOM     57  O   UNL A   1      36.791  32.475  31.775  1.00  0.00    -0.237 OA
ATOM     58  O   UNL A   1      35.557  31.279  29.997  1.00  0.00    -0.237 OA
ATOM     59  O   UNL A   1      35.979  30.176  32.159  1.00  0.00    -0.744 OA
ENDBRANCH  55  56
ENDBRANCH  27  50
BRANCH  39  60
ATOM     60  C   UNL A   1      46.608  32.821  28.879  1.00  0.00    -0.014 A 
ATOM     61  C   UNL A   1      47.165  33.167  30.122  1.00  0.00     0.010 A 
ATOM     62  C   UNL A   1      46.527  33.796  27.868  1.00  0.00     0.010 A 
ATOM     63  C   UNL A   1      47.609  34.470  30.359  1.00  0.00     0.020 A 
ATOM     64  C   UNL A   1      46.999  35.091  28.089  1.00  0.00     0.020 A 
ATOM     65  C   UNL A   1      47.525  35.424  29.338  1.00  0.00     0.054 A 
BRANCH  65  66
ATOM     66  S   UNL A   1      48.154  37.095  29.653  1.00  0.00     0.124 S 
ATOM     67  O   UNL A   1      48.112  37.166  31.112  1.00  0.00    -0.237 OA
ATOM     68  O   UNL A   1      49.490  37.049  29.064  1.00  0.00    -0.237 OA
ATOM     69  O   UNL A   1      47.202  37.960  28.961  1.00  0.00    -0.744 OA
ENDBRANCH  65  66
ENDBRANCH  39  60
ENDBRANCH  13  14
ENDBRANCH   6   8
ENDBRANCH   3   4
ENDBRANCH   2   3
ENDBRANCH   1   2
BRANCH   1  70
ATOM     70  C   UNL A   1      36.037  21.525  25.680  1.00  0.00     0.116 C 
BRANCH  70  71
ATOM     71  N   UNL A   1      34.750  21.438  25.028  1.00  0.00    -0.356 N 
ATOM     72  C   UNL A   1      33.622  22.177  25.104  1.00  0.00     0.225 C 
ATOM     73  H   UNL A   1      34.682  20.684  24.399  1.00  0.00     0.163 HD
ATOM     74  O   UNL A   1      32.665  21.763  24.435  1.00  0.00    -0.275 OA
BRANCH  72  75
ATOM     75  C   UNL A   1      33.461  23.504  25.839  1.00  0.00     0.107 C 
ATOM     76  C   UNL A   1      32.599  23.298  27.084  1.00  0.00     0.115 C 
ATOM     77  C   UNL A   1      32.863  24.727  25.172  1.00  0.00     0.133 C 
ATOM     78  C   UNL A   1      31.274  23.886  26.686  1.00  0.00     0.223 C 
ATOM     79  N   UNL A   1      31.482  24.748  25.615  1.00  0.00    -0.342 N 
ATOM     80  O   UNL A   1      30.211  23.660  27.243  1.00  0.00    -0.275 OA
BRANCH  79  81
ATOM     81  C   UNL A   1      30.380  25.418  24.935  1.00  0.00     0.119 C 
BRANCH  81  82
ATOM     82  C   UNL A   1      30.728  26.243  23.695  1.00  0.00     0.022 C 
BRANCH  82  83
ATOM     83  C   UNL A   1      30.156  27.664  23.600  1.00  0.00     0.008 C 
BRANCH  83  84
ATOM     84  C   UNL A   1      31.144  28.820  23.772  1.00  0.00     0.056 C 
BRANCH  84  85
ATOM     85  C   UNL A   1      32.065  28.737  24.959  1.00  0.00     0.040 A 
ATOM     86  C   UNL A   1      33.390  28.330  24.828  1.00  0.00     0.024 A 
ATOM     87  N   UNL A   1      31.512  29.014  26.164  1.00  0.00    -0.261 NA
ATOM     88  C   UNL A   1      34.179  28.218  25.970  1.00  0.00     0.003 A 
ATOM     89  C   UNL A   1      32.294  28.868  27.259  1.00  0.00     0.111 A 
ATOM     90  C   UNL A   1      33.622  28.487  27.212  1.00  0.00     0.020 A 
ENDBRANCH  84  85
ENDBRANCH  83  84
ENDBRANCH  82  83
ENDBRANCH  81  82
ENDBRANCH  79  81
ENDBRANCH  72  75
ENDBRANCH  70  71
ENDBRANCH   1  70
TORSDOF 19
ENDMDL
MODEL 3
REMARK VINA RESULT:      -9.1      5.754     12.032
REMARK SMILES O=C(NCCCCNC(=O)[C@@H]1CC(=O)N(CCCCc2ccccn2)C1)c1ccc(-c2c3nc(c(-c4ccc(S(=O)(=O)[O-])cc4)c4ccc([nH]4)c(-c4ccc(S(=O)(=O)[O-])cc4)c4nc(c(-c5ccc(S(=O)(=O)[O-])cc5)c5ccc2[nH]5)C=C4)C=C3)cc1
REMARK SMILES IDX 6 1 5 2 4 3 3 4 1 5 2 6 27 8 28 9 86 10 29 11 85 12 30 13
REMARK SMILES IDX 31 14 32 15 79 16 33 17 84 18 78 19 80 20 34 21 83 22 77 23
REMARK SMILES IDX 76 24 35 26 65 27 46 28 64 29 47 30 50 31 63 32 81 33 48 34
REMARK SMILES IDX 49 35 62 37 82 38 51 39 36 40 37 41 45 42 38 43 44 44 39 45
REMARK SMILES IDX 40 46 41 47 42 48 43 49 66 50 67 51 75 52 68 53 74 54 69 55
REMARK SMILES IDX 70 56 71 57 72 58 73 59 52 60 53 61 61 62 54 63 60 64 55 65
REMARK SMILES IDX 56 66 57 67 58 68 59 69 7 70 8 71 9 72 10 74 11 75 12 76
REMARK SMILES IDX 26 77 13 78 15 79 14 80 16 81 17 82 18 83 19 84 20 85 21 86
REMARK SMILES IDX 25 87 22 88 24 89 23 90
REMARK H PARENT 3 7 80 25 50 36 8 73
REMARK Flexibility Score: inf
ROOT
ATOM      1  C   UNL A   1      37.436  22.683  25.266  1.00  0.00     0.023 C 
ENDROOT
BRANCH   1   2
ATOM      2  C   UNL A   1      38.095  21.312  25.328  1.00  0.00     0.023 C 
BRANCH   2   3
ATOM      3  C   UNL A   1      39.295  21.234  26.261  1.00  0.00     0.116 C 
BRANCH   3   4
ATOM      4  N   UNL A   1      40.103  20.028  26.106  1.00  0.00    -0.352 N 
ATOM      5  O   UNL A   1      42.047  18.864  25.948  1.00  0.00    -0.269 OA
ATOM      6  C   UNL A   1      41.476  19.930  26.146  1.00  0.00     0.251 C 
ATOM      7  H   UNL A   1      39.609  19.189  25.955  1.00  0.00     0.163 HD
BRANCH   6   8
ATOM      8  C   UNL A   1      42.242  21.166  26.395  1.00  0.00     0.039 A 
ATOM      9  C   UNL A   1      42.538  21.529  27.710  1.00  0.00     0.014 A 
ATOM     10  C   UNL A   1      42.528  22.022  25.331  1.00  0.00     0.014 A 
ATOM     11  C   UNL A   1      42.953  22.823  27.976  1.00  0.00     0.010 A 
ATOM     12  C   UNL A   1      43.060  23.283  25.597  1.00  0.00     0.010 A 
ATOM     13  C   UNL A   1      43.243  23.708  26.923  1.00  0.00    -0.014 A 
BRANCH  13  14
ATOM     14  C   UNL A   1      43.819  25.037  27.241  1.00  0.00     0.031 A 
ATOM     15  C   UNL A   1      45.275  25.341  27.026  1.00  0.00     0.074 A 
ATOM     16  C   UNL A   1      42.989  25.982  27.725  1.00  0.00     0.049 A 
ATOM     17  N   UNL A   1      45.924  26.451  27.272  1.00  0.00    -0.248 NA
ATOM     18  C   UNL A   1      46.115  24.266  26.476  1.00  0.00     0.031 C 
ATOM     19  C   UNL A   1      41.557  25.791  27.981  1.00  0.00     0.029 A 
ATOM     20  N   UNL A   1      43.216  27.284  28.079  1.00  0.00    -0.354 N 
ATOM     21  C   UNL A   1      47.250  26.203  26.935  1.00  0.00     0.074 A 
ATOM     22  C   UNL A   1      47.316  24.829  26.486  1.00  0.00     0.031 C 
ATOM     23  C   UNL A   1      41.026  26.944  28.404  1.00  0.00     0.029 A 
ATOM     24  C   UNL A   1      42.092  27.928  28.539  1.00  0.00     0.049 A 
ATOM     25  H   UNL A   1      44.097  27.719  28.009  1.00  0.00     0.167 HD
ATOM     26  C   UNL A   1      48.310  27.046  27.001  1.00  0.00     0.031 A 
ATOM     27  C   UNL A   1      41.933  29.159  29.053  1.00  0.00     0.031 A 
ATOM     28  C   UNL A   1      48.225  28.410  27.462  1.00  0.00     0.049 A 
ATOM     29  C   UNL A   1      43.128  30.059  29.149  1.00  0.00     0.074 A 
ATOM     30  C   UNL A   1      49.231  29.359  27.533  1.00  0.00     0.029 A 
ATOM     31  N   UNL A   1      47.073  29.016  27.945  1.00  0.00    -0.354 N 
ATOM     32  N   UNL A   1      44.365  29.820  28.787  1.00  0.00    -0.248 NA
ATOM     33  C   UNL A   1      42.907  31.392  29.719  1.00  0.00     0.031 C 
ATOM     34  C   UNL A   1      48.704  30.512  28.122  1.00  0.00     0.029 A 
ATOM     35  C   UNL A   1      47.352  30.312  28.349  1.00  0.00     0.049 A 
ATOM     36  H   UNL A   1      46.189  28.587  27.994  1.00  0.00     0.167 HD
ATOM     37  C   UNL A   1      45.072  30.981  29.071  1.00  0.00     0.074 A 
ATOM     38  C   UNL A   1      44.116  31.927  29.614  1.00  0.00     0.031 C 
ATOM     39  C   UNL A   1      46.391  31.238  28.899  1.00  0.00     0.031 A 
BRANCH  26  40
ATOM     40  C   UNL A   1      49.664  26.506  26.609  1.00  0.00    -0.014 A 
ATOM     41  C   UNL A   1      50.518  25.900  27.548  1.00  0.00     0.010 A 
ATOM     42  C   UNL A   1      50.075  26.572  25.263  1.00  0.00     0.010 A 
ATOM     43  C   UNL A   1      51.773  25.420  27.161  1.00  0.00     0.020 A 
ATOM     44  C   UNL A   1      51.316  26.065  24.865  1.00  0.00     0.020 A 
ATOM     45  C   UNL A   1      52.167  25.511  25.823  1.00  0.00     0.054 A 
BRANCH  45  46
ATOM     46  S   UNL A   1      53.802  24.883  25.350  1.00  0.00     0.124 S 
ATOM     47  O   UNL A   1      53.500  23.496  25.001  1.00  0.00    -0.237 OA
ATOM     48  O   UNL A   1      54.165  25.746  24.230  1.00  0.00    -0.237 OA
ATOM     49  O   UNL A   1      54.606  25.060  26.557  1.00  0.00    -0.744 OA
ENDBRANCH  45  46
ENDBRANCH  26  40
BRANCH  27  50
ATOM     50  C   UNL A   1      40.593  29.574  29.546  1.00  0.00    -0.014 A 
ATOM     51  C   UNL A   1      40.307  29.604  30.920  1.00  0.00     0.010 A 
ATOM     52  C   UNL A   1      39.613  30.006  28.631  1.00  0.00     0.010 A 
ATOM     53  C   UNL A   1      39.061  30.051  31.369  1.00  0.00     0.020 A 
ATOM     54  C   UNL A   1      38.381  30.485  29.078  1.00  0.00     0.020 A 
ATOM     55  C   UNL A   1      38.110  30.495  30.446  1.00  0.00     0.054 A 
BRANCH  55  56
ATOM     56  S   UNL A   1      36.527  31.133  31.058  1.00  0.00     0.124 S 
ATOM     57  O   UNL A   1      35.841  31.484  29.819  1.00  0.00    -0.237 OA
ATOM     58  O   UNL A   1      35.983  29.985  31.781  1.00  0.00    -0.237 OA
ATOM     59  O   UNL A   1      36.915  32.262  31.901  1.00  0.00    -0.744 OA
ENDBRANCH  55  56
ENDBRANCH  27  50
BRANCH  39  60
ATOM     60  C   UNL A   1      46.875  32.614  29.275  1.00  0.00    -0.014 A 
ATOM     61  C   UNL A   1      46.845  33.676  28.355  1.00  0.00     0.010 A 
ATOM     62  C   UNL A   1      47.324  32.854  30.587  1.00  0.00     0.010 A 
ATOM     63  C   UNL A   1      47.280  34.950  28.732  1.00  0.00     0.020 A 
ATOM     64  C   UNL A   1      47.730  34.131  30.977  1.00  0.00     0.020 A 
ATOM     65  C   UNL A   1      47.718  35.169  30.043  1.00  0.00     0.054 A 
BRANCH  65  66
ATOM     66  S   UNL A   1      48.231  36.841  30.522  1.00  0.00     0.124 S 
ATOM     67  O   UNL A   1      48.541  37.445  29.229  1.00  0.00    -0.237 OA
ATOM     68  O   UNL A   1      47.040  37.361  31.189  1.00  0.00    -0.237 OA
ATOM     69  O   UNL A   1      49.379  36.615  31.396  1.00  0.00    -0.744 OA
ENDBRANCH  65  66
ENDBRANCH  39  60
ENDBRANCH  13  14
ENDBRANCH   6   8
ENDBRANCH   3   4
ENDBRANCH   2   3
ENDBRANCH   1   2
BRANCH   1  70
ATOM     70  C   UNL A   1      36.003  22.706  25.793  1.00  0.00     0.116 C 
BRANCH  70  71
ATOM     71  N   UNL A   1      35.076  22.148  24.834  1.00  0.00    -0.356 N 
ATOM     72  C   UNL A   1      33.733  22.204  24.702  1.00  0.00     0.225 C 
ATOM     73  H   UNL A   1      35.516  21.617  24.131  1.00  0.00     0.163 HD
ATOM     74  O   UNL A   1      33.257  21.535  23.775  1.00  0.00    -0.275 OA
BRANCH  72  75
ATOM     75  C   UNL A   1      32.784  23.083  25.511  1.00  0.00     0.107 C 
ATOM     76  C   UNL A   1      31.361  22.930  24.973  1.00  0.00     0.115 C 
ATOM     77  C   UNL A   1      32.977  24.582  25.628  1.00  0.00     0.133 C 
ATOM     78  C   UNL A   1      31.147  24.203  24.203  1.00  0.00     0.223 C 
ATOM     79  N   UNL A   1      32.064  25.147  24.653  1.00  0.00    -0.342 N 
ATOM     80  O   UNL A   1      30.285  24.373  23.355  1.00  0.00    -0.275 OA
BRANCH  79  81
ATOM     81  C   UNL A   1      32.175  26.469  24.047  1.00  0.00     0.119 C 
BRANCH  81  82
ATOM     82  C   UNL A   1      31.154  27.520  24.485  1.00  0.00     0.022 C 
BRANCH  82  83
ATOM     83  C   UNL A   1      29.906  27.709  23.613  1.00  0.00     0.008 C 
BRANCH  83  84
ATOM     84  C   UNL A   1      30.071  28.544  22.341  1.00  0.00     0.056 C 
BRANCH  84  85
ATOM     85  C   UNL A   1      29.395  29.889  22.335  1.00  0.00     0.040 A 
ATOM     86  C   UNL A   1      29.109  30.567  23.517  1.00  0.00     0.024 A 
ATOM     87  N   UNL A   1      29.023  30.365  21.123  1.00  0.00    -0.261 NA
ATOM     88  C   UNL A   1      28.432  31.781  23.454  1.00  0.00     0.003 A 
ATOM     89  C   UNL A   1      28.341  31.533  21.093  1.00  0.00     0.111 A 
ATOM     90  C   UNL A   1      28.034  32.275  22.219  1.00  0.00     0.020 A 
ENDBRANCH  84  85
ENDBRANCH  83  84
ENDBRANCH  82  83
ENDBRANCH  81  82
ENDBRANCH  79  81
ENDBRANCH  72  75
ENDBRANCH  70  71
ENDBRANCH   1  70
TORSDOF 19
ENDMDL
