MODEL 1
REMARK VINA RESULT:     -12.0      0.000      0.000
REMARK SMILES O=C(CN1C(=O)/C(=C2/Sc3ccccc3N2CCCS(=O)(=O)[O-])SC1=S)NCCCCNC(=O)c1ccc(-c2c3nc(c(-c4ccc(S(=O)(=O)[O-])cc4)c4ccc([nH]4)c(-c4ccc(S(=O)(=O)[O-])cc4)c4nc(c(-c5ccc(S(=O)(=O)[O-])cc5)c5ccc2[nH]5)C=C4)C=C3)cc1
REMARK SMILES IDX 28 1 27 2 1 3 2 4 3 6 4 7 5 8 25 9 6 10 7 11 24 12 26 13
REMARK SMILES IDX 8 14 9 15 16 16 10 17 15 18 11 19 14 20 12 21 13 22 17 23
REMARK SMILES IDX 18 24 19 25 20 26 21 27 22 28 23 29 29 30 30 31 31 32 32 33
REMARK SMILES IDX 33 34 34 36 35 37 36 38 94 39 37 40 93 41 38 42 39 43 40 44
REMARK SMILES IDX 87 45 41 46 92 47 86 48 88 49 42 50 91 51 85 52 84 53 43 55
REMARK SMILES IDX 73 56 54 57 72 58 55 59 58 60 71 61 89 62 56 63 57 64 70 66
REMARK SMILES IDX 90 67 59 68 44 69 45 70 53 71 46 72 52 73 47 74 48 75 49 76
REMARK SMILES IDX 50 77 51 78 74 79 75 80 83 81 76 82 82 83 77 84 78 85 79 86
REMARK SMILES IDX 80 87 81 88 60 89 61 90 69 91 62 92 68 93 63 94 64 95 65 96
REMARK SMILES IDX 66 97 67 98
REMARK H PARENT 27 5 32 35 88 54 58 65
REMARK Flexibility Score: inf
ROOT
ATOM      1  C   UNL A   1      38.128  21.578  25.424  1.00  0.00     0.116 C 
ENDROOT
BRANCH   1   2
ATOM      2  N   UNL A   1      37.289  22.742  25.817  1.00  0.00    -0.355 N 
ATOM      3  O   UNL A   1      36.225  22.886  23.783  1.00  0.00    -0.273 OA
ATOM      4  C   UNL A   1      36.335  23.301  24.941  1.00  0.00     0.240 C 
ATOM      5  H   UNL A   1      37.403  23.132  26.713  1.00  0.00     0.163 HD
BRANCH   4   6
ATOM      6  C   UNL A   1      35.366  24.444  25.465  1.00  0.00     0.227 C 
BRANCH   6   7
ATOM      7  N   UNL A   1      33.911  24.292  25.074  1.00  0.00    -0.283 N 
ATOM      8  C   UNL A   1      33.397  24.960  23.993  1.00  0.00     0.269 C 
ATOM      9  C   UNL A   1      33.077  23.244  25.379  1.00  0.00     0.148 C 
ATOM     10  O   UNL A   1      34.038  25.194  22.981  1.00  0.00    -0.268 OA
ATOM     11  C   UNL A   1      31.919  25.074  24.032  1.00  0.00     0.111 C 
ATOM     12  S   UNL A   1      31.444  23.541  24.709  1.00  0.00    -0.052 SA
ATOM     13  S   UNL A   1      33.453  21.818  26.156  1.00  0.00    -0.052 S 
ATOM     14  C   UNL A   1      31.128  26.149  23.752  1.00  0.00     0.100 C 
ATOM     15  S   UNL A   1      29.317  25.880  23.699  1.00  0.00    -0.068 SA
ATOM     16  N   UNL A   1      31.426  27.524  23.525  1.00  0.00    -0.334 N 
ATOM     17  C   UNL A   1      29.058  27.625  23.435  1.00  0.00     0.037 A 
ATOM     18  C   UNL A   1      30.258  28.342  23.491  1.00  0.00     0.056 A 
ATOM     19  C   UNL A   1      27.853  28.267  23.176  1.00  0.00     0.017 A 
ATOM     20  C   UNL A   1      30.220  29.740  23.468  1.00  0.00     0.027 A 
ATOM     21  C   UNL A   1      27.835  29.662  23.069  1.00  0.00     0.001 A 
ATOM     22  C   UNL A   1      29.007  30.399  23.256  1.00  0.00     0.002 A 
BRANCH  16  23
ATOM     23  C   UNL A   1      32.541  28.126  22.802  1.00  0.00     0.124 C 
BRANCH  23  24
ATOM     24  C   UNL A   1      33.683  28.483  23.731  1.00  0.00     0.037 C 
BRANCH  24  25
ATOM     25  C   UNL A   1      33.204  29.286  24.893  1.00  0.00     0.124 C 
BRANCH  25  26
ATOM     26  S   UNL A   1      33.522  28.631  26.535  1.00  0.00     0.095 S 
ATOM     27  O   UNL A   1      33.078  27.275  26.560  1.00  0.00    -0.243 OA
ATOM     28  O   UNL A   1      34.867  28.987  26.961  1.00  0.00    -0.243 OA
ATOM     29  O   UNL A   1      32.472  29.385  27.480  1.00  0.00    -0.748 OA
ENDBRANCH  25  26
ENDBRANCH  24  25
ENDBRANCH  23  24
ENDBRANCH  16  23
ENDBRANCH   6   7
ENDBRANCH   4   6
ENDBRANCH   1   2
BRANCH   1  30
ATOM     30  C   UNL A   1      39.486  21.270  26.114  1.00  0.00     0.023 C 
BRANCH  30  31
ATOM     31  C   UNL A   1      40.095  22.176  27.207  1.00  0.00     0.023 C 
BRANCH  31  32
ATOM     32  C   UNL A   1      41.304  23.065  26.887  1.00  0.00     0.116 C 
BRANCH  32  33
ATOM     33  N   UNL A   1      41.224  24.088  25.855  1.00  0.00    -0.352 N 
ATOM     34  C   UNL A   1      41.348  25.469  25.985  1.00  0.00     0.251 C 
ATOM     35  H   UNL A   1      41.062  23.760  24.942  1.00  0.00     0.163 HD
ATOM     36  O   UNL A   1      41.520  26.148  24.974  1.00  0.00    -0.269 OA
BRANCH  34  37
ATOM     37  C   UNL A   1      41.179  26.173  27.293  1.00  0.00     0.039 A 
ATOM     38  C   UNL A   1      40.077  26.003  28.130  1.00  0.00     0.014 A 
ATOM     39  C   UNL A   1      42.199  27.034  27.713  1.00  0.00     0.014 A 
ATOM     40  C   UNL A   1      39.884  26.839  29.242  1.00  0.00     0.010 A 
ATOM     41  C   UNL A   1      42.047  27.815  28.870  1.00  0.00     0.010 A 
ATOM     42  C   UNL A   1      40.854  27.784  29.609  1.00  0.00    -0.014 A 
BRANCH  42  43
ATOM     43  C   UNL A   1      40.616  28.759  30.720  1.00  0.00     0.031 A 
ATOM     44  C   UNL A   1      41.504  28.759  31.944  1.00  0.00     0.074 A 
ATOM     45  C   UNL A   1      39.613  29.659  30.647  1.00  0.00     0.049 A 
ATOM     46  N   UNL A   1      41.449  29.522  33.009  1.00  0.00    -0.248 NA
ATOM     47  C   UNL A   1      42.594  27.770  31.983  1.00  0.00     0.031 C 
ATOM     48  C   UNL A   1      38.689  29.794  29.523  1.00  0.00     0.029 A 
ATOM     49  N   UNL A   1      39.209  30.637  31.528  1.00  0.00    -0.354 N 
ATOM     50  C   UNL A   1      42.471  29.089  33.849  1.00  0.00     0.074 A 
ATOM     51  C   UNL A   1      43.113  27.976  33.186  1.00  0.00     0.031 C 
ATOM     52  C   UNL A   1      37.857  30.821  29.760  1.00  0.00     0.029 A 
ATOM     53  C   UNL A   1      38.141  31.382  31.080  1.00  0.00     0.049 A 
ATOM     54  H   UNL A   1      39.644  30.790  32.399  1.00  0.00     0.167 HD
ATOM     55  C   UNL A   1      42.851  29.579  35.054  1.00  0.00     0.031 A 
ATOM     56  C   UNL A   1      37.456  32.395  31.655  1.00  0.00     0.031 A 
ATOM     57  C   UNL A   1      42.227  30.706  35.704  1.00  0.00     0.049 A 
ATOM     58  C   UNL A   1      37.864  32.897  33.014  1.00  0.00     0.074 A 
ATOM     59  C   UNL A   1      42.592  31.308  36.897  1.00  0.00     0.029 A 
ATOM     60  N   UNL A   1      41.117  31.391  35.236  1.00  0.00    -0.354 N 
ATOM     61  N   UNL A   1      38.864  32.507  33.765  1.00  0.00    -0.248 NA
ATOM     62  C   UNL A   1      37.057  33.977  33.601  1.00  0.00     0.031 C 
ATOM     63  C   UNL A   1      41.647  32.291  37.197  1.00  0.00     0.029 A 
ATOM     64  C   UNL A   1      40.752  32.375  36.142  1.00  0.00     0.049 A 
ATOM     65  H   UNL A   1      40.655  31.206  34.386  1.00  0.00     0.167 HD
ATOM     66  C   UNL A   1      38.821  33.305  34.904  1.00  0.00     0.074 A 
ATOM     67  C   UNL A   1      37.706  34.213  34.736  1.00  0.00     0.031 C 
ATOM     68  C   UNL A   1      39.638  33.282  35.986  1.00  0.00     0.031 A 
BRANCH  55  69
ATOM     69  C   UNL A   1      43.997  28.912  35.782  1.00  0.00    -0.014 A 
ATOM     70  C   UNL A   1      43.728  27.874  36.696  1.00  0.00     0.010 A 
ATOM     71  C   UNL A   1      45.316  29.389  35.669  1.00  0.00     0.010 A 
ATOM     72  C   UNL A   1      44.741  27.351  37.505  1.00  0.00     0.020 A 
ATOM     73  C   UNL A   1      46.340  28.843  36.451  1.00  0.00     0.020 A 
ATOM     74  C   UNL A   1      46.040  27.845  37.383  1.00  0.00     0.054 A 
BRANCH  74  75
ATOM     75  S   UNL A   1      47.336  27.173  38.461  1.00  0.00     0.124 S 
ATOM     76  O   UNL A   1      46.572  26.712  39.615  1.00  0.00    -0.237 OA
ATOM     77  O   UNL A   1      47.927  26.124  37.633  1.00  0.00    -0.237 OA
ATOM     78  O   UNL A   1      48.207  28.322  38.706  1.00  0.00    -0.744 OA
ENDBRANCH  74  75
ENDBRANCH  55  69
BRANCH  56  79
ATOM     79  C   UNL A   1      36.341  33.028  30.893  1.00  0.00    -0.014 A 
ATOM     80  C   UNL A   1      36.597  33.732  29.700  1.00  0.00     0.010 A 
ATOM     81  C   UNL A   1      35.040  33.043  31.427  1.00  0.00     0.010 A 
ATOM     82  C   UNL A   1      35.603  34.518  29.112  1.00  0.00     0.020 A 
ATOM     83  C   UNL A   1      34.032  33.800  30.820  1.00  0.00     0.020 A 
ATOM     84  C   UNL A   1      34.333  34.568  29.693  1.00  0.00     0.054 A 
BRANCH  84  85
ATOM     85  S   UNL A   1      33.103  35.703  28.994  1.00  0.00     0.124 S 
ATOM     86  O   UNL A   1      33.952  36.712  28.365  1.00  0.00    -0.237 OA
ATOM     87  O   UNL A   1      32.362  34.842  28.076  1.00  0.00    -0.237 OA
ATOM     88  O   UNL A   1      32.353  36.160  30.161  1.00  0.00    -0.744 OA
ENDBRANCH  84  85
ENDBRANCH  56  79
BRANCH  68  89
ATOM     89  C   UNL A   1      39.385  34.258  37.111  1.00  0.00    -0.014 A 
ATOM     90  C   UNL A   1      39.986  35.532  37.078  1.00  0.00     0.010 A 
ATOM     91  C   UNL A   1      38.692  33.864  38.270  1.00  0.00     0.010 A 
ATOM     92  C   UNL A   1      39.948  36.368  38.197  1.00  0.00     0.020 A 
ATOM     93  C   UNL A   1      38.620  34.714  39.379  1.00  0.00     0.020 A 
ATOM     94  C   UNL A   1      39.276  35.947  39.347  1.00  0.00     0.054 A 
BRANCH  94  95
ATOM     95  S   UNL A   1      39.295  37.019  40.810  1.00  0.00     0.124 S 
ATOM     96  O   UNL A   1      40.724  37.243  41.010  1.00  0.00    -0.237 OA
ATOM     97  O   UNL A   1      38.532  38.183  40.363  1.00  0.00    -0.237 OA
ATOM     98  O   UNL A   1      38.640  36.211  41.837  1.00  0.00    -0.744 OA
ENDBRANCH  94  95
ENDBRANCH  68  89
ENDBRANCH  42  43
ENDBRANCH  34  37
ENDBRANCH  32  33
ENDBRANCH  31  32
ENDBRANCH  30  31
ENDBRANCH   1  30
TORSDOF 19
ENDMDL
MODEL 2
REMARK VINA RESULT:     -11.5      0.741      7.832
REMARK SMILES O=C(CN1C(=O)/C(=C2/Sc3ccccc3N2CCCS(=O)(=O)[O-])SC1=S)NCCCCNC(=O)c1ccc(-c2c3nc(c(-c4ccc(S(=O)(=O)[O-])cc4)c4ccc([nH]4)c(-c4ccc(S(=O)(=O)[O-])cc4)c4nc(c(-c5ccc(S(=O)(=O)[O-])cc5)c5ccc2[nH]5)C=C4)C=C3)cc1
REMARK SMILES IDX 28 1 27 2 1 3 2 4 3 6 4 7 5 8 25 9 6 10 7 11 24 12 26 13
REMARK SMILES IDX 8 14 9 15 16 16 10 17 15 18 11 19 14 20 12 21 13 22 17 23
REMARK SMILES IDX 18 24 19 25 20 26 21 27 22 28 23 29 29 30 30 31 31 32 32 33
REMARK SMILES IDX 33 34 34 36 35 37 36 38 94 39 37 40 93 41 38 42 39 43 40 44
REMARK SMILES IDX 87 45 41 46 92 47 86 48 88 49 42 50 91 51 85 52 84 53 43 55
REMARK SMILES IDX 73 56 54 57 72 58 55 59 58 60 71 61 89 62 56 63 57 64 70 66
REMARK SMILES IDX 90 67 59 68 44 69 45 70 53 71 46 72 52 73 47 74 48 75 49 76
REMARK SMILES IDX 50 77 51 78 74 79 75 80 83 81 76 82 82 83 77 84 78 85 79 86
REMARK SMILES IDX 80 87 81 88 60 89 61 90 69 91 62 92 68 93 63 94 64 95 65 96
REMARK SMILES IDX 66 97 67 98
REMARK H PARENT 27 5 32 35 88 54 58 65
REMARK Flexibility Score: inf
ROOT
ATOM      1  C   UNL A   1      38.818  21.431  25.650  1.00  0.00     0.116 C 
ENDROOT
BRANCH   1   2
ATOM      2  N   UNL A   1      37.940  22.577  26.005  1.00  0.00    -0.355 N 
ATOM      3  O   UNL A   1      36.608  22.362  24.142  1.00  0.00    -0.273 OA
ATOM      4  C   UNL A   1      36.833  22.942  25.209  1.00  0.00     0.240 C 
ATOM      5  H   UNL A   1      38.136  23.096  26.819  1.00  0.00     0.163 HD
BRANCH   4   6
ATOM      6  C   UNL A   1      35.846  24.077  25.715  1.00  0.00     0.227 C 
BRANCH   6   7
ATOM      7  N   UNL A   1      34.396  23.905  25.310  1.00  0.00    -0.283 N 
ATOM      8  C   UNL A   1      33.892  24.535  24.203  1.00  0.00     0.269 C 
ATOM      9  C   UNL A   1      33.564  22.862  25.638  1.00  0.00     0.148 C 
ATOM     10  O   UNL A   1      34.544  24.741  23.192  1.00  0.00    -0.268 OA
ATOM     11  C   UNL A   1      32.413  24.641  24.219  1.00  0.00     0.111 C 
ATOM     12  S   UNL A   1      31.938  23.127  24.939  1.00  0.00    -0.052 SA
ATOM     13  S   UNL A   1      33.938  21.463  26.465  1.00  0.00    -0.052 S 
ATOM     14  C   UNL A   1      31.620  25.702  23.896  1.00  0.00     0.100 C 
ATOM     15  S   UNL A   1      29.811  25.421  23.830  1.00  0.00    -0.068 SA
ATOM     16  N   UNL A   1      31.913  27.070  23.630  1.00  0.00    -0.334 N 
ATOM     17  C   UNL A   1      29.546  27.155  23.507  1.00  0.00     0.037 A 
ATOM     18  C   UNL A   1      30.741  27.880  23.555  1.00  0.00     0.056 A 
ATOM     19  C   UNL A   1      28.340  27.781  23.213  1.00  0.00     0.017 A 
ATOM     20  C   UNL A   1      30.696  29.277  23.487  1.00  0.00     0.027 A 
ATOM     21  C   UNL A   1      28.316  29.172  23.062  1.00  0.00     0.001 A 
ATOM     22  C   UNL A   1      29.482  29.921  23.239  1.00  0.00     0.002 A 
BRANCH  16  23
ATOM     23  C   UNL A   1      33.034  27.657  22.901  1.00  0.00     0.124 C 
BRANCH  23  24
ATOM     24  C   UNL A   1      33.893  28.522  23.799  1.00  0.00     0.037 C 
BRANCH  24  25
ATOM     25  C   UNL A   1      34.070  27.900  25.143  1.00  0.00     0.124 C 
BRANCH  25  26
ATOM     26  S   UNL A   1      33.618  28.887  26.574  1.00  0.00     0.095 S 
ATOM     27  O   UNL A   1      32.580  28.199  27.271  1.00  0.00    -0.243 OA
ATOM     28  O   UNL A   1      34.816  29.335  27.267  1.00  0.00    -0.243 OA
ATOM     29  O   UNL A   1      32.874  30.166  25.963  1.00  0.00    -0.748 OA
ENDBRANCH  25  26
ENDBRANCH  24  25
ENDBRANCH  23  24
ENDBRANCH  16  23
ENDBRANCH   6   7
ENDBRANCH   4   6
ENDBRANCH   1   2
BRANCH   1  30
ATOM     30  C   UNL A   1      39.996  20.983  26.559  1.00  0.00     0.023 C 
BRANCH  30  31
ATOM     31  C   UNL A   1      41.433  21.525  26.396  1.00  0.00     0.023 C 
BRANCH  31  32
ATOM     32  C   UNL A   1      41.747  22.992  26.723  1.00  0.00     0.116 C 
BRANCH  32  33
ATOM     33  N   UNL A   1      41.498  24.042  25.746  1.00  0.00    -0.352 N 
ATOM     34  C   UNL A   1      41.533  25.423  25.923  1.00  0.00     0.251 C 
ATOM     35  H   UNL A   1      41.276  23.734  24.838  1.00  0.00     0.163 HD
ATOM     36  O   UNL A   1      41.561  26.148  24.930  1.00  0.00    -0.269 OA
BRANCH  34  37
ATOM     37  C   UNL A   1      41.434  26.065  27.269  1.00  0.00     0.039 A 
ATOM     38  C   UNL A   1      40.351  25.899  28.131  1.00  0.00     0.014 A 
ATOM     39  C   UNL A   1      42.504  26.859  27.698  1.00  0.00     0.014 A 
ATOM     40  C   UNL A   1      40.229  26.684  29.289  1.00  0.00     0.010 A 
ATOM     41  C   UNL A   1      42.421  27.585  28.897  1.00  0.00     0.010 A 
ATOM     42  C   UNL A   1      41.251  27.567  29.672  1.00  0.00    -0.014 A 
BRANCH  42  43
ATOM     43  C   UNL A   1      41.089  28.493  30.837  1.00  0.00     0.031 A 
ATOM     44  C   UNL A   1      39.966  29.507  30.861  1.00  0.00     0.074 A 
ATOM     45  C   UNL A   1      41.933  28.436  31.889  1.00  0.00     0.049 A 
ATOM     46  N   UNL A   1      39.671  30.395  31.779  1.00  0.00    -0.248 NA
ATOM     47  C   UNL A   1      39.059  29.532  29.702  1.00  0.00     0.031 C 
ATOM     48  C   UNL A   1      43.047  27.499  32.018  1.00  0.00     0.029 A 
ATOM     49  N   UNL A   1      41.980  29.170  33.052  1.00  0.00    -0.354 N 
ATOM     50  C   UNL A   1      38.569  31.097  31.297  1.00  0.00     0.074 A 
ATOM     51  C   UNL A   1      38.266  30.554  29.992  1.00  0.00     0.031 C 
ATOM     52  C   UNL A   1      43.639  27.683  33.209  1.00  0.00     0.029 A 
ATOM     53  C   UNL A   1      42.992  28.794  33.906  1.00  0.00     0.049 A 
ATOM     54  H   UNL A   1      41.348  29.898  33.255  1.00  0.00     0.167 HD
ATOM     55  C   UNL A   1      37.865  32.093  31.890  1.00  0.00     0.031 A 
ATOM     56  C   UNL A   1      43.371  29.279  35.109  1.00  0.00     0.031 A 
ATOM     57  C   UNL A   1      38.152  32.617  33.203  1.00  0.00     0.049 A 
ATOM     58  C   UNL A   1      42.606  30.415  35.732  1.00  0.00     0.074 A 
ATOM     59  C   UNL A   1      37.449  33.582  33.906  1.00  0.00     0.029 A 
ATOM     60  N   UNL A   1      39.218  32.241  34.004  1.00  0.00    -0.354 N 
ATOM     61  N   UNL A   1      41.538  31.028  35.282  1.00  0.00    -0.248 NA
ATOM     62  C   UNL A   1      43.089  30.922  37.025  1.00  0.00     0.031 C 
ATOM     63  C   UNL A   1      38.143  33.856  35.085  1.00  0.00     0.029 A 
ATOM     64  C   UNL A   1      39.222  32.991  35.170  1.00  0.00     0.049 A 
ATOM     65  H   UNL A   1      39.877  31.544  33.778  1.00  0.00     0.167 HD
ATOM     66  C   UNL A   1      41.209  31.978  36.244  1.00  0.00     0.074 A 
ATOM     67  C   UNL A   1      42.181  31.849  37.309  1.00  0.00     0.031 C 
ATOM     68  C   UNL A   1      40.190  32.873  36.236  1.00  0.00     0.031 A 
BRANCH  55  69
ATOM     69  C   UNL A   1      36.706  32.709  31.140  1.00  0.00    -0.014 A 
ATOM     70  C   UNL A   1      36.961  33.555  30.042  1.00  0.00     0.010 A 
ATOM     71  C   UNL A   1      35.380  32.566  31.590  1.00  0.00     0.010 A 
ATOM     72  C   UNL A   1      35.925  34.270  29.433  1.00  0.00     0.020 A 
ATOM     73  C   UNL A   1      34.336  33.252  30.960  1.00  0.00     0.020 A 
ATOM     74  C   UNL A   1      34.619  34.119  29.902  1.00  0.00     0.054 A 
BRANCH  74  75
ATOM     75  S   UNL A   1      33.292  35.077  29.117  1.00  0.00     0.124 S 
ATOM     76  O   UNL A   1      32.436  35.408  30.252  1.00  0.00    -0.237 OA
ATOM     77  O   UNL A   1      34.017  36.197  28.523  1.00  0.00    -0.237 OA
ATOM     78  O   UNL A   1      32.717  34.140  28.153  1.00  0.00    -0.744 OA
ENDBRANCH  74  75
ENDBRANCH  55  69
BRANCH  56  79
ATOM     79  C   UNL A   1      44.514  28.631  35.814  1.00  0.00    -0.014 A 
ATOM     80  C   UNL A   1      45.841  29.016  35.536  1.00  0.00     0.010 A 
ATOM     81  C   UNL A   1      44.288  27.535  36.666  1.00  0.00     0.010 A 
ATOM     82  C   UNL A   1      46.914  28.260  36.013  1.00  0.00     0.020 A 
ATOM     83  C   UNL A   1      45.362  26.797  37.176  1.00  0.00     0.020 A 
ATOM     84  C   UNL A   1      46.665  27.139  36.808  1.00  0.00     0.054 A 
BRANCH  84  85
ATOM     85  S   UNL A   1      48.066  26.094  37.298  1.00  0.00     0.124 S 
ATOM     86  O   UNL A   1      49.160  27.061  37.336  1.00  0.00    -0.237 OA
ATOM     87  O   UNL A   1      47.637  25.576  38.594  1.00  0.00    -0.237 OA
ATOM     88  O   UNL A   1      48.147  25.103  36.228  1.00  0.00    -0.744 OA
ENDBRANCH  84  85
ENDBRANCH  56  79
BRANCH  68  89
ATOM     89  C   UNL A   1      40.039  33.815  37.408  1.00  0.00    -0.014 A 
ATOM     90  C   UNL A   1      39.231  33.445  38.501  1.00  0.00     0.010 A 
ATOM     91  C   UNL A   1      40.558  35.121  37.359  1.00  0.00     0.010 A 
ATOM     92  C   UNL A   1      38.900  34.374  39.491  1.00  0.00     0.020 A 
ATOM     93  C   UNL A   1      40.259  36.044  38.367  1.00  0.00     0.020 A 
ATOM     94  C   UNL A   1      39.406  35.674  39.409  1.00  0.00     0.054 A 
BRANCH  94  95
ATOM     95  S   UNL A   1      38.910  36.882  40.668  1.00  0.00     0.124 S 
ATOM     96  O   UNL A   1      40.198  37.334  41.187  1.00  0.00    -0.237 OA
ATOM     97  O   UNL A   1      38.165  37.868  39.889  1.00  0.00    -0.237 OA
ATOM     98  O   UNL A   1      38.103  36.097  41.600  1.00  0.00    -0.744 OA
ENDBRANCH  94  95
ENDBRANCH  68  89
ENDBRANCH  42  43
ENDBRANCH  34  37
ENDBRANCH  32  33
ENDBRANCH  31  32
ENDBRANCH  30  31
ENDBRANCH   1  30
TORSDOF 19
ENDMDL
MODEL 3
REMARK VINA RESULT:     -11.4      5.939     12.000
REMARK SMILES O=C(CN1C(=O)/C(=C2/Sc3ccccc3N2CCCS(=O)(=O)[O-])SC1=S)NCCCCNC(=O)c1ccc(-c2c3nc(c(-c4ccc(S(=O)(=O)[O-])cc4)c4ccc([nH]4)c(-c4ccc(S(=O)(=O)[O-])cc4)c4nc(c(-c5ccc(S(=O)(=O)[O-])cc5)c5ccc2[nH]5)C=C4)C=C3)cc1
REMARK SMILES IDX 28 1 27 2 1 3 2 4 3 6 4 7 5 8 25 9 6 10 7 11 24 12 26 13
REMARK SMILES IDX 8 14 9 15 16 16 10 17 15 18 11 19 14 20 12 21 13 22 17 23
REMARK SMILES IDX 18 24 19 25 20 26 21 27 22 28 23 29 29 30 30 31 31 32 32 33
REMARK SMILES IDX 33 34 34 36 35 37 36 38 94 39 37 40 93 41 38 42 39 43 40 44
REMARK SMILES IDX 87 45 41 46 92 47 86 48 88 49 42 50 91 51 85 52 84 53 43 55
REMARK SMILES IDX 73 56 54 57 72 58 55 59 58 60 71 61 89 62 56 63 57 64 70 66
REMARK SMILES IDX 90 67 59 68 44 69 45 70 53 71 46 72 52 73 47 74 48 75 49 76
REMARK SMILES IDX 50 77 51 78 74 79 75 80 83 81 76 82 82 83 77 84 78 85 79 86
REMARK SMILES IDX 80 87 81 88 60 89 61 90 69 91 62 92 68 93 63 94 64 95 65 96
REMARK SMILES IDX 66 97 67 98
REMARK H PARENT 27 5 32 35 88 54 58 65
REMARK Flexibility Score: inf
ROOT
ATOM      1  C   UNL A   1      33.342  30.947  27.785  1.00  0.00     0.116 C 
ENDROOT
BRANCH   1   2
ATOM      2  N   UNL A   1      32.510  30.569  26.611  1.00  0.00    -0.355 N 
ATOM      3  O   UNL A   1      31.975  28.490  27.437  1.00  0.00    -0.273 OA
ATOM      4  C   UNL A   1      31.830  29.333  26.547  1.00  0.00     0.240 C 
ATOM      5  H   UNL A   1      32.430  31.199  25.859  1.00  0.00     0.163 HD
BRANCH   4   6
ATOM      6  C   UNL A   1      30.840  29.047  25.340  1.00  0.00     0.227 C 
BRANCH   6   7
ATOM      7  N   UNL A   1      31.354  28.081  24.293  1.00  0.00    -0.283 N 
ATOM      8  C   UNL A   1      31.516  26.751  24.580  1.00  0.00     0.269 C 
ATOM      9  C   UNL A   1      31.297  28.232  22.929  1.00  0.00     0.148 C 
ATOM     10  O   UNL A   1      30.788  26.133  25.338  1.00  0.00    -0.268 OA
ATOM     11  C   UNL A   1      32.436  26.064  23.640  1.00  0.00     0.111 C 
ATOM     12  S   UNL A   1      32.057  26.828  22.121  1.00  0.00    -0.052 SA
ATOM     13  S   UNL A   1      30.563  29.447  22.055  1.00  0.00    -0.052 S 
ATOM     14  C   UNL A   1      33.432  25.170  23.905  1.00  0.00     0.100 C 
ATOM     15  S   UNL A   1      34.243  24.356  22.479  1.00  0.00    -0.068 SA
ATOM     16  N   UNL A   1      34.040  24.748  25.122  1.00  0.00    -0.334 N 
ATOM     17  C   UNL A   1      35.383  23.542  23.583  1.00  0.00     0.037 A 
ATOM     18  C   UNL A   1      35.206  23.955  24.908  1.00  0.00     0.056 A 
ATOM     19  C   UNL A   1      36.340  22.590  23.253  1.00  0.00     0.017 A 
ATOM     20  C   UNL A   1      36.123  23.541  25.881  1.00  0.00     0.027 A 
ATOM     21  C   UNL A   1      37.200  22.115  24.250  1.00  0.00     0.001 A 
ATOM     22  C   UNL A   1      37.119  22.620  25.550  1.00  0.00     0.002 A 
BRANCH  16  23
ATOM     23  C   UNL A   1      33.434  24.495  26.426  1.00  0.00     0.124 C 
BRANCH  23  24
ATOM     24  C   UNL A   1      32.373  23.417  26.350  1.00  0.00     0.037 C 
BRANCH  24  25
ATOM     25  C   UNL A   1      32.981  22.055  26.386  1.00  0.00     0.124 C 
BRANCH  25  26
ATOM     26  S   UNL A   1      32.708  20.992  24.964  1.00  0.00     0.095 S 
ATOM     27  O   UNL A   1      31.897  19.896  25.385  1.00  0.00    -0.243 OA
ATOM     28  O   UNL A   1      32.342  21.795  23.807  1.00  0.00    -0.243 OA
ATOM     29  O   UNL A   1      34.133  20.317  24.686  1.00  0.00    -0.748 OA
ENDBRANCH  25  26
ENDBRANCH  24  25
ENDBRANCH  23  24
ENDBRANCH  16  23
ENDBRANCH   6   7
ENDBRANCH   4   6
ENDBRANCH   1   2
BRANCH   1  30
ATOM     30  C   UNL A   1      34.476  32.004  27.684  1.00  0.00     0.023 C 
BRANCH  30  31
ATOM     31  C   UNL A   1      34.816  32.981  28.831  1.00  0.00     0.023 C 
BRANCH  31  32
ATOM     32  C   UNL A   1      35.848  32.590  29.898  1.00  0.00     0.116 C 
BRANCH  32  33
ATOM     33  N   UNL A   1      35.645  31.417  30.736  1.00  0.00    -0.352 N 
ATOM     34  C   UNL A   1      36.588  30.503  31.199  1.00  0.00     0.251 C 
ATOM     35  H   UNL A   1      34.716  31.248  31.014  1.00  0.00     0.163 HD
ATOM     36  O   UNL A   1      36.275  29.737  32.110  1.00  0.00    -0.269 OA
BRANCH  34  37
ATOM     37  C   UNL A   1      37.933  30.344  30.567  1.00  0.00     0.039 A 
ATOM     38  C   UNL A   1      38.155  30.384  29.192  1.00  0.00     0.014 A 
ATOM     39  C   UNL A   1      39.038  30.170  31.409  1.00  0.00     0.014 A 
ATOM     40  C   UNL A   1      39.404  30.030  28.656  1.00  0.00     0.010 A 
ATOM     41  C   UNL A   1      40.308  29.895  30.877  1.00  0.00     0.010 A 
ATOM     42  C   UNL A   1      40.493  29.746  29.494  1.00  0.00    -0.014 A 
BRANCH  42  43
ATOM     43  C   UNL A   1      41.797  29.257  28.943  1.00  0.00     0.031 A 
ATOM     44  C   UNL A   1      42.990  30.184  28.859  1.00  0.00     0.074 A 
ATOM     45  C   UNL A   1      41.935  27.983  28.520  1.00  0.00     0.049 A 
ATOM     46  N   UNL A   1      44.197  29.943  28.408  1.00  0.00    -0.248 NA
ATOM     47  C   UNL A   1      42.803  31.563  29.341  1.00  0.00     0.031 C 
ATOM     48  C   UNL A   1      40.883  26.969  28.558  1.00  0.00     0.029 A 
ATOM     49  N   UNL A   1      43.018  27.319  27.988  1.00  0.00    -0.354 N 
ATOM     50  C   UNL A   1      44.899  31.140  28.524  1.00  0.00     0.074 A 
ATOM     51  C   UNL A   1      43.976  32.115  29.059  1.00  0.00     0.031 C 
ATOM     52  C   UNL A   1      41.381  25.804  28.113  1.00  0.00     0.029 A 
ATOM     53  C   UNL A   1      42.769  25.997  27.696  1.00  0.00     0.049 A 
ATOM     54  H   UNL A   1      43.889  27.750  27.829  1.00  0.00     0.167 HD
ATOM     55  C   UNL A   1      46.195  31.402  28.226  1.00  0.00     0.031 A 
ATOM     56  C   UNL A   1      43.554  25.041  27.152  1.00  0.00     0.031 A 
ATOM     57  C   UNL A   1      47.123  30.422  27.715  1.00  0.00     0.049 A 
ATOM     58  C   UNL A   1      44.977  25.362  26.785  1.00  0.00     0.074 A 
ATOM     59  C   UNL A   1      48.471  30.587  27.447  1.00  0.00     0.029 A 
ATOM     60  N   UNL A   1      46.810  29.112  27.387  1.00  0.00    -0.354 N 
ATOM     61  N   UNL A   1      45.634  26.483  26.951  1.00  0.00    -0.248 NA
ATOM     62  C   UNL A   1      45.769  24.289  26.163  1.00  0.00     0.031 C 
ATOM     63  C   UNL A   1      48.949  29.411  26.868  1.00  0.00     0.029 A 
ATOM     64  C   UNL A   1      47.927  28.475  26.870  1.00  0.00     0.049 A 
ATOM     65  H   UNL A   1      45.924  28.697  27.503  1.00  0.00     0.167 HD
ATOM     66  C   UNL A   1      46.920  26.248  26.475  1.00  0.00     0.074 A 
ATOM     67  C   UNL A   1      46.955  24.872  26.029  1.00  0.00     0.031 C 
ATOM     68  C   UNL A   1      47.971  27.103  26.417  1.00  0.00     0.031 A 
BRANCH  55  69
ATOM     69  C   UNL A   1      46.719  32.806  28.430  1.00  0.00    -0.014 A 
ATOM     70  C   UNL A   1      46.672  33.725  27.362  1.00  0.00     0.010 A 
ATOM     71  C   UNL A   1      47.372  33.181  29.617  1.00  0.00     0.010 A 
ATOM     72  C   UNL A   1      47.295  34.972  27.463  1.00  0.00     0.020 A 
ATOM     73  C   UNL A   1      47.967  34.443  29.736  1.00  0.00     0.020 A 
ATOM     74  C   UNL A   1      47.946  35.320  28.648  1.00  0.00     0.054 A 
BRANCH  74  75
ATOM     75  S   UNL A   1      48.773  36.932  28.751  1.00  0.00     0.124 S 
ATOM     76  O   UNL A   1      47.982  37.623  29.764  1.00  0.00    -0.237 OA
ATOM     77  O   UNL A   1      50.131  36.568  29.149  1.00  0.00    -0.237 OA
ATOM     78  O   UNL A   1      48.655  37.465  27.395  1.00  0.00    -0.744 OA
ENDBRANCH  74  75
ENDBRANCH  55  69
BRANCH  56  79
ATOM     79  C   UNL A   1      42.995  23.668  26.981  1.00  0.00    -0.014 A 
ATOM     80  C   UNL A   1      43.088  22.722  28.021  1.00  0.00     0.010 A 
ATOM     81  C   UNL A   1      42.490  23.261  25.734  1.00  0.00     0.010 A 
ATOM     82  C   UNL A   1      42.782  21.379  27.788  1.00  0.00     0.020 A 
ATOM     83  C   UNL A   1      42.147  21.924  25.507  1.00  0.00     0.020 A 
ATOM     84  C   UNL A   1      42.339  20.985  26.523  1.00  0.00     0.054 A 
BRANCH  84  85
ATOM     85  S   UNL A   1      42.084  19.217  26.205  1.00  0.00     0.124 S 
ATOM     86  O   UNL A   1      40.657  19.173  25.893  1.00  0.00    -0.237 OA
ATOM     87  O   UNL A   1      42.981  18.964  25.081  1.00  0.00    -0.237 OA
ATOM     88  O   UNL A   1      42.466  18.581  27.462  1.00  0.00    -0.744 OA
ENDBRANCH  84  85
ENDBRANCH  56  79
BRANCH  68  89
ATOM     89  C   UNL A   1      49.281  26.610  25.848  1.00  0.00    -0.014 A 
ATOM     90  C   UNL A   1      50.165  25.877  26.665  1.00  0.00     0.010 A 
ATOM     91  C   UNL A   1      49.709  27.004  24.568  1.00  0.00     0.010 A 
ATOM     92  C   UNL A   1      51.465  25.598  26.237  1.00  0.00     0.020 A 
ATOM     93  C   UNL A   1      50.997  26.694  24.121  1.00  0.00     0.020 A 
ATOM     94  C   UNL A   1      51.879  26.021  24.972  1.00  0.00     0.054 A 
BRANCH  94  95
ATOM     95  S   UNL A   1      53.591  25.706  24.463  1.00  0.00     0.124 S 
ATOM     96  O   UNL A   1      53.508  25.822  23.010  1.00  0.00    -0.237 OA
ATOM     97  O   UNL A   1      54.326  26.772  25.138  1.00  0.00    -0.237 OA
ATOM     98  O   UNL A   1      53.857  24.359  24.967  1.00  0.00    -0.744 OA
ENDBRANCH  94  95
ENDBRANCH  68  89
ENDBRANCH  42  43
ENDBRANCH  34  37
ENDBRANCH  32  33
ENDBRANCH  31  32
ENDBRANCH  30  31
ENDBRANCH   1  30
TORSDOF 19
ENDMDL
