MODEL 1
REMARK VINA RESULT:     -11.5      0.000      0.000
REMARK SMILES CC[C@]1(C(=O)NCCCCNC(=O)c2ccc(-c3c4nc(c(-c5ccc(S(=O)(=O)[O-])cc5)c5ccc([nH]5)c(-c5ccc(S(=O)(=O)[O-])cc5)c5nc(c(-c6ccc(S(=O)(=O)[O-])cc6)c6ccc3[nH]6)C=C5)C=C4)cc2)CCCN(C(=O)c2csc(C)c2-c2ccccc2)C1
REMARK SMILES IDX 8 1 7 2 6 3 4 4 5 5 3 7 74 8 92 9 75 10 77 11 76 12 2 13
REMARK SMILES IDX 1 14 78 15 79 16 80 17 81 18 85 19 82 20 83 21 84 22 86 23
REMARK SMILES IDX 87 24 91 25 88 26 90 27 89 28 9 29 10 30 11 31 12 32 13 34
REMARK SMILES IDX 14 35 15 36 73 37 16 38 72 39 17 40 18 41 19 42 66 43 20 44
REMARK SMILES IDX 71 45 65 46 67 47 21 48 70 49 64 50 63 51 22 53 52 54 33 55
REMARK SMILES IDX 51 56 34 57 37 58 50 59 68 60 35 61 36 62 49 64 69 65 38 66
REMARK SMILES IDX 23 67 24 68 32 69 25 70 31 71 26 72 27 73 28 74 29 75 30 76
REMARK SMILES IDX 53 77 54 78 62 79 55 80 61 81 56 82 57 83 58 84 59 85 60 86
REMARK SMILES IDX 39 87 40 88 48 89 41 90 47 91 42 92 43 93 44 94 45 95 46 96
REMARK H PARENT 6 6 11 33 67 52 37 63
REMARK Flexibility Score: inf
ROOT
ATOM      1  C   UNL A   1      35.118  30.218  27.731  1.00  0.00     0.023 C 
ENDROOT
BRANCH   1   2
ATOM      2  C   UNL A   1      34.488  29.014  27.030  1.00  0.00     0.116 C 
BRANCH   2   3
ATOM      3  N   UNL A   1      33.272  28.561  27.684  1.00  0.00    -0.356 N 
ATOM      4  C   UNL A   1      32.093  28.050  27.236  1.00  0.00     0.228 C 
ATOM      5  O   UNL A   1      31.259  27.816  28.117  1.00  0.00    -0.274 OA
ATOM      6  H   UNL A   1      33.309  28.641  28.664  1.00  0.00     0.163 HD
BRANCH   4   7
ATOM      7  C   UNL A   1      31.776  27.797  25.741  1.00  0.00     0.067 C 
ATOM      8  C   UNL A   1      31.272  29.122  25.107  1.00  0.00     0.020 C 
ATOM      9  C   UNL A   1      33.021  27.251  25.009  1.00  0.00     0.136 C 
ATOM     10  C   UNL A   1      31.192  29.077  23.583  1.00  0.00     0.023 C 
ATOM     11  N   UNL A   1      32.886  27.282  23.550  1.00  0.00    -0.338 N 
ATOM     12  C   UNL A   1      32.488  28.565  22.971  1.00  0.00     0.120 C 
BRANCH   7  13
ATOM     13  C   UNL A   1      30.594  26.763  25.637  1.00  0.00     0.015 C 
ATOM     14  C   UNL A   1      30.848  25.367  26.202  1.00  0.00     0.005 C 
ENDBRANCH   7  13
BRANCH  11  15
ATOM     15  C   UNL A   1      33.279  26.157  22.817  1.00  0.00     0.255 C 
ATOM     16  O   UNL A   1      34.160  26.192  21.963  1.00  0.00    -0.269 OA
BRANCH  15  17
ATOM     17  C   UNL A   1      32.587  24.906  23.101  1.00  0.00     0.058 A 
ATOM     18  C   UNL A   1      31.269  24.685  22.751  1.00  0.00     0.079 A 
ATOM     19  C   UNL A   1      33.173  23.738  23.706  1.00  0.00     0.008 A 
ATOM     20  S   UNL A   1      30.720  23.139  23.219  1.00  0.00    -0.148 S 
ATOM     21  C   UNL A   1      32.252  22.714  23.864  1.00  0.00     0.010 A 
ATOM     22  C   UNL A   1      32.422  21.361  24.477  1.00  0.00     0.057 C 
BRANCH  19  23
ATOM     23  C   UNL A   1      34.559  23.604  24.134  1.00  0.00    -0.016 A 
ATOM     24  C   UNL A   1      35.504  23.029  23.277  1.00  0.00     0.009 A 
ATOM     25  C   UNL A   1      34.959  24.079  25.387  1.00  0.00     0.009 A 
ATOM     26  C   UNL A   1      36.838  22.925  23.675  1.00  0.00     0.001 A 
ATOM     27  C   UNL A   1      36.294  23.979  25.779  1.00  0.00     0.001 A 
ATOM     28  C   UNL A   1      37.233  23.401  24.925  1.00  0.00     0.000 A 
ENDBRANCH  19  23
ENDBRANCH  15  17
ENDBRANCH  11  15
ENDBRANCH   4   7
ENDBRANCH   2   3
ENDBRANCH   1   2
BRANCH   1  29
ATOM     29  C   UNL A   1      34.582  31.591  27.318  1.00  0.00     0.023 C 
BRANCH  29  30
ATOM     30  C   UNL A   1      33.115  31.870  27.644  1.00  0.00     0.116 C 
BRANCH  30  31
ATOM     31  N   UNL A   1      32.828  33.280  27.841  1.00  0.00    -0.352 N 
ATOM     32  C   UNL A   1      33.452  34.192  28.658  1.00  0.00     0.251 C 
ATOM     33  H   UNL A   1      32.077  33.634  27.312  1.00  0.00     0.163 HD
ATOM     34  O   UNL A   1      33.000  35.331  28.741  1.00  0.00    -0.269 OA
BRANCH  32  35
ATOM     35  C   UNL A   1      34.628  33.801  29.467  1.00  0.00     0.039 A 
ATOM     36  C   UNL A   1      34.422  32.976  30.578  1.00  0.00     0.014 A 
ATOM     37  C   UNL A   1      35.917  34.249  29.159  1.00  0.00     0.014 A 
ATOM     38  C   UNL A   1      35.511  32.541  31.337  1.00  0.00     0.010 A 
ATOM     39  C   UNL A   1      37.007  33.791  29.900  1.00  0.00     0.010 A 
ATOM     40  C   UNL A   1      36.813  32.923  30.984  1.00  0.00    -0.014 A 
BRANCH  40  41
ATOM     41  C   UNL A   1      37.985  32.390  31.717  1.00  0.00     0.031 A 
ATOM     42  C   UNL A   1      38.835  31.309  31.120  1.00  0.00     0.074 A 
ATOM     43  C   UNL A   1      38.247  32.843  32.958  1.00  0.00     0.049 A 
ATOM     44  N   UNL A   1      39.832  30.657  31.660  1.00  0.00    -0.248 NA
ATOM     45  C   UNL A   1      38.511  30.899  29.746  1.00  0.00     0.031 C 
ATOM     46  C   UNL A   1      37.481  33.872  33.664  1.00  0.00     0.029 A 
ATOM     47  N   UNL A   1      39.227  32.483  33.848  1.00  0.00    -0.354 N 
ATOM     48  C   UNL A   1      40.235  29.730  30.708  1.00  0.00     0.074 A 
ATOM     49  C   UNL A   1      39.380  29.916  29.550  1.00  0.00     0.031 C 
ATOM     50  C   UNL A   1      38.026  34.067  34.876  1.00  0.00     0.029 A 
ATOM     51  C   UNL A   1      39.162  33.165  35.037  1.00  0.00     0.049 A 
ATOM     52  H   UNL A   1      39.910  31.803  33.652  1.00  0.00     0.167 HD
ATOM     53  C   UNL A   1      41.219  28.803  30.789  1.00  0.00     0.031 A 
ATOM     54  C   UNL A   1      39.928  33.072  36.140  1.00  0.00     0.031 A 
ATOM     55  C   UNL A   1      42.088  28.627  31.920  1.00  0.00     0.049 A 
ATOM     56  C   UNL A   1      41.059  32.089  36.182  1.00  0.00     0.074 A 
ATOM     57  C   UNL A   1      43.120  27.720  32.084  1.00  0.00     0.029 A 
ATOM     58  N   UNL A   1      42.033  29.384  33.079  1.00  0.00    -0.354 N 
ATOM     59  N   UNL A   1      41.423  31.221  35.269  1.00  0.00    -0.248 NA
ATOM     60  C   UNL A   1      41.881  32.075  37.399  1.00  0.00     0.031 C 
ATOM     61  C   UNL A   1      43.693  27.932  33.346  1.00  0.00     0.029 A 
ATOM     62  C   UNL A   1      43.017  28.973  33.960  1.00  0.00     0.049 A 
ATOM     63  H   UNL A   1      41.389  30.109  33.250  1.00  0.00     0.167 HD
ATOM     64  C   UNL A   1      42.519  30.556  35.802  1.00  0.00     0.074 A 
ATOM     65  C   UNL A   1      42.763  31.127  37.112  1.00  0.00     0.031 C 
ATOM     66  C   UNL A   1      43.252  29.556  35.256  1.00  0.00     0.031 A 
BRANCH  53  67
ATOM     67  C   UNL A   1      41.373  27.891  29.609  1.00  0.00    -0.014 A 
ATOM     68  C   UNL A   1      40.507  26.800  29.427  1.00  0.00     0.010 A 
ATOM     69  C   UNL A   1      42.416  28.108  28.692  1.00  0.00     0.010 A 
ATOM     70  C   UNL A   1      40.710  25.910  28.369  1.00  0.00     0.020 A 
ATOM     71  C   UNL A   1      42.618  27.224  27.631  1.00  0.00     0.020 A 
ATOM     72  C   UNL A   1      41.777  26.116  27.490  1.00  0.00     0.054 A 
BRANCH  72  73
ATOM     73  S   UNL A   1      42.069  24.945  26.136  1.00  0.00     0.124 S 
ATOM     74  O   UNL A   1      41.980  25.814  24.966  1.00  0.00    -0.237 OA
ATOM     75  O   UNL A   1      43.401  24.419  26.426  1.00  0.00    -0.237 OA
ATOM     76  O   UNL A   1      40.980  23.982  26.287  1.00  0.00    -0.744 OA
ENDBRANCH  72  73
ENDBRANCH  53  67
BRANCH  54  77
ATOM     77  C   UNL A   1      39.641  33.955  37.297  1.00  0.00    -0.014 A 
ATOM     78  C   UNL A   1      38.829  33.495  38.346  1.00  0.00     0.010 A 
ATOM     79  C   UNL A   1      40.230  35.227  37.379  1.00  0.00     0.010 A 
ATOM     80  C   UNL A   1      38.616  34.294  39.472  1.00  0.00     0.020 A 
ATOM     81  C   UNL A   1      40.023  36.026  38.506  1.00  0.00     0.020 A 
ATOM     82  C   UNL A   1      39.215  35.554  39.546  1.00  0.00     0.054 A 
BRANCH  82  83
ATOM     83  S   UNL A   1      39.022  36.556  41.047  1.00  0.00     0.124 S 
ATOM     84  O   UNL A   1      40.369  36.523  41.608  1.00  0.00    -0.237 OA
ATOM     85  O   UNL A   1      38.586  37.850  40.528  1.00  0.00    -0.237 OA
ATOM     86  O   UNL A   1      38.006  35.824  41.800  1.00  0.00    -0.744 OA
ENDBRANCH  82  83
ENDBRANCH  54  77
BRANCH  66  87
ATOM     87  C   UNL A   1      44.393  29.029  36.073  1.00  0.00    -0.014 A 
ATOM     88  C   UNL A   1      44.203  27.940  36.940  1.00  0.00     0.010 A 
ATOM     89  C   UNL A   1      45.667  29.611  35.960  1.00  0.00     0.010 A 
ATOM     90  C   UNL A   1      45.269  27.451  37.700  1.00  0.00     0.020 A 
ATOM     91  C   UNL A   1      46.735  29.122  36.715  1.00  0.00     0.020 A 
ATOM     92  C   UNL A   1      46.527  28.051  37.589  1.00  0.00     0.054 A 
BRANCH  92  93
ATOM     93  S   UNL A   1      47.921  27.399  38.550  1.00  0.00     0.124 S 
ATOM     94  O   UNL A   1      48.736  26.773  37.514  1.00  0.00    -0.237 OA
ATOM     95  O   UNL A   1      48.495  28.595  39.163  1.00  0.00    -0.237 OA
ATOM     96  O   UNL A   1      47.279  26.478  39.486  1.00  0.00    -0.744 OA
ENDBRANCH  92  93
ENDBRANCH  66  87
ENDBRANCH  40  41
ENDBRANCH  32  35
ENDBRANCH  30  31
ENDBRANCH  29  30
ENDBRANCH   1  29
TORSDOF 18
ENDMDL
MODEL 2
REMARK VINA RESULT:     -11.3      6.075      8.302
REMARK SMILES CC[C@]1(C(=O)NCCCCNC(=O)c2ccc(-c3c4nc(c(-c5ccc(S(=O)(=O)[O-])cc5)c5ccc([nH]5)c(-c5ccc(S(=O)(=O)[O-])cc5)c5nc(c(-c6ccc(S(=O)(=O)[O-])cc6)c6ccc3[nH]6)C=C5)C=C4)cc2)CCCN(C(=O)c2csc(C)c2-c2ccccc2)C1
REMARK SMILES IDX 8 1 7 2 6 3 4 4 5 5 3 7 74 8 92 9 75 10 77 11 76 12 2 13
REMARK SMILES IDX 1 14 78 15 79 16 80 17 81 18 85 19 82 20 83 21 84 22 86 23
REMARK SMILES IDX 87 24 91 25 88 26 90 27 89 28 9 29 10 30 11 31 12 32 13 34
REMARK SMILES IDX 14 35 15 36 73 37 16 38 72 39 17 40 18 41 19 42 66 43 20 44
REMARK SMILES IDX 71 45 65 46 67 47 21 48 70 49 64 50 63 51 22 53 52 54 33 55
REMARK SMILES IDX 51 56 34 57 37 58 50 59 68 60 35 61 36 62 49 64 69 65 38 66
REMARK SMILES IDX 23 67 24 68 32 69 25 70 31 71 26 72 27 73 28 74 29 75 30 76
REMARK SMILES IDX 53 77 54 78 62 79 55 80 61 81 56 82 57 83 58 84 59 85 60 86
REMARK SMILES IDX 39 87 40 88 48 89 41 90 47 91 42 92 43 93 44 94 45 95 46 96
REMARK H PARENT 6 6 11 33 67 52 37 63
REMARK Flexibility Score: inf
ROOT
ATOM      1  C   UNL A   1      33.251  29.249  26.725  1.00  0.00     0.023 C 
ENDROOT
BRANCH   1   2
ATOM      2  C   UNL A   1      32.279  28.109  27.033  1.00  0.00     0.116 C 
BRANCH   2   3
ATOM      3  N   UNL A   1      31.333  27.875  25.956  1.00  0.00    -0.356 N 
ATOM      4  C   UNL A   1      31.031  26.799  25.180  1.00  0.00     0.228 C 
ATOM      5  O   UNL A   1      30.172  27.004  24.316  1.00  0.00    -0.274 OA
ATOM      6  H   UNL A   1      30.792  28.669  25.739  1.00  0.00     0.163 HD
BRANCH   4   7
ATOM      7  C   UNL A   1      31.714  25.415  25.323  1.00  0.00     0.067 C 
ATOM      8  C   UNL A   1      31.325  24.806  26.697  1.00  0.00     0.020 C 
ATOM      9  C   UNL A   1      31.312  24.491  24.153  1.00  0.00     0.136 C 
ATOM     10  C   UNL A   1      31.705  23.334  26.840  1.00  0.00     0.023 C 
ATOM     11  N   UNL A   1      31.670  23.088  24.385  1.00  0.00    -0.338 N 
ATOM     12  C   UNL A   1      31.221  22.514  25.653  1.00  0.00     0.120 C 
BRANCH   7  13
ATOM     13  C   UNL A   1      33.275  25.616  25.338  1.00  0.00     0.015 C 
ATOM     14  C   UNL A   1      33.972  25.699  23.981  1.00  0.00     0.005 C 
ENDBRANCH   7  13
BRANCH  11  15
ATOM     15  C   UNL A   1      32.268  22.370  23.344  1.00  0.00     0.255 C 
ATOM     16  O   UNL A   1      32.335  22.792  22.194  1.00  0.00    -0.269 OA
BRANCH  15  17
ATOM     17  C   UNL A   1      32.821  21.062  23.675  1.00  0.00     0.058 A 
ATOM     18  C   UNL A   1      32.165  19.879  23.390  1.00  0.00     0.079 A 
ATOM     19  C   UNL A   1      34.112  20.818  24.263  1.00  0.00     0.008 A 
ATOM     20  S   UNL A   1      33.042  18.508  23.900  1.00  0.00    -0.148 S 
ATOM     21  C   UNL A   1      34.342  19.467  24.477  1.00  0.00     0.010 A 
ATOM     22  C   UNL A   1      35.518  18.783  25.096  1.00  0.00     0.057 C 
BRANCH  19  23
ATOM     23  C   UNL A   1      35.089  21.835  24.627  1.00  0.00    -0.016 A 
ATOM     24  C   UNL A   1      35.089  22.376  25.918  1.00  0.00     0.009 A 
ATOM     25  C   UNL A   1      36.051  22.252  23.702  1.00  0.00     0.009 A 
ATOM     26  C   UNL A   1      36.041  23.331  26.277  1.00  0.00     0.001 A 
ATOM     27  C   UNL A   1      37.006  23.203  24.066  1.00  0.00     0.001 A 
ATOM     28  C   UNL A   1      37.000  23.744  25.352  1.00  0.00     0.000 A 
ENDBRANCH  19  23
ENDBRANCH  15  17
ENDBRANCH  11  15
ENDBRANCH   4   7
ENDBRANCH   2   3
ENDBRANCH   1   2
BRANCH   1  29
ATOM     29  C   UNL A   1      34.734  28.949  26.963  1.00  0.00     0.023 C 
BRANCH  29  30
ATOM     30  C   UNL A   1      35.533  30.027  27.694  1.00  0.00     0.116 C 
BRANCH  30  31
ATOM     31  N   UNL A   1      35.445  29.926  29.140  1.00  0.00    -0.352 N 
ATOM     32  C   UNL A   1      36.438  29.681  30.059  1.00  0.00     0.251 C 
ATOM     33  H   UNL A   1      34.545  30.049  29.517  1.00  0.00     0.163 HD
ATOM     34  O   UNL A   1      36.141  29.553  31.244  1.00  0.00    -0.269 OA
BRANCH  32  35
ATOM     35  C   UNL A   1      37.845  29.529  29.628  1.00  0.00     0.039 A 
ATOM     36  C   UNL A   1      38.813  29.282  30.607  1.00  0.00     0.014 A 
ATOM     37  C   UNL A   1      38.222  29.643  28.286  1.00  0.00     0.014 A 
ATOM     38  C   UNL A   1      40.145  29.079  30.239  1.00  0.00     0.010 A 
ATOM     39  C   UNL A   1      39.548  29.411  27.915  1.00  0.00     0.010 A 
ATOM     40  C   UNL A   1      40.514  29.114  28.886  1.00  0.00    -0.014 A 
BRANCH  40  41
ATOM     41  C   UNL A   1      41.902  28.801  28.470  1.00  0.00     0.031 A 
ATOM     42  C   UNL A   1      42.270  27.425  28.004  1.00  0.00     0.074 A 
ATOM     43  C   UNL A   1      42.850  29.752  28.573  1.00  0.00     0.049 A 
ATOM     44  N   UNL A   1      43.450  26.950  27.700  1.00  0.00    -0.248 NA
ATOM     45  C   UNL A   1      41.171  26.455  27.876  1.00  0.00     0.031 C 
ATOM     46  C   UNL A   1      42.629  31.122  29.039  1.00  0.00     0.029 A 
ATOM     47  N   UNL A   1      44.193  29.702  28.302  1.00  0.00    -0.354 N 
ATOM     48  C   UNL A   1      43.247  25.613  27.382  1.00  0.00     0.074 A 
ATOM     49  C   UNL A   1      41.825  25.359  27.517  1.00  0.00     0.031 C 
ATOM     50  C   UNL A   1      43.796  31.786  29.013  1.00  0.00     0.029 A 
ATOM     51  C   UNL A   1      44.846  30.884  28.549  1.00  0.00     0.049 A 
ATOM     52  H   UNL A   1      44.646  28.896  27.963  1.00  0.00     0.167 HD
ATOM     53  C   UNL A   1      44.159  24.680  27.019  1.00  0.00     0.031 A 
ATOM     54  C   UNL A   1      46.147  31.206  28.424  1.00  0.00     0.031 A 
ATOM     55  C   UNL A   1      45.564  24.926  26.857  1.00  0.00     0.049 A 
ATOM     56  C   UNL A   1      47.128  30.177  27.950  1.00  0.00     0.074 A 
ATOM     57  C   UNL A   1      46.560  24.041  26.481  1.00  0.00     0.029 A 
ATOM     58  N   UNL A   1      46.175  26.154  27.052  1.00  0.00    -0.354 N 
ATOM     59  N   UNL A   1      46.914  28.918  27.655  1.00  0.00    -0.248 NA
ATOM     60  C   UNL A   1      48.522  30.613  27.792  1.00  0.00     0.031 C 
ATOM     61  C   UNL A   1      47.776  24.738  26.446  1.00  0.00     0.029 A 
ATOM     62  C   UNL A   1      47.532  26.056  26.796  1.00  0.00     0.049 A 
ATOM     63  H   UNL A   1      45.711  26.977  27.331  1.00  0.00     0.167 HD
ATOM     64  C   UNL A   1      48.148  28.409  27.275  1.00  0.00     0.074 A 
ATOM     65  C   UNL A   1      49.102  29.497  27.370  1.00  0.00     0.031 C 
ATOM     66  C   UNL A   1      48.464  27.148  26.888  1.00  0.00     0.031 A 
BRANCH  53  67
ATOM     67  C   UNL A   1      43.637  23.290  26.802  1.00  0.00    -0.014 A 
ATOM     68  C   UNL A   1      43.008  22.588  27.844  1.00  0.00     0.010 A 
ATOM     69  C   UNL A   1      43.811  22.669  25.553  1.00  0.00     0.010 A 
ATOM     70  C   UNL A   1      42.600  21.266  27.655  1.00  0.00     0.020 A 
ATOM     71  C   UNL A   1      43.398  21.350  25.359  1.00  0.00     0.020 A 
ATOM     72  C   UNL A   1      42.817  20.648  26.419  1.00  0.00     0.054 A 
BRANCH  72  73
ATOM     73  S   UNL A   1      42.322  18.919  26.178  1.00  0.00     0.124 S 
ATOM     74  O   UNL A   1      43.241  18.491  25.126  1.00  0.00    -0.237 OA
ATOM     75  O   UNL A   1      42.548  18.317  27.490  1.00  0.00    -0.237 OA
ATOM     76  O   UNL A   1      40.920  19.026  25.780  1.00  0.00    -0.744 OA
ENDBRANCH  72  73
ENDBRANCH  53  67
BRANCH  54  77
ATOM     77  C   UNL A   1      46.584  32.585  28.751  1.00  0.00    -0.014 A 
ATOM     78  C   UNL A   1      47.054  32.885  30.040  1.00  0.00     0.010 A 
ATOM     79  C   UNL A   1      46.593  33.579  27.759  1.00  0.00     0.010 A 
ATOM     80  C   UNL A   1      47.537  34.163  30.333  1.00  0.00     0.020 A 
ATOM     81  C   UNL A   1      47.081  34.856  28.048  1.00  0.00     0.020 A 
ATOM     82  C   UNL A   1      47.548  35.140  29.335  1.00  0.00     0.054 A 
BRANCH  82  83
ATOM     83  S   UNL A   1      48.265  36.771  29.680  1.00  0.00     0.124 S 
ATOM     84  O   UNL A   1      47.073  37.597  29.846  1.00  0.00    -0.237 OA
ATOM     85  O   UNL A   1      49.046  36.539  30.893  1.00  0.00    -0.237 OA
ATOM     86  O   UNL A   1      49.059  37.040  28.483  1.00  0.00    -0.744 OA
ENDBRANCH  82  83
ENDBRANCH  54  77
BRANCH  66  87
ATOM     87  C   UNL A   1      49.896  26.890  26.529  1.00  0.00    -0.014 A 
ATOM     88  C   UNL A   1      50.332  27.029  25.200  1.00  0.00     0.010 A 
ATOM     89  C   UNL A   1      50.817  26.525  27.525  1.00  0.00     0.010 A 
ATOM     90  C   UNL A   1      51.668  26.789  24.868  1.00  0.00     0.020 A 
ATOM     91  C   UNL A   1      52.154  26.288  27.197  1.00  0.00     0.020 A 
ATOM     92  C   UNL A   1      52.568  26.410  25.868  1.00  0.00     0.054 A 
BRANCH  92  93
ATOM     93  S   UNL A   1      54.310  26.127  25.446  1.00  0.00     0.124 S 
ATOM     94  O   UNL A   1      54.687  27.403  24.845  1.00  0.00    -0.237 OA
ATOM     95  O   UNL A   1      54.926  25.837  26.739  1.00  0.00    -0.237 OA
ATOM     96  O   UNL A   1      54.252  24.993  24.526  1.00  0.00    -0.744 OA
ENDBRANCH  92  93
ENDBRANCH  66  87
ENDBRANCH  40  41
ENDBRANCH  32  35
ENDBRANCH  30  31
ENDBRANCH  29  30
ENDBRANCH   1  29
TORSDOF 18
ENDMDL
MODEL 3
REMARK VINA RESULT:     -11.3      6.102     10.374
REMARK SMILES CC[C@]1(C(=O)NCCCCNC(=O)c2ccc(-c3c4nc(c(-c5ccc(S(=O)(=O)[O-])cc5)c5ccc([nH]5)c(-c5ccc(S(=O)(=O)[O-])cc5)c5nc(c(-c6ccc(S(=O)(=O)[O-])cc6)c6ccc3[nH]6)C=C5)C=C4)cc2)CCCN(C(=O)c2csc(C)c2-c2ccccc2)C1
REMARK SMILES IDX 8 1 7 2 6 3 4 4 5 5 3 7 74 8 92 9 75 10 77 11 76 12 2 13
REMARK SMILES IDX 1 14 78 15 79 16 80 17 81 18 85 19 82 20 83 21 84 22 86 23
REMARK SMILES IDX 87 24 91 25 88 26 90 27 89 28 9 29 10 30 11 31 12 32 13 34
REMARK SMILES IDX 14 35 15 36 73 37 16 38 72 39 17 40 18 41 19 42 66 43 20 44
REMARK SMILES IDX 71 45 65 46 67 47 21 48 70 49 64 50 63 51 22 53 52 54 33 55
REMARK SMILES IDX 51 56 34 57 37 58 50 59 68 60 35 61 36 62 49 64 69 65 38 66
REMARK SMILES IDX 23 67 24 68 32 69 25 70 31 71 26 72 27 73 28 74 29 75 30 76
REMARK SMILES IDX 53 77 54 78 62 79 55 80 61 81 56 82 57 83 58 84 59 85 60 86
REMARK SMILES IDX 39 87 40 88 48 89 41 90 47 91 42 92 43 93 44 94 45 95 46 96
REMARK H PARENT 6 6 11 33 67 52 37 63
REMARK Flexibility Score: inf
ROOT
ATOM      1  C   UNL A   1      32.899  30.105  26.354  1.00  0.00     0.023 C 
ENDROOT
BRANCH   1   2
ATOM      2  C   UNL A   1      33.011  29.747  24.872  1.00  0.00     0.116 C 
BRANCH   2   3
ATOM      3  N   UNL A   1      31.715  29.544  24.246  1.00  0.00    -0.356 N 
ATOM      4  C   UNL A   1      31.061  28.455  23.760  1.00  0.00     0.228 C 
ATOM      5  O   UNL A   1      29.961  28.693  23.251  1.00  0.00    -0.274 OA
ATOM      6  H   UNL A   1      31.197  30.376  24.154  1.00  0.00     0.163 HD
BRANCH   4   7
ATOM      7  C   UNL A   1      31.636  27.016  23.798  1.00  0.00     0.067 C 
ATOM      8  C   UNL A   1      31.403  26.350  22.414  1.00  0.00     0.020 C 
ATOM      9  C   UNL A   1      33.133  27.043  24.175  1.00  0.00     0.136 C 
ATOM     10  C   UNL A   1      32.168  25.041  22.234  1.00  0.00     0.023 C 
ATOM     11  N   UNL A   1      33.807  25.764  23.930  1.00  0.00    -0.338 N 
ATOM     12  C   UNL A   1      33.638  25.197  22.592  1.00  0.00     0.120 C 
BRANCH   7  13
ATOM     13  C   UNL A   1      30.830  26.171  24.852  1.00  0.00     0.015 C 
ATOM     14  C   UNL A   1      31.206  26.362  26.321  1.00  0.00     0.005 C 
ENDBRANCH   7  13
BRANCH  11  15
ATOM     15  C   UNL A   1      34.663  25.260  24.915  1.00  0.00     0.255 C 
ATOM     16  O   UNL A   1      35.036  25.923  25.878  1.00  0.00    -0.269 OA
BRANCH  15  17
ATOM     17  C   UNL A   1      35.119  23.884  24.755  1.00  0.00     0.058 A 
ATOM     18  C   UNL A   1      36.391  23.564  24.318  1.00  0.00     0.079 A 
ATOM     19  C   UNL A   1      34.363  22.703  25.080  1.00  0.00     0.008 A 
ATOM     20  S   UNL A   1      36.641  21.880  24.215  1.00  0.00    -0.148 S 
ATOM     21  C   UNL A   1      35.062  21.540  24.795  1.00  0.00     0.010 A 
ATOM     22  C   UNL A   1      34.643  20.113  24.937  1.00  0.00     0.057 C 
BRANCH  19  23
ATOM     23  C   UNL A   1      33.014  22.679  25.627  1.00  0.00    -0.016 A 
ATOM     24  C   UNL A   1      32.814  22.831  27.004  1.00  0.00     0.009 A 
ATOM     25  C   UNL A   1      31.911  22.539  24.779  1.00  0.00     0.009 A 
ATOM     26  C   UNL A   1      31.520  22.836  27.528  1.00  0.00     0.001 A 
ATOM     27  C   UNL A   1      30.618  22.551  25.305  1.00  0.00     0.001 A 
ATOM     28  C   UNL A   1      30.423  22.697  26.678  1.00  0.00     0.000 A 
ENDBRANCH  19  23
ENDBRANCH  15  17
ENDBRANCH  11  15
ENDBRANCH   4   7
ENDBRANCH   2   3
ENDBRANCH   1   2
BRANCH   1  29
ATOM     29  C   UNL A   1      33.744  29.262  27.314  1.00  0.00     0.023 C 
BRANCH  29  30
ATOM     30  C   UNL A   1      35.115  29.828  27.682  1.00  0.00     0.116 C 
BRANCH  30  31
ATOM     31  N   UNL A   1      35.133  30.498  28.970  1.00  0.00    -0.352 N 
ATOM     32  C   UNL A   1      36.162  30.627  29.872  1.00  0.00     0.251 C 
ATOM     33  H   UNL A   1      34.285  30.921  29.236  1.00  0.00     0.163 HD
ATOM     34  O   UNL A   1      35.948  31.169  30.953  1.00  0.00    -0.269 OA
BRANCH  32  35
ATOM     35  C   UNL A   1      37.504  30.080  29.571  1.00  0.00     0.039 A 
ATOM     36  C   UNL A   1      37.928  30.066  28.238  1.00  0.00     0.014 A 
ATOM     37  C   UNL A   1      38.334  29.569  30.574  1.00  0.00     0.014 A 
ATOM     38  C   UNL A   1      39.208  29.608  27.917  1.00  0.00     0.010 A 
ATOM     39  C   UNL A   1      39.623  29.139  30.256  1.00  0.00     0.010 A 
ATOM     40  C   UNL A   1      40.074  29.169  28.929  1.00  0.00    -0.014 A 
BRANCH  40  41
ATOM     41  C   UNL A   1      41.467  28.775  28.617  1.00  0.00     0.031 A 
ATOM     42  C   UNL A   1      42.570  29.790  28.626  1.00  0.00     0.074 A 
ATOM     43  C   UNL A   1      41.728  27.503  28.263  1.00  0.00     0.049 A 
ATOM     44  N   UNL A   1      43.823  29.644  28.281  1.00  0.00    -0.248 NA
ATOM     45  C   UNL A   1      42.214  31.148  29.066  1.00  0.00     0.031 C 
ATOM     46  C   UNL A   1      40.741  26.424  28.187  1.00  0.00     0.029 A 
ATOM     47  N   UNL A   1      42.905  26.907  27.888  1.00  0.00    -0.354 N 
ATOM     48  C   UNL A   1      44.402  30.898  28.424  1.00  0.00     0.074 A 
ATOM     49  C   UNL A   1      43.363  31.790  28.900  1.00  0.00     0.031 C 
ATOM     50  C   UNL A   1      41.355  25.295  27.798  1.00  0.00     0.029 A 
ATOM     51  C   UNL A   1      42.771  25.576  27.580  1.00  0.00     0.049 A 
ATOM     52  H   UNL A   1      43.764  27.386  27.845  1.00  0.00     0.167 HD
ATOM     53  C   UNL A   1      45.678  31.277  28.172  1.00  0.00     0.031 A 
ATOM     54  C   UNL A   1      43.684  24.680  27.160  1.00  0.00     0.031 A 
ATOM     55  C   UNL A   1      46.721  30.397  27.725  1.00  0.00     0.049 A 
ATOM     56  C   UNL A   1      45.107  25.104  26.959  1.00  0.00     0.074 A 
ATOM     57  C   UNL A   1      48.047  30.694  27.457  1.00  0.00     0.029 A 
ATOM     58  N   UNL A   1      46.560  29.042  27.489  1.00  0.00    -0.354 N 
ATOM     59  N   UNL A   1      45.634  26.297  27.100  1.00  0.00    -0.248 NA
ATOM     60  C   UNL A   1      46.058  24.063  26.545  1.00  0.00     0.031 C 
ATOM     61  C   UNL A   1      48.689  29.512  27.060  1.00  0.00     0.029 A 
ATOM     62  C   UNL A   1      47.761  28.484  27.087  1.00  0.00     0.049 A 
ATOM     63  H   UNL A   1      45.714  28.548  27.593  1.00  0.00     0.167 HD
ATOM     64  C   UNL A   1      46.979  26.150  26.791  1.00  0.00     0.074 A 
ATOM     65  C   UNL A   1      47.188  24.753  26.465  1.00  0.00     0.031 C 
ATOM     66  C   UNL A   1      47.954  27.092  26.774  1.00  0.00     0.031 A 
BRANCH  53  67
ATOM     67  C   UNL A   1      45.988  32.732  28.361  1.00  0.00    -0.014 A 
ATOM     68  C   UNL A   1      45.779  33.652  27.319  1.00  0.00     0.010 A 
ATOM     69  C   UNL A   1      46.528  33.177  29.580  1.00  0.00     0.010 A 
ATOM     70  C   UNL A   1      46.148  34.990  27.477  1.00  0.00     0.020 A 
ATOM     71  C   UNL A   1      46.892  34.515  29.743  1.00  0.00     0.020 A 
ATOM     72  C   UNL A   1      46.722  35.409  28.681  1.00  0.00     0.054 A 
BRANCH  72  73
ATOM     73  S   UNL A   1      47.237  37.136  28.881  1.00  0.00     0.124 S 
ATOM     74  O   UNL A   1      48.172  37.041  29.999  1.00  0.00    -0.237 OA
ATOM     75  O   UNL A   1      47.837  37.461  27.589  1.00  0.00    -0.237 OA
ATOM     76  O   UNL A   1      45.982  37.828  29.170  1.00  0.00    -0.744 OA
ENDBRANCH  72  73
ENDBRANCH  53  67
BRANCH  54  77
ATOM     77  C   UNL A   1      43.262  23.280  26.912  1.00  0.00    -0.014 A 
ATOM     78  C   UNL A   1      43.123  22.812  25.595  1.00  0.00     0.010 A 
ATOM     79  C   UNL A   1      43.063  22.400  27.987  1.00  0.00     0.010 A 
ATOM     80  C   UNL A   1      42.798  21.475  25.354  1.00  0.00     0.020 A 
ATOM     81  C   UNL A   1      42.744  21.061  27.749  1.00  0.00     0.020 A 
ATOM     82  C   UNL A   1      42.611  20.607  26.433  1.00  0.00     0.054 A 
BRANCH  82  83
ATOM     83  S   UNL A   1      42.287  18.848  26.126  1.00  0.00     0.124 S 
ATOM     84  O   UNL A   1      43.300  18.523  25.127  1.00  0.00    -0.237 OA
ATOM     85  O   UNL A   1      42.480  18.241  27.442  1.00  0.00    -0.237 OA
ATOM     86  O   UNL A   1      40.906  18.848  25.650  1.00  0.00    -0.744 OA
ENDBRANCH  82  83
ENDBRANCH  54  77
BRANCH  66  87
ATOM     87  C   UNL A   1      49.331  26.634  26.401  1.00  0.00    -0.014 A 
ATOM     88  C   UNL A   1      50.154  26.007  27.354  1.00  0.00     0.010 A 
ATOM     89  C   UNL A   1      49.801  26.812  25.089  1.00  0.00     0.010 A 
ATOM     90  C   UNL A   1      51.437  25.580  27.003  1.00  0.00     0.020 A 
ATOM     91  C   UNL A   1      51.082  26.382  24.735  1.00  0.00     0.020 A 
ATOM     92  C   UNL A   1      51.897  25.779  25.698  1.00  0.00     0.054 A 
BRANCH  92  93
ATOM     93  S   UNL A   1      53.551  25.197  25.231  1.00  0.00     0.124 S 
ATOM     94  O   UNL A   1      53.412  23.750  25.365  1.00  0.00    -0.237 OA
ATOM     95  O   UNL A   1      53.706  25.688  23.863  1.00  0.00    -0.237 OA
ATOM     96  O   UNL A   1      54.421  25.838  26.215  1.00  0.00    -0.744 OA
ENDBRANCH  92  93
ENDBRANCH  66  87
ENDBRANCH  40  41
ENDBRANCH  32  35
ENDBRANCH  30  31
ENDBRANCH  29  30
ENDBRANCH   1  29
TORSDOF 18
ENDMDL
