MODEL 1
REMARK VINA RESULT:     -12.2      0.000      0.000
REMARK SMILES COc1ccc(NC2=[NH+]C(=O)/C(=C\c3ccccc3C(=O)NCCCCNC(=O)c3ccc(-c4c5nc(c(-c6ccc(S(=O)(=O)[O-])cc6)c6ccc([nH]6)c(-c6ccc(S(=O)(=O)[O-])cc6)c6nc(c(-c7ccc(S(=O)(=O)[O-])cc7)c7ccc4[nH]7)C=C6)C=C5)cc3)S2)cc1
REMARK SMILES IDX 24 1 23 2 22 3 20 4 21 5 19 7 14 8 15 9 16 10 18 11 17 12
REMARK SMILES IDX 13 13 7 14 8 15 9 17 90 18 10 19 12 21 11 22 6 23 3 24 4 25
REMARK SMILES IDX 92 26 5 27 91 28 2 29 1 30 25 31 26 32 27 33 28 34 29 36
REMARK SMILES IDX 30 37 31 38 89 39 32 40 88 41 33 42 34 43 35 44 82 45 36 46
REMARK SMILES IDX 87 47 81 48 83 49 37 50 86 51 80 52 79 53 38 55 68 56 49 57
REMARK SMILES IDX 67 58 50 59 53 60 66 61 84 62 51 63 52 64 65 66 85 67 54 68
REMARK SMILES IDX 39 69 40 70 48 71 41 72 47 73 42 74 43 75 44 76 45 77 46 78
REMARK SMILES IDX 69 79 70 80 78 81 71 82 77 83 72 84 73 85 74 86 75 87 76 88
REMARK SMILES IDX 55 89 56 90 64 91 57 92 63 93 58 94 59 95 60 96 61 97 62 98
REMARK H PARENT 22 6 7 16 9 20 27 35 83 54 53 65
REMARK Flexibility Score: inf
ROOT
ATOM      1  C   UNL A   1      31.095  27.223  26.455  1.00  0.00     0.023 C 
ENDROOT
BRANCH   1   2
ATOM      2  C   UNL A   1      31.659  25.869  26.040  1.00  0.00     0.116 C 
BRANCH   2   3
ATOM      3  N   UNL A   1      30.753  24.739  26.008  1.00  0.00    -0.352 N 
ATOM      4  C   UNL A   1      31.000  23.396  26.233  1.00  0.00     0.251 C 
ATOM      5  O   UNL A   1      30.028  22.647  26.333  1.00  0.00    -0.269 OA
ATOM      6  H   UNL A   1      29.818  24.960  25.794  1.00  0.00     0.163 HD
BRANCH   4   7
ATOM      7  C   UNL A   1      32.374  22.796  26.213  1.00  0.00     0.047 A 
ATOM      8  C   UNL A   1      33.157  22.468  25.083  1.00  0.00    -0.011 A 
ATOM      9  C   UNL A   1      34.312  21.684  25.274  1.00  0.00     0.009 A 
ATOM     10  C   UNL A   1      34.767  21.360  26.554  1.00  0.00     0.001 A 
ATOM     11  C   UNL A   1      32.898  22.538  27.499  1.00  0.00     0.014 A 
ATOM     12  C   UNL A   1      34.090  21.835  27.669  1.00  0.00     0.001 A 
BRANCH   8  13
ATOM     13  C   UNL A   1      32.874  22.871  23.689  1.00  0.00     0.032 C 
ATOM     14  N   UNL A   1      32.081  27.318  21.862  1.00  0.00    -0.235 N 
ATOM     15  C   UNL A   1      32.822  26.294  22.383  1.00  0.00     0.322 C 
ATOM     16  H   UNL A   1      32.317  27.661  20.970  1.00  0.00     0.313 HD
ATOM     17  N   UNL A   1      33.621  26.337  23.397  1.00  0.00    -0.199 N 
ATOM     18  S   UNL A   1      32.592  24.689  21.673  1.00  0.00     0.006 SA
ATOM     19  C   UNL A   1      34.088  25.095  23.752  1.00  0.00     0.346 C 
ATOM     20  H   UNL A   1      33.868  27.168  23.864  1.00  0.00     0.316 HD
ATOM     21  C   UNL A   1      33.254  24.031  23.130  1.00  0.00     0.110 C 
ATOM     22  O   UNL A   1      35.059  24.862  24.459  1.00  0.00    -0.240 OA
BRANCH  14  23
ATOM     23  C   UNL A   1      30.991  27.910  22.544  1.00  0.00     0.125 A 
ATOM     24  C   UNL A   1      28.626  29.237  23.293  1.00  0.00     0.119 A 
ATOM     25  C   UNL A   1      28.682  27.853  23.319  1.00  0.00     0.051 A 
ATOM     26  C   UNL A   1      29.814  29.943  23.176  1.00  0.00     0.051 A 
ATOM     27  C   UNL A   1      29.867  27.193  22.962  1.00  0.00     0.055 A 
ATOM     28  C   UNL A   1      30.995  29.280  22.805  1.00  0.00     0.055 A 
BRANCH  24  29
ATOM     29  O   UNL A   1      27.413  29.854  23.429  1.00  0.00    -0.497 OA
ATOM     30  C   UNL A   1      27.497  31.283  23.313  1.00  0.00     0.278 C 
ENDBRANCH  24  29
ENDBRANCH  14  23
ENDBRANCH   8  13
ENDBRANCH   4   7
ENDBRANCH   2   3
ENDBRANCH   1   2
BRANCH   1  31
ATOM     31  C   UNL A   1      31.827  28.056  27.527  1.00  0.00     0.023 C 
BRANCH  31  32
ATOM     32  C   UNL A   1      33.180  28.758  27.259  1.00  0.00     0.116 C 
BRANCH  32  33
ATOM     33  N   UNL A   1      33.265  30.165  27.610  1.00  0.00    -0.352 N 
ATOM     34  C   UNL A   1      34.378  30.909  27.980  1.00  0.00     0.251 C 
ATOM     35  H   UNL A   1      32.415  30.660  27.582  1.00  0.00     0.163 HD
ATOM     36  O   UNL A   1      34.273  32.129  28.090  1.00  0.00    -0.269 OA
BRANCH  34  37
ATOM     37  C   UNL A   1      35.696  30.274  28.290  1.00  0.00     0.039 A 
ATOM     38  C   UNL A   1      36.675  30.174  27.295  1.00  0.00     0.014 A 
ATOM     39  C   UNL A   1      35.964  29.696  29.528  1.00  0.00     0.014 A 
ATOM     40  C   UNL A   1      37.963  29.655  27.588  1.00  0.00     0.010 A 
ATOM     41  C   UNL A   1      37.254  29.177  29.812  1.00  0.00     0.010 A 
ATOM     42  C   UNL A   1      38.310  29.215  28.879  1.00  0.00    -0.014 A 
BRANCH  42  43
ATOM     43  C   UNL A   1      39.756  28.886  29.256  1.00  0.00     0.031 A 
ATOM     44  C   UNL A   1      40.666  29.881  29.924  1.00  0.00     0.074 A 
ATOM     45  C   UNL A   1      40.360  27.732  28.867  1.00  0.00     0.049 A 
ATOM     46  N   UNL A   1      41.941  29.751  30.202  1.00  0.00    -0.248 NA
ATOM     47  C   UNL A   1      40.114  31.202  30.241  1.00  0.00     0.031 C 
ATOM     48  C   UNL A   1      39.743  26.781  27.971  1.00  0.00     0.029 A 
ATOM     49  N   UNL A   1      41.601  27.162  29.090  1.00  0.00    -0.354 N 
ATOM     50  C   UNL A   1      42.358  30.985  30.671  1.00  0.00     0.074 A 
ATOM     51  C   UNL A   1      41.206  31.864  30.593  1.00  0.00     0.031 C 
ATOM     52  C   UNL A   1      40.537  25.729  27.748  1.00  0.00     0.029 A 
ATOM     53  C   UNL A   1      41.767  25.920  28.493  1.00  0.00     0.049 A 
ATOM     54  H   UNL A   1      42.303  27.598  29.624  1.00  0.00     0.167 HD
ATOM     55  C   UNL A   1      43.573  31.354  31.145  1.00  0.00     0.031 A 
ATOM     56  C   UNL A   1      42.774  25.020  28.508  1.00  0.00     0.031 A 
ATOM     57  C   UNL A   1      44.721  30.490  31.257  1.00  0.00     0.049 A 
ATOM     58  C   UNL A   1      44.059  25.390  29.182  1.00  0.00     0.074 A 
ATOM     59  C   UNL A   1      45.946  30.774  31.839  1.00  0.00     0.029 A 
ATOM     60  N   UNL A   1      44.798  29.188  30.788  1.00  0.00    -0.354 N 
ATOM     61  N   UNL A   1      44.376  26.532  29.737  1.00  0.00    -0.248 NA
ATOM     62  C   UNL A   1      45.133  24.384  29.204  1.00  0.00     0.031 C 
ATOM     63  C   UNL A   1      46.772  29.654  31.702  1.00  0.00     0.029 A 
ATOM     64  C   UNL A   1      46.046  28.653  31.081  1.00  0.00     0.049 A 
ATOM     65  H   UNL A   1      44.076  28.712  30.317  1.00  0.00     0.167 HD
ATOM     66  C   UNL A   1      45.683  26.386  30.172  1.00  0.00     0.074 A 
ATOM     67  C   UNL A   1      46.094  25.037  29.845  1.00  0.00     0.031 C 
ATOM     68  C   UNL A   1      46.466  27.309  30.774  1.00  0.00     0.031 A 
BRANCH  55  69
ATOM     69  C   UNL A   1      43.704  32.776  31.617  1.00  0.00    -0.014 A 
ATOM     70  C   UNL A   1      43.280  33.137  32.908  1.00  0.00     0.010 A 
ATOM     71  C   UNL A   1      44.260  33.754  30.774  1.00  0.00     0.010 A 
ATOM     72  C   UNL A   1      43.336  34.467  33.322  1.00  0.00     0.020 A 
ATOM     73  C   UNL A   1      44.353  35.082  31.200  1.00  0.00     0.020 A 
ATOM     74  C   UNL A   1      43.862  35.432  32.461  1.00  0.00     0.054 A 
BRANCH  74  75
ATOM     75  S   UNL A   1      43.907  37.154  33.022  1.00  0.00     0.124 S 
ATOM     76  O   UNL A   1      43.818  37.881  31.758  1.00  0.00    -0.237 OA
ATOM     77  O   UNL A   1      42.729  37.243  33.881  1.00  0.00    -0.237 OA
ATOM     78  O   UNL A   1      45.188  37.260  33.715  1.00  0.00    -0.744 OA
ENDBRANCH  74  75
ENDBRANCH  55  69
BRANCH  56  79
ATOM     79  C   UNL A   1      42.619  23.665  27.891  1.00  0.00    -0.014 A 
ATOM     80  C   UNL A   1      41.842  22.685  28.541  1.00  0.00     0.010 A 
ATOM     81  C   UNL A   1      43.236  23.334  26.672  1.00  0.00     0.010 A 
ATOM     82  C   UNL A   1      41.695  21.405  27.995  1.00  0.00     0.020 A 
ATOM     83  C   UNL A   1      43.066  22.062  26.106  1.00  0.00     0.020 A 
ATOM     84  C   UNL A   1      42.305  21.102  26.776  1.00  0.00     0.054 A 
BRANCH  84  85
ATOM     85  S   UNL A   1      42.047  19.457  26.050  1.00  0.00     0.124 S 
ATOM     86  O   UNL A   1      40.601  19.432  25.854  1.00  0.00    -0.237 OA
ATOM     87  O   UNL A   1      42.849  19.518  24.829  1.00  0.00    -0.237 OA
ATOM     88  O   UNL A   1      42.558  18.548  27.074  1.00  0.00    -0.744 OA
ENDBRANCH  84  85
ENDBRANCH  56  79
BRANCH  68  89
ATOM     89  C   UNL A   1      47.846  26.886  31.187  1.00  0.00    -0.014 A 
ATOM     90  C   UNL A   1      48.071  26.190  32.387  1.00  0.00     0.010 A 
ATOM     91  C   UNL A   1      48.923  27.124  30.315  1.00  0.00     0.010 A 
ATOM     92  C   UNL A   1      49.354  25.736  32.707  1.00  0.00     0.020 A 
ATOM     93  C   UNL A   1      50.200  26.655  30.620  1.00  0.00     0.020 A 
ATOM     94  C   UNL A   1      50.409  25.964  31.816  1.00  0.00     0.054 A 
BRANCH  94  95
ATOM     95  S   UNL A   1      52.045  25.284  32.205  1.00  0.00     0.124 S 
ATOM     96  O   UNL A   1      51.757  23.861  32.358  1.00  0.00    -0.237 OA
ATOM     97  O   UNL A   1      52.829  25.644  31.026  1.00  0.00    -0.237 OA
ATOM     98  O   UNL A   1      52.426  25.978  33.433  1.00  0.00    -0.744 OA
ENDBRANCH  94  95
ENDBRANCH  68  89
ENDBRANCH  42  43
ENDBRANCH  34  37
ENDBRANCH  32  33
ENDBRANCH  31  32
ENDBRANCH   1  31
TORSDOF 17
ENDMDL
MODEL 2
REMARK VINA RESULT:     -11.9      0.698      7.900
REMARK SMILES COc1ccc(NC2=[NH+]C(=O)/C(=C\c3ccccc3C(=O)NCCCCNC(=O)c3ccc(-c4c5nc(c(-c6ccc(S(=O)(=O)[O-])cc6)c6ccc([nH]6)c(-c6ccc(S(=O)(=O)[O-])cc6)c6nc(c(-c7ccc(S(=O)(=O)[O-])cc7)c7ccc4[nH]7)C=C6)C=C5)cc3)S2)cc1
REMARK SMILES IDX 24 1 23 2 22 3 20 4 21 5 19 7 14 8 15 9 16 10 18 11 17 12
REMARK SMILES IDX 13 13 7 14 8 15 9 17 90 18 10 19 12 21 11 22 6 23 3 24 4 25
REMARK SMILES IDX 92 26 5 27 91 28 2 29 1 30 25 31 26 32 27 33 28 34 29 36
REMARK SMILES IDX 30 37 31 38 89 39 32 40 88 41 33 42 34 43 35 44 82 45 36 46
REMARK SMILES IDX 87 47 81 48 83 49 37 50 86 51 80 52 79 53 38 55 68 56 49 57
REMARK SMILES IDX 67 58 50 59 53 60 66 61 84 62 51 63 52 64 65 66 85 67 54 68
REMARK SMILES IDX 39 69 40 70 48 71 41 72 47 73 42 74 43 75 44 76 45 77 46 78
REMARK SMILES IDX 69 79 70 80 78 81 71 82 77 83 72 84 73 85 74 86 75 87 76 88
REMARK SMILES IDX 55 89 56 90 64 91 57 92 63 93 58 94 59 95 60 96 61 97 62 98
REMARK H PARENT 22 6 7 16 9 20 27 35 83 54 53 65
REMARK Flexibility Score: inf
ROOT
ATOM      1  C   UNL A   1      31.325  27.224  26.465  1.00  0.00     0.023 C 
ENDROOT
BRANCH   1   2
ATOM      2  C   UNL A   1      31.850  25.848  26.073  1.00  0.00     0.116 C 
BRANCH   2   3
ATOM      3  N   UNL A   1      30.902  24.755  26.003  1.00  0.00    -0.352 N 
ATOM      4  C   UNL A   1      31.093  23.399  26.203  1.00  0.00     0.251 C 
ATOM      5  O   UNL A   1      30.091  22.687  26.273  1.00  0.00    -0.269 OA
ATOM      6  H   UNL A   1      29.979  25.017  25.781  1.00  0.00     0.163 HD
BRANCH   4   7
ATOM      7  C   UNL A   1      32.443  22.746  26.191  1.00  0.00     0.047 A 
ATOM      8  C   UNL A   1      33.208  22.366  25.065  1.00  0.00    -0.011 A 
ATOM      9  C   UNL A   1      34.333  21.541  25.268  1.00  0.00     0.009 A 
ATOM     10  C   UNL A   1      34.780  21.226  26.553  1.00  0.00     0.001 A 
ATOM     11  C   UNL A   1      32.962  22.494  27.480  1.00  0.00     0.014 A 
ATOM     12  C   UNL A   1      34.127  21.750  27.660  1.00  0.00     0.001 A 
BRANCH   8  13
ATOM     13  C   UNL A   1      32.935  22.751  23.664  1.00  0.00     0.032 C 
ATOM     14  N   UNL A   1      32.241  27.183  21.761  1.00  0.00    -0.235 N 
ATOM     15  C   UNL A   1      32.959  26.152  22.300  1.00  0.00     0.322 C 
ATOM     16  H   UNL A   1      32.486  27.505  20.864  1.00  0.00     0.313 HD
ATOM     17  N   UNL A   1      33.758  26.194  23.314  1.00  0.00    -0.199 N 
ATOM     18  S   UNL A   1      32.694  24.541  21.617  1.00  0.00     0.006 SA
ATOM     19  C   UNL A   1      34.198  24.948  23.690  1.00  0.00     0.346 C 
ATOM     20  H   UNL A   1      34.024  27.027  23.767  1.00  0.00     0.316 HD
ATOM     21  C   UNL A   1      33.341  23.892  23.085  1.00  0.00     0.110 C 
ATOM     22  O   UNL A   1      35.162  24.706  24.403  1.00  0.00    -0.240 OA
BRANCH  14  23
ATOM     23  C   UNL A   1      31.164  27.810  22.431  1.00  0.00     0.125 A 
ATOM     24  C   UNL A   1      28.800  29.152  23.156  1.00  0.00     0.119 A 
ATOM     25  C   UNL A   1      28.886  27.777  23.295  1.00  0.00     0.051 A 
ATOM     26  C   UNL A   1      29.967  29.868  22.935  1.00  0.00     0.051 A 
ATOM     27  C   UNL A   1      30.071  27.110  22.950  1.00  0.00     0.055 A 
ATOM     28  C   UNL A   1      31.149  29.197  22.577  1.00  0.00     0.055 A 
BRANCH  24  29
ATOM     29  O   UNL A   1      27.580  29.757  23.285  1.00  0.00    -0.497 OA
ATOM     30  C   UNL A   1      27.649  31.186  23.165  1.00  0.00     0.278 C 
ENDBRANCH  24  29
ENDBRANCH  14  23
ENDBRANCH   8  13
ENDBRANCH   4   7
ENDBRANCH   2   3
ENDBRANCH   1   2
BRANCH   1  31
ATOM     31  C   UNL A   1      32.080  28.054  27.523  1.00  0.00     0.023 C 
BRANCH  31  32
ATOM     32  C   UNL A   1      33.293  28.947  27.173  1.00  0.00     0.116 C 
BRANCH  32  33
ATOM     33  N   UNL A   1      33.322  30.272  27.771  1.00  0.00    -0.352 N 
ATOM     34  C   UNL A   1      34.409  30.993  28.248  1.00  0.00     0.251 C 
ATOM     35  H   UNL A   1      32.449  30.719  27.849  1.00  0.00     0.163 HD
ATOM     36  O   UNL A   1      34.249  32.167  28.578  1.00  0.00    -0.269 OA
BRANCH  34  37
ATOM     37  C   UNL A   1      35.763  30.381  28.413  1.00  0.00     0.039 A 
ATOM     38  C   UNL A   1      36.614  30.256  27.308  1.00  0.00     0.014 A 
ATOM     39  C   UNL A   1      36.190  29.848  29.626  1.00  0.00     0.014 A 
ATOM     40  C   UNL A   1      37.934  29.760  27.456  1.00  0.00     0.010 A 
ATOM     41  C   UNL A   1      37.512  29.351  29.765  1.00  0.00     0.010 A 
ATOM     42  C   UNL A   1      38.444  29.367  28.708  1.00  0.00    -0.014 A 
BRANCH  42  43
ATOM     43  C   UNL A   1      39.930  29.065  28.913  1.00  0.00     0.031 A 
ATOM     44  C   UNL A   1      40.553  27.754  28.520  1.00  0.00     0.074 A 
ATOM     45  C   UNL A   1      40.747  29.899  29.610  1.00  0.00     0.049 A 
ATOM     46  N   UNL A   1      41.780  27.345  28.734  1.00  0.00    -0.248 NA
ATOM     47  C   UNL A   1      39.687  26.751  27.890  1.00  0.00     0.031 C 
ATOM     48  C   UNL A   1      40.269  31.065  30.317  1.00  0.00     0.029 A 
ATOM     49  N   UNL A   1      42.098  29.908  29.909  1.00  0.00    -0.354 N 
ATOM     50  C   UNL A   1      41.821  26.024  28.322  1.00  0.00     0.074 A 
ATOM     51  C   UNL A   1      40.478  25.687  27.889  1.00  0.00     0.031 C 
ATOM     52  C   UNL A   1      41.267  31.720  30.918  1.00  0.00     0.029 A 
ATOM     53  C   UNL A   1      42.504  31.010  30.651  1.00  0.00     0.049 A 
ATOM     54  H   UNL A   1      42.716  29.199  29.622  1.00  0.00     0.167 HD
ATOM     55  C   UNL A   1      42.875  25.173  28.283  1.00  0.00     0.031 A 
ATOM     56  C   UNL A   1      43.711  31.427  31.092  1.00  0.00     0.031 A 
ATOM     57  C   UNL A   1      44.222  25.495  28.680  1.00  0.00     0.049 A 
ATOM     58  C   UNL A   1      44.897  30.535  30.892  1.00  0.00     0.074 A 
ATOM     59  C   UNL A   1      45.357  24.711  28.553  1.00  0.00     0.029 A 
ATOM     60  N   UNL A   1      44.624  26.679  29.277  1.00  0.00    -0.354 N 
ATOM     61  N   UNL A   1      44.921  29.334  30.373  1.00  0.00    -0.248 NA
ATOM     62  C   UNL A   1      46.204  31.021  31.361  1.00  0.00     0.031 C 
ATOM     63  C   UNL A   1      46.442  25.410  29.092  1.00  0.00     0.029 A 
ATOM     64  C   UNL A   1      45.993  26.650  29.511  1.00  0.00     0.049 A 
ATOM     65  H   UNL A   1      44.029  27.430  29.503  1.00  0.00     0.167 HD
ATOM     66  C   UNL A   1      46.240  28.918  30.456  1.00  0.00     0.074 A 
ATOM     67  C   UNL A   1      46.995  30.003  31.046  1.00  0.00     0.031 C 
ATOM     68  C   UNL A   1      46.760  27.727  30.084  1.00  0.00     0.031 A 
BRANCH  55  69
ATOM     69  C   UNL A   1      42.602  23.794  27.746  1.00  0.00    -0.014 A 
ATOM     70  C   UNL A   1      42.232  22.753  28.616  1.00  0.00     0.010 A 
ATOM     71  C   UNL A   1      42.708  23.537  26.368  1.00  0.00     0.010 A 
ATOM     72  C   UNL A   1      42.048  21.460  28.130  1.00  0.00     0.020 A 
ATOM     73  C   UNL A   1      42.486  22.249  25.871  1.00  0.00     0.020 A 
ATOM     74  C   UNL A   1      42.187  21.214  26.762  1.00  0.00     0.054 A 
BRANCH  74  75
ATOM     75  S   UNL A   1      41.956  19.520  26.164  1.00  0.00     0.124 S 
ATOM     76  O   UNL A   1      42.795  19.511  24.969  1.00  0.00    -0.237 OA
ATOM     77  O   UNL A   1      42.445  18.715  27.280  1.00  0.00    -0.237 OA
ATOM     78  O   UNL A   1      40.519  19.431  25.919  1.00  0.00    -0.744 OA
ENDBRANCH  74  75
ENDBRANCH  55  69
BRANCH  56  79
ATOM     79  C   UNL A   1      43.883  32.762  31.748  1.00  0.00    -0.014 A 
ATOM     80  C   UNL A   1      43.824  32.864  33.152  1.00  0.00     0.010 A 
ATOM     81  C   UNL A   1      44.099  33.930  30.996  1.00  0.00     0.010 A 
ATOM     82  C   UNL A   1      43.965  34.103  33.788  1.00  0.00     0.020 A 
ATOM     83  C   UNL A   1      44.271  35.168  31.632  1.00  0.00     0.020 A 
ATOM     84  C   UNL A   1      44.192  35.248  33.024  1.00  0.00     0.054 A 
BRANCH  84  85
ATOM     85  S   UNL A   1      44.439  36.836  33.873  1.00  0.00     0.124 S 
ATOM     86  O   UNL A   1      45.564  36.540  34.753  1.00  0.00    -0.237 OA
ATOM     87  O   UNL A   1      44.725  37.747  32.767  1.00  0.00    -0.237 OA
ATOM     88  O   UNL A   1      43.161  37.067  34.543  1.00  0.00    -0.744 OA
ENDBRANCH  84  85
ENDBRANCH  56  79
BRANCH  68  89
ATOM     89  C   UNL A   1      48.241  27.536  30.242  1.00  0.00    -0.014 A 
ATOM     90  C   UNL A   1      49.141  27.915  29.231  1.00  0.00     0.010 A 
ATOM     91  C   UNL A   1      48.740  27.040  31.459  1.00  0.00     0.010 A 
ATOM     92  C   UNL A   1      50.519  27.802  29.437  1.00  0.00     0.020 A 
ATOM     93  C   UNL A   1      50.115  26.946  31.677  1.00  0.00     0.020 A 
ATOM     94  C   UNL A   1      50.997  27.327  30.664  1.00  0.00     0.054 A 
BRANCH  94  95
ATOM     95  S   UNL A   1      52.788  27.279  30.946  1.00  0.00     0.124 S 
ATOM     96  O   UNL A   1      53.298  28.033  29.805  1.00  0.00    -0.237 OA
ATOM     97  O   UNL A   1      52.924  27.933  32.245  1.00  0.00    -0.237 OA
ATOM     98  O   UNL A   1      53.101  25.851  30.940  1.00  0.00    -0.744 OA
ENDBRANCH  94  95
ENDBRANCH  68  89
ENDBRANCH  42  43
ENDBRANCH  34  37
ENDBRANCH  32  33
ENDBRANCH  31  32
ENDBRANCH   1  31
TORSDOF 17
ENDMDL
MODEL 3
REMARK VINA RESULT:     -11.8      2.513      3.026
REMARK SMILES COc1ccc(NC2=[NH+]C(=O)/C(=C\c3ccccc3C(=O)NCCCCNC(=O)c3ccc(-c4c5nc(c(-c6ccc(S(=O)(=O)[O-])cc6)c6ccc([nH]6)c(-c6ccc(S(=O)(=O)[O-])cc6)c6nc(c(-c7ccc(S(=O)(=O)[O-])cc7)c7ccc4[nH]7)C=C6)C=C5)cc3)S2)cc1
REMARK SMILES IDX 24 1 23 2 22 3 20 4 21 5 19 7 14 8 15 9 16 10 18 11 17 12
REMARK SMILES IDX 13 13 7 14 8 15 9 17 90 18 10 19 12 21 11 22 6 23 3 24 4 25
REMARK SMILES IDX 92 26 5 27 91 28 2 29 1 30 25 31 26 32 27 33 28 34 29 36
REMARK SMILES IDX 30 37 31 38 89 39 32 40 88 41 33 42 34 43 35 44 82 45 36 46
REMARK SMILES IDX 87 47 81 48 83 49 37 50 86 51 80 52 79 53 38 55 68 56 49 57
REMARK SMILES IDX 67 58 50 59 53 60 66 61 84 62 51 63 52 64 65 66 85 67 54 68
REMARK SMILES IDX 39 69 40 70 48 71 41 72 47 73 42 74 43 75 44 76 45 77 46 78
REMARK SMILES IDX 69 79 70 80 78 81 71 82 77 83 72 84 73 85 74 86 75 87 76 88
REMARK SMILES IDX 55 89 56 90 64 91 57 92 63 93 58 94 59 95 60 96 61 97 62 98
REMARK H PARENT 22 6 7 16 9 20 27 35 83 54 53 65
REMARK Flexibility Score: inf
ROOT
ATOM      1  C   UNL A   1      31.354  27.510  26.447  1.00  0.00     0.023 C 
ENDROOT
BRANCH   1   2
ATOM      2  C   UNL A   1      31.859  26.081  26.293  1.00  0.00     0.116 C 
BRANCH   2   3
ATOM      3  N   UNL A   1      30.876  25.022  26.185  1.00  0.00    -0.352 N 
ATOM      4  C   UNL A   1      31.021  23.655  26.346  1.00  0.00     0.251 C 
ATOM      5  O   UNL A   1      29.995  22.975  26.388  1.00  0.00    -0.269 OA
ATOM      6  H   UNL A   1      29.964  25.321  25.963  1.00  0.00     0.163 HD
BRANCH   4   7
ATOM      7  C   UNL A   1      32.349  22.959  26.325  1.00  0.00     0.047 A 
ATOM      8  C   UNL A   1      33.072  22.516  25.194  1.00  0.00    -0.011 A 
ATOM      9  C   UNL A   1      34.176  21.663  25.398  1.00  0.00     0.009 A 
ATOM     10  C   UNL A   1      34.645  21.377  26.683  1.00  0.00     0.001 A 
ATOM     11  C   UNL A   1      32.891  22.734  27.608  1.00  0.00     0.014 A 
ATOM     12  C   UNL A   1      34.036  21.958  27.786  1.00  0.00     0.001 A 
BRANCH   8  13
ATOM     13  C   UNL A   1      32.777  22.863  23.788  1.00  0.00     0.032 C 
ATOM     14  N   UNL A   1      32.046  27.240  21.776  1.00  0.00    -0.235 N 
ATOM     15  C   UNL A   1      32.775  26.225  22.331  1.00  0.00     0.322 C 
ATOM     16  H   UNL A   1      32.276  27.538  20.866  1.00  0.00     0.313 HD
ATOM     17  N   UNL A   1      33.589  26.296  23.331  1.00  0.00    -0.199 N 
ATOM     18  S   UNL A   1      32.501  24.595  21.697  1.00  0.00     0.006 SA
ATOM     19  C   UNL A   1      34.037  25.061  23.734  1.00  0.00     0.346 C 
ATOM     20  H   UNL A   1      33.860  27.141  23.757  1.00  0.00     0.316 HD
ATOM     21  C   UNL A   1      33.172  23.988  23.172  1.00  0.00     0.110 C 
ATOM     22  O   UNL A   1      35.013  24.840  24.438  1.00  0.00    -0.240 OA
BRANCH  14  23
ATOM     23  C   UNL A   1      30.979  27.884  22.445  1.00  0.00     0.125 A 
ATOM     24  C   UNL A   1      28.605  29.206  23.174  1.00  0.00     0.119 A 
ATOM     25  C   UNL A   1      28.742  27.849  23.411  1.00  0.00     0.051 A 
ATOM     26  C   UNL A   1      29.738  29.937  22.848  1.00  0.00     0.051 A 
ATOM     27  C   UNL A   1      29.933  27.193  23.063  1.00  0.00     0.055 A 
ATOM     28  C   UNL A   1      30.924  29.277  22.488  1.00  0.00     0.055 A 
BRANCH  24  29
ATOM     29  O   UNL A   1      27.372  29.782  23.312  1.00  0.00    -0.497 OA
ATOM     30  C   UNL A   1      27.440  31.197  23.550  1.00  0.00     0.278 C 
ENDBRANCH  24  29
ENDBRANCH  14  23
ENDBRANCH   8  13
ENDBRANCH   4   7
ENDBRANCH   2   3
ENDBRANCH   1   2
BRANCH   1  31
ATOM     31  C   UNL A   1      32.176  28.524  27.267  1.00  0.00     0.023 C 
BRANCH  31  32
ATOM     32  C   UNL A   1      33.160  29.524  26.613  1.00  0.00     0.116 C 
BRANCH  32  33
ATOM     33  N   UNL A   1      33.101  30.898  27.084  1.00  0.00    -0.352 N 
ATOM     34  C   UNL A   1      34.086  31.650  27.712  1.00  0.00     0.251 C 
ATOM     35  H   UNL A   1      32.245  31.359  26.936  1.00  0.00     0.163 HD
ATOM     36  O   UNL A   1      33.895  32.851  27.896  1.00  0.00    -0.269 OA
BRANCH  34  37
ATOM     37  C   UNL A   1      35.358  31.043  28.212  1.00  0.00     0.039 A 
ATOM     38  C   UNL A   1      36.560  31.752  28.105  1.00  0.00     0.014 A 
ATOM     39  C   UNL A   1      35.409  29.746  28.716  1.00  0.00     0.014 A 
ATOM     40  C   UNL A   1      37.763  31.234  28.649  1.00  0.00     0.010 A 
ATOM     41  C   UNL A   1      36.618  29.235  29.256  1.00  0.00     0.010 A 
ATOM     42  C   UNL A   1      37.805  29.992  29.311  1.00  0.00    -0.014 A 
BRANCH  42  43
ATOM     43  C   UNL A   1      39.033  29.545  30.107  1.00  0.00     0.031 A 
ATOM     44  C   UNL A   1      39.456  30.210  31.388  1.00  0.00     0.074 A 
ATOM     45  C   UNL A   1      39.910  28.625  29.625  1.00  0.00     0.049 A 
ATOM     46  N   UNL A   1      40.534  29.984  32.099  1.00  0.00    -0.248 NA
ATOM     47  C   UNL A   1      38.626  31.312  31.888  1.00  0.00     0.031 C 
ATOM     48  C   UNL A   1      39.835  28.087  28.286  1.00  0.00     0.029 A 
ATOM     49  N   UNL A   1      41.047  28.013  30.123  1.00  0.00    -0.354 N 
ATOM     50  C   UNL A   1      40.545  30.947  33.094  1.00  0.00     0.074 A 
ATOM     51  C   UNL A   1      39.387  31.790  32.862  1.00  0.00     0.031 C 
ATOM     52  C   UNL A   1      40.807  27.198  28.057  1.00  0.00     0.029 A 
ATOM     53  C   UNL A   1      41.618  27.091  29.256  1.00  0.00     0.049 A 
ATOM     54  H   UNL A   1      41.418  28.213  31.012  1.00  0.00     0.167 HD
ATOM     55  C   UNL A   1      41.418  31.107  34.119  1.00  0.00     0.031 A 
ATOM     56  C   UNL A   1      42.671  26.253  29.368  1.00  0.00     0.031 A 
ATOM     57  C   UNL A   1      42.556  30.266  34.383  1.00  0.00     0.049 A 
ATOM     58  C   UNL A   1      43.531  26.339  30.591  1.00  0.00     0.074 A 
ATOM     59  C   UNL A   1      43.410  30.307  35.474  1.00  0.00     0.029 A 
ATOM     60  N   UNL A   1      43.007  29.240  33.567  1.00  0.00    -0.354 N 
ATOM     61  N   UNL A   1      43.432  27.184  31.585  1.00  0.00    -0.248 NA
ATOM     62  C   UNL A   1      44.659  25.400  30.700  1.00  0.00     0.031 C 
ATOM     63  C   UNL A   1      44.390  29.323  35.308  1.00  0.00     0.029 A 
ATOM     64  C   UNL A   1      44.118  28.634  34.139  1.00  0.00     0.049 A 
ATOM     65  H   UNL A   1      42.601  28.979  32.710  1.00  0.00     0.167 HD
ATOM     66  C   UNL A   1      44.483  26.882  32.436  1.00  0.00     0.074 A 
ATOM     67  C   UNL A   1      45.192  25.760  31.860  1.00  0.00     0.031 C 
ATOM     68  C   UNL A   1      44.826  27.507  33.586  1.00  0.00     0.031 A 
BRANCH  55  69
ATOM     69  C   UNL A   1      41.138  32.243  35.065  1.00  0.00    -0.014 A 
ATOM     70  C   UNL A   1      40.310  32.046  36.185  1.00  0.00     0.010 A 
ATOM     71  C   UNL A   1      41.707  33.508  34.841  1.00  0.00     0.010 A 
ATOM     72  C   UNL A   1      39.992  33.114  37.023  1.00  0.00     0.020 A 
ATOM     73  C   UNL A   1      41.422  34.572  35.702  1.00  0.00     0.020 A 
ATOM     74  C   UNL A   1      40.543  34.373  36.770  1.00  0.00     0.054 A 
BRANCH  74  75
ATOM     75  S   UNL A   1      40.099  35.743  37.868  1.00  0.00     0.124 S 
ATOM     76  O   UNL A   1      39.733  36.784  36.911  1.00  0.00    -0.237 OA
ATOM     77  O   UNL A   1      38.993  35.188  38.644  1.00  0.00    -0.237 OA
ATOM     78  O   UNL A   1      41.323  35.992  38.624  1.00  0.00    -0.744 OA
ENDBRANCH  74  75
ENDBRANCH  55  69
BRANCH  56  79
ATOM     79  C   UNL A   1      42.974  25.234  28.313  1.00  0.00    -0.014 A 
ATOM     80  C   UNL A   1      42.358  23.968  28.367  1.00  0.00     0.010 A 
ATOM     81  C   UNL A   1      43.868  25.504  27.262  1.00  0.00     0.010 A 
ATOM     82  C   UNL A   1      42.637  22.992  27.403  1.00  0.00     0.020 A 
ATOM     83  C   UNL A   1      44.127  24.539  26.278  1.00  0.00     0.020 A 
ATOM     84  C   UNL A   1      43.517  23.285  26.361  1.00  0.00     0.054 A 
BRANCH  84  85
ATOM     85  S   UNL A   1      43.814  22.028  25.082  1.00  0.00     0.124 S 
ATOM     86  O   UNL A   1      43.608  22.788  23.853  1.00  0.00    -0.237 OA
ATOM     87  O   UNL A   1      45.192  21.621  25.350  1.00  0.00    -0.237 OA
ATOM     88  O   UNL A   1      42.807  21.008  25.367  1.00  0.00    -0.744 OA
ENDBRANCH  84  85
ENDBRANCH  56  79
BRANCH  68  89
ATOM     89  C   UNL A   1      45.995  26.958  34.352  1.00  0.00    -0.014 A 
ATOM     90  C   UNL A   1      47.303  27.419  34.123  1.00  0.00     0.010 A 
ATOM     91  C   UNL A   1      45.762  26.020  35.373  1.00  0.00     0.010 A 
ATOM     92  C   UNL A   1      48.360  26.949  34.907  1.00  0.00     0.020 A 
ATOM     93  C   UNL A   1      46.811  25.565  36.171  1.00  0.00     0.020 A 
ATOM     94  C   UNL A   1      48.106  26.032  35.933  1.00  0.00     0.054 A 
BRANCH  94  95
ATOM     95  S   UNL A   1      49.477  25.510  37.000  1.00  0.00     0.124 S 
ATOM     96  O   UNL A   1      50.252  24.655  36.106  1.00  0.00    -0.237 OA
ATOM     97  O   UNL A   1      50.104  26.780  37.358  1.00  0.00    -0.237 OA
ATOM     98  O   UNL A   1      48.813  24.818  38.103  1.00  0.00    -0.744 OA
ENDBRANCH  94  95
ENDBRANCH  68  89
ENDBRANCH  42  43
ENDBRANCH  34  37
ENDBRANCH  32  33
ENDBRANCH  31  32
ENDBRANCH   1  31
TORSDOF 17
ENDMDL
