MODEL 1
REMARK VINA RESULT:     -11.1      0.000      0.000
REMARK SMILES N#Cc1ccc(/C=C/C(=O)N2C[C@@H](O)C[C@H]2C(=O)NCCCCNC(=O)c2ccc(-c3c4nc(c(-c5ccc(S(=O)(=O)[O-])cc5)c5ccc([nH]5)c(-c5ccc(S(=O)(=O)[O-])cc5)c5nc(c(-c6ccc(S(=O)(=O)[O-])cc6)c6ccc3[nH]6)C=C5)C=C4)cc2)cc1
REMARK SMILES IDX 21 1 20 2 19 3 17 4 18 5 16 7 11 8 12 9 13 10 15 11 9 12
REMARK SMILES IDX 10 13 8 14 7 15 6 16 3 17 4 18 88 19 5 20 87 21 2 22 1 23
REMARK SMILES IDX 14 24 22 26 23 27 24 28 25 29 26 31 27 32 28 33 86 34 29 35
REMARK SMILES IDX 85 36 30 37 31 38 32 39 79 40 33 41 84 42 78 43 80 44 34 45
REMARK SMILES IDX 83 46 77 47 76 48 35 50 65 51 46 52 64 53 47 54 50 55 63 56
REMARK SMILES IDX 81 57 48 58 49 59 62 61 82 62 51 63 36 64 37 65 45 66 38 67
REMARK SMILES IDX 44 68 39 69 40 70 41 71 42 72 43 73 66 74 67 75 75 76 68 77
REMARK SMILES IDX 74 78 69 79 70 80 71 81 72 82 73 83 52 84 53 85 61 86 54 87
REMARK SMILES IDX 60 88 55 89 56 90 57 91 58 92 59 93
REMARK H PARENT 19 6 14 25 24 30 80 49 50 60
REMARK Flexibility Score: inf
ROOT
ATOM      1  C   UNL A   1      31.453  27.363  26.890  1.00  0.00     0.023 C 
ENDROOT
BRANCH   1   2
ATOM      2  C   UNL A   1      31.517  25.895  26.496  1.00  0.00     0.116 C 
BRANCH   2   3
ATOM      3  N   UNL A   1      30.585  25.562  25.447  1.00  0.00    -0.354 N 
ATOM      4  C   UNL A   1      30.814  25.259  24.137  1.00  0.00     0.242 C 
ATOM      5  O   UNL A   1      29.875  24.761  23.507  1.00  0.00    -0.273 OA
ATOM      6  H   UNL A   1      29.639  25.551  25.718  1.00  0.00     0.163 HD
BRANCH   4   7
ATOM      7  C   UNL A   1      32.223  25.330  23.510  1.00  0.00     0.177 C 
ATOM      8  N   UNL A   1      32.920  24.060  23.273  1.00  0.00    -0.324 N 
ATOM      9  C   UNL A   1      33.225  23.865  21.866  1.00  0.00     0.152 C 
ATOM     10  C   UNL A   1      33.168  25.265  21.268  1.00  0.00     0.136 C 
ATOM     11  C   UNL A   1      32.190  26.042  22.151  1.00  0.00     0.069 C 
BRANCH   8  12
ATOM     12  C   UNL A   1      33.397  23.364  24.361  1.00  0.00     0.247 C 
ATOM     13  O   UNL A   1      34.076  23.884  25.242  1.00  0.00    -0.270 OA
BRANCH  12  14
ATOM     14  C   UNL A   1      33.133  21.908  24.455  1.00  0.00     0.072 C 
ATOM     15  C   UNL A   1      34.147  21.061  24.689  1.00  0.00     0.014 C 
BRANCH  15  16
ATOM     16  C   UNL A   1      34.035  19.621  24.937  1.00  0.00    -0.025 A 
ATOM     17  C   UNL A   1      33.585  16.860  25.207  1.00  0.00     0.052 A 
ATOM     18  C   UNL A   1      34.746  17.327  24.583  1.00  0.00     0.020 A 
ATOM     19  C   UNL A   1      32.661  17.772  25.721  1.00  0.00     0.020 A 
ATOM     20  C   UNL A   1      34.969  18.702  24.447  1.00  0.00     0.009 A 
ATOM     21  C   UNL A   1      32.885  19.145  25.583  1.00  0.00     0.009 A 
BRANCH  17  22
ATOM     22  C   UNL A   1      33.324  15.452  25.290  1.00  0.00     0.099 C 
ATOM     23  N   UNL A   1      33.103  14.315  25.341  1.00  0.00    -0.192 NA
ENDBRANCH  17  22
ENDBRANCH  15  16
ENDBRANCH  12  14
ENDBRANCH   8  12
BRANCH  10  24
ATOM     24  O   UNL A   1      32.756  25.256  19.911  1.00  0.00    -0.391 OA
ATOM     25  H   UNL A   1      33.027  24.421  19.497  1.00  0.00     0.211 HD
ENDBRANCH  10  24
ENDBRANCH   4   7
ENDBRANCH   2   3
ENDBRANCH   1   2
BRANCH   1  26
ATOM     26  C   UNL A   1      32.534  28.214  26.228  1.00  0.00     0.023 C 
BRANCH  26  27
ATOM     27  C   UNL A   1      33.677  28.619  27.150  1.00  0.00     0.116 C 
BRANCH  27  28
ATOM     28  N   UNL A   1      33.583  29.999  27.606  1.00  0.00    -0.352 N 
ATOM     29  C   UNL A   1      34.532  30.740  28.270  1.00  0.00     0.251 C 
ATOM     30  H   UNL A   1      32.734  30.459  27.414  1.00  0.00     0.163 HD
ATOM     31  O   UNL A   1      34.253  31.843  28.724  1.00  0.00    -0.269 OA
BRANCH  29  32
ATOM     32  C   UNL A   1      35.879  30.164  28.451  1.00  0.00     0.039 A 
ATOM     33  C   UNL A   1      36.773  30.180  27.379  1.00  0.00     0.014 A 
ATOM     34  C   UNL A   1      36.274  29.680  29.701  1.00  0.00     0.014 A 
ATOM     35  C   UNL A   1      38.091  29.770  27.585  1.00  0.00     0.010 A 
ATOM     36  C   UNL A   1      37.608  29.362  29.924  1.00  0.00     0.010 A 
ATOM     37  C   UNL A   1      38.531  29.397  28.867  1.00  0.00    -0.014 A 
BRANCH  37  38
ATOM     38  C   UNL A   1      39.949  29.040  29.122  1.00  0.00     0.031 A 
ATOM     39  C   UNL A   1      40.887  30.060  29.711  1.00  0.00     0.074 A 
ATOM     40  C   UNL A   1      40.405  27.819  28.776  1.00  0.00     0.049 A 
ATOM     41  N   UNL A   1      42.165  29.950  29.969  1.00  0.00    -0.248 NA
ATOM     42  C   UNL A   1      40.324  31.383  30.028  1.00  0.00     0.031 C 
ATOM     43  C   UNL A   1      39.604  26.756  28.163  1.00  0.00     0.029 A 
ATOM     44  N   UNL A   1      41.656  27.265  28.890  1.00  0.00    -0.354 N 
ATOM     45  C   UNL A   1      42.558  31.187  30.466  1.00  0.00     0.074 A 
ATOM     46  C   UNL A   1      41.400  32.051  30.415  1.00  0.00     0.031 C 
ATOM     47  C   UNL A   1      40.373  25.670  27.990  1.00  0.00     0.029 A 
ATOM     48  C   UNL A   1      41.731  25.972  28.427  1.00  0.00     0.049 A 
ATOM     49  H   UNL A   1      42.427  27.748  29.267  1.00  0.00     0.167 HD
ATOM     50  C   UNL A   1      43.768  31.565  30.941  1.00  0.00     0.031 A 
ATOM     51  C   UNL A   1      42.779  25.126  28.350  1.00  0.00     0.031 A 
ATOM     52  C   UNL A   1      44.918  30.701  30.986  1.00  0.00     0.049 A 
ATOM     53  C   UNL A   1      44.124  25.583  28.849  1.00  0.00     0.074 A 
ATOM     54  C   UNL A   1      46.176  30.972  31.495  1.00  0.00     0.029 A 
ATOM     55  N   UNL A   1      44.956  29.403  30.498  1.00  0.00    -0.354 N 
ATOM     56  N   UNL A   1      44.458  26.734  29.383  1.00  0.00    -0.248 NA
ATOM     57  C   UNL A   1      45.230  24.622  28.747  1.00  0.00     0.031 C 
ATOM     58  C   UNL A   1      46.995  29.868  31.245  1.00  0.00     0.029 A 
ATOM     59  C   UNL A   1      46.226  28.874  30.661  1.00  0.00     0.049 A 
ATOM     60  H   UNL A   1      44.193  28.928  30.095  1.00  0.00     0.167 HD
ATOM     61  C   UNL A   1      45.805  26.623  29.712  1.00  0.00     0.074 A 
ATOM     62  C   UNL A   1      46.217  25.287  29.332  1.00  0.00     0.031 C 
ATOM     63  C   UNL A   1      46.625  27.542  30.279  1.00  0.00     0.031 A 
BRANCH  50  64
ATOM     64  C   UNL A   1      43.915  32.981  31.437  1.00  0.00    -0.014 A 
ATOM     65  C   UNL A   1      43.698  33.310  32.789  1.00  0.00     0.010 A 
ATOM     66  C   UNL A   1      44.323  33.992  30.547  1.00  0.00     0.010 A 
ATOM     67  C   UNL A   1      43.846  34.627  33.231  1.00  0.00     0.020 A 
ATOM     68  C   UNL A   1      44.506  35.303  30.993  1.00  0.00     0.020 A 
ATOM     69  C   UNL A   1      44.251  35.616  32.329  1.00  0.00     0.054 A 
BRANCH  69  70
ATOM     70  S   UNL A   1      44.464  37.309  32.940  1.00  0.00     0.124 S 
ATOM     71  O   UNL A   1      43.725  37.270  34.200  1.00  0.00    -0.237 OA
ATOM     72  O   UNL A   1      45.914  37.423  33.066  1.00  0.00    -0.237 OA
ATOM     73  O   UNL A   1      43.864  38.135  31.895  1.00  0.00    -0.744 OA
ENDBRANCH  69  70
ENDBRANCH  50  64
BRANCH  51  74
ATOM     74  C   UNL A   1      42.597  23.761  27.781  1.00  0.00    -0.014 A 
ATOM     75  C   UNL A   1      42.302  22.667  28.614  1.00  0.00     0.010 A 
ATOM     76  C   UNL A   1      42.719  23.547  26.395  1.00  0.00     0.010 A 
ATOM     77  C   UNL A   1      42.153  21.385  28.076  1.00  0.00     0.020 A 
ATOM     78  C   UNL A   1      42.535  22.275  25.849  1.00  0.00     0.020 A 
ATOM     79  C   UNL A   1      42.266  21.198  26.696  1.00  0.00     0.054 A 
BRANCH  79  80
ATOM     80  S   UNL A   1      42.021  19.533  26.017  1.00  0.00     0.124 S 
ATOM     81  O   UNL A   1      40.602  19.548  25.677  1.00  0.00    -0.237 OA
ATOM     82  O   UNL A   1      42.945  19.520  24.885  1.00  0.00    -0.237 OA
ATOM     83  O   UNL A   1      42.392  18.654  27.124  1.00  0.00    -0.744 OA
ENDBRANCH  79  80
ENDBRANCH  51  74
BRANCH  63  84
ATOM     84  C   UNL A   1      48.044  27.126  30.570  1.00  0.00    -0.014 A 
ATOM     85  C   UNL A   1      49.098  27.424  29.689  1.00  0.00     0.010 A 
ATOM     86  C   UNL A   1      48.335  26.475  31.785  1.00  0.00     0.010 A 
ATOM     87  C   UNL A   1      50.407  27.049  29.999  1.00  0.00     0.020 A 
ATOM     88  C   UNL A   1      49.647  26.131  32.116  1.00  0.00     0.020 A 
ATOM     89  C   UNL A   1      50.674  26.408  31.213  1.00  0.00     0.054 A 
BRANCH  89  90
ATOM     90  S   UNL A   1      52.389  25.975  31.612  1.00  0.00     0.124 S 
ATOM     91  O   UNL A   1      52.245  24.627  32.154  1.00  0.00    -0.237 OA
ATOM     92  O   UNL A   1      53.049  26.063  30.312  1.00  0.00    -0.237 OA
ATOM     93  O   UNL A   1      52.790  26.995  32.579  1.00  0.00    -0.744 OA
ENDBRANCH  89  90
ENDBRANCH  63  84
ENDBRANCH  37  38
ENDBRANCH  29  32
ENDBRANCH  27  28
ENDBRANCH  26  27
ENDBRANCH   1  26
TORSDOF 19
ENDMDL
MODEL 2
REMARK VINA RESULT:     -10.6      3.310      4.175
REMARK SMILES N#Cc1ccc(/C=C/C(=O)N2C[C@@H](O)C[C@H]2C(=O)NCCCCNC(=O)c2ccc(-c3c4nc(c(-c5ccc(S(=O)(=O)[O-])cc5)c5ccc([nH]5)c(-c5ccc(S(=O)(=O)[O-])cc5)c5nc(c(-c6ccc(S(=O)(=O)[O-])cc6)c6ccc3[nH]6)C=C5)C=C4)cc2)cc1
REMARK SMILES IDX 21 1 20 2 19 3 17 4 18 5 16 7 11 8 12 9 13 10 15 11 9 12
REMARK SMILES IDX 10 13 8 14 7 15 6 16 3 17 4 18 88 19 5 20 87 21 2 22 1 23
REMARK SMILES IDX 14 24 22 26 23 27 24 28 25 29 26 31 27 32 28 33 86 34 29 35
REMARK SMILES IDX 85 36 30 37 31 38 32 39 79 40 33 41 84 42 78 43 80 44 34 45
REMARK SMILES IDX 83 46 77 47 76 48 35 50 65 51 46 52 64 53 47 54 50 55 63 56
REMARK SMILES IDX 81 57 48 58 49 59 62 61 82 62 51 63 36 64 37 65 45 66 38 67
REMARK SMILES IDX 44 68 39 69 40 70 41 71 42 72 43 73 66 74 67 75 75 76 68 77
REMARK SMILES IDX 74 78 69 79 70 80 71 81 72 82 73 83 52 84 53 85 61 86 54 87
REMARK SMILES IDX 60 88 55 89 56 90 57 91 58 92 59 93
REMARK H PARENT 19 6 14 25 24 30 80 49 50 60
REMARK Flexibility Score: inf
ROOT
ATOM      1  C   UNL A   1      34.440  28.164  25.522  1.00  0.00     0.023 C 
ENDROOT
BRANCH   1   2
ATOM      2  C   UNL A   1      33.603  28.495  24.296  1.00  0.00     0.116 C 
BRANCH   2   3
ATOM      3  N   UNL A   1      33.963  27.701  23.148  1.00  0.00    -0.354 N 
ATOM      4  C   UNL A   1      33.172  26.998  22.287  1.00  0.00     0.242 C 
ATOM      5  O   UNL A   1      33.696  26.611  21.237  1.00  0.00    -0.273 OA
ATOM      6  H   UNL A   1      34.928  27.660  22.955  1.00  0.00     0.163 HD
BRANCH   4   7
ATOM      7  C   UNL A   1      31.648  26.861  22.495  1.00  0.00     0.177 C 
ATOM      8  N   UNL A   1      31.188  26.351  23.791  1.00  0.00    -0.324 N 
ATOM      9  C   UNL A   1      30.343  27.311  24.481  1.00  0.00     0.152 C 
ATOM     10  C   UNL A   1      29.852  28.244  23.380  1.00  0.00     0.136 C 
ATOM     11  C   UNL A   1      30.940  28.209  22.307  1.00  0.00     0.069 C 
BRANCH   8  12
ATOM     12  C   UNL A   1      31.385  25.018  24.076  1.00  0.00     0.247 C 
ATOM     13  O   UNL A   1      30.525  24.161  23.891  1.00  0.00    -0.270 OA
BRANCH  12  14
ATOM     14  C   UNL A   1      32.668  24.596  24.687  1.00  0.00     0.072 C 
ATOM     15  C   UNL A   1      33.575  23.942  23.945  1.00  0.00     0.014 C 
BRANCH  15  16
ATOM     16  C   UNL A   1      34.933  23.575  24.359  1.00  0.00    -0.025 A 
ATOM     17  C   UNL A   1      37.402  22.720  25.391  1.00  0.00     0.052 A 
ATOM     18  C   UNL A   1      36.922  22.195  24.187  1.00  0.00     0.020 A 
ATOM     19  C   UNL A   1      36.662  23.693  26.066  1.00  0.00     0.020 A 
ATOM     20  C   UNL A   1      35.691  22.620  23.674  1.00  0.00     0.009 A 
ATOM     21  C   UNL A   1      35.432  24.115  25.553  1.00  0.00     0.009 A 
BRANCH  17  22
ATOM     22  C   UNL A   1      38.633  22.239  25.950  1.00  0.00     0.099 C 
ATOM     23  N   UNL A   1      39.625  21.863  26.418  1.00  0.00    -0.192 NA
ENDBRANCH  17  22
ENDBRANCH  15  16
ENDBRANCH  12  14
ENDBRANCH   8  12
BRANCH  10  24
ATOM     24  O   UNL A   1      29.621  29.560  23.853  1.00  0.00    -0.391 OA
ATOM     25  H   UNL A   1      30.456  29.943  24.165  1.00  0.00     0.211 HD
ENDBRANCH  10  24
ENDBRANCH   4   7
ENDBRANCH   2   3
ENDBRANCH   1   2
BRANCH   1  26
ATOM     26  C   UNL A   1      34.270  29.168  26.660  1.00  0.00     0.023 C 
BRANCH  26  27
ATOM     27  C   UNL A   1      35.545  29.467  27.438  1.00  0.00     0.116 C 
BRANCH  27  28
ATOM     28  N   UNL A   1      35.306  29.703  28.856  1.00  0.00    -0.352 N 
ATOM     29  C   UNL A   1      36.219  29.685  29.884  1.00  0.00     0.251 C 
ATOM     30  H   UNL A   1      34.376  29.900  29.109  1.00  0.00     0.163 HD
ATOM     31  O   UNL A   1      35.844  29.753  31.049  1.00  0.00    -0.269 OA
BRANCH  29  32
ATOM     32  C   UNL A   1      37.652  29.549  29.555  1.00  0.00     0.039 A 
ATOM     33  C   UNL A   1      38.553  29.229  30.571  1.00  0.00     0.014 A 
ATOM     34  C   UNL A   1      38.082  29.664  28.230  1.00  0.00     0.014 A 
ATOM     35  C   UNL A   1      39.882  28.958  30.243  1.00  0.00     0.010 A 
ATOM     36  C   UNL A   1      39.382  29.302  27.897  1.00  0.00     0.010 A 
ATOM     37  C   UNL A   1      40.299  28.952  28.900  1.00  0.00    -0.014 A 
BRANCH  37  38
ATOM     38  C   UNL A   1      41.687  28.582  28.525  1.00  0.00     0.031 A 
ATOM     39  C   UNL A   1      42.759  29.637  28.477  1.00  0.00     0.074 A 
ATOM     40  C   UNL A   1      41.971  27.311  28.178  1.00  0.00     0.049 A 
ATOM     41  N   UNL A   1      44.017  29.518  28.137  1.00  0.00    -0.248 NA
ATOM     42  C   UNL A   1      42.364  31.010  28.835  1.00  0.00     0.031 C 
ATOM     43  C   UNL A   1      41.010  26.205  28.147  1.00  0.00     0.029 A 
ATOM     44  N   UNL A   1      43.152  26.732  27.781  1.00  0.00    -0.354 N 
ATOM     45  C   UNL A   1      44.557  30.795  28.227  1.00  0.00     0.074 A 
ATOM     46  C   UNL A   1      43.478  31.685  28.595  1.00  0.00     0.031 C 
ATOM     47  C   UNL A   1      41.647  25.078  27.791  1.00  0.00     0.029 A 
ATOM     48  C   UNL A   1      43.045  25.387  27.514  1.00  0.00     0.049 A 
ATOM     49  H   UNL A   1      43.994  27.234  27.697  1.00  0.00     0.167 HD
ATOM     50  C   UNL A   1      45.838  31.190  28.042  1.00  0.00     0.031 A 
ATOM     51  C   UNL A   1      43.967  24.503  27.083  1.00  0.00     0.031 A 
ATOM     52  C   UNL A   1      46.907  30.300  27.674  1.00  0.00     0.049 A 
ATOM     53  C   UNL A   1      45.377  24.974  26.847  1.00  0.00     0.074 A 
ATOM     54  C   UNL A   1      48.250  30.592  27.510  1.00  0.00     0.029 A 
ATOM     55  N   UNL A   1      46.756  28.948  27.402  1.00  0.00    -0.354 N 
ATOM     56  N   UNL A   1      45.883  26.174  27.008  1.00  0.00    -0.248 NA
ATOM     57  C   UNL A   1      46.343  23.969  26.382  1.00  0.00     0.031 C 
ATOM     58  C   UNL A   1      48.896  29.436  27.065  1.00  0.00     0.029 A 
ATOM     59  C   UNL A   1      47.975  28.401  27.037  1.00  0.00     0.049 A 
ATOM     60  H   UNL A   1      45.908  28.450  27.460  1.00  0.00     0.167 HD
ATOM     61  C   UNL A   1      47.235  26.059  26.698  1.00  0.00     0.074 A 
ATOM     62  C   UNL A   1      47.467  24.671  26.356  1.00  0.00     0.031 C 
ATOM     63  C   UNL A   1      48.195  27.017  26.698  1.00  0.00     0.031 A 
BRANCH  50  64
ATOM     64  C   UNL A   1      46.153  32.653  28.220  1.00  0.00    -0.014 A 
ATOM     65  C   UNL A   1      46.548  33.171  29.469  1.00  0.00     0.010 A 
ATOM     66  C   UNL A   1      46.100  33.518  27.111  1.00  0.00     0.010 A 
ATOM     67  C   UNL A   1      46.842  34.530  29.612  1.00  0.00     0.020 A 
ATOM     68  C   UNL A   1      46.429  34.869  27.243  1.00  0.00     0.020 A 
ATOM     69  C   UNL A   1      46.783  35.371  28.497  1.00  0.00     0.054 A 
BRANCH  69  70
ATOM     70  S   UNL A   1      47.200  37.121  28.710  1.00  0.00     0.124 S 
ATOM     71  O   UNL A   1      48.321  37.053  29.644  1.00  0.00    -0.237 OA
ATOM     72  O   UNL A   1      47.539  37.535  27.351  1.00  0.00    -0.237 OA
ATOM     73  O   UNL A   1      45.976  37.708  29.251  1.00  0.00    -0.744 OA
ENDBRANCH  69  70
ENDBRANCH  50  64
BRANCH  51  74
ATOM     74  C   UNL A   1      43.586  23.081  26.849  1.00  0.00    -0.014 A 
ATOM     75  C   UNL A   1      42.979  22.322  27.866  1.00  0.00     0.010 A 
ATOM     76  C   UNL A   1      43.829  22.476  25.602  1.00  0.00     0.010 A 
ATOM     77  C   UNL A   1      42.644  20.982  27.647  1.00  0.00     0.020 A 
ATOM     78  C   UNL A   1      43.462  21.149  25.367  1.00  0.00     0.020 A 
ATOM     79  C   UNL A   1      42.882  20.406  26.397  1.00  0.00     0.054 A 
BRANCH  79  80
ATOM     80  S   UNL A   1      42.394  18.680  26.123  1.00  0.00     0.124 S 
ATOM     81  O   UNL A   1      43.312  18.268  25.065  1.00  0.00    -0.237 OA
ATOM     82  O   UNL A   1      42.625  18.079  27.434  1.00  0.00    -0.237 OA
ATOM     83  O   UNL A   1      40.989  18.779  25.730  1.00  0.00    -0.744 OA
ENDBRANCH  79  80
ENDBRANCH  51  74
BRANCH  63  84
ATOM     84  C   UNL A   1      49.603  26.593  26.363  1.00  0.00    -0.014 A 
ATOM     85  C   UNL A   1      50.421  25.941  27.302  1.00  0.00     0.010 A 
ATOM     86  C   UNL A   1      50.092  26.800  25.059  1.00  0.00     0.010 A 
ATOM     87  C   UNL A   1      51.712  25.536  26.954  1.00  0.00     0.020 A 
ATOM     88  C   UNL A   1      51.368  26.363  24.696  1.00  0.00     0.020 A 
ATOM     89  C   UNL A   1      52.175  25.746  25.652  1.00  0.00     0.054 A 
BRANCH  89  90
ATOM     90  S   UNL A   1      53.837  25.167  25.214  1.00  0.00     0.124 S 
ATOM     91  O   UNL A   1      54.658  25.782  26.254  1.00  0.00    -0.237 OA
ATOM     92  O   UNL A   1      53.701  23.715  25.298  1.00  0.00    -0.237 OA
ATOM     93  O   UNL A   1      54.046  25.692  23.866  1.00  0.00    -0.744 OA
ENDBRANCH  89  90
ENDBRANCH  63  84
ENDBRANCH  37  38
ENDBRANCH  29  32
ENDBRANCH  27  28
ENDBRANCH  26  27
ENDBRANCH   1  26
TORSDOF 19
ENDMDL
MODEL 3
REMARK VINA RESULT:     -10.5      3.209      7.604
REMARK SMILES N#Cc1ccc(/C=C/C(=O)N2C[C@@H](O)C[C@H]2C(=O)NCCCCNC(=O)c2ccc(-c3c4nc(c(-c5ccc(S(=O)(=O)[O-])cc5)c5ccc([nH]5)c(-c5ccc(S(=O)(=O)[O-])cc5)c5nc(c(-c6ccc(S(=O)(=O)[O-])cc6)c6ccc3[nH]6)C=C5)C=C4)cc2)cc1
REMARK SMILES IDX 21 1 20 2 19 3 17 4 18 5 16 7 11 8 12 9 13 10 15 11 9 12
REMARK SMILES IDX 10 13 8 14 7 15 6 16 3 17 4 18 88 19 5 20 87 21 2 22 1 23
REMARK SMILES IDX 14 24 22 26 23 27 24 28 25 29 26 31 27 32 28 33 86 34 29 35
REMARK SMILES IDX 85 36 30 37 31 38 32 39 79 40 33 41 84 42 78 43 80 44 34 45
REMARK SMILES IDX 83 46 77 47 76 48 35 50 65 51 46 52 64 53 47 54 50 55 63 56
REMARK SMILES IDX 81 57 48 58 49 59 62 61 82 62 51 63 36 64 37 65 45 66 38 67
REMARK SMILES IDX 44 68 39 69 40 70 41 71 42 72 43 73 66 74 67 75 75 76 68 77
REMARK SMILES IDX 74 78 69 79 70 80 71 81 72 82 73 83 52 84 53 85 61 86 54 87
REMARK SMILES IDX 60 88 55 89 56 90 57 91 58 92 59 93
REMARK H PARENT 19 6 14 25 24 30 80 49 50 60
REMARK Flexibility Score: inf
ROOT
ATOM      1  C   UNL A   1      38.381  23.749  26.498  1.00  0.00     0.023 C 
ENDROOT
BRANCH   1   2
ATOM      2  C   UNL A   1      37.089  23.486  25.741  1.00  0.00     0.116 C 
BRANCH   2   3
ATOM      3  N   UNL A   1      36.017  23.060  26.606  1.00  0.00    -0.354 N 
ATOM      4  C   UNL A   1      34.680  23.319  26.535  1.00  0.00     0.242 C 
ATOM      5  O   UNL A   1      33.938  22.631  27.245  1.00  0.00    -0.273 OA
ATOM      6  H   UNL A   1      36.292  22.495  27.364  1.00  0.00     0.163 HD
BRANCH   4   7
ATOM      7  C   UNL A   1      34.081  24.270  25.476  1.00  0.00     0.177 C 
ATOM      8  N   UNL A   1      32.998  23.747  24.635  1.00  0.00    -0.324 N 
ATOM      9  C   UNL A   1      31.774  24.515  24.790  1.00  0.00     0.152 C 
ATOM     10  C   UNL A   1      32.234  25.852  25.360  1.00  0.00     0.136 C 
ATOM     11  C   UNL A   1      33.520  25.542  26.127  1.00  0.00     0.069 C 
BRANCH   8  12
ATOM     12  C   UNL A   1      33.310  22.813  23.674  1.00  0.00     0.247 C 
ATOM     13  O   UNL A   1      33.774  23.112  22.577  1.00  0.00    -0.270 OA
BRANCH  12  14
ATOM     14  C   UNL A   1      33.026  21.382  23.943  1.00  0.00     0.072 C 
ATOM     15  C   UNL A   1      34.035  20.546  24.230  1.00  0.00     0.014 C 
BRANCH  15  16
ATOM     16  C   UNL A   1      33.910  19.145  24.644  1.00  0.00    -0.025 A 
ATOM     17  C   UNL A   1      33.430  16.441  25.237  1.00  0.00     0.052 A 
ATOM     18  C   UNL A   1      34.587  16.816  24.548  1.00  0.00     0.020 A 
ATOM     19  C   UNL A   1      32.525  17.419  25.655  1.00  0.00     0.020 A 
ATOM     20  C   UNL A   1      34.825  18.164  24.251  1.00  0.00     0.009 A 
ATOM     21  C   UNL A   1      32.763  18.763  25.356  1.00  0.00     0.009 A 
BRANCH  17  22
ATOM     22  C   UNL A   1      33.154  15.055  25.486  1.00  0.00     0.099 C 
ATOM     23  N   UNL A   1      32.948  13.934  25.698  1.00  0.00    -0.192 NA
ENDBRANCH  17  22
ENDBRANCH  15  16
ENDBRANCH  12  14
ENDBRANCH   8  12
BRANCH  10  24
ATOM     24  O   UNL A   1      31.255  26.448  26.195  1.00  0.00    -0.391 OA
ATOM     25  H   UNL A   1      30.839  25.764  26.744  1.00  0.00     0.211 HD
ENDBRANCH  10  24
ENDBRANCH   4   7
ENDBRANCH   2   3
ENDBRANCH   1   2
BRANCH   1  26
ATOM     26  C   UNL A   1      39.156  22.476  26.832  1.00  0.00     0.023 C 
BRANCH  26  27
ATOM     27  C   UNL A   1      39.180  21.437  25.718  1.00  0.00     0.116 C 
BRANCH  27  28
ATOM     28  N   UNL A   1      39.877  20.214  26.093  1.00  0.00    -0.352 N 
ATOM     29  C   UNL A   1      41.186  20.070  26.488  1.00  0.00     0.251 C 
ATOM     30  H   UNL A   1      39.344  19.387  26.060  1.00  0.00     0.163 HD
ATOM     31  O   UNL A   1      41.675  18.955  26.626  1.00  0.00    -0.269 OA
BRANCH  29  32
ATOM     32  C   UNL A   1      41.995  21.286  26.707  1.00  0.00     0.039 A 
ATOM     33  C   UNL A   1      42.342  22.077  25.611  1.00  0.00     0.014 A 
ATOM     34  C   UNL A   1      42.341  21.675  28.005  1.00  0.00     0.014 A 
ATOM     35  C   UNL A   1      42.981  23.298  25.826  1.00  0.00     0.010 A 
ATOM     36  C   UNL A   1      42.891  22.933  28.220  1.00  0.00     0.010 A 
ATOM     37  C   UNL A   1      43.224  23.756  27.133  1.00  0.00    -0.014 A 
BRANCH  37  38
ATOM     38  C   UNL A   1      43.824  25.091  27.383  1.00  0.00     0.031 A 
ATOM     39  C   UNL A   1      42.961  26.225  27.866  1.00  0.00     0.074 A 
ATOM     40  C   UNL A   1      45.132  25.296  27.126  1.00  0.00     0.049 A 
ATOM     41  N   UNL A   1      43.292  27.469  28.103  1.00  0.00    -0.248 NA
ATOM     42  C   UNL A   1      41.534  25.933  28.088  1.00  0.00     0.031 C 
ATOM     43  C   UNL A   1      46.066  24.287  26.620  1.00  0.00     0.029 A 
ATOM     44  N   UNL A   1      45.904  26.424  27.255  1.00  0.00    -0.354 N 
ATOM     45  C   UNL A   1      42.119  28.106  28.489  1.00  0.00     0.074 A 
ATOM     46  C   UNL A   1      41.057  27.130  28.395  1.00  0.00     0.031 C 
ATOM     47  C   UNL A   1      47.288  24.830  26.518  1.00  0.00     0.029 A 
ATOM     48  C   UNL A   1      47.219  26.237  26.897  1.00  0.00     0.049 A 
ATOM     49  H   UNL A   1      45.550  27.285  27.575  1.00  0.00     0.167 HD
ATOM     50  C   UNL A   1      41.944  29.382  28.904  1.00  0.00     0.031 A 
ATOM     51  C   UNL A   1      48.252  27.103  26.864  1.00  0.00     0.031 A 
ATOM     52  C   UNL A   1      43.005  30.350  28.992  1.00  0.00     0.049 A 
ATOM     53  C   UNL A   1      48.023  28.528  27.294  1.00  0.00     0.074 A 
ATOM     54  C   UNL A   1      42.941  31.656  29.448  1.00  0.00     0.029 A 
ATOM     55  N   UNL A   1      44.319  30.125  28.610  1.00  0.00    -0.354 N 
ATOM     56  N   UNL A   1      46.920  29.092  27.725  1.00  0.00    -0.248 NA
ATOM     57  C   UNL A   1      49.183  29.429  27.244  1.00  0.00     0.031 C 
ATOM     58  C   UNL A   1      44.196  32.242  29.269  1.00  0.00     0.029 A 
ATOM     59  C   UNL A   1      45.066  31.278  28.785  1.00  0.00     0.049 A 
ATOM     60  H   UNL A   1      44.669  29.272  28.264  1.00  0.00     0.167 HD
ATOM     61  C   UNL A   1      47.261  30.406  28.030  1.00  0.00     0.074 A 
ATOM     62  C   UNL A   1      48.676  30.545  27.751  1.00  0.00     0.031 C 
ATOM     63  C   UNL A   1      46.475  31.405  28.502  1.00  0.00     0.031 A 
BRANCH  50  64
ATOM     64  C   UNL A   1      40.549  29.812  29.281  1.00  0.00    -0.014 A 
ATOM     65  C   UNL A   1      39.568  30.057  28.300  1.00  0.00     0.010 A 
ATOM     66  C   UNL A   1      40.196  29.926  30.638  1.00  0.00     0.010 A 
ATOM     67  C   UNL A   1      38.279  30.448  28.669  1.00  0.00     0.020 A 
ATOM     68  C   UNL A   1      38.898  30.282  31.012  1.00  0.00     0.020 A 
ATOM     69  C   UNL A   1      37.951  30.556  30.024  1.00  0.00     0.054 A 
BRANCH  69  70
ATOM     70  S   UNL A   1      36.261  31.035  30.470  1.00  0.00     0.124 S 
ATOM     71  O   UNL A   1      35.558  30.881  29.198  1.00  0.00    -0.237 OA
ATOM     72  O   UNL A   1      35.915  30.061  31.500  1.00  0.00    -0.237 OA
ATOM     73  O   UNL A   1      36.401  32.412  30.937  1.00  0.00    -0.744 OA
ENDBRANCH  69  70
ENDBRANCH  50  64
BRANCH  51  74
ATOM     74  C   UNL A   1      49.596  26.646  26.412  1.00  0.00    -0.014 A 
ATOM     75  C   UNL A   1      50.513  26.093  27.323  1.00  0.00     0.010 A 
ATOM     76  C   UNL A   1      49.968  26.763  25.059  1.00  0.00     0.010 A 
ATOM     77  C   UNL A   1      51.781  25.686  26.895  1.00  0.00     0.020 A 
ATOM     78  C   UNL A   1      51.219  26.324  24.621  1.00  0.00     0.020 A 
ATOM     79  C   UNL A   1      52.123  25.799  25.546  1.00  0.00     0.054 A 
BRANCH  79  80
ATOM     80  S   UNL A   1      53.757  25.220  25.007  1.00  0.00     0.124 S 
ATOM     81  O   UNL A   1      53.933  25.934  23.747  1.00  0.00    -0.237 OA
ATOM     82  O   UNL A   1      54.617  25.650  26.106  1.00  0.00    -0.237 OA
ATOM     83  O   UNL A   1      53.586  23.773  24.890  1.00  0.00    -0.744 OA
ENDBRANCH  79  80
ENDBRANCH  51  74
BRANCH  63  84
ATOM     84  C   UNL A   1      47.131  32.731  28.794  1.00  0.00    -0.014 A 
ATOM     85  C   UNL A   1      47.178  33.758  27.835  1.00  0.00     0.010 A 
ATOM     86  C   UNL A   1      47.656  32.971  30.078  1.00  0.00     0.010 A 
ATOM     87  C   UNL A   1      47.770  34.986  28.144  1.00  0.00     0.020 A 
ATOM     88  C   UNL A   1      48.215  34.209  30.402  1.00  0.00     0.020 A 
ATOM     89  C   UNL A   1      48.280  35.205  29.427  1.00  0.00     0.054 A 
BRANCH  89  90
ATOM     90  S   UNL A   1      48.999  36.824  29.815  1.00  0.00     0.124 S 
ATOM     91  O   UNL A   1      48.400  37.676  28.791  1.00  0.00    -0.237 OA
ATOM     92  O   UNL A   1      48.534  37.060  31.179  1.00  0.00    -0.237 OA
ATOM     93  O   UNL A   1      50.438  36.608  29.681  1.00  0.00    -0.744 OA
ENDBRANCH  89  90
ENDBRANCH  63  84
ENDBRANCH  37  38
ENDBRANCH  29  32
ENDBRANCH  27  28
ENDBRANCH  26  27
ENDBRANCH   1  26
TORSDOF 19
ENDMDL
