MODEL 1
REMARK VINA RESULT:     -14.3      0.000      0.000
REMARK SMILES Cc1cccc(NC(=O)COc2ccc(N3C[C@@H](C(=O)NCCCCNC(=O)c4ccc(-c5c6nc(c(-c7ccc(S(=O)(=O)[O-])cc7)c7ccc([nH]7)c(-c7ccc(S(=O)(=O)[O-])cc7)c7nc(c(-c8ccc(S(=O)(=O)[O-])cc8)c8ccc5[nH]8)C=C7)C=C6)cc4)CC3=O)cc2)c1
REMARK SMILES IDX 22 1 21 2 19 3 20 4 18 6 16 7 17 8 90 9 89 10 91 11 15 12
REMARK SMILES IDX 12 13 13 14 93 15 14 16 92 17 11 18 10 19 8 20 7 21 9 23
REMARK SMILES IDX 6 24 1 25 2 26 3 27 94 28 4 29 5 30 23 31 24 32 25 33 26 34
REMARK SMILES IDX 27 35 28 37 29 38 30 39 88 40 31 41 87 42 32 43 33 44 34 45
REMARK SMILES IDX 81 46 35 47 86 48 80 49 82 50 36 51 85 52 79 53 78 54 37 56
REMARK SMILES IDX 67 57 48 58 66 59 49 60 52 61 65 62 83 63 50 64 51 65 64 67
REMARK SMILES IDX 84 68 53 69 38 70 39 71 47 72 40 73 46 74 41 75 42 76 43 77
REMARK SMILES IDX 44 78 45 79 68 80 69 81 77 82 70 83 76 84 71 85 72 86 73 87
REMARK SMILES IDX 74 88 75 89 54 90 55 91 63 92 56 93 62 94 57 95 58 96 59 97
REMARK SMILES IDX 60 98 61 99
REMARK H PARENT 21 5 7 22 26 36 82 55 52 66
REMARK Flexibility Score: inf
ROOT
ATOM      1  C   UNL A   1      31.218  30.615  25.926  1.00  0.00     0.116 C 
ENDROOT
BRANCH   1   2
ATOM      2  N   UNL A   1      30.953  30.268  24.534  1.00  0.00    -0.356 N 
ATOM      3  C   UNL A   1      30.799  29.091  23.881  1.00  0.00     0.225 C 
ATOM      4  O   UNL A   1      30.542  29.143  22.674  1.00  0.00    -0.275 OA
ATOM      5  H   UNL A   1      30.869  31.054  23.946  1.00  0.00     0.163 HD
BRANCH   3   6
ATOM      6  C   UNL A   1      30.902  27.736  24.549  1.00  0.00     0.107 C 
ATOM      7  N   UNL A   1      32.411  25.933  24.332  1.00  0.00    -0.312 N 
ATOM      8  C   UNL A   1      32.332  27.298  24.796  1.00  0.00     0.139 C 
ATOM      9  C   UNL A   1      31.230  25.503  23.731  1.00  0.00     0.227 C 
ATOM     10  C   UNL A   1      30.206  26.599  23.829  1.00  0.00     0.116 C 
ATOM     11  O   UNL A   1      30.976  24.408  23.248  1.00  0.00    -0.274 OA
BRANCH   7  12
ATOM     12  C   UNL A   1      33.603  25.174  24.434  1.00  0.00     0.044 A 
ATOM     13  C   UNL A   1      35.972  23.658  24.633  1.00  0.00     0.120 A 
ATOM     14  C   UNL A   1      35.548  24.444  25.701  1.00  0.00     0.048 A 
ATOM     15  C   UNL A   1      35.208  23.611  23.472  1.00  0.00     0.048 A 
ATOM     16  C   UNL A   1      34.390  25.221  25.592  1.00  0.00     0.030 A 
ATOM     17  C   UNL A   1      34.024  24.353  23.382  1.00  0.00     0.030 A 
BRANCH  13  18
ATOM     18  O   UNL A   1      37.086  22.901  24.848  1.00  0.00    -0.484 OA
BRANCH  18  19
ATOM     19  C   UNL A   1      37.167  21.697  24.103  1.00  0.00     0.329 C 
BRANCH  19  20
ATOM     20  C   UNL A   1      36.901  20.362  24.800  1.00  0.00     0.262 C 
ATOM     21  N   UNL A   1      35.661  19.927  25.157  1.00  0.00    -0.323 N 
ATOM     22  H   UNL A   1      35.666  18.999  25.485  1.00  0.00     0.170 HD
ATOM     23  O   UNL A   1      37.847  19.606  25.058  1.00  0.00    -0.271 OA
BRANCH  21  24
ATOM     24  C   UNL A   1      34.380  20.496  25.164  1.00  0.00     0.041 A 
ATOM     25  C   UNL A   1      32.470  22.702  27.636  1.00  0.00     0.044 C 
ATOM     26  C   UNL A   1      32.805  21.891  26.422  1.00  0.00    -0.049 A 
ATOM     27  C   UNL A   1      31.870  21.747  25.395  1.00  0.00     0.003 A 
ATOM     28  C   UNL A   1      34.054  21.267  26.294  1.00  0.00     0.029 A 
ATOM     29  C   UNL A   1      32.190  21.004  24.260  1.00  0.00     0.002 A 
ATOM     30  C   UNL A   1      33.442  20.392  24.141  1.00  0.00     0.026 A 
ENDBRANCH  21  24
ENDBRANCH  19  20
ENDBRANCH  18  19
ENDBRANCH  13  18
ENDBRANCH   7  12
ENDBRANCH   3   6
ENDBRANCH   1   2
BRANCH   1  31
ATOM     31  C   UNL A   1      32.716  30.716  26.259  1.00  0.00     0.023 C 
BRANCH  31  32
ATOM     32  C   UNL A   1      33.270  29.635  27.191  1.00  0.00     0.023 C 
BRANCH  32  33
ATOM     33  C   UNL A   1      34.788  29.508  27.159  1.00  0.00     0.116 C 
BRANCH  33  34
ATOM     34  N   UNL A   1      35.488  30.750  27.467  1.00  0.00    -0.352 N 
ATOM     35  C   UNL A   1      36.669  30.876  28.167  1.00  0.00     0.251 C 
ATOM     36  H   UNL A   1      35.075  31.583  27.143  1.00  0.00     0.163 HD
ATOM     37  O   UNL A   1      37.036  31.921  28.690  1.00  0.00    -0.269 OA
BRANCH  35  38
ATOM     38  C   UNL A   1      37.580  29.711  28.120  1.00  0.00     0.039 A 
ATOM     39  C   UNL A   1      37.681  28.944  29.287  1.00  0.00     0.014 A 
ATOM     40  C   UNL A   1      38.510  29.595  27.091  1.00  0.00     0.014 A 
ATOM     41  C   UNL A   1      38.823  28.180  29.501  1.00  0.00     0.010 A 
ATOM     42  C   UNL A   1      39.680  28.907  27.346  1.00  0.00     0.010 A 
ATOM     43  C   UNL A   1      39.859  28.245  28.571  1.00  0.00    -0.014 A 
BRANCH  43  44
ATOM     44  C   UNL A   1      41.194  27.717  28.817  1.00  0.00     0.031 A 
ATOM     45  C   UNL A   1      41.484  26.296  28.518  1.00  0.00     0.074 A 
ATOM     46  C   UNL A   1      42.180  28.538  29.241  1.00  0.00     0.049 A 
ATOM     47  N   UNL A   1      42.495  25.640  28.981  1.00  0.00    -0.248 NA
ATOM     48  C   UNL A   1      40.577  25.467  27.726  1.00  0.00     0.031 C 
ATOM     49  C   UNL A   1      43.615  28.264  29.237  1.00  0.00     0.029 A 
ATOM     50  N   UNL A   1      42.064  29.712  29.992  1.00  0.00    -0.354 N 
ATOM     51  C   UNL A   1      42.549  24.442  28.305  1.00  0.00     0.074 A 
ATOM     52  C   UNL A   1      41.268  24.327  27.653  1.00  0.00     0.031 C 
ATOM     53  C   UNL A   1      44.198  29.026  30.176  1.00  0.00     0.029 A 
ATOM     54  C   UNL A   1      43.134  29.696  30.905  1.00  0.00     0.049 A 
ATOM     55  H   UNL A   1      41.374  30.408  29.901  1.00  0.00     0.167 HD
ATOM     56  C   UNL A   1      43.730  23.764  28.241  1.00  0.00     0.031 A 
ATOM     57  C   UNL A   1      42.977  29.676  32.261  1.00  0.00     0.031 A 
ATOM     58  C   UNL A   1      44.697  24.290  29.206  1.00  0.00     0.049 A 
ATOM     59  C   UNL A   1      43.623  28.469  32.912  1.00  0.00     0.074 A 
ATOM     60  C   UNL A   1      45.826  25.083  29.095  1.00  0.00     0.029 A 
ATOM     61  N   UNL A   1      44.385  24.241  30.564  1.00  0.00    -0.354 N 
ATOM     62  N   UNL A   1      44.032  27.417  32.255  1.00  0.00    -0.248 NA
ATOM     63  C   UNL A   1      43.818  28.330  34.353  1.00  0.00     0.031 C 
ATOM     64  C   UNL A   1      46.112  25.617  30.384  1.00  0.00     0.029 A 
ATOM     65  C   UNL A   1      45.188  25.107  31.280  1.00  0.00     0.049 A 
ATOM     66  H   UNL A   1      43.689  23.667  30.957  1.00  0.00     0.167 HD
ATOM     67  C   UNL A   1      44.519  26.484  33.130  1.00  0.00     0.074 A 
ATOM     68  C   UNL A   1      44.377  27.108  34.434  1.00  0.00     0.031 C 
ATOM     69  C   UNL A   1      44.988  25.269  32.717  1.00  0.00     0.031 A 
BRANCH  56  70
ATOM     70  C   UNL A   1      44.094  22.806  27.116  1.00  0.00    -0.014 A 
ATOM     71  C   UNL A   1      43.138  21.881  26.645  1.00  0.00     0.010 A 
ATOM     72  C   UNL A   1      45.386  22.673  26.568  1.00  0.00     0.010 A 
ATOM     73  C   UNL A   1      43.471  20.855  25.737  1.00  0.00     0.020 A 
ATOM     74  C   UNL A   1      45.732  21.664  25.658  1.00  0.00     0.020 A 
ATOM     75  C   UNL A   1      44.775  20.744  25.262  1.00  0.00     0.054 A 
BRANCH  75  76
ATOM     76  S   UNL A   1      45.226  19.383  24.155  1.00  0.00     0.124 S 
ATOM     77  O   UNL A   1      46.664  19.572  23.994  1.00  0.00    -0.237 OA
ATOM     78  O   UNL A   1      44.824  18.206  24.920  1.00  0.00    -0.237 OA
ATOM     79  O   UNL A   1      44.433  19.636  22.951  1.00  0.00    -0.744 OA
ENDBRANCH  75  76
ENDBRANCH  56  70
BRANCH  57  80
ATOM     80  C   UNL A   1      41.745  30.360  32.747  1.00  0.00    -0.014 A 
ATOM     81  C   UNL A   1      40.635  29.546  33.061  1.00  0.00     0.010 A 
ATOM     82  C   UNL A   1      41.816  31.652  33.296  1.00  0.00     0.010 A 
ATOM     83  C   UNL A   1      39.719  29.937  34.041  1.00  0.00     0.020 A 
ATOM     84  C   UNL A   1      40.892  32.050  34.274  1.00  0.00     0.020 A 
ATOM     85  C   UNL A   1      39.897  31.158  34.690  1.00  0.00     0.054 A 
BRANCH  85  86
ATOM     86  S   UNL A   1      38.938  31.467  36.205  1.00  0.00     0.124 S 
ATOM     87  O   UNL A   1      38.352  30.160  36.479  1.00  0.00    -0.237 OA
ATOM     88  O   UNL A   1      39.979  31.900  37.140  1.00  0.00    -0.237 OA
ATOM     89  O   UNL A   1      37.998  32.508  35.799  1.00  0.00    -0.744 OA
ENDBRANCH  85  86
ENDBRANCH  57  80
BRANCH  69  90
ATOM     90  C   UNL A   1      45.371  24.127  33.627  1.00  0.00    -0.014 A 
ATOM     91  C   UNL A   1      46.673  23.900  34.098  1.00  0.00     0.010 A 
ATOM     92  C   UNL A   1      44.345  23.302  34.148  1.00  0.00     0.010 A 
ATOM     93  C   UNL A   1      46.952  22.858  34.996  1.00  0.00     0.020 A 
ATOM     94  C   UNL A   1      44.605  22.288  35.075  1.00  0.00     0.020 A 
ATOM     95  C   UNL A   1      45.917  22.054  35.473  1.00  0.00     0.054 A 
BRANCH  95  96
ATOM     96  S   UNL A   1      46.269  20.749  36.678  1.00  0.00     0.124 S 
ATOM     97  O   UNL A   1      47.726  20.670  36.617  1.00  0.00    -0.237 OA
ATOM     98  O   UNL A   1      45.723  21.289  37.921  1.00  0.00    -0.237 OA
ATOM     99  O   UNL A   1      45.554  19.592  36.144  1.00  0.00    -0.744 OA
ENDBRANCH  95  96
ENDBRANCH  69  90
ENDBRANCH  43  44
ENDBRANCH  35  38
ENDBRANCH  33  34
ENDBRANCH  32  33
ENDBRANCH  31  32
ENDBRANCH   1  31
TORSDOF 19
ENDMDL
MODEL 2
REMARK VINA RESULT:     -14.3      1.433      2.036
REMARK SMILES Cc1cccc(NC(=O)COc2ccc(N3C[C@@H](C(=O)NCCCCNC(=O)c4ccc(-c5c6nc(c(-c7ccc(S(=O)(=O)[O-])cc7)c7ccc([nH]7)c(-c7ccc(S(=O)(=O)[O-])cc7)c7nc(c(-c8ccc(S(=O)(=O)[O-])cc8)c8ccc5[nH]8)C=C7)C=C6)cc4)CC3=O)cc2)c1
REMARK SMILES IDX 22 1 21 2 19 3 20 4 18 6 16 7 17 8 90 9 89 10 91 11 15 12
REMARK SMILES IDX 12 13 13 14 93 15 14 16 92 17 11 18 10 19 8 20 7 21 9 23
REMARK SMILES IDX 6 24 1 25 2 26 3 27 94 28 4 29 5 30 23 31 24 32 25 33 26 34
REMARK SMILES IDX 27 35 28 37 29 38 30 39 88 40 31 41 87 42 32 43 33 44 34 45
REMARK SMILES IDX 81 46 35 47 86 48 80 49 82 50 36 51 85 52 79 53 78 54 37 56
REMARK SMILES IDX 67 57 48 58 66 59 49 60 52 61 65 62 83 63 50 64 51 65 64 67
REMARK SMILES IDX 84 68 53 69 38 70 39 71 47 72 40 73 46 74 41 75 42 76 43 77
REMARK SMILES IDX 44 78 45 79 68 80 69 81 77 82 70 83 76 84 71 85 72 86 73 87
REMARK SMILES IDX 74 88 75 89 54 90 55 91 63 92 56 93 62 94 57 95 58 96 59 97
REMARK SMILES IDX 60 98 61 99
REMARK H PARENT 21 5 7 22 26 36 82 55 52 66
REMARK Flexibility Score: inf
ROOT
ATOM      1  C   UNL A   1      32.120  30.165  25.531  1.00  0.00     0.116 C 
ENDROOT
BRANCH   1   2
ATOM      2  N   UNL A   1      30.819  30.305  24.886  1.00  0.00    -0.356 N 
ATOM      3  C   UNL A   1      30.247  29.720  23.806  1.00  0.00     0.225 C 
ATOM      4  O   UNL A   1      29.085  30.043  23.536  1.00  0.00    -0.275 OA
ATOM      5  H   UNL A   1      30.235  30.964  25.328  1.00  0.00     0.163 HD
BRANCH   3   6
ATOM      6  C   UNL A   1      30.939  28.689  22.940  1.00  0.00     0.107 C 
ATOM      7  N   UNL A   1      32.682  27.147  23.336  1.00  0.00    -0.312 N 
ATOM      8  C   UNL A   1      31.312  27.427  23.694  1.00  0.00     0.139 C 
ATOM      9  C   UNL A   1      33.239  28.138  22.531  1.00  0.00     0.227 C 
ATOM     10  C   UNL A   1      32.186  29.167  22.226  1.00  0.00     0.116 C 
ATOM     11  O   UNL A   1      34.366  28.191  22.058  1.00  0.00    -0.274 OA
BRANCH   7  12
ATOM     12  C   UNL A   1      33.369  26.010  23.829  1.00  0.00     0.044 A 
ATOM     13  C   UNL A   1      34.734  23.743  24.806  1.00  0.00     0.120 A 
ATOM     14  C   UNL A   1      34.426  24.801  25.658  1.00  0.00     0.048 A 
ATOM     15  C   UNL A   1      34.347  23.805  23.472  1.00  0.00     0.048 A 
ATOM     16  C   UNL A   1      33.777  25.939  25.168  1.00  0.00     0.030 A 
ATOM     17  C   UNL A   1      33.656  24.925  22.994  1.00  0.00     0.030 A 
BRANCH  13  18
ATOM     18  O   UNL A   1      35.326  22.659  25.383  1.00  0.00    -0.484 OA
BRANCH  18  19
ATOM     19  C   UNL A   1      34.683  21.415  25.161  1.00  0.00     0.329 C 
BRANCH  19  20
ATOM     20  C   UNL A   1      33.660  20.904  26.175  1.00  0.00     0.262 C 
ATOM     21  N   UNL A   1      33.187  19.628  26.198  1.00  0.00    -0.323 N 
ATOM     22  H   UNL A   1      32.628  19.446  26.989  1.00  0.00     0.170 HD
ATOM     23  O   UNL A   1      33.225  21.670  27.045  1.00  0.00    -0.271 OA
BRANCH  21  24
ATOM     24  C   UNL A   1      33.313  18.513  25.357  1.00  0.00     0.041 A 
ATOM     25  C   UNL A   1      32.316  14.833  25.658  1.00  0.00     0.044 C 
ATOM     26  C   UNL A   1      32.861  16.117  25.110  1.00  0.00    -0.049 A 
ATOM     27  C   UNL A   1      33.441  16.147  23.840  1.00  0.00     0.003 A 
ATOM     28  C   UNL A   1      32.799  17.304  25.855  1.00  0.00     0.029 A 
ATOM     29  C   UNL A   1      33.934  17.344  23.327  1.00  0.00     0.002 A 
ATOM     30  C   UNL A   1      33.860  18.523  24.077  1.00  0.00     0.026 A 
ENDBRANCH  21  24
ENDBRANCH  19  20
ENDBRANCH  18  19
ENDBRANCH  13  18
ENDBRANCH   7  12
ENDBRANCH   3   6
ENDBRANCH   1   2
BRANCH   1  31
ATOM     31  C   UNL A   1      32.040  29.603  26.960  1.00  0.00     0.023 C 
BRANCH  31  32
ATOM     32  C   UNL A   1      33.377  29.249  27.618  1.00  0.00     0.023 C 
BRANCH  32  33
ATOM     33  C   UNL A   1      34.596  29.679  26.812  1.00  0.00     0.116 C 
BRANCH  33  34
ATOM     34  N   UNL A   1      35.259  30.867  27.336  1.00  0.00    -0.352 N 
ATOM     35  C   UNL A   1      36.341  30.896  28.189  1.00  0.00     0.251 C 
ATOM     36  H   UNL A   1      34.897  31.737  27.051  1.00  0.00     0.163 HD
ATOM     37  O   UNL A   1      36.645  31.873  28.862  1.00  0.00    -0.269 OA
BRANCH  35  38
ATOM     38  C   UNL A   1      37.242  29.724  28.136  1.00  0.00     0.039 A 
ATOM     39  C   UNL A   1      37.322  28.939  29.292  1.00  0.00     0.014 A 
ATOM     40  C   UNL A   1      38.185  29.615  27.117  1.00  0.00     0.014 A 
ATOM     41  C   UNL A   1      38.454  28.161  29.510  1.00  0.00     0.010 A 
ATOM     42  C   UNL A   1      39.345  28.914  27.377  1.00  0.00     0.010 A 
ATOM     43  C   UNL A   1      39.502  28.231  28.594  1.00  0.00    -0.014 A 
BRANCH  43  44
ATOM     44  C   UNL A   1      40.830  27.688  28.849  1.00  0.00     0.031 A 
ATOM     45  C   UNL A   1      41.111  26.268  28.535  1.00  0.00     0.074 A 
ATOM     46  C   UNL A   1      41.818  28.494  29.295  1.00  0.00     0.049 A 
ATOM     47  N   UNL A   1      42.110  25.597  29.001  1.00  0.00    -0.248 NA
ATOM     48  C   UNL A   1      40.206  25.458  27.722  1.00  0.00     0.031 C 
ATOM     49  C   UNL A   1      43.250  28.207  29.305  1.00  0.00     0.029 A 
ATOM     50  N   UNL A   1      41.704  29.659  30.060  1.00  0.00    -0.354 N 
ATOM     51  C   UNL A   1      42.161  24.407  28.310  1.00  0.00     0.074 A 
ATOM     52  C   UNL A   1      40.887  24.312  27.642  1.00  0.00     0.031 C 
ATOM     53  C   UNL A   1      43.829  28.951  30.260  1.00  0.00     0.029 A 
ATOM     54  C   UNL A   1      42.763  29.621  30.985  1.00  0.00     0.049 A 
ATOM     55  H   UNL A   1      41.021  30.363  29.969  1.00  0.00     0.167 HD
ATOM     56  C   UNL A   1      43.336  23.719  28.252  1.00  0.00     0.031 A 
ATOM     57  C   UNL A   1      42.589  29.585  32.339  1.00  0.00     0.031 A 
ATOM     58  C   UNL A   1      44.297  24.224  29.235  1.00  0.00     0.049 A 
ATOM     59  C   UNL A   1      43.217  28.364  32.981  1.00  0.00     0.074 A 
ATOM     60  C   UNL A   1      45.434  25.008  29.147  1.00  0.00     0.029 A 
ATOM     61  N   UNL A   1      43.968  24.160  30.588  1.00  0.00    -0.354 N 
ATOM     62  N   UNL A   1      43.623  27.317  32.316  1.00  0.00    -0.248 NA
ATOM     63  C   UNL A   1      43.392  28.205  34.423  1.00  0.00     0.031 C 
ATOM     64  C   UNL A   1      45.709  25.522  30.446  1.00  0.00     0.029 A 
ATOM     65  C   UNL A   1      44.770  25.009  31.325  1.00  0.00     0.049 A 
ATOM     66  H   UNL A   1      43.262  23.588  30.965  1.00  0.00     0.167 HD
ATOM     67  C   UNL A   1      44.091  26.368  33.185  1.00  0.00     0.074 A 
ATOM     68  C   UNL A   1      43.939  26.977  34.494  1.00  0.00     0.031 C 
ATOM     69  C   UNL A   1      44.555  25.155  32.761  1.00  0.00     0.031 A 
BRANCH  56  70
ATOM     70  C   UNL A   1      43.705  22.772  27.119  1.00  0.00    -0.014 A 
ATOM     71  C   UNL A   1      42.867  21.678  26.817  1.00  0.00     0.010 A 
ATOM     72  C   UNL A   1      44.917  22.822  26.399  1.00  0.00     0.010 A 
ATOM     73  C   UNL A   1      43.245  20.672  25.905  1.00  0.00     0.020 A 
ATOM     74  C   UNL A   1      45.305  21.835  25.483  1.00  0.00     0.020 A 
ATOM     75  C   UNL A   1      44.474  20.749  25.256  1.00  0.00     0.054 A 
BRANCH  75  76
ATOM     76  S   UNL A   1      44.998  19.421  24.142  1.00  0.00     0.124 S 
ATOM     77  O   UNL A   1      46.453  19.464  24.265  1.00  0.00    -0.237 OA
ATOM     78  O   UNL A   1      44.348  18.248  24.720  1.00  0.00    -0.237 OA
ATOM     79  O   UNL A   1      44.478  19.834  22.838  1.00  0.00    -0.744 OA
ENDBRANCH  75  76
ENDBRANCH  56  70
BRANCH  57  80
ATOM     80  C   UNL A   1      41.358  30.274  32.819  1.00  0.00    -0.014 A 
ATOM     81  C   UNL A   1      40.247  29.464  33.141  1.00  0.00     0.010 A 
ATOM     82  C   UNL A   1      41.429  31.572  33.355  1.00  0.00     0.010 A 
ATOM     83  C   UNL A   1      39.333  29.864  34.118  1.00  0.00     0.020 A 
ATOM     84  C   UNL A   1      40.506  31.979  34.330  1.00  0.00     0.020 A 
ATOM     85  C   UNL A   1      39.511  31.092  34.755  1.00  0.00     0.054 A 
BRANCH  85  86
ATOM     86  S   UNL A   1      38.553  31.416  36.268  1.00  0.00     0.124 S 
ATOM     87  O   UNL A   1      39.523  32.098  37.116  1.00  0.00    -0.237 OA
ATOM     88  O   UNL A   1      37.460  32.250  35.762  1.00  0.00    -0.237 OA
ATOM     89  O   UNL A   1      38.161  30.080  36.706  1.00  0.00    -0.744 OA
ENDBRANCH  85  86
ENDBRANCH  57  80
BRANCH  69  90
ATOM     90  C   UNL A   1      44.916  23.998  33.661  1.00  0.00    -0.014 A 
ATOM     91  C   UNL A   1      44.048  22.936  33.961  1.00  0.00     0.010 A 
ATOM     92  C   UNL A   1      46.245  23.896  34.136  1.00  0.00     0.010 A 
ATOM     93  C   UNL A   1      44.466  21.855  34.753  1.00  0.00     0.020 A 
ATOM     94  C   UNL A   1      46.684  22.803  34.890  1.00  0.00     0.020 A 
ATOM     95  C   UNL A   1      45.780  21.800  35.218  1.00  0.00     0.054 A 
BRANCH  95  96
ATOM     96  S   UNL A   1      46.334  20.374  36.188  1.00  0.00     0.124 S 
ATOM     97  O   UNL A   1      45.834  20.704  37.519  1.00  0.00    -0.237 OA
ATOM     98  O   UNL A   1      45.672  19.249  35.532  1.00  0.00    -0.237 OA
ATOM     99  O   UNL A   1      47.787  20.405  36.037  1.00  0.00    -0.744 OA
ENDBRANCH  95  96
ENDBRANCH  69  90
ENDBRANCH  43  44
ENDBRANCH  35  38
ENDBRANCH  33  34
ENDBRANCH  32  33
ENDBRANCH  31  32
ENDBRANCH   1  31
TORSDOF 19
ENDMDL
MODEL 3
REMARK VINA RESULT:     -14.0      1.232      2.147
REMARK SMILES Cc1cccc(NC(=O)COc2ccc(N3C[C@@H](C(=O)NCCCCNC(=O)c4ccc(-c5c6nc(c(-c7ccc(S(=O)(=O)[O-])cc7)c7ccc([nH]7)c(-c7ccc(S(=O)(=O)[O-])cc7)c7nc(c(-c8ccc(S(=O)(=O)[O-])cc8)c8ccc5[nH]8)C=C7)C=C6)cc4)CC3=O)cc2)c1
REMARK SMILES IDX 22 1 21 2 19 3 20 4 18 6 16 7 17 8 90 9 89 10 91 11 15 12
REMARK SMILES IDX 12 13 13 14 93 15 14 16 92 17 11 18 10 19 8 20 7 21 9 23
REMARK SMILES IDX 6 24 1 25 2 26 3 27 94 28 4 29 5 30 23 31 24 32 25 33 26 34
REMARK SMILES IDX 27 35 28 37 29 38 30 39 88 40 31 41 87 42 32 43 33 44 34 45
REMARK SMILES IDX 81 46 35 47 86 48 80 49 82 50 36 51 85 52 79 53 78 54 37 56
REMARK SMILES IDX 67 57 48 58 66 59 49 60 52 61 65 62 83 63 50 64 51 65 64 67
REMARK SMILES IDX 84 68 53 69 38 70 39 71 47 72 40 73 46 74 41 75 42 76 43 77
REMARK SMILES IDX 44 78 45 79 68 80 69 81 77 82 70 83 76 84 71 85 72 86 73 87
REMARK SMILES IDX 74 88 75 89 54 90 55 91 63 92 56 93 62 94 57 95 58 96 59 97
REMARK SMILES IDX 60 98 61 99
REMARK H PARENT 21 5 7 22 26 36 82 55 52 66
REMARK Flexibility Score: inf
ROOT
ATOM      1  C   UNL A   1      32.132  29.848  25.204  1.00  0.00     0.116 C 
ENDROOT
BRANCH   1   2
ATOM      2  N   UNL A   1      30.800  30.026  24.638  1.00  0.00    -0.356 N 
ATOM      3  C   UNL A   1      30.192  29.556  23.521  1.00  0.00     0.225 C 
ATOM      4  O   UNL A   1      29.012  29.875  23.342  1.00  0.00    -0.275 OA
ATOM      5  H   UNL A   1      30.221  30.610  25.179  1.00  0.00     0.163 HD
BRANCH   3   6
ATOM      6  C   UNL A   1      30.868  28.656  22.508  1.00  0.00     0.107 C 
ATOM      7  N   UNL A   1      31.962  26.570  22.670  1.00  0.00    -0.312 N 
ATOM      8  C   UNL A   1      30.659  27.180  22.786  1.00  0.00     0.139 C 
ATOM      9  C   UNL A   1      32.973  27.505  22.454  1.00  0.00     0.227 C 
ATOM     10  C   UNL A   1      32.357  28.871  22.334  1.00  0.00     0.116 C 
ATOM     11  O   UNL A   1      34.172  27.309  22.306  1.00  0.00    -0.274 OA
BRANCH   7  12
ATOM     12  C   UNL A   1      32.156  25.177  22.833  1.00  0.00     0.044 A 
ATOM     13  C   UNL A   1      32.546  22.402  23.155  1.00  0.00     0.120 A 
ATOM     14  C   UNL A   1      31.316  22.979  23.457  1.00  0.00     0.048 A 
ATOM     15  C   UNL A   1      33.578  23.202  22.676  1.00  0.00     0.048 A 
ATOM     16  C   UNL A   1      31.130  24.360  23.327  1.00  0.00     0.030 A 
ATOM     17  C   UNL A   1      33.376  24.577  22.504  1.00  0.00     0.030 A 
BRANCH  13  18
ATOM     18  O   UNL A   1      32.618  21.045  23.268  1.00  0.00    -0.484 OA
BRANCH  18  19
ATOM     19  C   UNL A   1      31.962  20.485  24.395  1.00  0.00     0.329 C 
BRANCH  19  20
ATOM     20  C   UNL A   1      32.787  19.787  25.476  1.00  0.00     0.262 C 
ATOM     21  N   UNL A   1      33.770  20.397  26.192  1.00  0.00    -0.323 N 
ATOM     22  H   UNL A   1      34.112  19.833  26.923  1.00  0.00     0.170 HD
ATOM     23  O   UNL A   1      32.564  18.599  25.744  1.00  0.00    -0.271 OA
BRANCH  21  24
ATOM     24  C   UNL A   1      34.407  21.645  26.129  1.00  0.00     0.041 A 
ATOM     25  C   UNL A   1      37.980  22.765  25.350  1.00  0.00     0.044 C 
ATOM     26  C   UNL A   1      36.523  22.805  25.698  1.00  0.00    -0.049 A 
ATOM     27  C   UNL A   1      35.891  24.027  25.931  1.00  0.00     0.003 A 
ATOM     28  C   UNL A   1      35.773  21.624  25.795  1.00  0.00     0.029 A 
ATOM     29  C   UNL A   1      34.533  24.062  26.241  1.00  0.00     0.002 A 
ATOM     30  C   UNL A   1      33.793  22.878  26.328  1.00  0.00     0.026 A 
ENDBRANCH  21  24
ENDBRANCH  19  20
ENDBRANCH  18  19
ENDBRANCH  13  18
ENDBRANCH   7  12
ENDBRANCH   3   6
ENDBRANCH   1   2
BRANCH   1  31
ATOM     31  C   UNL A   1      32.131  29.124  26.560  1.00  0.00     0.023 C 
BRANCH  31  32
ATOM     32  C   UNL A   1      33.247  29.519  27.533  1.00  0.00     0.023 C 
BRANCH  32  33
ATOM     33  C   UNL A   1      34.600  29.735  26.868  1.00  0.00     0.116 C 
BRANCH  33  34
ATOM     34  N   UNL A   1      35.294  30.934  27.321  1.00  0.00    -0.352 N 
ATOM     35  C   UNL A   1      36.417  30.983  28.118  1.00  0.00     0.251 C 
ATOM     36  H   UNL A   1      34.921  31.798  27.029  1.00  0.00     0.163 HD
ATOM     37  O   UNL A   1      36.759  31.978  28.744  1.00  0.00    -0.269 OA
BRANCH  35  38
ATOM     38  C   UNL A   1      37.310  29.805  28.055  1.00  0.00     0.039 A 
ATOM     39  C   UNL A   1      37.368  28.998  29.198  1.00  0.00     0.014 A 
ATOM     40  C   UNL A   1      38.265  29.707  27.047  1.00  0.00     0.014 A 
ATOM     41  C   UNL A   1      38.491  28.207  29.415  1.00  0.00     0.010 A 
ATOM     42  C   UNL A   1      39.416  28.992  27.308  1.00  0.00     0.010 A 
ATOM     43  C   UNL A   1      39.552  28.286  28.515  1.00  0.00    -0.014 A 
BRANCH  43  44
ATOM     44  C   UNL A   1      40.871  27.727  28.777  1.00  0.00     0.031 A 
ATOM     45  C   UNL A   1      41.133  26.300  28.480  1.00  0.00     0.074 A 
ATOM     46  C   UNL A   1      41.871  28.525  29.215  1.00  0.00     0.049 A 
ATOM     47  N   UNL A   1      42.122  25.621  28.955  1.00  0.00    -0.248 NA
ATOM     48  C   UNL A   1      40.217  25.493  27.676  1.00  0.00     0.031 C 
ATOM     49  C   UNL A   1      43.298  28.218  29.229  1.00  0.00     0.029 A 
ATOM     50  N   UNL A   1      41.772  29.701  29.966  1.00  0.00    -0.354 N 
ATOM     51  C   UNL A   1      42.157  24.422  28.278  1.00  0.00     0.074 A 
ATOM     52  C   UNL A   1      40.882  24.337  27.610  1.00  0.00     0.031 C 
ATOM     53  C   UNL A   1      43.887  28.966  30.175  1.00  0.00     0.029 A 
ATOM     54  C   UNL A   1      42.830  29.659  30.892  1.00  0.00     0.049 A 
ATOM     55  H   UNL A   1      41.099  30.413  29.866  1.00  0.00     0.167 HD
ATOM     56  C   UNL A   1      43.323  23.718  28.229  1.00  0.00     0.031 A 
ATOM     57  C   UNL A   1      42.655  29.641  32.246  1.00  0.00     0.031 A 
ATOM     58  C   UNL A   1      44.290  24.220  29.207  1.00  0.00     0.049 A 
ATOM     59  C   UNL A   1      43.265  28.419  32.903  1.00  0.00     0.074 A 
ATOM     60  C   UNL A   1      45.438  24.987  29.110  1.00  0.00     0.029 A 
ATOM     61  N   UNL A   1      43.960  24.177  30.560  1.00  0.00    -0.354 N 
ATOM     62  N   UNL A   1      43.658  27.359  32.250  1.00  0.00    -0.248 NA
ATOM     63  C   UNL A   1      43.438  28.275  34.346  1.00  0.00     0.031 C 
ATOM     64  C   UNL A   1      45.719  25.513  30.403  1.00  0.00     0.029 A 
ATOM     65  C   UNL A   1      44.773  25.024  31.287  1.00  0.00     0.049 A 
ATOM     66  H   UNL A   1      43.246  23.619  30.943  1.00  0.00     0.167 HD
ATOM     67  C   UNL A   1      44.112  26.414  33.131  1.00  0.00     0.074 A 
ATOM     68  C   UNL A   1      43.968  27.040  34.433  1.00  0.00     0.031 C 
ATOM     69  C   UNL A   1      44.559  25.189  32.722  1.00  0.00     0.031 A 
BRANCH  56  70
ATOM     70  C   UNL A   1      43.679  22.752  27.107  1.00  0.00    -0.014 A 
ATOM     71  C   UNL A   1      42.860  21.630  26.860  1.00  0.00     0.010 A 
ATOM     72  C   UNL A   1      44.865  22.815  26.346  1.00  0.00     0.010 A 
ATOM     73  C   UNL A   1      43.234  20.612  25.960  1.00  0.00     0.020 A 
ATOM     74  C   UNL A   1      45.249  21.815  25.442  1.00  0.00     0.020 A 
ATOM     75  C   UNL A   1      44.440  20.704  25.269  1.00  0.00     0.054 A 
BRANCH  75  76
ATOM     76  S   UNL A   1      44.962  19.361  24.170  1.00  0.00     0.124 S 
ATOM     77  O   UNL A   1      44.446  19.798  22.876  1.00  0.00    -0.237 OA
ATOM     78  O   UNL A   1      46.414  19.382  24.313  1.00  0.00    -0.237 OA
ATOM     79  O   UNL A   1      44.304  18.180  24.728  1.00  0.00    -0.744 OA
ENDBRANCH  75  76
ENDBRANCH  56  70
BRANCH  57  80
ATOM     80  C   UNL A   1      41.433  30.353  32.717  1.00  0.00    -0.014 A 
ATOM     81  C   UNL A   1      40.291  29.568  32.987  1.00  0.00     0.010 A 
ATOM     82  C   UNL A   1      41.530  31.631  33.294  1.00  0.00     0.010 A 
ATOM     83  C   UNL A   1      39.364  29.966  33.953  1.00  0.00     0.020 A 
ATOM     84  C   UNL A   1      40.595  32.037  34.259  1.00  0.00     0.020 A 
ATOM     85  C   UNL A   1      39.563  31.168  34.632  1.00  0.00     0.054 A 
BRANCH  85  86
ATOM     86  S   UNL A   1      38.577  31.475  36.130  1.00  0.00     0.124 S 
ATOM     87  O   UNL A   1      39.459  32.329  36.918  1.00  0.00    -0.237 OA
ATOM     88  O   UNL A   1      37.388  32.131  35.582  1.00  0.00    -0.237 OA
ATOM     89  O   UNL A   1      38.355  30.135  36.663  1.00  0.00    -0.744 OA
ENDBRANCH  85  86
ENDBRANCH  57  80
BRANCH  69  90
ATOM     90  C   UNL A   1      44.903  24.038  33.635  1.00  0.00    -0.014 A 
ATOM     91  C   UNL A   1      44.001  23.025  33.996  1.00  0.00     0.010 A 
ATOM     92  C   UNL A   1      46.245  23.885  34.059  1.00  0.00     0.010 A 
ATOM     93  C   UNL A   1      44.401  21.945  34.798  1.00  0.00     0.020 A 
ATOM     94  C   UNL A   1      46.664  22.791  34.822  1.00  0.00     0.020 A 
ATOM     95  C   UNL A   1      45.729  21.839  35.211  1.00  0.00     0.054 A 
BRANCH  95  96
ATOM     96  S   UNL A   1      46.258  20.412  36.194  1.00  0.00     0.124 S 
ATOM     97  O   UNL A   1      45.808  20.787  37.532  1.00  0.00    -0.237 OA
ATOM     98  O   UNL A   1      45.535  19.301  35.579  1.00  0.00    -0.237 OA
ATOM     99  O   UNL A   1      47.706  20.385  36.002  1.00  0.00    -0.744 OA
ENDBRANCH  95  96
ENDBRANCH  69  90
ENDBRANCH  43  44
ENDBRANCH  35  38
ENDBRANCH  33  34
ENDBRANCH  32  33
ENDBRANCH  31  32
ENDBRANCH   1  31
TORSDOF 19
ENDMDL
