MODEL 1
REMARK VINA RESULT:     -11.7      0.000      0.000
REMARK SMILES COc1ccc(Br)cc1CNc1ccc(N2CCOCC2)c(C(=O)NCCCCNC(=O)c2ccc(-c3c4nc(c(-c5ccc(S(=O)(=O)[O-])cc5)c5ccc([nH]5)c(-c5ccc(S(=O)(=O)[O-])cc5)c5nc(c(-c6ccc(S(=O)(=O)[O-])cc6)c6ccc3[nH]6)C=C5)C=C4)cc2)c1
REMARK SMILES IDX 27 1 26 2 25 3 23 4 24 5 22 7 12 8 13 9 93 10 14 11 15 12
REMARK SMILES IDX 11 13 10 15 9 16 3 17 4 18 5 19 8 20 6 21 7 22 2 23 1 24
REMARK SMILES IDX 16 25 17 26 21 27 18 28 20 29 19 30 28 31 29 32 30 33 31 34
REMARK SMILES IDX 32 36 33 37 34 38 92 39 35 40 91 41 36 42 37 43 38 44 85 45
REMARK SMILES IDX 39 46 90 47 84 48 86 49 40 50 89 51 83 52 82 53 41 55 71 56
REMARK SMILES IDX 52 57 70 58 53 59 56 60 69 61 87 62 54 63 55 64 68 66 88 67
REMARK SMILES IDX 57 68 42 69 43 70 51 71 44 72 50 73 45 74 46 75 47 76 48 77
REMARK SMILES IDX 49 78 72 79 73 80 81 81 74 82 80 83 75 84 76 85 77 86 78 87
REMARK SMILES IDX 79 88 58 89 59 90 67 91 60 92 66 93 61 94 62 95 63 96 64 97
REMARK SMILES IDX 65 98
REMARK H PARENT 25 6 11 14 30 35 86 54 56 65
REMARK Flexibility Score: inf
ROOT
ATOM      1  C   UNL A   1      33.079  29.875  27.131  1.00  0.00     0.023 C 
ENDROOT
BRANCH   1   2
ATOM      2  C   UNL A   1      32.110  30.108  25.980  1.00  0.00     0.116 C 
BRANCH   2   3
ATOM      3  N   UNL A   1      32.613  29.782  24.652  1.00  0.00    -0.352 N 
ATOM      4  C   UNL A   1      32.069  29.029  23.620  1.00  0.00     0.253 C 
ATOM      5  O   UNL A   1      32.653  29.058  22.540  1.00  0.00    -0.269 OA
ATOM      6  H   UNL A   1      33.496  30.164  24.449  1.00  0.00     0.163 HD
BRANCH   4   7
ATOM      7  C   UNL A   1      30.842  28.194  23.826  1.00  0.00     0.065 A 
ATOM      8  C   UNL A   1      29.977  26.041  24.620  1.00  0.00     0.035 A 
ATOM      9  C   UNL A   1      28.757  26.352  24.025  1.00  0.00     0.028 A 
ATOM     10  C   UNL A   1      30.969  27.016  24.577  1.00  0.00     0.041 A 
ATOM     11  C   UNL A   1      28.544  27.602  23.440  1.00  0.00     0.029 A 
ATOM     12  C   UNL A   1      29.569  28.561  23.347  1.00  0.00     0.050 A 
BRANCH   8  13
ATOM     13  N   UNL A   1      30.131  24.833  25.259  1.00  0.00    -0.381 N 
ATOM     14  H   UNL A   1      29.489  24.123  25.031  1.00  0.00     0.160 HD
BRANCH  13  15
ATOM     15  C   UNL A   1      31.156  24.509  26.241  1.00  0.00     0.152 C 
BRANCH  15  16
ATOM     16  C   UNL A   1      32.176  23.602  25.596  1.00  0.00     0.014 A 
ATOM     17  C   UNL A   1      33.399  24.093  25.113  1.00  0.00     0.123 A 
ATOM     18  C   UNL A   1      34.325  23.212  24.547  1.00  0.00     0.048 A 
ATOM     19  C   UNL A   1      34.037  21.847  24.447  1.00  0.00     0.019 A 
ATOM     20  C   UNL A   1      31.913  22.220  25.521  1.00  0.00     0.025 A 
ATOM     21  C   UNL A   1      32.831  21.357  24.938  1.00  0.00     0.018 A 
ATOM     22  Br  UNL A   1      32.439  19.513  24.823  1.00  0.00    -0.051 Br
BRANCH  17  23
ATOM     23  O   UNL A   1      33.657  25.423  25.303  1.00  0.00    -0.496 OA
ATOM     24  C   UNL A   1      34.163  26.103  24.158  1.00  0.00     0.278 C 
ENDBRANCH  17  23
ENDBRANCH  15  16
ENDBRANCH  13  15
ENDBRANCH   8  13
BRANCH  12  25
ATOM     25  N   UNL A   1      29.240  29.825  22.909  1.00  0.00    -0.366 N 
ATOM     26  C   UNL A   1      29.017  30.959  23.807  1.00  0.00     0.145 C 
ATOM     27  C   UNL A   1      29.318  30.127  21.479  1.00  0.00     0.145 C 
ATOM     28  C   UNL A   1      27.905  31.875  23.255  1.00  0.00     0.181 C 
ATOM     29  C   UNL A   1      28.127  31.007  21.081  1.00  0.00     0.181 C 
ATOM     30  O   UNL A   1      28.107  32.211  21.867  1.00  0.00    -0.378 OA
ENDBRANCH  12  25
ENDBRANCH   4   7
ENDBRANCH   2   3
ENDBRANCH   1   2
BRANCH   1  31
ATOM     31  C   UNL A   1      33.885  31.074  27.609  1.00  0.00     0.023 C 
BRANCH  31  32
ATOM     32  C   UNL A   1      35.212  30.766  28.288  1.00  0.00     0.116 C 
BRANCH  32  33
ATOM     33  N   UNL A   1      35.292  31.218  29.669  1.00  0.00    -0.352 N 
ATOM     34  C   UNL A   1      36.318  31.076  30.580  1.00  0.00     0.251 C 
ATOM     35  H   UNL A   1      34.497  31.695  30.002  1.00  0.00     0.163 HD
ATOM     36  O   UNL A   1      36.179  31.463  31.730  1.00  0.00    -0.269 OA
BRANCH  34  37
ATOM     37  C   UNL A   1      37.571  30.405  30.164  1.00  0.00     0.039 A 
ATOM     38  C   UNL A   1      37.939  30.439  28.817  1.00  0.00     0.014 A 
ATOM     39  C   UNL A   1      38.404  29.801  31.107  1.00  0.00     0.014 A 
ATOM     40  C   UNL A   1      39.192  29.955  28.431  1.00  0.00     0.010 A 
ATOM     41  C   UNL A   1      39.682  29.395  30.735  1.00  0.00     0.010 A 
ATOM     42  C   UNL A   1      40.094  29.478  29.395  1.00  0.00    -0.014 A 
BRANCH  42  43
ATOM     43  C   UNL A   1      41.478  29.074  29.037  1.00  0.00     0.031 A 
ATOM     44  C   UNL A   1      42.579  30.100  29.024  1.00  0.00     0.074 A 
ATOM     45  C   UNL A   1      41.728  27.812  28.634  1.00  0.00     0.049 A 
ATOM     46  N   UNL A   1      43.819  29.976  28.627  1.00  0.00    -0.248 NA
ATOM     47  C   UNL A   1      42.230  31.453  29.489  1.00  0.00     0.031 C 
ATOM     48  C   UNL A   1      40.742  26.731  28.562  1.00  0.00     0.029 A 
ATOM     49  N   UNL A   1      42.890  27.226  28.193  1.00  0.00    -0.354 N 
ATOM     50  C   UNL A   1      44.389  31.236  28.769  1.00  0.00     0.074 A 
ATOM     51  C   UNL A   1      43.348  32.120  29.246  1.00  0.00     0.031 C 
ATOM     52  C   UNL A   1      41.344  25.612  28.124  1.00  0.00     0.029 A 
ATOM     53  C   UNL A   1      42.746  25.904  27.844  1.00  0.00     0.049 A 
ATOM     54  H   UNL A   1      43.746  27.708  28.134  1.00  0.00     0.167 HD
ATOM     55  C   UNL A   1      45.667  31.620  28.538  1.00  0.00     0.031 A 
ATOM     56  C   UNL A   1      43.637  25.025  27.341  1.00  0.00     0.031 A 
ATOM     57  C   UNL A   1      46.705  30.735  28.084  1.00  0.00     0.049 A 
ATOM     58  C   UNL A   1      45.052  25.474  27.098  1.00  0.00     0.074 A 
ATOM     59  C   UNL A   1      48.045  31.015  27.877  1.00  0.00     0.029 A 
ATOM     60  N   UNL A   1      46.522  29.396  27.770  1.00  0.00    -0.354 N 
ATOM     61  N   UNL A   1      45.584  26.656  27.291  1.00  0.00    -0.248 NA
ATOM     62  C   UNL A   1      45.987  24.468  26.576  1.00  0.00     0.031 C 
ATOM     63  C   UNL A   1      48.663  29.855  27.398  1.00  0.00     0.029 A 
ATOM     64  C   UNL A   1      47.721  28.842  27.356  1.00  0.00     0.049 A 
ATOM     65  H   UNL A   1      45.666  28.913  27.832  1.00  0.00     0.167 HD
ATOM     66  C   UNL A   1      46.925  26.529  26.943  1.00  0.00     0.074 A 
ATOM     67  C   UNL A   1      47.123  25.153  26.535  1.00  0.00     0.031 C 
ATOM     68  C   UNL A   1      47.903  27.467  26.962  1.00  0.00     0.031 A 
BRANCH  55  69
ATOM     69  C   UNL A   1      46.009  33.067  28.773  1.00  0.00    -0.014 A 
ATOM     70  C   UNL A   1      45.848  34.024  27.754  1.00  0.00     0.010 A 
ATOM     71  C   UNL A   1      46.472  33.481  30.035  1.00  0.00     0.010 A 
ATOM     72  C   UNL A   1      46.187  35.361  27.979  1.00  0.00     0.020 A 
ATOM     73  C   UNL A   1      46.787  34.823  30.272  1.00  0.00     0.020 A 
ATOM     74  C   UNL A   1      46.661  35.750  29.236  1.00  0.00     0.054 A 
BRANCH  74  75
ATOM     75  S   UNL A   1      47.081  37.494  29.503  1.00  0.00     0.124 S 
ATOM     76  O   UNL A   1      48.067  37.729  28.452  1.00  0.00    -0.237 OA
ATOM     77  O   UNL A   1      45.797  38.166  29.322  1.00  0.00    -0.237 OA
ATOM     78  O   UNL A   1      47.606  37.518  30.867  1.00  0.00    -0.744 OA
ENDBRANCH  74  75
ENDBRANCH  55  69
BRANCH  56  79
ATOM     79  C   UNL A   1      43.220  23.627  27.050  1.00  0.00    -0.014 A 
ATOM     80  C   UNL A   1      42.989  23.215  25.726  1.00  0.00     0.010 A 
ATOM     81  C   UNL A   1      43.064  22.695  28.093  1.00  0.00     0.010 A 
ATOM     82  C   UNL A   1      42.594  21.903  25.450  1.00  0.00     0.020 A 
ATOM     83  C   UNL A   1      42.694  21.374  27.818  1.00  0.00     0.020 A 
ATOM     84  C   UNL A   1      42.450  20.990  26.498  1.00  0.00     0.054 A 
BRANCH  84  85
ATOM     85  S   UNL A   1      41.989  19.278  26.111  1.00  0.00     0.124 S 
ATOM     86  O   UNL A   1      42.777  19.013  24.913  1.00  0.00    -0.237 OA
ATOM     87  O   UNL A   1      42.403  18.559  27.314  1.00  0.00    -0.237 OA
ATOM     88  O   UNL A   1      40.542  19.352  25.908  1.00  0.00    -0.744 OA
ENDBRANCH  84  85
ENDBRANCH  56  79
BRANCH  68  89
ATOM     89  C   UNL A   1      49.290  27.035  26.571  1.00  0.00    -0.014 A 
ATOM     90  C   UNL A   1      49.784  27.258  25.274  1.00  0.00     0.010 A 
ATOM     91  C   UNL A   1      50.135  26.466  27.541  1.00  0.00     0.010 A 
ATOM     92  C   UNL A   1      51.096  26.900  24.949  1.00  0.00     0.020 A 
ATOM     93  C   UNL A   1      51.454  26.130  27.226  1.00  0.00     0.020 A 
ATOM     94  C   UNL A   1      51.923  26.340  25.928  1.00  0.00     0.054 A 
BRANCH  94  95
ATOM     95  S   UNL A   1      53.640  25.944  25.499  1.00  0.00     0.124 S 
ATOM     96  O   UNL A   1      53.991  24.965  26.524  1.00  0.00    -0.237 OA
ATOM     97  O   UNL A   1      53.520  25.417  24.143  1.00  0.00    -0.237 OA
ATOM     98  O   UNL A   1      54.328  27.229  25.603  1.00  0.00    -0.744 OA
ENDBRANCH  94  95
ENDBRANCH  68  89
ENDBRANCH  42  43
ENDBRANCH  34  37
ENDBRANCH  32  33
ENDBRANCH  31  32
ENDBRANCH   1  31
TORSDOF 19
ENDMDL
MODEL 2
REMARK VINA RESULT:     -11.7      1.292      8.022
REMARK SMILES COc1ccc(Br)cc1CNc1ccc(N2CCOCC2)c(C(=O)NCCCCNC(=O)c2ccc(-c3c4nc(c(-c5ccc(S(=O)(=O)[O-])cc5)c5ccc([nH]5)c(-c5ccc(S(=O)(=O)[O-])cc5)c5nc(c(-c6ccc(S(=O)(=O)[O-])cc6)c6ccc3[nH]6)C=C5)C=C4)cc2)c1
REMARK SMILES IDX 27 1 26 2 25 3 23 4 24 5 22 7 12 8 13 9 93 10 14 11 15 12
REMARK SMILES IDX 11 13 10 15 9 16 3 17 4 18 5 19 8 20 6 21 7 22 2 23 1 24
REMARK SMILES IDX 16 25 17 26 21 27 18 28 20 29 19 30 28 31 29 32 30 33 31 34
REMARK SMILES IDX 32 36 33 37 34 38 92 39 35 40 91 41 36 42 37 43 38 44 85 45
REMARK SMILES IDX 39 46 90 47 84 48 86 49 40 50 89 51 83 52 82 53 41 55 71 56
REMARK SMILES IDX 52 57 70 58 53 59 56 60 69 61 87 62 54 63 55 64 68 66 88 67
REMARK SMILES IDX 57 68 42 69 43 70 51 71 44 72 50 73 45 74 46 75 47 76 48 77
REMARK SMILES IDX 49 78 72 79 73 80 81 81 74 82 80 83 75 84 76 85 77 86 78 87
REMARK SMILES IDX 79 88 58 89 59 90 67 91 60 92 66 93 61 94 62 95 63 96 64 97
REMARK SMILES IDX 65 98
REMARK H PARENT 25 6 11 14 30 35 86 54 56 65
REMARK Flexibility Score: inf
ROOT
ATOM      1  C   UNL A   1      33.697  29.768  27.063  1.00  0.00     0.023 C 
ENDROOT
BRANCH   1   2
ATOM      2  C   UNL A   1      32.770  29.997  25.878  1.00  0.00     0.116 C 
BRANCH   2   3
ATOM      3  N   UNL A   1      33.333  29.702  24.567  1.00  0.00    -0.352 N 
ATOM      4  C   UNL A   1      32.912  28.851  23.553  1.00  0.00     0.253 C 
ATOM      5  O   UNL A   1      33.503  28.927  22.480  1.00  0.00    -0.269 OA
ATOM      6  H   UNL A   1      34.160  30.194  24.362  1.00  0.00     0.163 HD
BRANCH   4   7
ATOM      7  C   UNL A   1      31.806  27.865  23.771  1.00  0.00     0.065 A 
ATOM      8  C   UNL A   1      31.247  25.584  24.475  1.00  0.00     0.035 A 
ATOM      9  C   UNL A   1      29.967  25.777  23.966  1.00  0.00     0.028 A 
ATOM     10  C   UNL A   1      32.114  26.671  24.440  1.00  0.00     0.041 A 
ATOM     11  C   UNL A   1      29.575  27.023  23.471  1.00  0.00     0.029 A 
ATOM     12  C   UNL A   1      30.472  28.102  23.383  1.00  0.00     0.050 A 
BRANCH   8  13
ATOM     13  N   UNL A   1      31.579  24.370  25.030  1.00  0.00    -0.381 N 
ATOM     14  H   UNL A   1      31.264  23.564  24.561  1.00  0.00     0.160 HD
BRANCH  13  15
ATOM     15  C   UNL A   1      32.354  24.167  26.246  1.00  0.00     0.152 C 
BRANCH  15  16
ATOM     16  C   UNL A   1      33.581  23.356  25.911  1.00  0.00     0.014 A 
ATOM     17  C   UNL A   1      33.488  22.071  25.354  1.00  0.00     0.123 A 
ATOM     18  C   UNL A   1      34.652  21.366  25.035  1.00  0.00     0.048 A 
ATOM     19  C   UNL A   1      35.910  21.928  25.278  1.00  0.00     0.019 A 
ATOM     20  C   UNL A   1      34.855  23.923  26.119  1.00  0.00     0.025 A 
ATOM     21  C   UNL A   1      36.005  23.207  25.817  1.00  0.00     0.018 A 
ATOM     22  Br  UNL A   1      37.699  23.980  26.133  1.00  0.00    -0.051 Br
BRANCH  17  23
ATOM     23  O   UNL A   1      32.233  21.602  25.072  1.00  0.00    -0.496 OA
ATOM     24  C   UNL A   1      32.156  20.750  23.934  1.00  0.00     0.278 C 
ENDBRANCH  17  23
ENDBRANCH  15  16
ENDBRANCH  13  15
ENDBRANCH   8  13
BRANCH  12  25
ATOM     25  N   UNL A   1      29.972  29.339  23.042  1.00  0.00    -0.366 N 
ATOM     26  C   UNL A   1      29.724  30.406  24.012  1.00  0.00     0.145 C 
ATOM     27  C   UNL A   1      29.874  29.704  21.628  1.00  0.00     0.145 C 
ATOM     28  C   UNL A   1      28.474  31.218  23.615  1.00  0.00     0.181 C 
ATOM     29  C   UNL A   1      28.566  30.465  21.389  1.00  0.00     0.181 C 
ATOM     30  O   UNL A   1      28.499  31.629  22.233  1.00  0.00    -0.378 OA
ENDBRANCH  12  25
ENDBRANCH   4   7
ENDBRANCH   2   3
ENDBRANCH   1   2
BRANCH   1  31
ATOM     31  C   UNL A   1      34.400  30.991  27.636  1.00  0.00     0.023 C 
BRANCH  31  32
ATOM     32  C   UNL A   1      35.751  30.745  28.294  1.00  0.00     0.116 C 
BRANCH  32  33
ATOM     33  N   UNL A   1      35.673  30.443  29.716  1.00  0.00    -0.352 N 
ATOM     34  C   UNL A   1      36.573  29.776  30.520  1.00  0.00     0.251 C 
ATOM     35  H   UNL A   1      34.859  30.762  30.169  1.00  0.00     0.163 HD
ATOM     36  O   UNL A   1      36.305  29.553  31.691  1.00  0.00    -0.269 OA
BRANCH  34  37
ATOM     37  C   UNL A   1      37.845  29.290  29.940  1.00  0.00     0.039 A 
ATOM     38  C   UNL A   1      38.070  29.460  28.571  1.00  0.00     0.014 A 
ATOM     39  C   UNL A   1      38.831  28.726  30.751  1.00  0.00     0.014 A 
ATOM     40  C   UNL A   1      39.325  29.157  28.035  1.00  0.00     0.010 A 
ATOM     41  C   UNL A   1      40.103  28.501  30.232  1.00  0.00     0.010 A 
ATOM     42  C   UNL A   1      40.367  28.725  28.872  1.00  0.00    -0.014 A 
BRANCH  42  43
ATOM     43  C   UNL A   1      41.745  28.515  28.358  1.00  0.00     0.031 A 
ATOM     44  C   UNL A   1      42.179  27.144  27.913  1.00  0.00     0.074 A 
ATOM     45  C   UNL A   1      42.633  29.529  28.379  1.00  0.00     0.049 A 
ATOM     46  N   UNL A   1      43.365  26.732  27.549  1.00  0.00    -0.248 NA
ATOM     47  C   UNL A   1      41.149  26.092  27.907  1.00  0.00     0.031 C 
ATOM     48  C   UNL A   1      42.352  30.896  28.825  1.00  0.00     0.029 A 
ATOM     49  N   UNL A   1      43.961  29.565  28.030  1.00  0.00    -0.354 N 
ATOM     50  C   UNL A   1      43.232  25.371  27.298  1.00  0.00     0.074 A 
ATOM     51  C   UNL A   1      41.860  25.019  27.593  1.00  0.00     0.031 C 
ATOM     52  C   UNL A   1      43.465  31.639  28.704  1.00  0.00     0.029 A 
ATOM     53  C   UNL A   1      44.549  30.794  28.213  1.00  0.00     0.049 A 
ATOM     54  H   UNL A   1      44.446  28.783  27.680  1.00  0.00     0.167 HD
ATOM     55  C   UNL A   1      44.161  24.496  26.846  1.00  0.00     0.031 A 
ATOM     56  C   UNL A   1      45.822  31.197  28.022  1.00  0.00     0.031 A 
ATOM     57  C   UNL A   1      45.518  24.852  26.534  1.00  0.00     0.049 A 
ATOM     58  C   UNL A   1      46.836  30.208  27.515  1.00  0.00     0.074 A 
ATOM     59  C   UNL A   1      46.520  24.050  26.014  1.00  0.00     0.029 A 
ATOM     60  N   UNL A   1      46.065  26.115  26.706  1.00  0.00    -0.354 N 
ATOM     61  N   UNL A   1      46.675  28.938  27.231  1.00  0.00    -0.248 NA
ATOM     62  C   UNL A   1      48.200  30.708  27.298  1.00  0.00     0.031 C 
ATOM     63  C   UNL A   1      47.685  24.819  25.913  1.00  0.00     0.029 A 
ATOM     64  C   UNL A   1      47.394  26.111  26.319  1.00  0.00     0.049 A 
ATOM     65  H   UNL A   1      45.579  26.898  27.053  1.00  0.00     0.167 HD
ATOM     66  C   UNL A   1      47.911  28.494  26.771  1.00  0.00     0.074 A 
ATOM     67  C   UNL A   1      48.806  29.633  26.809  1.00  0.00     0.031 C 
ATOM     68  C   UNL A   1      48.269  27.255  26.354  1.00  0.00     0.031 A 
BRANCH  55  69
ATOM     69  C   UNL A   1      43.735  23.063  26.667  1.00  0.00    -0.014 A 
ATOM     70  C   UNL A   1      44.128  22.327  25.535  1.00  0.00     0.010 A 
ATOM     71  C   UNL A   1      42.955  22.436  27.655  1.00  0.00     0.010 A 
ATOM     72  C   UNL A   1      43.710  21.004  25.371  1.00  0.00     0.020 A 
ATOM     73  C   UNL A   1      42.557  21.104  27.508  1.00  0.00     0.020 A 
ATOM     74  C   UNL A   1      42.922  20.402  26.357  1.00  0.00     0.054 A 
BRANCH  74  75
ATOM     75  S   UNL A   1      42.405  18.680  26.125  1.00  0.00     0.124 S 
ATOM     76  O   UNL A   1      42.655  18.111  27.446  1.00  0.00    -0.237 OA
ATOM     77  O   UNL A   1      40.998  18.814  25.754  1.00  0.00    -0.237 OA
ATOM     78  O   UNL A   1      43.282  18.196  25.061  1.00  0.00    -0.744 OA
ENDBRANCH  74  75
ENDBRANCH  55  69
BRANCH  56  79
ATOM     79  C   UNL A   1      46.205  32.609  28.294  1.00  0.00    -0.014 A 
ATOM     80  C   UNL A   1      46.700  32.980  29.557  1.00  0.00     0.010 A 
ATOM     81  C   UNL A   1      46.090  33.588  27.290  1.00  0.00     0.010 A 
ATOM     82  C   UNL A   1      47.056  34.307  29.817  1.00  0.00     0.020 A 
ATOM     83  C   UNL A   1      46.470  34.911  27.539  1.00  0.00     0.020 A 
ATOM     84  C   UNL A   1      46.941  35.264  28.805  1.00  0.00     0.054 A 
BRANCH  84  85
ATOM     85  S   UNL A   1      47.461  36.968  29.149  1.00  0.00     0.124 S 
ATOM     86  O   UNL A   1      46.484  37.389  30.148  1.00  0.00    -0.237 OA
ATOM     87  O   UNL A   1      48.827  36.791  29.634  1.00  0.00    -0.237 OA
ATOM     88  O   UNL A   1      47.352  37.627  27.848  1.00  0.00    -0.744 OA
ENDBRANCH  84  85
ENDBRANCH  56  79
BRANCH  68  89
ATOM     89  C   UNL A   1      49.678  27.067  25.863  1.00  0.00    -0.014 A 
ATOM     90  C   UNL A   1      50.702  26.644  26.728  1.00  0.00     0.010 A 
ATOM     91  C   UNL A   1      49.963  27.245  24.496  1.00  0.00     0.010 A 
ATOM     92  C   UNL A   1      51.992  26.420  26.237  1.00  0.00     0.020 A 
ATOM     93  C   UNL A   1      51.245  26.999  23.998  1.00  0.00     0.020 A 
ATOM     94  C   UNL A   1      52.254  26.597  24.875  1.00  0.00     0.054 A 
BRANCH  94  95
ATOM     95  S   UNL A   1      53.919  26.238  24.252  1.00  0.00     0.124 S 
ATOM     96  O   UNL A   1      54.090  24.839  24.630  1.00  0.00    -0.237 OA
ATOM     97  O   UNL A   1      53.787  26.490  22.819  1.00  0.00    -0.237 OA
ATOM     98  O   UNL A   1      54.768  27.187  24.969  1.00  0.00    -0.744 OA
ENDBRANCH  94  95
ENDBRANCH  68  89
ENDBRANCH  42  43
ENDBRANCH  34  37
ENDBRANCH  32  33
ENDBRANCH  31  32
ENDBRANCH   1  31
TORSDOF 19
ENDMDL
MODEL 3
REMARK VINA RESULT:     -11.6      3.152      5.419
REMARK SMILES COc1ccc(Br)cc1CNc1ccc(N2CCOCC2)c(C(=O)NCCCCNC(=O)c2ccc(-c3c4nc(c(-c5ccc(S(=O)(=O)[O-])cc5)c5ccc([nH]5)c(-c5ccc(S(=O)(=O)[O-])cc5)c5nc(c(-c6ccc(S(=O)(=O)[O-])cc6)c6ccc3[nH]6)C=C5)C=C4)cc2)c1
REMARK SMILES IDX 27 1 26 2 25 3 23 4 24 5 22 7 12 8 13 9 93 10 14 11 15 12
REMARK SMILES IDX 11 13 10 15 9 16 3 17 4 18 5 19 8 20 6 21 7 22 2 23 1 24
REMARK SMILES IDX 16 25 17 26 21 27 18 28 20 29 19 30 28 31 29 32 30 33 31 34
REMARK SMILES IDX 32 36 33 37 34 38 92 39 35 40 91 41 36 42 37 43 38 44 85 45
REMARK SMILES IDX 39 46 90 47 84 48 86 49 40 50 89 51 83 52 82 53 41 55 71 56
REMARK SMILES IDX 52 57 70 58 53 59 56 60 69 61 87 62 54 63 55 64 68 66 88 67
REMARK SMILES IDX 57 68 42 69 43 70 51 71 44 72 50 73 45 74 46 75 47 76 48 77
REMARK SMILES IDX 49 78 72 79 73 80 81 81 74 82 80 83 75 84 76 85 77 86 78 87
REMARK SMILES IDX 79 88 58 89 59 90 67 91 60 92 66 93 61 94 62 95 63 96 64 97
REMARK SMILES IDX 65 98
REMARK H PARENT 25 6 11 14 30 35 86 54 56 65
REMARK Flexibility Score: inf
ROOT
ATOM      1  C   UNL A   1      32.075  26.996  26.693  1.00  0.00     0.023 C 
ENDROOT
BRANCH   1   2
ATOM      2  C   UNL A   1      32.623  25.577  26.640  1.00  0.00     0.116 C 
BRANCH   2   3
ATOM      3  N   UNL A   1      31.645  24.529  26.374  1.00  0.00    -0.352 N 
ATOM      4  C   UNL A   1      31.331  23.836  25.214  1.00  0.00     0.253 C 
ATOM      5  O   UNL A   1      30.564  22.882  25.324  1.00  0.00    -0.269 OA
ATOM      6  H   UNL A   1      31.113  24.265  27.159  1.00  0.00     0.163 HD
BRANCH   4   7
ATOM      7  C   UNL A   1      31.878  24.251  23.883  1.00  0.00     0.065 A 
ATOM      8  C   UNL A   1      31.894  26.002  22.166  1.00  0.00     0.035 A 
ATOM      9  C   UNL A   1      32.523  25.106  21.307  1.00  0.00     0.028 A 
ATOM     10  C   UNL A   1      31.662  25.575  23.470  1.00  0.00     0.041 A 
ATOM     11  C   UNL A   1      32.925  23.846  21.757  1.00  0.00     0.029 A 
ATOM     12  C   UNL A   1      32.636  23.396  23.058  1.00  0.00     0.050 A 
BRANCH   8  13
ATOM     13  N   UNL A   1      31.583  27.265  21.718  1.00  0.00    -0.381 N 
ATOM     14  H   UNL A   1      31.433  27.371  20.751  1.00  0.00     0.160 HD
BRANCH  13  15
ATOM     15  C   UNL A   1      31.454  28.458  22.543  1.00  0.00     0.152 C 
BRANCH  15  16
ATOM     16  C   UNL A   1      30.036  28.966  22.444  1.00  0.00     0.014 A 
ATOM     17  C   UNL A   1      28.981  28.349  23.134  1.00  0.00     0.123 A 
ATOM     18  C   UNL A   1      27.687  28.869  23.033  1.00  0.00     0.048 A 
ATOM     19  C   UNL A   1      27.435  29.993  22.240  1.00  0.00     0.019 A 
ATOM     20  C   UNL A   1      29.774  30.118  21.676  1.00  0.00     0.025 A 
ATOM     21  C   UNL A   1      28.482  30.615  21.567  1.00  0.00     0.018 A 
ATOM     22  Br  UNL A   1      28.154  32.144  20.507  1.00  0.00    -0.051 Br
BRANCH  17  23
ATOM     23  O   UNL A   1      29.299  27.297  23.950  1.00  0.00    -0.496 OA
ATOM     24  C   UNL A   1      28.287  26.302  24.064  1.00  0.00     0.278 C 
ENDBRANCH  17  23
ENDBRANCH  15  16
ENDBRANCH  13  15
ENDBRANCH   8  13
BRANCH  12  25
ATOM     25  N   UNL A   1      33.206  22.216  23.481  1.00  0.00    -0.366 N 
ATOM     26  C   UNL A   1      32.590  20.904  23.282  1.00  0.00     0.145 C 
ATOM     27  C   UNL A   1      34.588  22.225  23.965  1.00  0.00     0.145 C 
ATOM     28  C   UNL A   1      32.884  19.981  24.482  1.00  0.00     0.181 C 
ATOM     29  C   UNL A   1      34.707  21.295  25.177  1.00  0.00     0.181 C 
ATOM     30  O   UNL A   1      34.283  19.963  24.834  1.00  0.00    -0.378 OA
ENDBRANCH  12  25
ENDBRANCH   4   7
ENDBRANCH   2   3
ENDBRANCH   1   2
BRANCH   1  31
ATOM     31  C   UNL A   1      32.886  28.021  27.472  1.00  0.00     0.023 C 
BRANCH  31  32
ATOM     32  C   UNL A   1      33.595  29.087  26.649  1.00  0.00     0.116 C 
BRANCH  32  33
ATOM     33  N   UNL A   1      33.564  30.416  27.243  1.00  0.00    -0.352 N 
ATOM     34  C   UNL A   1      34.522  31.060  27.998  1.00  0.00     0.251 C 
ATOM     35  H   UNL A   1      32.740  30.929  27.081  1.00  0.00     0.163 HD
ATOM     36  O   UNL A   1      34.291  32.160  28.477  1.00  0.00    -0.269 OA
BRANCH  34  37
ATOM     37  C   UNL A   1      35.812  30.385  28.265  1.00  0.00     0.039 A 
ATOM     38  C   UNL A   1      36.769  30.332  27.248  1.00  0.00     0.014 A 
ATOM     39  C   UNL A   1      36.098  29.863  29.528  1.00  0.00     0.014 A 
ATOM     40  C   UNL A   1      38.049  29.846  27.529  1.00  0.00     0.010 A 
ATOM     41  C   UNL A   1      37.394  29.455  29.827  1.00  0.00     0.010 A 
ATOM     42  C   UNL A   1      38.386  29.453  28.834  1.00  0.00    -0.014 A 
BRANCH  42  43
ATOM     43  C   UNL A   1      39.771  29.051  29.195  1.00  0.00     0.031 A 
ATOM     44  C   UNL A   1      40.699  30.048  29.834  1.00  0.00     0.074 A 
ATOM     45  C   UNL A   1      40.223  27.824  28.864  1.00  0.00     0.049 A 
ATOM     46  N   UNL A   1      41.971  29.931  30.113  1.00  0.00    -0.248 NA
ATOM     47  C   UNL A   1      40.127  31.361  30.176  1.00  0.00     0.031 C 
ATOM     48  C   UNL A   1      39.439  26.777  28.204  1.00  0.00     0.029 A 
ATOM     49  N   UNL A   1      41.463  27.253  29.024  1.00  0.00    -0.354 N 
ATOM     50  C   UNL A   1      42.357  31.159  30.636  1.00  0.00     0.074 A 
ATOM     51  C   UNL A   1      41.197  32.021  30.595  1.00  0.00     0.031 C 
ATOM     52  C   UNL A   1      40.207  25.689  28.035  1.00  0.00     0.029 A 
ATOM     53  C   UNL A   1      41.550  25.972  28.533  1.00  0.00     0.049 A 
ATOM     54  H   UNL A   1      42.217  27.719  29.451  1.00  0.00     0.167 HD
ATOM     55  C   UNL A   1      43.565  31.533  31.122  1.00  0.00     0.031 A 
ATOM     56  C   UNL A   1      42.595  25.122  28.477  1.00  0.00     0.031 A 
ATOM     57  C   UNL A   1      44.712  30.668  31.181  1.00  0.00     0.049 A 
ATOM     58  C   UNL A   1      43.925  25.557  29.027  1.00  0.00     0.074 A 
ATOM     59  C   UNL A   1      45.963  30.934  31.710  1.00  0.00     0.029 A 
ATOM     60  N   UNL A   1      44.749  29.368  30.700  1.00  0.00    -0.354 N 
ATOM     61  N   UNL A   1      44.255  26.704  29.569  1.00  0.00    -0.248 NA
ATOM     62  C   UNL A   1      45.021  24.581  28.966  1.00  0.00     0.031 C 
ATOM     63  C   UNL A   1      46.769  29.808  31.510  1.00  0.00     0.029 A 
ATOM     64  C   UNL A   1      46.005  28.825  30.905  1.00  0.00     0.049 A 
ATOM     65  H   UNL A   1      43.993  28.901  30.276  1.00  0.00     0.167 HD
ATOM     66  C   UNL A   1      45.590  26.578  29.940  1.00  0.00     0.074 A 
ATOM     67  C   UNL A   1      46.003  25.240  29.569  1.00  0.00     0.031 C 
ATOM     68  C   UNL A   1      46.398  27.487  30.538  1.00  0.00     0.031 A 
BRANCH  55  69
ATOM     69  C   UNL A   1      43.703  32.944  31.627  1.00  0.00    -0.014 A 
ATOM     70  C   UNL A   1      43.503  33.251  32.985  1.00  0.00     0.010 A 
ATOM     71  C   UNL A   1      44.062  33.974  30.738  1.00  0.00     0.010 A 
ATOM     72  C   UNL A   1      43.615  34.568  33.437  1.00  0.00     0.020 A 
ATOM     73  C   UNL A   1      44.202  35.289  31.192  1.00  0.00     0.020 A 
ATOM     74  C   UNL A   1      43.958  35.581  32.535  1.00  0.00     0.054 A 
BRANCH  74  75
ATOM     75  S   UNL A   1      44.109  37.279  33.152  1.00  0.00     0.124 S 
ATOM     76  O   UNL A   1      45.427  37.255  33.778  1.00  0.00    -0.237 OA
ATOM     77  O   UNL A   1      44.007  38.074  31.932  1.00  0.00    -0.237 OA
ATOM     78  O   UNL A   1      42.983  37.413  34.074  1.00  0.00    -0.744 OA
ENDBRANCH  74  75
ENDBRANCH  55  69
BRANCH  56  79
ATOM     79  C   UNL A   1      42.420  23.765  27.891  1.00  0.00    -0.014 A 
ATOM     80  C   UNL A   1      42.735  23.527  26.542  1.00  0.00     0.010 A 
ATOM     81  C   UNL A   1      41.949  22.699  28.681  1.00  0.00     0.010 A 
ATOM     82  C   UNL A   1      42.568  22.255  25.987  1.00  0.00     0.020 A 
ATOM     83  C   UNL A   1      41.805  21.419  28.137  1.00  0.00     0.020 A 
ATOM     84  C   UNL A   1      42.105  21.208  26.789  1.00  0.00     0.054 A 
BRANCH  84  85
ATOM     85  S   UNL A   1      41.947  19.552  26.063  1.00  0.00     0.124 S 
ATOM     86  O   UNL A   1      40.511  19.460  25.825  1.00  0.00    -0.237 OA
ATOM     87  O   UNL A   1      42.782  19.650  24.868  1.00  0.00    -0.237 OA
ATOM     88  O   UNL A   1      42.470  18.671  27.106  1.00  0.00    -0.744 OA
ENDBRANCH  84  85
ENDBRANCH  56  79
BRANCH  68  89
ATOM     89  C   UNL A   1      47.802  27.060  30.869  1.00  0.00    -0.014 A 
ATOM     90  C   UNL A   1      48.853  27.240  29.953  1.00  0.00     0.010 A 
ATOM     91  C   UNL A   1      48.082  26.540  32.145  1.00  0.00     0.010 A 
ATOM     92  C   UNL A   1      50.160  26.888  30.304  1.00  0.00     0.020 A 
ATOM     93  C   UNL A   1      49.391  26.211  32.508  1.00  0.00     0.020 A 
ATOM     94  C   UNL A   1      50.420  26.378  31.580  1.00  0.00     0.054 A 
BRANCH  94  95
ATOM     95  S   UNL A   1      52.133  25.990  32.033  1.00  0.00     0.124 S 
ATOM     96  O   UNL A   1      52.523  27.175  32.792  1.00  0.00    -0.237 OA
ATOM     97  O   UNL A   1      51.989  24.764  32.814  1.00  0.00    -0.237 OA
ATOM     98  O   UNL A   1      52.803  25.825  30.745  1.00  0.00    -0.744 OA
ENDBRANCH  94  95
ENDBRANCH  68  89
ENDBRANCH  42  43
ENDBRANCH  34  37
ENDBRANCH  32  33
ENDBRANCH  31  32
ENDBRANCH   1  31
TORSDOF 19
ENDMDL
