MODEL 1
REMARK VINA RESULT:     -11.0      0.000      0.000
REMARK SMILES CC[C@@H](C)NC(=O)Cn1cccc1C(=O)NCCCCNC(=O)c1ccc(-c2c3nc(c(-c4ccc(S(=O)(=O)[O-])cc4)c4ccc([nH]4)c(-c4ccc(S(=O)(=O)[O-])cc4)c4nc(c(-c5ccc(S(=O)(=O)[O-])cc5)c5ccc2[nH]5)C=C4)C=C3)cc1
REMARK SMILES IDX 18 1 17 2 16 3 14 4 15 5 13 7 9 8 10 9 11 10 12 11 8 12 6 13
REMARK SMILES IDX 5 14 7 16 3 17 4 18 2 19 1 20 19 21 20 22 21 23 22 24 23 26
REMARK SMILES IDX 24 27 25 28 83 29 26 30 82 31 27 32 28 33 29 34 76 35 30 36
REMARK SMILES IDX 81 37 75 38 77 39 31 40 80 41 74 42 73 43 32 45 62 46 43 47
REMARK SMILES IDX 61 48 44 49 47 50 60 51 78 52 45 53 46 54 59 56 79 57 48 58
REMARK SMILES IDX 33 59 34 60 42 61 35 62 41 63 36 64 37 65 38 66 39 67 40 68
REMARK SMILES IDX 63 69 64 70 72 71 65 72 71 73 66 74 67 75 68 76 69 77 70 78
REMARK SMILES IDX 49 79 50 80 58 81 51 82 57 83 52 84 53 85 54 86 55 87 56 88
REMARK H PARENT 16 6 5 15 21 25 77 44 47 55
REMARK Flexibility Score: inf
ROOT
ATOM      1  C   UNL A   1      31.503  30.905  26.132  1.00  0.00     0.023 C 
ENDROOT
BRANCH   1   2
ATOM      2  C   UNL A   1      32.181  29.892  27.068  1.00  0.00     0.116 C 
BRANCH   2   3
ATOM      3  N   UNL A   1      31.506  28.610  27.076  1.00  0.00    -0.351 N 
ATOM      4  C   UNL A   1      31.601  27.427  26.387  1.00  0.00     0.267 C 
ATOM      5  O   UNL A   1      30.898  26.526  26.864  1.00  0.00    -0.268 OA
ATOM      6  H   UNL A   1      30.791  28.580  27.751  1.00  0.00     0.163 HD
BRANCH   4   7
ATOM      7  C   UNL A   1      32.456  27.147  25.232  1.00  0.00     0.107 A 
ATOM      8  N   UNL A   1      32.614  27.751  23.996  1.00  0.00    -0.334 N 
ATOM      9  C   UNL A   1      33.567  27.081  23.249  1.00  0.00     0.087 A 
ATOM     10  C   UNL A   1      33.883  25.921  23.902  1.00  0.00     0.020 A 
ATOM     11  C   UNL A   1      33.196  25.961  25.130  1.00  0.00     0.033 A 
BRANCH   8  12
ATOM     12  C   UNL A   1      31.795  28.772  23.378  1.00  0.00     0.222 C 
BRANCH  12  13
ATOM     13  C   UNL A   1      30.392  28.279  23.075  1.00  0.00     0.240 C 
ATOM     14  N   UNL A   1      29.347  29.122  23.337  1.00  0.00    -0.352 N 
ATOM     15  H   UNL A   1      28.638  28.844  23.962  1.00  0.00     0.163 HD
ATOM     16  O   UNL A   1      30.107  27.170  22.626  1.00  0.00    -0.273 OA
BRANCH  14  17
ATOM     17  C   UNL A   1      29.279  30.425  22.700  1.00  0.00     0.078 C 
ATOM     18  C   UNL A   1      28.756  31.443  23.701  1.00  0.00     0.031 C 
BRANCH  17  19
ATOM     19  C   UNL A   1      28.391  30.280  21.451  1.00  0.00     0.021 C 
ATOM     20  C   UNL A   1      28.047  31.603  20.800  1.00  0.00     0.006 C 
ENDBRANCH  17  19
ENDBRANCH  14  17
ENDBRANCH  12  13
ENDBRANCH   8  12
ENDBRANCH   4   7
ENDBRANCH   2   3
ENDBRANCH   1   2
BRANCH   1  21
ATOM     21  C   UNL A   1      31.325  32.328  26.667  1.00  0.00     0.023 C 
BRANCH  21  22
ATOM     22  C   UNL A   1      32.586  32.891  27.301  1.00  0.00     0.116 C 
BRANCH  22  23
ATOM     23  N   UNL A   1      32.435  34.309  27.608  1.00  0.00    -0.352 N 
ATOM     24  C   UNL A   1      33.020  35.040  28.614  1.00  0.00     0.251 C 
ATOM     25  H   UNL A   1      31.831  34.810  27.014  1.00  0.00     0.163 HD
ATOM     26  O   UNL A   1      32.558  36.118  28.948  1.00  0.00    -0.269 OA
BRANCH  24  27
ATOM     27  C   UNL A   1      34.212  34.499  29.291  1.00  0.00     0.039 A 
ATOM     28  C   UNL A   1      34.056  33.864  30.525  1.00  0.00     0.014 A 
ATOM     29  C   UNL A   1      35.474  34.637  28.700  1.00  0.00     0.014 A 
ATOM     30  C   UNL A   1      35.166  33.294  31.134  1.00  0.00     0.010 A 
ATOM     31  C   UNL A   1      36.577  34.041  29.288  1.00  0.00     0.010 A 
ATOM     32  C   UNL A   1      36.416  33.364  30.499  1.00  0.00    -0.014 A 
BRANCH  32  33
ATOM     33  C   UNL A   1      37.543  32.590  31.057  1.00  0.00     0.031 A 
ATOM     34  C   UNL A   1      37.778  31.296  30.243  1.00  0.00     0.074 A 
ATOM     35  C   UNL A   1      38.125  33.112  32.183  1.00  0.00     0.049 A 
ATOM     36  N   UNL A   1      38.145  30.117  30.639  1.00  0.00    -0.248 NA
ATOM     37  C   UNL A   1      37.453  31.279  28.787  1.00  0.00     0.031 C 
ATOM     38  C   UNL A   1      37.792  34.431  32.782  1.00  0.00     0.029 A 
ATOM     39  N   UNL A   1      39.100  32.675  33.052  1.00  0.00    -0.354 N 
ATOM     40  C   UNL A   1      38.264  29.283  29.498  1.00  0.00     0.074 A 
ATOM     41  C   UNL A   1      37.714  30.025  28.404  1.00  0.00     0.031 C 
ATOM     42  C   UNL A   1      38.476  34.638  33.931  1.00  0.00     0.029 A 
ATOM     43  C   UNL A   1      39.311  33.488  34.204  1.00  0.00     0.049 A 
ATOM     44  H   UNL A   1      39.618  31.854  32.889  1.00  0.00     0.167 HD
ATOM     45  C   UNL A   1      38.937  28.091  29.508  1.00  0.00     0.031 A 
ATOM     46  C   UNL A   1      40.055  33.212  35.322  1.00  0.00     0.031 A 
ATOM     47  C   UNL A   1      39.429  27.841  30.821  1.00  0.00     0.049 A 
ATOM     48  C   UNL A   1      40.676  31.912  35.038  1.00  0.00     0.074 A 
ATOM     49  C   UNL A   1      38.817  27.501  31.998  1.00  0.00     0.029 A 
ATOM     50  N   UNL A   1      40.681  28.341  31.085  1.00  0.00    -0.354 N 
ATOM     51  N   UNL A   1      41.662  31.713  34.221  1.00  0.00    -0.248 NA
ATOM     52  C   UNL A   1      40.085  30.715  35.651  1.00  0.00     0.031 C 
ATOM     53  C   UNL A   1      39.491  28.310  32.940  1.00  0.00     0.029 A 
ATOM     54  C   UNL A   1      40.622  28.881  32.344  1.00  0.00     0.049 A 
ATOM     55  H   UNL A   1      41.465  28.318  30.490  1.00  0.00     0.167 HD
ATOM     56  C   UNL A   1      41.543  30.376  33.946  1.00  0.00     0.074 A 
ATOM     57  C   UNL A   1      40.823  29.785  35.054  1.00  0.00     0.031 C 
ATOM     58  C   UNL A   1      41.533  29.951  32.658  1.00  0.00     0.031 A 
BRANCH  45  59
ATOM     59  C   UNL A   1      39.478  27.199  28.414  1.00  0.00    -0.014 A 
ATOM     60  C   UNL A   1      39.442  25.797  28.656  1.00  0.00     0.010 A 
ATOM     61  C   UNL A   1      40.292  27.644  27.365  1.00  0.00     0.010 A 
ATOM     62  C   UNL A   1      40.286  24.905  27.994  1.00  0.00     0.020 A 
ATOM     63  C   UNL A   1      41.116  26.742  26.661  1.00  0.00     0.020 A 
ATOM     64  C   UNL A   1      41.146  25.390  27.017  1.00  0.00     0.054 A 
BRANCH  64  65
ATOM     65  S   UNL A   1      42.335  24.236  26.279  1.00  0.00     0.124 S 
ATOM     66  O   UNL A   1      41.533  23.027  26.114  1.00  0.00    -0.237 OA
ATOM     67  O   UNL A   1      42.703  24.915  25.038  1.00  0.00    -0.237 OA
ATOM     68  O   UNL A   1      43.400  24.157  27.274  1.00  0.00    -0.744 OA
ENDBRANCH  64  65
ENDBRANCH  45  59
BRANCH  46  69
ATOM     69  C   UNL A   1      40.286  33.734  36.729  1.00  0.00    -0.014 A 
ATOM     70  C   UNL A   1      41.468  34.265  37.259  1.00  0.00     0.010 A 
ATOM     71  C   UNL A   1      39.153  33.795  37.595  1.00  0.00     0.010 A 
ATOM     72  C   UNL A   1      41.466  34.949  38.507  1.00  0.00     0.020 A 
ATOM     73  C   UNL A   1      39.122  34.511  38.793  1.00  0.00     0.020 A 
ATOM     74  C   UNL A   1      40.280  35.114  39.236  1.00  0.00     0.054 A 
BRANCH  74  75
ATOM     75  S   UNL A   1      40.191  36.220  40.676  1.00  0.00     0.124 S 
ATOM     76  O   UNL A   1      38.793  36.109  41.075  1.00  0.00    -0.237 OA
ATOM     77  O   UNL A   1      41.161  35.630  41.596  1.00  0.00    -0.237 OA
ATOM     78  O   UNL A   1      40.582  37.521  40.133  1.00  0.00    -0.744 OA
ENDBRANCH  74  75
ENDBRANCH  46  69
BRANCH  58  79
ATOM     79  C   UNL A   1      42.201  30.874  31.647  1.00  0.00    -0.014 A 
ATOM     80  C   UNL A   1      43.602  30.860  31.533  1.00  0.00     0.010 A 
ATOM     81  C   UNL A   1      41.499  31.805  30.851  1.00  0.00     0.010 A 
ATOM     82  C   UNL A   1      44.279  31.721  30.657  1.00  0.00     0.020 A 
ATOM     83  C   UNL A   1      42.168  32.677  29.969  1.00  0.00     0.020 A 
ATOM     84  C   UNL A   1      43.559  32.622  29.872  1.00  0.00     0.054 A 
BRANCH  84  85
ATOM     85  S   UNL A   1      44.475  33.702  28.730  1.00  0.00     0.124 S 
ATOM     86  O   UNL A   1      45.286  32.755  27.969  1.00  0.00    -0.237 OA
ATOM     87  O   UNL A   1      43.401  34.347  27.980  1.00  0.00    -0.237 OA
ATOM     88  O   UNL A   1      45.231  34.586  29.615  1.00  0.00    -0.744 OA
ENDBRANCH  84  85
ENDBRANCH  58  79
ENDBRANCH  32  33
ENDBRANCH  24  27
ENDBRANCH  22  23
ENDBRANCH  21  22
ENDBRANCH   1  21
TORSDOF 18
ENDMDL
MODEL 2
REMARK VINA RESULT:     -10.9      4.066     10.285
REMARK SMILES CC[C@@H](C)NC(=O)Cn1cccc1C(=O)NCCCCNC(=O)c1ccc(-c2c3nc(c(-c4ccc(S(=O)(=O)[O-])cc4)c4ccc([nH]4)c(-c4ccc(S(=O)(=O)[O-])cc4)c4nc(c(-c5ccc(S(=O)(=O)[O-])cc5)c5ccc2[nH]5)C=C4)C=C3)cc1
REMARK SMILES IDX 18 1 17 2 16 3 14 4 15 5 13 7 9 8 10 9 11 10 12 11 8 12 6 13
REMARK SMILES IDX 5 14 7 16 3 17 4 18 2 19 1 20 19 21 20 22 21 23 22 24 23 26
REMARK SMILES IDX 24 27 25 28 83 29 26 30 82 31 27 32 28 33 29 34 76 35 30 36
REMARK SMILES IDX 81 37 75 38 77 39 31 40 80 41 74 42 73 43 32 45 62 46 43 47
REMARK SMILES IDX 61 48 44 49 47 50 60 51 78 52 45 53 46 54 59 56 79 57 48 58
REMARK SMILES IDX 33 59 34 60 42 61 35 62 41 63 36 64 37 65 38 66 39 67 40 68
REMARK SMILES IDX 63 69 64 70 72 71 65 72 71 73 66 74 67 75 68 76 69 77 70 78
REMARK SMILES IDX 49 79 50 80 58 81 51 82 57 83 52 84 53 85 54 86 55 87 56 88
REMARK H PARENT 16 6 5 15 21 25 77 44 47 55
REMARK Flexibility Score: inf
ROOT
ATOM      1  C   UNL A   1      33.379  27.074  25.236  1.00  0.00     0.023 C 
ENDROOT
BRANCH   1   2
ATOM      2  C   UNL A   1      33.714  25.716  25.873  1.00  0.00     0.116 C 
BRANCH   2   3
ATOM      3  N   UNL A   1      32.552  25.085  26.466  1.00  0.00    -0.351 N 
ATOM      4  C   UNL A   1      31.877  23.898  26.324  1.00  0.00     0.267 C 
ATOM      5  O   UNL A   1      31.007  23.723  27.187  1.00  0.00    -0.268 OA
ATOM      6  H   UNL A   1      32.137  25.657  27.150  1.00  0.00     0.163 HD
BRANCH   4   7
ATOM      7  C   UNL A   1      32.125  22.859  25.321  1.00  0.00     0.107 A 
ATOM      8  N   UNL A   1      32.716  21.608  25.375  1.00  0.00    -0.334 N 
ATOM      9  C   UNL A   1      32.708  21.017  24.123  1.00  0.00     0.087 A 
ATOM     10  C   UNL A   1      32.308  21.954  23.211  1.00  0.00     0.020 A 
ATOM     11  C   UNL A   1      31.947  23.096  23.952  1.00  0.00     0.033 A 
BRANCH   8  12
ATOM     12  C   UNL A   1      33.475  21.011  26.453  1.00  0.00     0.222 C 
BRANCH  12  13
ATOM     13  C   UNL A   1      34.492  21.973  27.041  1.00  0.00     0.240 C 
ATOM     14  N   UNL A   1      35.771  21.925  26.558  1.00  0.00    -0.352 N 
ATOM     15  H   UNL A   1      36.519  21.739  27.171  1.00  0.00     0.163 HD
ATOM     16  O   UNL A   1      34.270  22.787  27.935  1.00  0.00    -0.273 OA
BRANCH  14  17
ATOM     17  C   UNL A   1      36.030  22.146  25.147  1.00  0.00     0.078 C 
ATOM     18  C   UNL A   1      36.921  21.030  24.623  1.00  0.00     0.031 C 
BRANCH  17  19
ATOM     19  C   UNL A   1      36.655  23.546  25.008  1.00  0.00     0.021 C 
ATOM     20  C   UNL A   1      37.618  23.889  26.124  1.00  0.00     0.006 C 
ENDBRANCH  17  19
ENDBRANCH  14  17
ENDBRANCH  12  13
ENDBRANCH   8  12
ENDBRANCH   4   7
ENDBRANCH   2   3
ENDBRANCH   1   2
BRANCH   1  21
ATOM     21  C   UNL A   1      34.069  28.304  25.833  1.00  0.00     0.023 C 
BRANCH  21  22
ATOM     22  C   UNL A   1      33.665  28.577  27.273  1.00  0.00     0.116 C 
BRANCH  22  23
ATOM     23  N   UNL A   1      33.627  30.009  27.548  1.00  0.00    -0.352 N 
ATOM     24  C   UNL A   1      34.513  30.771  28.271  1.00  0.00     0.251 C 
ATOM     25  H   UNL A   1      32.863  30.496  27.162  1.00  0.00     0.163 HD
ATOM     26  O   UNL A   1      34.190  31.870  28.689  1.00  0.00    -0.269 OA
BRANCH  24  27
ATOM     27  C   UNL A   1      35.860  30.238  28.543  1.00  0.00     0.039 A 
ATOM     28  C   UNL A   1      36.818  30.281  27.528  1.00  0.00     0.014 A 
ATOM     29  C   UNL A   1      36.154  29.692  29.798  1.00  0.00     0.014 A 
ATOM     30  C   UNL A   1      38.107  29.842  27.800  1.00  0.00     0.010 A 
ATOM     31  C   UNL A   1      37.447  29.284  30.083  1.00  0.00     0.010 A 
ATOM     32  C   UNL A   1      38.420  29.370  29.085  1.00  0.00    -0.014 A 
BRANCH  32  33
ATOM     33  C   UNL A   1      39.832  29.092  29.417  1.00  0.00     0.031 A 
ATOM     34  C   UNL A   1      40.516  30.348  30.006  1.00  0.00     0.074 A 
ATOM     35  C   UNL A   1      40.280  27.834  29.110  1.00  0.00     0.049 A 
ATOM     36  N   UNL A   1      41.730  30.779  29.866  1.00  0.00    -0.248 NA
ATOM     37  C   UNL A   1      39.700  31.328  30.782  1.00  0.00     0.031 C 
ATOM     38  C   UNL A   1      39.429  26.725  28.601  1.00  0.00     0.029 A 
ATOM     39  N   UNL A   1      41.508  27.212  29.155  1.00  0.00    -0.354 N 
ATOM     40  C   UNL A   1      41.878  31.952  30.650  1.00  0.00     0.074 A 
ATOM     41  C   UNL A   1      40.563  32.301  31.096  1.00  0.00     0.031 C 
ATOM     42  C   UNL A   1      40.167  25.627  28.316  1.00  0.00     0.029 A 
ATOM     43  C   UNL A   1      41.559  25.901  28.597  1.00  0.00     0.049 A 
ATOM     44  H   UNL A   1      42.300  27.645  29.548  1.00  0.00     0.167 HD
ATOM     45  C   UNL A   1      43.096  32.476  30.992  1.00  0.00     0.031 A 
ATOM     46  C   UNL A   1      42.659  25.130  28.323  1.00  0.00     0.031 A 
ATOM     47  C   UNL A   1      44.127  31.688  30.406  1.00  0.00     0.049 A 
ATOM     48  C   UNL A   1      43.794  25.919  28.820  1.00  0.00     0.074 A 
ATOM     49  C   UNL A   1      44.562  31.528  29.117  1.00  0.00     0.029 A 
ATOM     50  N   UNL A   1      44.570  30.635  31.171  1.00  0.00    -0.354 N 
ATOM     51  N   UNL A   1      44.105  26.082  30.067  1.00  0.00    -0.248 NA
ATOM     52  C   UNL A   1      44.598  26.665  27.843  1.00  0.00     0.031 C 
ATOM     53  C   UNL A   1      44.774  30.135  29.034  1.00  0.00     0.029 A 
ATOM     54  C   UNL A   1      44.716  29.574  30.316  1.00  0.00     0.049 A 
ATOM     55  H   UNL A   1      44.746  30.641  32.139  1.00  0.00     0.167 HD
ATOM     56  C   UNL A   1      44.868  27.219  30.026  1.00  0.00     0.074 A 
ATOM     57  C   UNL A   1      45.393  27.322  28.681  1.00  0.00     0.031 C 
ATOM     58  C   UNL A   1      44.590  28.249  30.865  1.00  0.00     0.031 A 
BRANCH  45  59
ATOM     59  C   UNL A   1      43.535  33.475  32.038  1.00  0.00    -0.014 A 
ATOM     60  C   UNL A   1      42.638  33.707  33.117  1.00  0.00     0.010 A 
ATOM     61  C   UNL A   1      44.566  34.406  31.855  1.00  0.00     0.010 A 
ATOM     62  C   UNL A   1      42.669  34.878  33.874  1.00  0.00     0.020 A 
ATOM     63  C   UNL A   1      44.632  35.572  32.645  1.00  0.00     0.020 A 
ATOM     64  C   UNL A   1      43.652  35.823  33.611  1.00  0.00     0.054 A 
BRANCH  64  65
ATOM     65  S   UNL A   1      43.581  37.400  34.507  1.00  0.00     0.124 S 
ATOM     66  O   UNL A   1      43.922  36.998  35.868  1.00  0.00    -0.237 OA
ATOM     67  O   UNL A   1      44.594  38.197  33.819  1.00  0.00    -0.237 OA
ATOM     68  O   UNL A   1      42.206  37.848  34.305  1.00  0.00    -0.744 OA
ENDBRANCH  64  65
ENDBRANCH  45  59
BRANCH  46  69
ATOM     69  C   UNL A   1      43.042  23.868  27.570  1.00  0.00    -0.014 A 
ATOM     70  C   UNL A   1      42.239  23.111  26.710  1.00  0.00     0.010 A 
ATOM     71  C   UNL A   1      44.404  23.448  27.654  1.00  0.00     0.010 A 
ATOM     72  C   UNL A   1      42.805  22.106  25.877  1.00  0.00     0.020 A 
ATOM     73  C   UNL A   1      44.985  22.505  26.805  1.00  0.00     0.020 A 
ATOM     74  C   UNL A   1      44.184  21.851  25.892  1.00  0.00     0.054 A 
BRANCH  74  75
ATOM     75  S   UNL A   1      44.971  20.785  24.646  1.00  0.00     0.124 S 
ATOM     76  O   UNL A   1      46.387  20.906  24.976  1.00  0.00    -0.237 OA
ATOM     77  O   UNL A   1      44.368  19.481  24.910  1.00  0.00    -0.237 OA
ATOM     78  O   UNL A   1      44.573  21.394  23.376  1.00  0.00    -0.744 OA
ENDBRANCH  74  75
ENDBRANCH  46  69
BRANCH  58  79
ATOM     79  C   UNL A   1      43.845  27.884  32.142  1.00  0.00    -0.014 A 
ATOM     80  C   UNL A   1      44.517  27.157  33.139  1.00  0.00     0.010 A 
ATOM     81  C   UNL A   1      42.482  28.175  32.366  1.00  0.00     0.010 A 
ATOM     82  C   UNL A   1      43.872  26.749  34.316  1.00  0.00     0.020 A 
ATOM     83  C   UNL A   1      41.821  27.767  33.543  1.00  0.00     0.020 A 
ATOM     84  C   UNL A   1      42.528  27.062  34.517  1.00  0.00     0.054 A 
BRANCH  84  85
ATOM     85  S   UNL A   1      41.737  26.535  36.068  1.00  0.00     0.124 S 
ATOM     86  O   UNL A   1      41.183  27.782  36.589  1.00  0.00    -0.237 OA
ATOM     87  O   UNL A   1      40.752  25.562  35.602  1.00  0.00    -0.237 OA
ATOM     88  O   UNL A   1      42.838  25.977  36.851  1.00  0.00    -0.744 OA
ENDBRANCH  84  85
ENDBRANCH  58  79
ENDBRANCH  32  33
ENDBRANCH  24  27
ENDBRANCH  22  23
ENDBRANCH  21  22
ENDBRANCH   1  21
TORSDOF 18
ENDMDL
MODEL 3
REMARK VINA RESULT:     -10.9      1.454      2.920
REMARK SMILES CC[C@@H](C)NC(=O)Cn1cccc1C(=O)NCCCCNC(=O)c1ccc(-c2c3nc(c(-c4ccc(S(=O)(=O)[O-])cc4)c4ccc([nH]4)c(-c4ccc(S(=O)(=O)[O-])cc4)c4nc(c(-c5ccc(S(=O)(=O)[O-])cc5)c5ccc2[nH]5)C=C4)C=C3)cc1
REMARK SMILES IDX 18 1 17 2 16 3 14 4 15 5 13 7 9 8 10 9 11 10 12 11 8 12 6 13
REMARK SMILES IDX 5 14 7 16 3 17 4 18 2 19 1 20 19 21 20 22 21 23 22 24 23 26
REMARK SMILES IDX 24 27 25 28 83 29 26 30 82 31 27 32 28 33 29 34 76 35 30 36
REMARK SMILES IDX 81 37 75 38 77 39 31 40 80 41 74 42 73 43 32 45 62 46 43 47
REMARK SMILES IDX 61 48 44 49 47 50 60 51 78 52 45 53 46 54 59 56 79 57 48 58
REMARK SMILES IDX 33 59 34 60 42 61 35 62 41 63 36 64 37 65 38 66 39 67 40 68
REMARK SMILES IDX 63 69 64 70 72 71 65 72 71 73 66 74 67 75 68 76 69 77 70 78
REMARK SMILES IDX 49 79 50 80 58 81 51 82 57 83 52 84 53 85 54 86 55 87 56 88
REMARK H PARENT 16 6 5 15 21 25 77 44 47 55
REMARK Flexibility Score: inf
ROOT
ATOM      1  C   UNL A   1      31.453  30.744  26.208  1.00  0.00     0.023 C 
ENDROOT
BRANCH   1   2
ATOM      2  C   UNL A   1      32.868  30.158  26.079  1.00  0.00     0.116 C 
BRANCH   2   3
ATOM      3  N   UNL A   1      33.185  29.778  24.716  1.00  0.00    -0.351 N 
ATOM      4  C   UNL A   1      32.892  28.733  23.876  1.00  0.00     0.267 C 
ATOM      5  O   UNL A   1      33.264  28.923  22.711  1.00  0.00    -0.268 OA
ATOM      6  H   UNL A   1      33.761  30.445  24.278  1.00  0.00     0.163 HD
BRANCH   4   7
ATOM      7  C   UNL A   1      32.173  27.504  24.218  1.00  0.00     0.107 A 
ATOM      8  N   UNL A   1      32.580  26.212  24.508  1.00  0.00    -0.334 N 
ATOM      9  C   UNL A   1      31.484  25.407  24.762  1.00  0.00     0.087 A 
ATOM     10  C   UNL A   1      30.354  26.106  24.435  1.00  0.00     0.020 A 
ATOM     11  C   UNL A   1      30.780  27.405  24.099  1.00  0.00     0.033 A 
BRANCH   8  12
ATOM     12  C   UNL A   1      33.894  25.623  24.358  1.00  0.00     0.222 C 
BRANCH  12  13
ATOM     13  C   UNL A   1      34.003  24.772  23.106  1.00  0.00     0.240 C 
ATOM     14  N   UNL A   1      34.596  23.545  23.217  1.00  0.00    -0.352 N 
ATOM     15  H   UNL A   1      35.392  23.335  22.677  1.00  0.00     0.163 HD
ATOM     16  O   UNL A   1      33.617  25.100  21.986  1.00  0.00    -0.273 OA
BRANCH  14  17
ATOM     17  C   UNL A   1      34.058  22.551  24.129  1.00  0.00     0.078 C 
ATOM     18  C   UNL A   1      35.194  21.682  24.646  1.00  0.00     0.031 C 
BRANCH  17  19
ATOM     19  C   UNL A   1      32.981  21.760  23.363  1.00  0.00     0.021 C 
ATOM     20  C   UNL A   1      32.350  20.655  24.183  1.00  0.00     0.006 C 
ENDBRANCH  17  19
ENDBRANCH  14  17
ENDBRANCH  12  13
ENDBRANCH   8  12
ENDBRANCH   4   7
ENDBRANCH   2   3
ENDBRANCH   1   2
BRANCH   1  21
ATOM     21  C   UNL A   1      31.352  32.244  26.494  1.00  0.00     0.023 C 
BRANCH  21  22
ATOM     22  C   UNL A   1      32.533  32.785  27.283  1.00  0.00     0.116 C 
BRANCH  22  23
ATOM     23  N   UNL A   1      32.372  34.206  27.568  1.00  0.00    -0.352 N 
ATOM     24  C   UNL A   1      32.950  34.956  28.564  1.00  0.00     0.251 C 
ATOM     25  H   UNL A   1      31.767  34.694  26.964  1.00  0.00     0.163 HD
ATOM     26  O   UNL A   1      32.480  36.036  28.881  1.00  0.00    -0.269 OA
BRANCH  24  27
ATOM     27  C   UNL A   1      34.144  34.434  29.252  1.00  0.00     0.039 A 
ATOM     28  C   UNL A   1      33.988  33.813  30.493  1.00  0.00     0.014 A 
ATOM     29  C   UNL A   1      35.407  34.574  28.663  1.00  0.00     0.014 A 
ATOM     30  C   UNL A   1      35.100  33.260  31.114  1.00  0.00     0.010 A 
ATOM     31  C   UNL A   1      36.512  33.994  29.263  1.00  0.00     0.010 A 
ATOM     32  C   UNL A   1      36.352  33.332  30.482  1.00  0.00    -0.014 A 
BRANCH  32  33
ATOM     33  C   UNL A   1      37.483  32.573  31.054  1.00  0.00     0.031 A 
ATOM     34  C   UNL A   1      37.753  31.288  30.237  1.00  0.00     0.074 A 
ATOM     35  C   UNL A   1      38.038  33.099  32.191  1.00  0.00     0.049 A 
ATOM     36  N   UNL A   1      38.134  30.114  30.633  1.00  0.00    -0.248 NA
ATOM     37  C   UNL A   1      37.451  31.274  28.775  1.00  0.00     0.031 C 
ATOM     38  C   UNL A   1      37.673  34.409  32.792  1.00  0.00     0.029 A 
ATOM     39  N   UNL A   1      39.007  32.674  33.074  1.00  0.00    -0.354 N 
ATOM     40  C   UNL A   1      38.285  29.288  29.489  1.00  0.00     0.074 A 
ATOM     41  C   UNL A   1      37.740  30.026  28.390  1.00  0.00     0.031 C 
ATOM     42  C   UNL A   1      38.336  34.621  33.953  1.00  0.00     0.029 A 
ATOM     43  C   UNL A   1      39.185  33.484  34.233  1.00  0.00     0.049 A 
ATOM     44  H   UNL A   1      39.541  31.863  32.914  1.00  0.00     0.167 HD
ATOM     45  C   UNL A   1      38.978  28.107  29.504  1.00  0.00     0.031 A 
ATOM     46  C   UNL A   1      39.917  33.215  35.361  1.00  0.00     0.031 A 
ATOM     47  C   UNL A   1      39.453  27.859  30.823  1.00  0.00     0.049 A 
ATOM     48  C   UNL A   1      40.564  31.926  35.081  1.00  0.00     0.074 A 
ATOM     49  C   UNL A   1      38.828  27.502  31.989  1.00  0.00     0.029 A 
ATOM     50  N   UNL A   1      40.693  28.378  31.110  1.00  0.00    -0.354 N 
ATOM     51  N   UNL A   1      41.566  31.750  34.278  1.00  0.00    -0.248 NA
ATOM     52  C   UNL A   1      39.983  30.716  35.678  1.00  0.00     0.031 C 
ATOM     53  C   UNL A   1      39.473  28.317  32.945  1.00  0.00     0.029 A 
ATOM     54  C   UNL A   1      40.604  28.910  32.370  1.00  0.00     0.049 A 
ATOM     55  H   UNL A   1      41.486  28.372  30.527  1.00  0.00     0.167 HD
ATOM     56  C   UNL A   1      41.474  30.412  33.995  1.00  0.00     0.074 A 
ATOM     57  C   UNL A   1      40.747  29.803  35.088  1.00  0.00     0.031 C 
ATOM     58  C   UNL A   1      41.492  29.994  32.704  1.00  0.00     0.031 A 
BRANCH  45  59
ATOM     59  C   UNL A   1      39.552  27.230  28.414  1.00  0.00    -0.014 A 
ATOM     60  C   UNL A   1      39.530  25.827  28.645  1.00  0.00     0.010 A 
ATOM     61  C   UNL A   1      40.379  27.694  27.383  1.00  0.00     0.010 A 
ATOM     62  C   UNL A   1      40.398  24.950  27.993  1.00  0.00     0.020 A 
ATOM     63  C   UNL A   1      41.229  26.808  26.689  1.00  0.00     0.020 A 
ATOM     64  C   UNL A   1      41.269  25.454  27.036  1.00  0.00     0.054 A 
BRANCH  64  65
ATOM     65  S   UNL A   1      42.488  24.322  26.312  1.00  0.00     0.124 S 
ATOM     66  O   UNL A   1      43.533  24.299  27.331  1.00  0.00    -0.237 OA
ATOM     67  O   UNL A   1      41.724  23.084  26.175  1.00  0.00    -0.237 OA
ATOM     68  O   UNL A   1      42.847  24.964  25.051  1.00  0.00    -0.744 OA
ENDBRANCH  64  65
ENDBRANCH  45  59
BRANCH  46  69
ATOM     69  C   UNL A   1      40.116  33.733  36.775  1.00  0.00    -0.014 A 
ATOM     70  C   UNL A   1      41.300  34.209  37.350  1.00  0.00     0.010 A 
ATOM     71  C   UNL A   1      38.954  33.853  37.594  1.00  0.00     0.010 A 
ATOM     72  C   UNL A   1      41.282  34.899  38.594  1.00  0.00     0.020 A 
ATOM     73  C   UNL A   1      38.909  34.576  38.788  1.00  0.00     0.020 A 
ATOM     74  C   UNL A   1      40.077  35.125  39.274  1.00  0.00     0.054 A 
BRANCH  74  75
ATOM     75  S   UNL A   1      39.985  36.242  40.706  1.00  0.00     0.124 S 
ATOM     76  O   UNL A   1      40.453  35.396  41.798  1.00  0.00    -0.237 OA
ATOM     77  O   UNL A   1      40.877  37.333  40.323  1.00  0.00    -0.237 OA
ATOM     78  O   UNL A   1      38.568  36.607  40.764  1.00  0.00    -0.744 OA
ENDBRANCH  74  75
ENDBRANCH  46  69
BRANCH  58  79
ATOM     79  C   UNL A   1      42.160  30.933  31.709  1.00  0.00    -0.014 A 
ATOM     80  C   UNL A   1      43.562  30.947  31.620  1.00  0.00     0.010 A 
ATOM     81  C   UNL A   1      41.454  31.854  30.904  1.00  0.00     0.010 A 
ATOM     82  C   UNL A   1      44.238  31.824  30.759  1.00  0.00     0.020 A 
ATOM     83  C   UNL A   1      42.123  32.743  30.037  1.00  0.00     0.020 A 
ATOM     84  C   UNL A   1      43.515  32.714  29.965  1.00  0.00     0.054 A 
BRANCH  84  85
ATOM     85  S   UNL A   1      44.431  33.816  28.844  1.00  0.00     0.124 S 
ATOM     86  O   UNL A   1      44.551  33.015  27.629  1.00  0.00    -0.237 OA
ATOM     87  O   UNL A   1      43.542  34.970  28.744  1.00  0.00    -0.237 OA
ATOM     88  O   UNL A   1      45.690  34.062  29.545  1.00  0.00    -0.744 OA
ENDBRANCH  84  85
ENDBRANCH  58  79
ENDBRANCH  32  33
ENDBRANCH  24  27
ENDBRANCH  22  23
ENDBRANCH  21  22
ENDBRANCH   1  21
TORSDOF 18
ENDMDL
