MODEL 1
REMARK VINA RESULT:      -9.5      0.000      0.000
REMARK SMILES C=CCN(CC(=O)NCCCCNC(=O)c1ccc(-c2c3nc(c(-c4ccc(S(=O)(=O)[O-])cc4)c4ccc([nH]4)c(-c4ccc(S(=O)(=O)[O-])cc4)c4nc(c(-c5ccc(S(=O)(=O)[O-])cc5)c5ccc2[nH]5)C=C4)C=C3)cc1)C(=O)c1cc(=O)[nH]c(O)n1
REMARK SMILES IDX 10 1 9 2 8 3 6 4 7 5 5 7 4 8 3 9 2 10 1 11 76 12 77 13 78 14
REMARK SMILES IDX 79 15 85 16 80 17 83 18 81 19 82 20 84 22 11 24 12 25 13 26
REMARK SMILES IDX 14 27 15 29 16 30 17 31 75 32 18 33 74 34 19 35 20 36 21 37
REMARK SMILES IDX 68 38 22 39 73 40 67 41 69 42 23 43 72 44 66 45 65 46 24 48
REMARK SMILES IDX 54 49 35 50 53 51 36 52 39 53 52 54 70 55 37 56 38 57 51 59
REMARK SMILES IDX 71 60 40 61 25 62 26 63 34 64 27 65 33 66 28 67 29 68 30 69
REMARK SMILES IDX 31 70 32 71 55 72 56 73 64 74 57 75 63 76 58 77 59 78 60 79
REMARK SMILES IDX 61 80 62 81 41 82 42 83 50 84 43 85 49 86 44 87 45 88 46 89
REMARK SMILES IDX 47 90 48 91
REMARK H PARENT 8 6 82 21 84 23 13 28 69 47 39 58
REMARK Flexibility Score: inf
ROOT
ATOM      1  C   UNL A   1      40.111  35.744  36.345  1.00  0.00     0.023 C 
ENDROOT
BRANCH   1   2
ATOM      2  C   UNL A   1      39.140  35.182  35.310  1.00  0.00     0.116 C 
BRANCH   2   3
ATOM      3  N   UNL A   1      38.604  33.894  35.676  1.00  0.00    -0.355 N 
ATOM      4  C   UNL A   1      37.375  33.356  35.435  1.00  0.00     0.239 C 
ATOM      5  O   UNL A   1      37.274  32.129  35.583  1.00  0.00    -0.273 OA
ATOM      6  H   UNL A   1      39.221  33.312  36.176  1.00  0.00     0.163 HD
BRANCH   4   7
ATOM      7  C   UNL A   1      36.203  34.178  34.841  1.00  0.00     0.220 C 
BRANCH   7   8
ATOM      8  N   UNL A   1      35.763  33.896  33.462  1.00  0.00    -0.324 N 
BRANCH   8   9
ATOM      9  C   UNL A   1      36.766  33.462  32.495  1.00  0.00     0.147 C 
BRANCH   9  10
ATOM     10  C   UNL A   1      37.665  34.588  32.082  1.00  0.00    -0.014 C 
ATOM     11  C   UNL A   1      38.496  34.505  31.032  1.00  0.00     0.006 C 
ENDBRANCH   9  10
ENDBRANCH   8   9
BRANCH   8  12
ATOM     12  C   UNL A   1      34.437  33.984  33.028  1.00  0.00     0.273 C 
ATOM     13  O   UNL A   1      33.609  33.094  33.234  1.00  0.00    -0.267 OA
BRANCH  12  14
ATOM     14  C   UNL A   1      33.986  35.229  32.307  1.00  0.00     0.139 A 
ATOM     15  C   UNL A   1      34.195  36.384  32.953  1.00  0.00     0.106 A 
ATOM     16  N   UNL A   1      33.391  35.130  31.074  1.00  0.00    -0.192 NA
ATOM     17  C   UNL A   1      33.772  37.625  32.286  1.00  0.00     0.254 A 
ATOM     18  C   UNL A   1      33.031  36.235  30.536  1.00  0.00     0.294 A 
ATOM     19  O   UNL A   1      33.985  38.722  32.788  1.00  0.00    -0.269 OA
ATOM     20  N   UNL A   1      33.170  37.462  31.077  1.00  0.00    -0.276 N 
ATOM     21  H   UNL A   1      32.832  38.248  30.591  1.00  0.00     0.175 HD
BRANCH  18  22
ATOM     22  O   UNL A   1      32.488  36.232  29.317  1.00  0.00    -0.480 OA
ATOM     23  H   UNL A   1      32.708  36.907  28.705  1.00  0.00     0.296 HD
ENDBRANCH  18  22
ENDBRANCH  12  14
ENDBRANCH   8  12
ENDBRANCH   7   8
ENDBRANCH   4   7
ENDBRANCH   2   3
ENDBRANCH   1   2
BRANCH   1  24
ATOM     24  C   UNL A   1      39.509  35.973  37.732  1.00  0.00     0.023 C 
BRANCH  24  25
ATOM     25  C   UNL A   1      39.879  34.935  38.784  1.00  0.00     0.116 C 
BRANCH  25  26
ATOM     26  N   UNL A   1      41.228  35.097  39.304  1.00  0.00    -0.352 N 
ATOM     27  C   UNL A   1      42.383  34.469  38.901  1.00  0.00     0.251 C 
ATOM     28  H   UNL A   1      41.327  35.742  40.041  1.00  0.00     0.163 HD
ATOM     29  O   UNL A   1      43.425  34.635  39.528  1.00  0.00    -0.269 OA
BRANCH  27  30
ATOM     30  C   UNL A   1      42.348  33.565  37.732  1.00  0.00     0.039 A 
ATOM     31  C   UNL A   1      43.068  33.911  36.586  1.00  0.00     0.014 A 
ATOM     32  C   UNL A   1      41.642  32.360  37.784  1.00  0.00     0.014 A 
ATOM     33  C   UNL A   1      43.137  33.013  35.519  1.00  0.00     0.010 A 
ATOM     34  C   UNL A   1      41.780  31.434  36.755  1.00  0.00     0.010 A 
ATOM     35  C   UNL A   1      42.529  31.750  35.611  1.00  0.00    -0.014 A 
BRANCH  35  36
ATOM     36  C   UNL A   1      42.671  30.743  34.528  1.00  0.00     0.031 A 
ATOM     37  C   UNL A   1      41.645  30.665  33.428  1.00  0.00     0.074 A 
ATOM     38  C   UNL A   1      43.685  29.855  34.568  1.00  0.00     0.049 A 
ATOM     39  N   UNL A   1      41.570  29.821  32.431  1.00  0.00    -0.248 NA
ATOM     40  C   UNL A   1      40.550  31.647  33.469  1.00  0.00     0.031 C 
ATOM     41  C   UNL A   1      44.723  29.800  35.602  1.00  0.00     0.029 A 
ATOM     42  N   UNL A   1      44.008  28.824  33.721  1.00  0.00    -0.354 N 
ATOM     43  C   UNL A   1      40.414  30.161  31.736  1.00  0.00     0.074 A 
ATOM     44  C   UNL A   1      39.792  31.249  32.458  1.00  0.00     0.031 C 
ATOM     45  C   UNL A   1      45.582  28.811  35.309  1.00  0.00     0.029 A 
ATOM     46  C   UNL A   1      45.133  28.130  34.099  1.00  0.00     0.049 A 
ATOM     47  H   UNL A   1      43.483  28.603  32.918  1.00  0.00     0.167 HD
ATOM     48  C   UNL A   1      39.925  29.630  30.589  1.00  0.00     0.031 A 
ATOM     49  C   UNL A   1      45.735  27.061  33.541  1.00  0.00     0.031 A 
ATOM     50  C   UNL A   1      40.548  28.547  29.874  1.00  0.00     0.049 A 
ATOM     51  C   UNL A   1      45.158  26.470  32.283  1.00  0.00     0.074 A 
ATOM     52  C   UNL A   1      40.159  27.972  28.677  1.00  0.00     0.029 A 
ATOM     53  N   UNL A   1      41.685  27.871  30.292  1.00  0.00    -0.354 N 
ATOM     54  N   UNL A   1      44.102  26.848  31.603  1.00  0.00    -0.248 NA
ATOM     55  C   UNL A   1      45.861  25.313  31.711  1.00  0.00     0.031 C 
ATOM     56  C   UNL A   1      41.023  26.906  28.404  1.00  0.00     0.029 A 
ATOM     57  C   UNL A   1      41.994  26.864  29.392  1.00  0.00     0.049 A 
ATOM     58  H   UNL A   1      42.197  28.076  31.108  1.00  0.00     0.167 HD
ATOM     59  C   UNL A   1      44.032  25.996  30.507  1.00  0.00     0.074 A 
ATOM     60  C   UNL A   1      45.160  25.092  30.608  1.00  0.00     0.031 C 
ATOM     61  C   UNL A   1      43.118  25.968  29.504  1.00  0.00     0.031 A 
BRANCH  48  62
ATOM     62  C   UNL A   1      38.643  30.208  30.047  1.00  0.00    -0.014 A 
ATOM     63  C   UNL A   1      38.648  31.342  29.214  1.00  0.00     0.010 A 
ATOM     64  C   UNL A   1      37.415  29.592  30.350  1.00  0.00     0.010 A 
ATOM     65  C   UNL A   1      37.448  31.880  28.739  1.00  0.00     0.020 A 
ATOM     66  C   UNL A   1      36.215  30.106  29.849  1.00  0.00     0.020 A 
ATOM     67  C   UNL A   1      36.239  31.259  29.063  1.00  0.00     0.054 A 
BRANCH  67  68
ATOM     68  S   UNL A   1      34.698  31.974  28.426  1.00  0.00     0.124 S 
ATOM     69  O   UNL A   1      35.196  33.074  27.602  1.00  0.00    -0.237 OA
ATOM     70  O   UNL A   1      34.109  30.857  27.693  1.00  0.00    -0.237 OA
ATOM     71  O   UNL A   1      33.977  32.375  29.630  1.00  0.00    -0.744 OA
ENDBRANCH  67  68
ENDBRANCH  48  62
BRANCH  49  72
ATOM     72  C   UNL A   1      46.964  26.492  34.162  1.00  0.00    -0.014 A 
ATOM     73  C   UNL A   1      48.236  26.942  33.768  1.00  0.00     0.010 A 
ATOM     74  C   UNL A   1      46.867  25.509  35.164  1.00  0.00     0.010 A 
ATOM     75  C   UNL A   1      49.389  26.410  34.356  1.00  0.00     0.020 A 
ATOM     76  C   UNL A   1      48.015  24.999  35.776  1.00  0.00     0.020 A 
ATOM     77  C   UNL A   1      49.270  25.445  35.360  1.00  0.00     0.054 A 
BRANCH  77  78
ATOM     78  S   UNL A   1      50.779  24.815  36.148  1.00  0.00     0.124 S 
ATOM     79  O   UNL A   1      50.642  23.375  35.959  1.00  0.00    -0.237 OA
ATOM     80  O   UNL A   1      51.832  25.460  35.370  1.00  0.00    -0.237 OA
ATOM     81  O   UNL A   1      50.661  25.280  37.528  1.00  0.00    -0.744 OA
ENDBRANCH  77  78
ENDBRANCH  49  72
BRANCH  61  82
ATOM     82  C   UNL A   1      43.315  24.951  28.411  1.00  0.00    -0.014 A 
ATOM     83  C   UNL A   1      44.060  25.249  27.256  1.00  0.00     0.010 A 
ATOM     84  C   UNL A   1      42.794  23.653  28.573  1.00  0.00     0.010 A 
ATOM     85  C   UNL A   1      44.254  24.276  26.270  1.00  0.00     0.020 A 
ATOM     86  C   UNL A   1      43.013  22.670  27.606  1.00  0.00     0.020 A 
ATOM     87  C   UNL A   1      43.732  22.992  26.453  1.00  0.00     0.054 A 
BRANCH  87  88
ATOM     88  S   UNL A   1      44.041  21.735  25.183  1.00  0.00     0.124 S 
ATOM     89  O   UNL A   1      43.865  22.499  23.950  1.00  0.00    -0.237 OA
ATOM     90  O   UNL A   1      45.411  21.318  25.473  1.00  0.00    -0.237 OA
ATOM     91  O   UNL A   1      43.020  20.723  25.439  1.00  0.00    -0.744 OA
ENDBRANCH  87  88
ENDBRANCH  61  82
ENDBRANCH  35  36
ENDBRANCH  27  30
ENDBRANCH  25  26
ENDBRANCH  24  25
ENDBRANCH   1  24
TORSDOF 20
ENDMDL
MODEL 2
REMARK VINA RESULT:      -9.4      5.338     10.765
REMARK SMILES C=CCN(CC(=O)NCCCCNC(=O)c1ccc(-c2c3nc(c(-c4ccc(S(=O)(=O)[O-])cc4)c4ccc([nH]4)c(-c4ccc(S(=O)(=O)[O-])cc4)c4nc(c(-c5ccc(S(=O)(=O)[O-])cc5)c5ccc2[nH]5)C=C4)C=C3)cc1)C(=O)c1cc(=O)[nH]c(O)n1
REMARK SMILES IDX 10 1 9 2 8 3 6 4 7 5 5 7 4 8 3 9 2 10 1 11 76 12 77 13 78 14
REMARK SMILES IDX 79 15 85 16 80 17 83 18 81 19 82 20 84 22 11 24 12 25 13 26
REMARK SMILES IDX 14 27 15 29 16 30 17 31 75 32 18 33 74 34 19 35 20 36 21 37
REMARK SMILES IDX 68 38 22 39 73 40 67 41 69 42 23 43 72 44 66 45 65 46 24 48
REMARK SMILES IDX 54 49 35 50 53 51 36 52 39 53 52 54 70 55 37 56 38 57 51 59
REMARK SMILES IDX 71 60 40 61 25 62 26 63 34 64 27 65 33 66 28 67 29 68 30 69
REMARK SMILES IDX 31 70 32 71 55 72 56 73 64 74 57 75 63 76 58 77 59 78 60 79
REMARK SMILES IDX 61 80 62 81 41 82 42 83 50 84 43 85 49 86 44 87 45 88 46 89
REMARK SMILES IDX 47 90 48 91
REMARK H PARENT 8 6 82 21 84 23 13 28 69 47 39 58
REMARK Flexibility Score: inf
ROOT
ATOM      1  C   UNL A   1      31.349  27.437  26.700  1.00  0.00     0.023 C 
ENDROOT
BRANCH   1   2
ATOM      2  C   UNL A   1      30.821  26.320  25.804  1.00  0.00     0.116 C 
BRANCH   2   3
ATOM      3  N   UNL A   1      30.529  25.105  26.524  1.00  0.00    -0.355 N 
ATOM      4  C   UNL A   1      30.808  23.810  26.205  1.00  0.00     0.239 C 
ATOM      5  O   UNL A   1      30.726  22.987  27.128  1.00  0.00    -0.273 OA
ATOM      6  H   UNL A   1      30.056  25.230  27.378  1.00  0.00     0.163 HD
BRANCH   4   7
ATOM      7  C   UNL A   1      31.366  23.389  24.821  1.00  0.00     0.220 C 
BRANCH   7   8
ATOM      8  N   UNL A   1      32.808  23.113  24.690  1.00  0.00    -0.324 N 
BRANCH   8   9
ATOM      9  C   UNL A   1      33.486  22.451  25.801  1.00  0.00     0.147 C 
BRANCH   9  10
ATOM     10  C   UNL A   1      34.397  23.389  26.534  1.00  0.00    -0.014 C 
ATOM     11  C   UNL A   1      35.730  23.377  26.375  1.00  0.00     0.006 C 
ENDBRANCH   9  10
ENDBRANCH   8   9
BRANCH   8  12
ATOM     12  C   UNL A   1      33.564  23.412  23.553  1.00  0.00     0.273 C 
ATOM     13  O   UNL A   1      34.445  22.664  23.123  1.00  0.00    -0.267 OA
BRANCH  12  14
ATOM     14  C   UNL A   1      33.274  24.685  22.798  1.00  0.00     0.139 A 
ATOM     15  C   UNL A   1      33.747  25.810  23.351  1.00  0.00     0.106 A 
ATOM     16  N   UNL A   1      32.552  24.641  21.632  1.00  0.00    -0.192 NA
ATOM     17  C   UNL A   1      33.489  27.076  22.647  1.00  0.00     0.254 A 
ATOM     18  C   UNL A   1      32.344  25.768  21.060  1.00  0.00     0.294 A 
ATOM     19  O   UNL A   1      33.942  28.137  23.060  1.00  0.00    -0.269 OA
ATOM     20  N   UNL A   1      32.751  26.972  21.509  1.00  0.00    -0.276 N 
ATOM     21  H   UNL A   1      32.513  27.784  21.008  1.00  0.00     0.175 HD
BRANCH  18  22
ATOM     22  O   UNL A   1      31.692  25.810  19.896  1.00  0.00    -0.480 OA
ATOM     23  H   UNL A   1      31.093  26.509  19.720  1.00  0.00     0.296 HD
ENDBRANCH  18  22
ENDBRANCH  12  14
ENDBRANCH   8  12
ENDBRANCH   7   8
ENDBRANCH   4   7
ENDBRANCH   2   3
ENDBRANCH   1   2
BRANCH   1  24
ATOM     24  C   UNL A   1      32.610  28.131  26.185  1.00  0.00     0.023 C 
BRANCH  24  25
ATOM     25  C   UNL A   1      33.605  28.559  27.257  1.00  0.00     0.116 C 
BRANCH  25  26
ATOM     26  N   UNL A   1      33.591  29.991  27.517  1.00  0.00    -0.352 N 
ATOM     27  C   UNL A   1      34.586  30.775  28.051  1.00  0.00     0.251 C 
ATOM     28  H   UNL A   1      32.759  30.461  27.277  1.00  0.00     0.163 HD
ATOM     29  O   UNL A   1      34.367  31.954  28.314  1.00  0.00    -0.269 OA
BRANCH  27  30
ATOM     30  C   UNL A   1      35.905  30.176  28.341  1.00  0.00     0.039 A 
ATOM     31  C   UNL A   1      36.875  30.154  27.336  1.00  0.00     0.014 A 
ATOM     32  C   UNL A   1      36.197  29.676  29.613  1.00  0.00     0.014 A 
ATOM     33  C   UNL A   1      38.162  29.697  27.630  1.00  0.00     0.010 A 
ATOM     34  C   UNL A   1      37.500  29.299  29.924  1.00  0.00     0.010 A 
ATOM     35  C   UNL A   1      38.496  29.304  28.937  1.00  0.00    -0.014 A 
BRANCH  35  36
ATOM     36  C   UNL A   1      39.883  28.905  29.292  1.00  0.00     0.031 A 
ATOM     37  C   UNL A   1      40.795  29.879  29.991  1.00  0.00     0.074 A 
ATOM     38  C   UNL A   1      40.345  27.691  28.928  1.00  0.00     0.049 A 
ATOM     39  N   UNL A   1      42.049  29.732  30.332  1.00  0.00    -0.248 NA
ATOM     40  C   UNL A   1      40.229  31.195  30.327  1.00  0.00     0.031 C 
ATOM     41  C   UNL A   1      39.573  26.671  28.212  1.00  0.00     0.029 A 
ATOM     42  N   UNL A   1      41.576  27.111  29.104  1.00  0.00    -0.354 N 
ATOM     43  C   UNL A   1      42.427  30.940  30.908  1.00  0.00     0.074 A 
ATOM     44  C   UNL A   1      41.285  31.825  30.819  1.00  0.00     0.031 C 
ATOM     45  C   UNL A   1      40.339  25.581  28.041  1.00  0.00     0.029 A 
ATOM     46  C   UNL A   1      41.667  25.840  28.588  1.00  0.00     0.049 A 
ATOM     47  H   UNL A   1      42.324  27.562  29.559  1.00  0.00     0.167 HD
ATOM     48  C   UNL A   1      43.608  31.277  31.480  1.00  0.00     0.031 A 
ATOM     49  C   UNL A   1      42.703  24.979  28.550  1.00  0.00     0.031 A 
ATOM     50  C   UNL A   1      44.740  30.393  31.566  1.00  0.00     0.049 A 
ATOM     51  C   UNL A   1      44.015  25.385  29.166  1.00  0.00     0.074 A 
ATOM     52  C   UNL A   1      45.965  30.621  32.170  1.00  0.00     0.029 A 
ATOM     53  N   UNL A   1      44.792  29.116  31.029  1.00  0.00    -0.354 N 
ATOM     54  N   UNL A   1      44.332  26.507  29.767  1.00  0.00    -0.248 NA
ATOM     55  C   UNL A   1      45.107  24.403  29.107  1.00  0.00     0.031 C 
ATOM     56  C   UNL A   1      46.779  29.507  31.941  1.00  0.00     0.029 A 
ATOM     57  C   UNL A   1      46.038  28.555  31.260  1.00  0.00     0.049 A 
ATOM     58  H   UNL A   1      44.053  28.672  30.552  1.00  0.00     0.167 HD
ATOM     59  C   UNL A   1      45.649  26.354  30.186  1.00  0.00     0.074 A 
ATOM     60  C   UNL A   1      46.064  25.027  29.781  1.00  0.00     0.031 C 
ATOM     61  C   UNL A   1      46.441  27.233  30.849  1.00  0.00     0.031 A 
BRANCH  48  62
ATOM     62  C   UNL A   1      43.737  32.670  32.042  1.00  0.00    -0.014 A 
ATOM     63  C   UNL A   1      43.468  32.937  33.398  1.00  0.00     0.010 A 
ATOM     64  C   UNL A   1      44.160  33.723  31.212  1.00  0.00     0.010 A 
ATOM     65  C   UNL A   1      43.568  34.238  33.898  1.00  0.00     0.020 A 
ATOM     66  C   UNL A   1      44.296  35.020  31.717  1.00  0.00     0.020 A 
ATOM     67  C   UNL A   1      43.979  35.272  33.052  1.00  0.00     0.054 A 
BRANCH  67  68
ATOM     68  S   UNL A   1      44.109  36.949  33.731  1.00  0.00     0.124 S 
ATOM     69  O   UNL A   1      42.714  37.257  34.040  1.00  0.00    -0.237 OA
ATOM     70  O   UNL A   1      44.980  36.758  34.888  1.00  0.00    -0.237 OA
ATOM     71  O   UNL A   1      44.691  37.723  32.638  1.00  0.00    -0.744 OA
ENDBRANCH  67  68
ENDBRANCH  48  62
BRANCH  49  72
ATOM     72  C   UNL A   1      42.534  23.640  27.920  1.00  0.00    -0.014 A 
ATOM     73  C   UNL A   1      43.005  23.399  26.617  1.00  0.00     0.010 A 
ATOM     74  C   UNL A   1      41.917  22.591  28.628  1.00  0.00     0.010 A 
ATOM     75  C   UNL A   1      42.850  22.140  26.029  1.00  0.00     0.020 A 
ATOM     76  C   UNL A   1      41.789  21.323  28.055  1.00  0.00     0.020 A 
ATOM     77  C   UNL A   1      42.247  21.108  26.755  1.00  0.00     0.054 A 
BRANCH  77  78
ATOM     78  S   UNL A   1      42.112  19.467  25.990  1.00  0.00     0.124 S 
ATOM     79  O   UNL A   1      42.622  18.598  27.045  1.00  0.00    -0.237 OA
ATOM     80  O   UNL A   1      40.681  19.364  25.720  1.00  0.00    -0.237 OA
ATOM     81  O   UNL A   1      42.957  19.574  24.803  1.00  0.00    -0.744 OA
ENDBRANCH  77  78
ENDBRANCH  49  72
BRANCH  61  82
ATOM     82  C   UNL A   1      47.830  26.779  31.216  1.00  0.00    -0.014 A 
ATOM     83  C   UNL A   1      48.073  26.023  32.377  1.00  0.00     0.010 A 
ATOM     84  C   UNL A   1      48.902  27.064  30.348  1.00  0.00     0.010 A 
ATOM     85  C   UNL A   1      49.367  25.588  32.678  1.00  0.00     0.020 A 
ATOM     86  C   UNL A   1      50.189  26.602  30.629  1.00  0.00     0.020 A 
ATOM     87  C   UNL A   1      50.417  25.877  31.800  1.00  0.00     0.054 A 
BRANCH  87  88
ATOM     88  S   UNL A   1      52.076  25.257  32.189  1.00  0.00     0.124 S 
ATOM     89  O   UNL A   1      51.838  23.823  32.338  1.00  0.00    -0.237 OA
ATOM     90  O   UNL A   1      52.847  25.646  31.011  1.00  0.00    -0.237 OA
ATOM     91  O   UNL A   1      52.430  25.960  33.419  1.00  0.00    -0.744 OA
ENDBRANCH  87  88
ENDBRANCH  61  82
ENDBRANCH  35  36
ENDBRANCH  27  30
ENDBRANCH  25  26
ENDBRANCH  24  25
ENDBRANCH   1  24
TORSDOF 20
ENDMDL
MODEL 3
REMARK VINA RESULT:      -9.3      7.360     12.502
REMARK SMILES C=CCN(CC(=O)NCCCCNC(=O)c1ccc(-c2c3nc(c(-c4ccc(S(=O)(=O)[O-])cc4)c4ccc([nH]4)c(-c4ccc(S(=O)(=O)[O-])cc4)c4nc(c(-c5ccc(S(=O)(=O)[O-])cc5)c5ccc2[nH]5)C=C4)C=C3)cc1)C(=O)c1cc(=O)[nH]c(O)n1
REMARK SMILES IDX 10 1 9 2 8 3 6 4 7 5 5 7 4 8 3 9 2 10 1 11 76 12 77 13 78 14
REMARK SMILES IDX 79 15 85 16 80 17 83 18 81 19 82 20 84 22 11 24 12 25 13 26
REMARK SMILES IDX 14 27 15 29 16 30 17 31 75 32 18 33 74 34 19 35 20 36 21 37
REMARK SMILES IDX 68 38 22 39 73 40 67 41 69 42 23 43 72 44 66 45 65 46 24 48
REMARK SMILES IDX 54 49 35 50 53 51 36 52 39 53 52 54 70 55 37 56 38 57 51 59
REMARK SMILES IDX 71 60 40 61 25 62 26 63 34 64 27 65 33 66 28 67 29 68 30 69
REMARK SMILES IDX 31 70 32 71 55 72 56 73 64 74 57 75 63 76 58 77 59 78 60 79
REMARK SMILES IDX 61 80 62 81 41 82 42 83 50 84 43 85 49 86 44 87 45 88 46 89
REMARK SMILES IDX 47 90 48 91
REMARK H PARENT 8 6 82 21 84 23 13 28 69 47 39 58
REMARK Flexibility Score: inf
ROOT
ATOM      1  C   UNL A   1      37.335  21.859  25.356  1.00  0.00     0.023 C 
ENDROOT
BRANCH   1   2
ATOM      2  C   UNL A   1      35.859  21.475  25.317  1.00  0.00     0.116 C 
BRANCH   2   3
ATOM      3  N   UNL A   1      35.206  21.597  26.597  1.00  0.00    -0.355 N 
ATOM      4  C   UNL A   1      34.086  22.291  26.946  1.00  0.00     0.239 C 
ATOM      5  O   UNL A   1      33.567  21.985  28.030  1.00  0.00    -0.273 OA
ATOM      6  H   UNL A   1      35.635  21.103  27.332  1.00  0.00     0.163 HD
BRANCH   4   7
ATOM      7  C   UNL A   1      33.383  23.284  25.987  1.00  0.00     0.220 C 
BRANCH   7   8
ATOM      8  N   UNL A   1      32.356  22.772  25.060  1.00  0.00    -0.324 N 
BRANCH   8   9
ATOM      9  C   UNL A   1      30.964  23.135  25.307  1.00  0.00     0.147 C 
BRANCH   9  10
ATOM     10  C   UNL A   1      30.561  24.353  24.531  1.00  0.00    -0.014 C 
ATOM     11  C   UNL A   1      30.447  25.566  25.094  1.00  0.00     0.006 C 
ENDBRANCH   9  10
ENDBRANCH   8   9
BRANCH   8  12
ATOM     12  C   UNL A   1      32.635  21.988  23.937  1.00  0.00     0.273 C 
ATOM     13  O   UNL A   1      32.999  22.470  22.862  1.00  0.00    -0.267 OA
BRANCH  12  14
ATOM     14  C   UNL A   1      32.519  20.488  24.047  1.00  0.00     0.139 A 
ATOM     15  C   UNL A   1      32.373  19.829  22.891  1.00  0.00     0.106 A 
ATOM     16  N   UNL A   1      32.550  19.888  25.281  1.00  0.00    -0.192 NA
ATOM     17  C   UNL A   1      32.258  18.364  22.951  1.00  0.00     0.254 A 
ATOM     18  C   UNL A   1      32.437  18.612  25.284  1.00  0.00     0.294 A 
ATOM     19  O   UNL A   1      32.183  17.690  21.930  1.00  0.00    -0.269 OA
ATOM     20  N   UNL A   1      32.275  17.827  24.200  1.00  0.00    -0.276 N 
ATOM     21  H   UNL A   1      32.167  16.856  24.315  1.00  0.00     0.175 HD
BRANCH  18  22
ATOM     22  O   UNL A   1      32.506  17.944  26.438  1.00  0.00    -0.480 OA
ATOM     23  H   UNL A   1      32.054  18.266  27.193  1.00  0.00     0.296 HD
ENDBRANCH  18  22
ENDBRANCH  12  14
ENDBRANCH   8  12
ENDBRANCH   7   8
ENDBRANCH   4   7
ENDBRANCH   2   3
ENDBRANCH   1   2
BRANCH   1  24
ATOM     24  C   UNL A   1      38.308  20.683  25.273  1.00  0.00     0.023 C 
BRANCH  24  25
ATOM     25  C   UNL A   1      39.485  20.738  26.239  1.00  0.00     0.116 C 
BRANCH  25  26
ATOM     26  N   UNL A   1      40.383  19.599  26.118  1.00  0.00    -0.352 N 
ATOM     27  C   UNL A   1      41.758  19.586  26.133  1.00  0.00     0.251 C 
ATOM     28  H   UNL A   1      39.948  18.722  26.013  1.00  0.00     0.163 HD
ATOM     29  O   UNL A   1      42.367  18.546  25.900  1.00  0.00    -0.269 OA
BRANCH  27  30
ATOM     30  C   UNL A   1      42.493  20.842  26.394  1.00  0.00     0.039 A 
ATOM     31  C   UNL A   1      42.906  21.622  25.311  1.00  0.00     0.014 A 
ATOM     32  C   UNL A   1      42.734  21.268  27.703  1.00  0.00     0.014 A 
ATOM     33  C   UNL A   1      43.498  22.865  25.545  1.00  0.00     0.010 A 
ATOM     34  C   UNL A   1      43.248  22.541  27.931  1.00  0.00     0.010 A 
ATOM     35  C   UNL A   1      43.636  23.353  26.855  1.00  0.00    -0.014 A 
BRANCH  35  36
ATOM     36  C   UNL A   1      44.175  24.712  27.120  1.00  0.00     0.031 A 
ATOM     37  C   UNL A   1      43.255  25.816  27.572  1.00  0.00     0.074 A 
ATOM     38  C   UNL A   1      45.478  24.973  26.892  1.00  0.00     0.049 A 
ATOM     39  N   UNL A   1      43.529  27.075  27.799  1.00  0.00    -0.248 NA
ATOM     40  C   UNL A   1      41.840  25.463  27.769  1.00  0.00     0.031 C 
ATOM     41  C   UNL A   1      46.466  23.999  26.416  1.00  0.00     0.029 A 
ATOM     42  N   UNL A   1      46.197  26.135  27.023  1.00  0.00    -0.354 N 
ATOM     43  C   UNL A   1      42.321  27.666  28.151  1.00  0.00     0.074 A 
ATOM     44  C   UNL A   1      41.305  26.641  28.051  1.00  0.00     0.031 C 
ATOM     45  C   UNL A   1      47.665  24.597  26.328  1.00  0.00     0.029 A 
ATOM     46  C   UNL A   1      47.525  26.004  26.692  1.00  0.00     0.049 A 
ATOM     47  H   UNL A   1      45.799  26.982  27.327  1.00  0.00     0.167 HD
ATOM     48  C   UNL A   1      42.081  28.941  28.543  1.00  0.00     0.031 A 
ATOM     49  C   UNL A   1      48.519  26.913  26.673  1.00  0.00     0.031 A 
ATOM     50  C   UNL A   1      43.095  29.957  28.640  1.00  0.00     0.049 A 
ATOM     51  C   UNL A   1      48.224  28.330  27.085  1.00  0.00     0.074 A 
ATOM     52  C   UNL A   1      42.963  31.264  29.075  1.00  0.00     0.029 A 
ATOM     53  N   UNL A   1      44.427  29.784  28.293  1.00  0.00    -0.354 N 
ATOM     54  N   UNL A   1      47.088  28.855  27.479  1.00  0.00    -0.248 NA
ATOM     55  C   UNL A   1      49.348  29.277  27.058  1.00  0.00     0.031 C 
ATOM     56  C   UNL A   1      44.200  31.900  28.929  1.00  0.00     0.029 A 
ATOM     57  C   UNL A   1      45.121  30.970  28.474  1.00  0.00     0.049 A 
ATOM     58  H   UNL A   1      44.822  28.944  27.965  1.00  0.00     0.167 HD
ATOM     59  C   UNL A   1      47.367  30.183  27.778  1.00  0.00     0.074 A 
ATOM     60  C   UNL A   1      48.781  30.378  27.531  1.00  0.00     0.031 C 
ATOM     61  C   UNL A   1      46.528  31.153  28.221  1.00  0.00     0.031 A 
BRANCH  48  62
ATOM     62  C   UNL A   1      40.658  29.309  28.880  1.00  0.00    -0.014 A 
ATOM     63  C   UNL A   1      40.274  29.603  30.202  1.00  0.00     0.010 A 
ATOM     64  C   UNL A   1      39.696  29.391  27.857  1.00  0.00     0.010 A 
ATOM     65  C   UNL A   1      38.946  29.918  30.501  1.00  0.00     0.020 A 
ATOM     66  C   UNL A   1      38.374  29.741  28.147  1.00  0.00     0.020 A 
ATOM     67  C   UNL A   1      38.004  29.982  29.471  1.00  0.00     0.054 A 
BRANCH  67  68
ATOM     68  S   UNL A   1      36.289  30.403  29.888  1.00  0.00     0.124 S 
ATOM     69  O   UNL A   1      35.573  29.962  28.692  1.00  0.00    -0.237 OA
ATOM     70  O   UNL A   1      36.050  29.609  31.091  1.00  0.00    -0.237 OA
ATOM     71  O   UNL A   1      36.326  31.848  30.095  1.00  0.00    -0.744 OA
ENDBRANCH  67  68
ENDBRANCH  48  62
BRANCH  49  72
ATOM     72  C   UNL A   1      49.893  26.504  26.266  1.00  0.00    -0.014 A 
ATOM     73  C   UNL A   1      50.342  26.719  24.951  1.00  0.00     0.010 A 
ATOM     74  C   UNL A   1      50.767  25.913  27.198  1.00  0.00     0.010 A 
ATOM     75  C   UNL A   1      51.633  26.339  24.572  1.00  0.00     0.020 A 
ATOM     76  C   UNL A   1      52.068  25.561  26.830  1.00  0.00     0.020 A 
ATOM     77  C   UNL A   1      52.490  25.767  25.517  1.00  0.00     0.054 A 
BRANCH  77  78
ATOM     78  S   UNL A   1      54.180  25.338  25.014  1.00  0.00     0.124 S 
ATOM     79  O   UNL A   1      54.286  25.989  23.712  1.00  0.00    -0.237 OA
ATOM     80  O   UNL A   1      54.984  25.923  26.083  1.00  0.00    -0.237 OA
ATOM     81  O   UNL A   1      54.166  23.877  24.984  1.00  0.00    -0.744 OA
ENDBRANCH  77  78
ENDBRANCH  49  72
BRANCH  61  82
ATOM     82  C   UNL A   1      47.120  32.509  28.505  1.00  0.00    -0.014 A 
ATOM     83  C   UNL A   1      47.684  32.817  29.756  1.00  0.00     0.010 A 
ATOM     84  C   UNL A   1      47.166  33.472  27.479  1.00  0.00     0.010 A 
ATOM     85  C   UNL A   1      48.255  34.073  29.984  1.00  0.00     0.020 A 
ATOM     86  C   UNL A   1      47.765  34.715  27.692  1.00  0.00     0.020 A 
ATOM     87  C   UNL A   1      48.295  35.013  28.949  1.00  0.00     0.054 A 
BRANCH  87  88
ATOM     88  S   UNL A   1      49.086  36.615  29.256  1.00  0.00     0.124 S 
ATOM     89  O   UNL A   1      50.430  36.397  28.728  1.00  0.00    -0.237 OA
ATOM     90  O   UNL A   1      48.251  37.536  28.489  1.00  0.00    -0.237 OA
ATOM     91  O   UNL A   1      49.005  36.771  30.707  1.00  0.00    -0.744 OA
ENDBRANCH  87  88
ENDBRANCH  61  82
ENDBRANCH  35  36
ENDBRANCH  27  30
ENDBRANCH  25  26
ENDBRANCH  24  25
ENDBRANCH   1  24
TORSDOF 20
ENDMDL
