MODEL 1
REMARK VINA RESULT:     -11.9      0.000      0.000
REMARK SMILES CC(C)[C@H](C)CNC(=O)N1CC(n2cc(C(=O)NCCCCNC(=O)c3ccc(-c4c5nc(c(-c6ccc(S(=O)(=O)[O-])cc6)c6ccc([nH]6)c(-c6ccc(S(=O)(=O)[O-])cc6)c6nc(c(-c7ccc(S(=O)(=O)[O-])cc7)c7ccc4[nH]7)C=C6)C=C5)cc3)nn2)C1
REMARK SMILES IDX 20 1 19 2 18 3 16 4 17 5 15 7 13 8 14 9 87 10 86 11 12 12
REMARK SMILES IDX 7 13 8 14 9 16 10 17 11 18 88 19 6 20 4 21 5 22 2 23 1 24
REMARK SMILES IDX 3 25 21 26 22 27 23 28 24 29 25 31 26 32 27 33 85 34 28 35
REMARK SMILES IDX 84 36 29 37 30 38 31 39 78 40 32 41 83 42 77 43 79 44 33 45
REMARK SMILES IDX 82 46 76 47 75 48 34 50 64 51 45 52 63 53 46 54 49 55 62 56
REMARK SMILES IDX 80 57 47 58 48 59 61 61 81 62 50 63 35 64 36 65 44 66 37 67
REMARK SMILES IDX 43 68 38 69 39 70 40 71 41 72 42 73 65 74 66 75 74 76 67 77
REMARK SMILES IDX 73 78 68 79 69 80 70 81 71 82 72 83 51 84 52 85 60 86 53 87
REMARK SMILES IDX 59 88 54 89 55 90 56 91 57 92 58 93
REMARK H PARENT 18 6 7 15 23 30 79 49 49 60
REMARK Flexibility Score: inf
ROOT
ATOM      1  C   UNL A   1      38.562  22.680  26.022  1.00  0.00     0.023 C 
ENDROOT
BRANCH   1   2
ATOM      2  C   UNL A   1      37.408  22.138  25.171  1.00  0.00     0.116 C 
BRANCH   2   3
ATOM      3  N   UNL A   1      36.283  21.730  25.987  1.00  0.00    -0.351 N 
ATOM      4  C   UNL A   1      34.997  22.211  26.099  1.00  0.00     0.273 C 
ATOM      5  O   UNL A   1      34.244  21.588  26.849  1.00  0.00    -0.267 OA
ATOM      6  H   UNL A   1      36.473  20.962  26.572  1.00  0.00     0.163 HD
BRANCH   4   7
ATOM      7  C   UNL A   1      34.540  23.386  25.362  1.00  0.00     0.170 A 
ATOM      8  N   UNL A   1      33.894  25.333  24.638  1.00  0.00    -0.245 N 
ATOM      9  C   UNL A   1      34.129  24.634  25.791  1.00  0.00     0.145 A 
ATOM     10  N   UNL A   1      34.057  24.561  23.559  1.00  0.00    -0.066 NA
ATOM     11  N   UNL A   1      34.427  23.360  23.985  1.00  0.00    -0.125 NA
BRANCH   8  12
ATOM     12  C   UNL A   1      33.579  26.725  24.612  1.00  0.00     0.148 C 
ATOM     13  N   UNL A   1      30.691  29.557  23.567  1.00  0.00    -0.338 N 
ATOM     14  C   UNL A   1      31.482  29.189  24.609  1.00  0.00     0.317 C 
ATOM     15  H   UNL A   1      30.657  30.525  23.389  1.00  0.00     0.165 HD
ATOM     16  O   UNL A   1      31.791  30.038  25.442  1.00  0.00    -0.249 OA
ATOM     17  N   UNL A   1      31.903  27.901  24.689  1.00  0.00    -0.320 N 
ATOM     18  C   UNL A   1      32.694  27.265  25.743  1.00  0.00     0.150 C 
ATOM     19  C   UNL A   1      32.389  26.989  23.666  1.00  0.00     0.150 C 
BRANCH  13  20
ATOM     20  C   UNL A   1      29.890  28.732  22.674  1.00  0.00     0.121 C 
BRANCH  20  21
ATOM     21  C   UNL A   1      28.549  29.409  22.299  1.00  0.00     0.008 C 
ATOM     22  C   UNL A   1      27.413  28.707  23.067  1.00  0.00     0.010 C 
BRANCH  21  23
ATOM     23  C   UNL A   1      28.563  30.948  22.561  1.00  0.00    -0.013 C 
ATOM     24  C   UNL A   1      28.210  31.764  21.307  1.00  0.00     0.008 C 
ATOM     25  C   UNL A   1      27.578  31.358  23.667  1.00  0.00     0.008 C 
ENDBRANCH  21  23
ENDBRANCH  20  21
ENDBRANCH  13  20
ENDBRANCH   8  12
ENDBRANCH   4   7
ENDBRANCH   2   3
ENDBRANCH   1   2
BRANCH   1  26
ATOM     26  C   UNL A   1      39.561  21.623  26.525  1.00  0.00     0.023 C 
BRANCH  26  27
ATOM     27  C   UNL A   1      40.834  22.183  27.154  1.00  0.00     0.116 C 
BRANCH  27  28
ATOM     28  N   UNL A   1      42.002  22.075  26.280  1.00  0.00    -0.352 N 
ATOM     29  C   UNL A   1      42.687  23.095  25.637  1.00  0.00     0.251 C 
ATOM     30  H   UNL A   1      42.346  21.165  26.131  1.00  0.00     0.163 HD
ATOM     31  O   UNL A   1      43.371  22.866  24.654  1.00  0.00    -0.269 OA
BRANCH  29  32
ATOM     32  C   UNL A   1      42.586  24.460  26.185  1.00  0.00     0.039 A 
ATOM     33  C   UNL A   1      41.683  25.399  25.677  1.00  0.00     0.014 A 
ATOM     34  C   UNL A   1      43.407  24.773  27.265  1.00  0.00     0.014 A 
ATOM     35  C   UNL A   1      41.550  26.625  26.329  1.00  0.00     0.010 A 
ATOM     36  C   UNL A   1      43.169  25.909  27.991  1.00  0.00     0.010 A 
ATOM     37  C   UNL A   1      42.285  26.865  27.499  1.00  0.00    -0.014 A 
BRANCH  37  38
ATOM     38  C   UNL A   1      42.074  28.063  28.304  1.00  0.00     0.031 A 
ATOM     39  C   UNL A   1      43.128  29.105  28.158  1.00  0.00     0.074 A 
ATOM     40  C   UNL A   1      40.894  28.329  28.905  1.00  0.00     0.049 A 
ATOM     41  N   UNL A   1      44.012  29.467  29.028  1.00  0.00    -0.248 NA
ATOM     42  C   UNL A   1      43.316  29.719  26.832  1.00  0.00     0.031 C 
ATOM     43  C   UNL A   1      39.648  27.550  28.834  1.00  0.00     0.029 A 
ATOM     44  N   UNL A   1      40.510  29.432  29.600  1.00  0.00    -0.354 N 
ATOM     45  C   UNL A   1      44.706  30.525  28.447  1.00  0.00     0.074 A 
ATOM     46  C   UNL A   1      44.389  30.484  27.041  1.00  0.00     0.031 C 
ATOM     47  C   UNL A   1      38.609  28.315  29.236  1.00  0.00     0.029 A 
ATOM     48  C   UNL A   1      39.134  29.557  29.770  1.00  0.00     0.049 A 
ATOM     49  H   UNL A   1      41.152  30.089  29.954  1.00  0.00     0.167 HD
ATOM     50  C   UNL A   1      45.258  31.518  29.202  1.00  0.00     0.031 A 
ATOM     51  C   UNL A   1      38.472  30.616  30.298  1.00  0.00     0.031 A 
ATOM     52  C   UNL A   1      45.260  31.171  30.601  1.00  0.00     0.049 A 
ATOM     53  C   UNL A   1      39.459  31.380  31.096  1.00  0.00     0.074 A 
ATOM     54  C   UNL A   1      45.824  30.174  31.369  1.00  0.00     0.029 A 
ATOM     55  N   UNL A   1      44.244  31.712  31.353  1.00  0.00    -0.354 N 
ATOM     56  N   UNL A   1      40.044  30.904  32.159  1.00  0.00    -0.248 NA
ATOM     57  C   UNL A   1      40.125  32.510  30.472  1.00  0.00     0.031 C 
ATOM     58  C   UNL A   1      44.841  29.869  32.356  1.00  0.00     0.029 A 
ATOM     59  C   UNL A   1      43.761  30.741  32.189  1.00  0.00     0.049 A 
ATOM     60  H   UNL A   1      43.919  32.641  31.301  1.00  0.00     0.167 HD
ATOM     61  C   UNL A   1      41.347  31.372  32.086  1.00  0.00     0.074 A 
ATOM     62  C   UNL A   1      41.303  32.449  31.099  1.00  0.00     0.031 C 
ATOM     63  C   UNL A   1      42.380  30.657  32.622  1.00  0.00     0.031 A 
BRANCH  50  64
ATOM     64  C   UNL A   1      45.379  32.962  28.758  1.00  0.00    -0.014 A 
ATOM     65  C   UNL A   1      46.593  33.641  28.998  1.00  0.00     0.010 A 
ATOM     66  C   UNL A   1      44.275  33.753  28.385  1.00  0.00     0.010 A 
ATOM     67  C   UNL A   1      46.672  35.040  28.950  1.00  0.00     0.020 A 
ATOM     68  C   UNL A   1      44.353  35.145  28.290  1.00  0.00     0.020 A 
ATOM     69  C   UNL A   1      45.543  35.783  28.610  1.00  0.00     0.054 A 
BRANCH  69  70
ATOM     70  S   UNL A   1      45.622  37.590  28.653  1.00  0.00     0.124 S 
ATOM     71  O   UNL A   1      46.346  37.827  29.897  1.00  0.00    -0.237 OA
ATOM     72  O   UNL A   1      46.351  37.896  27.425  1.00  0.00    -0.237 OA
ATOM     73  O   UNL A   1      44.218  37.992  28.656  1.00  0.00    -0.744 OA
ENDBRANCH  69  70
ENDBRANCH  50  64
BRANCH  51  74
ATOM     74  C   UNL A   1      37.148  31.172  29.920  1.00  0.00    -0.014 A 
ATOM     75  C   UNL A   1      36.320  31.780  30.883  1.00  0.00     0.010 A 
ATOM     76  C   UNL A   1      36.833  31.376  28.561  1.00  0.00     0.010 A 
ATOM     77  C   UNL A   1      35.262  32.623  30.500  1.00  0.00     0.020 A 
ATOM     78  C   UNL A   1      35.777  32.212  28.172  1.00  0.00     0.020 A 
ATOM     79  C   UNL A   1      35.012  32.853  29.144  1.00  0.00     0.054 A 
BRANCH  79  80
ATOM     80  S   UNL A   1      33.772  34.093  28.664  1.00  0.00     0.124 S 
ATOM     81  O   UNL A   1      32.871  33.318  27.815  1.00  0.00    -0.237 OA
ATOM     82  O   UNL A   1      33.224  34.511  29.951  1.00  0.00    -0.237 OA
ATOM     83  O   UNL A   1      34.556  35.112  27.969  1.00  0.00    -0.744 OA
ENDBRANCH  79  80
ENDBRANCH  51  74
BRANCH  63  84
ATOM     84  C   UNL A   1      42.055  29.548  33.597  1.00  0.00    -0.014 A 
ATOM     85  C   UNL A   1      41.727  28.231  33.222  1.00  0.00     0.010 A 
ATOM     86  C   UNL A   1      42.242  29.830  34.962  1.00  0.00     0.010 A 
ATOM     87  C   UNL A   1      41.575  27.227  34.194  1.00  0.00     0.020 A 
ATOM     88  C   UNL A   1      42.110  28.834  35.930  1.00  0.00     0.020 A 
ATOM     89  C   UNL A   1      41.769  27.538  35.544  1.00  0.00     0.054 A 
BRANCH  89  90
ATOM     90  S   UNL A   1      41.625  26.232  36.797  1.00  0.00     0.124 S 
ATOM     91  O   UNL A   1      40.380  26.578  37.475  1.00  0.00    -0.237 OA
ATOM     92  O   UNL A   1      41.586  25.013  35.992  1.00  0.00    -0.237 OA
ATOM     93  O   UNL A   1      42.834  26.390  37.606  1.00  0.00    -0.744 OA
ENDBRANCH  89  90
ENDBRANCH  63  84
ENDBRANCH  37  38
ENDBRANCH  29  32
ENDBRANCH  27  28
ENDBRANCH  26  27
ENDBRANCH   1  26
TORSDOF 18
ENDMDL
MODEL 2
REMARK VINA RESULT:     -11.6      1.418      2.114
REMARK SMILES CC(C)[C@H](C)CNC(=O)N1CC(n2cc(C(=O)NCCCCNC(=O)c3ccc(-c4c5nc(c(-c6ccc(S(=O)(=O)[O-])cc6)c6ccc([nH]6)c(-c6ccc(S(=O)(=O)[O-])cc6)c6nc(c(-c7ccc(S(=O)(=O)[O-])cc7)c7ccc4[nH]7)C=C6)C=C5)cc3)nn2)C1
REMARK SMILES IDX 20 1 19 2 18 3 16 4 17 5 15 7 13 8 14 9 87 10 86 11 12 12
REMARK SMILES IDX 7 13 8 14 9 16 10 17 11 18 88 19 6 20 4 21 5 22 2 23 1 24
REMARK SMILES IDX 3 25 21 26 22 27 23 28 24 29 25 31 26 32 27 33 85 34 28 35
REMARK SMILES IDX 84 36 29 37 30 38 31 39 78 40 32 41 83 42 77 43 79 44 33 45
REMARK SMILES IDX 82 46 76 47 75 48 34 50 64 51 45 52 63 53 46 54 49 55 62 56
REMARK SMILES IDX 80 57 47 58 48 59 61 61 81 62 50 63 35 64 36 65 44 66 37 67
REMARK SMILES IDX 43 68 38 69 39 70 40 71 41 72 42 73 65 74 66 75 74 76 67 77
REMARK SMILES IDX 73 78 68 79 69 80 70 81 71 82 72 83 51 84 52 85 60 86 53 87
REMARK SMILES IDX 59 88 54 89 55 90 56 91 57 92 58 93
REMARK H PARENT 18 6 7 15 23 30 79 49 49 60
REMARK Flexibility Score: inf
ROOT
ATOM      1  C   UNL A   1      38.859  23.246  26.494  1.00  0.00     0.023 C 
ENDROOT
BRANCH   1   2
ATOM      2  C   UNL A   1      37.588  22.943  25.696  1.00  0.00     0.116 C 
BRANCH   2   3
ATOM      3  N   UNL A   1      37.412  21.521  25.483  1.00  0.00    -0.351 N 
ATOM      4  C   UNL A   1      36.337  20.775  25.053  1.00  0.00     0.273 C 
ATOM      5  O   UNL A   1      36.532  19.567  24.908  1.00  0.00    -0.267 OA
ATOM      6  H   UNL A   1      38.214  20.986  25.681  1.00  0.00     0.163 HD
BRANCH   4   7
ATOM      7  C   UNL A   1      35.036  21.376  24.770  1.00  0.00     0.170 A 
ATOM      8  N   UNL A   1      33.303  22.464  24.032  1.00  0.00    -0.245 N 
ATOM      9  C   UNL A   1      34.665  22.402  23.923  1.00  0.00     0.145 A 
ATOM     10  N   UNL A   1      32.849  21.601  24.947  1.00  0.00    -0.066 NA
ATOM     11  N   UNL A   1      33.898  20.946  25.427  1.00  0.00    -0.125 NA
BRANCH   8  12
ATOM     12  C   UNL A   1      32.484  23.303  23.218  1.00  0.00     0.148 C 
ATOM     13  N   UNL A   1      30.519  26.982  22.992  1.00  0.00    -0.338 N 
ATOM     14  C   UNL A   1      31.378  26.199  22.290  1.00  0.00     0.317 C 
ATOM     15  H   UNL A   1      29.792  27.384  22.465  1.00  0.00     0.165 HD
ATOM     16  O   UNL A   1      31.422  26.321  21.067  1.00  0.00    -0.249 OA
ATOM     17  N   UNL A   1      32.152  25.308  22.962  1.00  0.00    -0.320 N 
ATOM     18  C   UNL A   1      33.186  24.419  22.433  1.00  0.00     0.150 C 
ATOM     19  C   UNL A   1      31.842  24.418  24.070  1.00  0.00     0.150 C 
BRANCH  13  20
ATOM     20  C   UNL A   1      30.514  27.314  24.410  1.00  0.00     0.121 C 
BRANCH  20  21
ATOM     21  C   UNL A   1      31.611  28.344  24.773  1.00  0.00     0.008 C 
ATOM     22  C   UNL A   1      31.026  29.761  24.614  1.00  0.00     0.010 C 
BRANCH  21  23
ATOM     23  C   UNL A   1      32.198  28.114  26.201  1.00  0.00    -0.013 C 
ATOM     24  C   UNL A   1      31.936  29.297  27.146  1.00  0.00     0.008 C 
ATOM     25  C   UNL A   1      31.621  26.856  26.870  1.00  0.00     0.008 C 
ENDBRANCH  21  23
ENDBRANCH  20  21
ENDBRANCH  13  20
ENDBRANCH   8  12
ENDBRANCH   4   7
ENDBRANCH   2   3
ENDBRANCH   1   2
BRANCH   1  26
ATOM     26  C   UNL A   1      39.733  22.025  26.830  1.00  0.00     0.023 C 
BRANCH  26  27
ATOM     27  C   UNL A   1      41.124  22.351  27.369  1.00  0.00     0.116 C 
BRANCH  27  28
ATOM     28  N   UNL A   1      42.162  22.310  26.339  1.00  0.00    -0.352 N 
ATOM     29  C   UNL A   1      42.651  23.359  25.575  1.00  0.00     0.251 C 
ATOM     30  H   UNL A   1      42.565  21.428  26.168  1.00  0.00     0.163 HD
ATOM     31  O   UNL A   1      43.208  23.150  24.511  1.00  0.00    -0.269 OA
BRANCH  29  32
ATOM     32  C   UNL A   1      42.501  24.731  26.092  1.00  0.00     0.039 A 
ATOM     33  C   UNL A   1      41.476  25.579  25.659  1.00  0.00     0.014 A 
ATOM     34  C   UNL A   1      43.404  25.145  27.066  1.00  0.00     0.014 A 
ATOM     35  C   UNL A   1      41.316  26.815  26.287  1.00  0.00     0.010 A 
ATOM     36  C   UNL A   1      43.155  26.286  27.782  1.00  0.00     0.010 A 
ATOM     37  C   UNL A   1      42.151  27.153  27.363  1.00  0.00    -0.014 A 
BRANCH  37  38
ATOM     38  C   UNL A   1      41.932  28.360  28.151  1.00  0.00     0.031 A 
ATOM     39  C   UNL A   1      42.960  29.420  27.966  1.00  0.00     0.074 A 
ATOM     40  C   UNL A   1      40.759  28.612  28.773  1.00  0.00     0.049 A 
ATOM     41  N   UNL A   1      43.855  29.815  28.811  1.00  0.00    -0.248 NA
ATOM     42  C   UNL A   1      43.108  30.015  26.626  1.00  0.00     0.031 C 
ATOM     43  C   UNL A   1      39.528  27.808  28.741  1.00  0.00     0.029 A 
ATOM     44  N   UNL A   1      40.367  29.719  29.457  1.00  0.00    -0.354 N 
ATOM     45  C   UNL A   1      44.515  30.876  28.197  1.00  0.00     0.074 A 
ATOM     46  C   UNL A   1      44.169  30.805  26.800  1.00  0.00     0.031 C 
ATOM     47  C   UNL A   1      38.482  28.558  29.152  1.00  0.00     0.029 A 
ATOM     48  C   UNL A   1      38.992  29.819  29.654  1.00  0.00     0.049 A 
ATOM     49  H   UNL A   1      41.003  30.395  29.786  1.00  0.00     0.167 HD
ATOM     50  C   UNL A   1      45.062  31.893  28.924  1.00  0.00     0.031 A 
ATOM     51  C   UNL A   1      38.320  30.874  30.177  1.00  0.00     0.031 A 
ATOM     52  C   UNL A   1      45.100  31.570  30.328  1.00  0.00     0.049 A 
ATOM     53  C   UNL A   1      39.307  31.671  30.942  1.00  0.00     0.074 A 
ATOM     54  C   UNL A   1      45.699  30.598  31.101  1.00  0.00     0.029 A 
ATOM     55  N   UNL A   1      44.088  32.104  31.093  1.00  0.00    -0.354 N 
ATOM     56  N   UNL A   1      39.923  31.225  32.001  1.00  0.00    -0.248 NA
ATOM     57  C   UNL A   1      39.936  32.803  30.286  1.00  0.00     0.031 C 
ATOM     58  C   UNL A   1      44.744  30.290  32.114  1.00  0.00     0.029 A 
ATOM     59  C   UNL A   1      43.643  31.138  31.954  1.00  0.00     0.049 A 
ATOM     60  H   UNL A   1      43.744  33.025  31.032  1.00  0.00     0.167 HD
ATOM     61  C   UNL A   1      41.215  31.718  31.892  1.00  0.00     0.074 A 
ATOM     62  C   UNL A   1      41.128  32.777  30.888  1.00  0.00     0.031 C 
ATOM     63  C   UNL A   1      42.273  31.033  32.418  1.00  0.00     0.031 A 
BRANCH  50  64
ATOM     64  C   UNL A   1      45.144  33.332  28.454  1.00  0.00    -0.014 A 
ATOM     65  C   UNL A   1      46.345  34.043  28.666  1.00  0.00     0.010 A 
ATOM     66  C   UNL A   1      44.017  34.091  28.081  1.00  0.00     0.010 A 
ATOM     67  C   UNL A   1      46.390  35.442  28.593  1.00  0.00     0.020 A 
ATOM     68  C   UNL A   1      44.061  35.482  27.961  1.00  0.00     0.020 A 
ATOM     69  C   UNL A   1      45.240  36.152  28.254  1.00  0.00     0.054 A 
BRANCH  69  70
ATOM     70  S   UNL A   1      45.279  37.961  28.266  1.00  0.00     0.124 S 
ATOM     71  O   UNL A   1      46.361  38.232  29.206  1.00  0.00    -0.237 OA
ATOM     72  O   UNL A   1      45.559  38.272  26.866  1.00  0.00    -0.237 OA
ATOM     73  O   UNL A   1      43.941  38.327  28.724  1.00  0.00    -0.744 OA
ENDBRANCH  69  70
ENDBRANCH  50  64
BRANCH  51  74
ATOM     74  C   UNL A   1      36.977  31.396  29.819  1.00  0.00    -0.014 A 
ATOM     75  C   UNL A   1      36.173  32.038  30.780  1.00  0.00     0.010 A 
ATOM     76  C   UNL A   1      36.616  31.535  28.463  1.00  0.00     0.010 A 
ATOM     77  C   UNL A   1      35.091  32.850  30.393  1.00  0.00     0.020 A 
ATOM     78  C   UNL A   1      35.537  32.339  28.071  1.00  0.00     0.020 A 
ATOM     79  C   UNL A   1      34.796  33.014  29.038  1.00  0.00     0.054 A 
BRANCH  79  80
ATOM     80  S   UNL A   1      33.524  34.217  28.543  1.00  0.00     0.124 S 
ATOM     81  O   UNL A   1      34.321  35.278  27.934  1.00  0.00    -0.237 OA
ATOM     82  O   UNL A   1      32.694  33.443  27.624  1.00  0.00    -0.237 OA
ATOM     83  O   UNL A   1      32.878  34.572  29.805  1.00  0.00    -0.744 OA
ENDBRANCH  79  80
ENDBRANCH  51  74
BRANCH  63  84
ATOM     84  C   UNL A   1      41.992  29.935  33.418  1.00  0.00    -0.014 A 
ATOM     85  C   UNL A   1      41.648  28.613  33.071  1.00  0.00     0.010 A 
ATOM     86  C   UNL A   1      42.237  30.232  34.770  1.00  0.00     0.010 A 
ATOM     87  C   UNL A   1      41.539  27.620  34.061  1.00  0.00     0.020 A 
ATOM     88  C   UNL A   1      42.147  29.246  35.754  1.00  0.00     0.020 A 
ATOM     89  C   UNL A   1      41.791  27.946  35.398  1.00  0.00     0.054 A 
BRANCH  89  90
ATOM     90  S   UNL A   1      41.702  26.654  36.669  1.00  0.00     0.124 S 
ATOM     91  O   UNL A   1      41.662  25.430  35.877  1.00  0.00    -0.237 OA
ATOM     92  O   UNL A   1      42.928  26.868  37.437  1.00  0.00    -0.237 OA
ATOM     93  O   UNL A   1      40.469  26.962  37.393  1.00  0.00    -0.744 OA
ENDBRANCH  89  90
ENDBRANCH  63  84
ENDBRANCH  37  38
ENDBRANCH  29  32
ENDBRANCH  27  28
ENDBRANCH  26  27
ENDBRANCH   1  26
TORSDOF 18
ENDMDL
MODEL 3
REMARK VINA RESULT:     -11.5      2.648      9.771
REMARK SMILES CC(C)[C@H](C)CNC(=O)N1CC(n2cc(C(=O)NCCCCNC(=O)c3ccc(-c4c5nc(c(-c6ccc(S(=O)(=O)[O-])cc6)c6ccc([nH]6)c(-c6ccc(S(=O)(=O)[O-])cc6)c6nc(c(-c7ccc(S(=O)(=O)[O-])cc7)c7ccc4[nH]7)C=C6)C=C5)cc3)nn2)C1
REMARK SMILES IDX 20 1 19 2 18 3 16 4 17 5 15 7 13 8 14 9 87 10 86 11 12 12
REMARK SMILES IDX 7 13 8 14 9 16 10 17 11 18 88 19 6 20 4 21 5 22 2 23 1 24
REMARK SMILES IDX 3 25 21 26 22 27 23 28 24 29 25 31 26 32 27 33 85 34 28 35
REMARK SMILES IDX 84 36 29 37 30 38 31 39 78 40 32 41 83 42 77 43 79 44 33 45
REMARK SMILES IDX 82 46 76 47 75 48 34 50 64 51 45 52 63 53 46 54 49 55 62 56
REMARK SMILES IDX 80 57 47 58 48 59 61 61 81 62 50 63 35 64 36 65 44 66 37 67
REMARK SMILES IDX 43 68 38 69 39 70 40 71 41 72 42 73 65 74 66 75 74 76 67 77
REMARK SMILES IDX 73 78 68 79 69 80 70 81 71 82 72 83 51 84 52 85 60 86 53 87
REMARK SMILES IDX 59 88 54 89 55 90 56 91 57 92 58 93
REMARK H PARENT 18 6 7 15 23 30 79 49 49 60
REMARK Flexibility Score: inf
ROOT
ATOM      1  C   UNL A   1      32.635  29.657  25.096  1.00  0.00     0.023 C 
ENDROOT
BRANCH   1   2
ATOM      2  C   UNL A   1      32.984  29.281  23.652  1.00  0.00     0.116 C 
BRANCH   2   3
ATOM      3  N   UNL A   1      31.803  29.191  22.819  1.00  0.00    -0.351 N 
ATOM      4  C   UNL A   1      30.803  28.248  22.730  1.00  0.00     0.273 C 
ATOM      5  O   UNL A   1      29.880  28.501  21.952  1.00  0.00    -0.267 OA
ATOM      6  H   UNL A   1      31.693  29.947  22.200  1.00  0.00     0.163 HD
BRANCH   4   7
ATOM      7  C   UNL A   1      30.819  27.019  23.519  1.00  0.00     0.170 A 
ATOM      8  N   UNL A   1      31.259  25.189  24.610  1.00  0.00    -0.245 N 
ATOM      9  C   UNL A   1      31.800  26.064  23.707  1.00  0.00     0.145 A 
ATOM     10  N   UNL A   1      29.996  25.514  24.905  1.00  0.00    -0.066 NA
ATOM     11  N   UNL A   1      29.703  26.616  24.227  1.00  0.00    -0.125 NA
BRANCH   8  12
ATOM     12  C   UNL A   1      31.988  24.111  25.197  1.00  0.00     0.148 C 
ATOM     13  N   UNL A   1      35.730  22.866  26.575  1.00  0.00    -0.338 N 
ATOM     14  C   UNL A   1      34.429  22.929  26.961  1.00  0.00     0.317 C 
ATOM     15  H   UNL A   1      36.184  22.015  26.768  1.00  0.00     0.165 HD
ATOM     16  O   UNL A   1      34.024  22.126  27.800  1.00  0.00    -0.249 OA
ATOM     17  N   UNL A   1      33.625  23.871  26.405  1.00  0.00    -0.320 N 
ATOM     18  C   UNL A   1      32.225  24.169  26.712  1.00  0.00     0.150 C 
ATOM     19  C   UNL A   1      33.505  24.337  25.033  1.00  0.00     0.150 C 
BRANCH  13  20
ATOM     20  C   UNL A   1      36.551  23.872  25.915  1.00  0.00     0.121 C 
BRANCH  20  21
ATOM     21  C   UNL A   1      38.044  23.466  25.864  1.00  0.00     0.008 C 
ATOM     22  C   UNL A   1      38.803  24.251  26.951  1.00  0.00     0.010 C 
BRANCH  21  23
ATOM     23  C   UNL A   1      38.250  21.925  26.008  1.00  0.00    -0.013 C 
ATOM     24  C   UNL A   1      37.770  21.147  24.773  1.00  0.00     0.008 C 
ATOM     25  C   UNL A   1      39.724  21.556  26.240  1.00  0.00     0.008 C 
ENDBRANCH  21  23
ENDBRANCH  20  21
ENDBRANCH  13  20
ENDBRANCH   8  12
ENDBRANCH   4   7
ENDBRANCH   2   3
ENDBRANCH   1   2
BRANCH   1  26
ATOM     26  C   UNL A   1      33.150  28.685  26.172  1.00  0.00     0.023 C 
BRANCH  26  27
ATOM     27  C   UNL A   1      33.673  29.345  27.445  1.00  0.00     0.116 C 
BRANCH  27  28
ATOM     28  N   UNL A   1      33.869  30.788  27.305  1.00  0.00    -0.352 N 
ATOM     29  C   UNL A   1      34.821  31.586  27.922  1.00  0.00     0.251 C 
ATOM     30  H   UNL A   1      33.249  31.250  26.696  1.00  0.00     0.163 HD
ATOM     31  O   UNL A   1      34.648  32.787  28.040  1.00  0.00    -0.269 OA
BRANCH  29  32
ATOM     32  C   UNL A   1      36.057  30.950  28.411  1.00  0.00     0.039 A 
ATOM     33  C   UNL A   1      36.190  29.561  28.504  1.00  0.00     0.014 A 
ATOM     34  C   UNL A   1      37.114  31.791  28.747  1.00  0.00     0.014 A 
ATOM     35  C   UNL A   1      37.431  29.026  28.851  1.00  0.00     0.010 A 
ATOM     36  C   UNL A   1      38.365  31.266  28.936  1.00  0.00     0.010 A 
ATOM     37  C   UNL A   1      38.521  29.888  29.047  1.00  0.00    -0.014 A 
BRANCH  37  38
ATOM     38  C   UNL A   1      39.871  29.380  29.260  1.00  0.00     0.031 A 
ATOM     39  C   UNL A   1      40.259  29.222  30.688  1.00  0.00     0.074 A 
ATOM     40  C   UNL A   1      40.601  28.831  28.263  1.00  0.00     0.049 A 
ATOM     41  N   UNL A   1      41.117  29.917  31.360  1.00  0.00    -0.248 NA
ATOM     42  C   UNL A   1      39.495  28.268  31.512  1.00  0.00     0.031 C 
ATOM     43  C   UNL A   1      40.195  28.600  26.869  1.00  0.00     0.029 A 
ATOM     44  N   UNL A   1      41.819  28.232  28.316  1.00  0.00    -0.354 N 
ATOM     45  C   UNL A   1      41.180  29.329  32.620  1.00  0.00     0.074 A 
ATOM     46  C   UNL A   1      40.020  28.479  32.721  1.00  0.00     0.031 C 
ATOM     47  C   UNL A   1      41.029  27.705  26.294  1.00  0.00     0.029 A 
ATOM     48  C   UNL A   1      42.128  27.453  27.205  1.00  0.00     0.049 A 
ATOM     49  H   UNL A   1      42.434  28.341  29.078  1.00  0.00     0.167 HD
ATOM     50  C   UNL A   1      42.320  29.364  33.369  1.00  0.00     0.031 A 
ATOM     51  C   UNL A   1      43.204  26.641  27.054  1.00  0.00     0.031 A 
ATOM     52  C   UNL A   1      43.280  30.285  32.815  1.00  0.00     0.049 A 
ATOM     53  C   UNL A   1      44.220  27.096  28.031  1.00  0.00     0.074 A 
ATOM     54  C   UNL A   1      43.315  31.641  32.566  1.00  0.00     0.029 A 
ATOM     55  N   UNL A   1      44.277  29.724  32.051  1.00  0.00    -0.354 N 
ATOM     56  N   UNL A   1      44.790  28.267  27.982  1.00  0.00    -0.248 NA
ATOM     57  C   UNL A   1      44.291  26.422  29.316  1.00  0.00     0.031 C 
ATOM     58  C   UNL A   1      44.030  31.772  31.338  1.00  0.00     0.029 A 
ATOM     59  C   UNL A   1      44.457  30.502  30.939  1.00  0.00     0.049 A 
ATOM     60  H   UNL A   1      44.777  28.904  32.267  1.00  0.00     0.167 HD
ATOM     61  C   UNL A   1      44.898  28.664  29.306  1.00  0.00     0.074 A 
ATOM     62  C   UNL A   1      44.690  27.443  30.081  1.00  0.00     0.031 C 
ATOM     63  C   UNL A   1      44.866  29.987  29.647  1.00  0.00     0.031 A 
BRANCH  50  64
ATOM     64  C   UNL A   1      42.754  28.263  34.316  1.00  0.00    -0.014 A 
ATOM     65  C   UNL A   1      43.519  28.614  35.451  1.00  0.00     0.010 A 
ATOM     66  C   UNL A   1      42.693  26.893  33.994  1.00  0.00     0.010 A 
ATOM     67  C   UNL A   1      44.248  27.655  36.167  1.00  0.00     0.020 A 
ATOM     68  C   UNL A   1      43.378  25.923  34.729  1.00  0.00     0.020 A 
ATOM     69  C   UNL A   1      44.183  26.315  35.789  1.00  0.00     0.054 A 
BRANCH  69  70
ATOM     70  S   UNL A   1      45.209  25.099  36.650  1.00  0.00     0.124 S 
ATOM     71  O   UNL A   1      46.478  25.224  35.943  1.00  0.00    -0.237 OA
ATOM     72  O   UNL A   1      45.192  25.599  38.022  1.00  0.00    -0.237 OA
ATOM     73  O   UNL A   1      44.494  23.842  36.442  1.00  0.00    -0.744 OA
ENDBRANCH  69  70
ENDBRANCH  50  64
BRANCH  51  74
ATOM     74  C   UNL A   1      43.298  25.337  26.352  1.00  0.00    -0.014 A 
ATOM     75  C   UNL A   1      44.115  25.187  25.215  1.00  0.00     0.010 A 
ATOM     76  C   UNL A   1      42.824  24.165  26.977  1.00  0.00     0.010 A 
ATOM     77  C   UNL A   1      44.506  23.912  24.767  1.00  0.00     0.020 A 
ATOM     78  C   UNL A   1      43.206  22.892  26.533  1.00  0.00     0.020 A 
ATOM     79  C   UNL A   1      44.067  22.773  25.445  1.00  0.00     0.054 A 
BRANCH  79  80
ATOM     80  S   UNL A   1      44.733  21.146  24.977  1.00  0.00     0.124 S 
ATOM     81  O   UNL A   1      44.676  21.195  23.519  1.00  0.00    -0.237 OA
ATOM     82  O   UNL A   1      46.072  21.171  25.558  1.00  0.00    -0.237 OA
ATOM     83  O   UNL A   1      43.807  20.203  25.604  1.00  0.00    -0.744 OA
ENDBRANCH  79  80
ENDBRANCH  51  74
BRANCH  63  84
ATOM     84  C   UNL A   1      45.073  31.013  28.557  1.00  0.00    -0.014 A 
ATOM     85  C   UNL A   1      44.032  31.605  27.814  1.00  0.00     0.010 A 
ATOM     86  C   UNL A   1      46.380  31.504  28.388  1.00  0.00     0.010 A 
ATOM     87  C   UNL A   1      44.301  32.652  26.916  1.00  0.00     0.020 A 
ATOM     88  C   UNL A   1      46.650  32.555  27.511  1.00  0.00     0.020 A 
ATOM     89  C   UNL A   1      45.611  33.120  26.772  1.00  0.00     0.054 A 
BRANCH  89  90
ATOM     90  S   UNL A   1      45.952  34.507  25.651  1.00  0.00     0.124 S 
ATOM     91  O   UNL A   1      47.383  34.371  25.403  1.00  0.00    -0.237 OA
ATOM     92  O   UNL A   1      45.085  34.223  24.509  1.00  0.00    -0.237 OA
ATOM     93  O   UNL A   1      45.569  35.686  26.428  1.00  0.00    -0.744 OA
ENDBRANCH  89  90
ENDBRANCH  63  84
ENDBRANCH  37  38
ENDBRANCH  29  32
ENDBRANCH  27  28
ENDBRANCH  26  27
ENDBRANCH   1  26
TORSDOF 18
ENDMDL
