MODEL 1
REMARK VINA RESULT:     -11.0      0.000      0.000
REMARK SMILES CC[C@@H](C(=O)NCCCCNC(=O)c1ccc(-c2c3nc(c(-c4ccc(S(=O)(=O)[O-])cc4)c4ccc([nH]4)c(-c4ccc(S(=O)(=O)[O-])cc4)c4nc(c(-c5ccc(S(=O)(=O)[O-])cc5)c5ccc2[nH]5)C=C4)C=C3)cc1)N1C(=O)/C(=C\c2ccc(C(=O)OC)cc2)SC1=S
REMARK SMILES IDX 8 1 7 2 6 3 4 4 5 5 3 7 2 8 1 9 74 10 75 11 90 12 76 13
REMARK SMILES IDX 77 14 89 15 91 16 78 17 79 18 80 19 88 20 81 21 87 22 82 23
REMARK SMILES IDX 83 24 84 25 85 26 86 27 9 28 10 29 11 30 12 31 13 33 14 34
REMARK SMILES IDX 15 35 73 36 16 37 72 38 17 39 18 40 19 41 66 42 20 43 71 44
REMARK SMILES IDX 65 45 67 46 21 47 70 48 64 49 63 50 22 52 52 53 33 54 51 55
REMARK SMILES IDX 34 56 37 57 50 58 68 59 35 60 36 61 49 63 69 64 38 65 23 66
REMARK SMILES IDX 24 67 32 68 25 69 31 70 26 71 27 72 28 73 29 74 30 75 53 76
REMARK SMILES IDX 54 77 62 78 55 79 61 80 56 81 57 82 58 83 59 84 60 85 39 86
REMARK SMILES IDX 40 87 48 88 41 89 47 90 42 91 43 92 44 93 45 94 46 95
REMARK H PARENT 6 6 11 32 67 51 37 62
REMARK Flexibility Score: inf
ROOT
ATOM      1  C   UNL A   1      34.607  29.813  27.493  1.00  0.00     0.023 C 
ENDROOT
BRANCH   1   2
ATOM      2  C   UNL A   1      33.609  29.516  26.376  1.00  0.00     0.116 C 
BRANCH   2   3
ATOM      3  N   UNL A   1      32.610  28.579  26.833  1.00  0.00    -0.354 N 
ATOM      4  C   UNL A   1      31.682  27.869  26.135  1.00  0.00     0.243 C 
ATOM      5  O   UNL A   1      30.941  27.138  26.799  1.00  0.00    -0.273 OA
ATOM      6  H   UNL A   1      32.599  28.429  27.806  1.00  0.00     0.163 HD
BRANCH   4   7
ATOM      7  C   UNL A   1      31.628  27.915  24.585  1.00  0.00     0.181 C 
BRANCH   7   8
ATOM      8  C   UNL A   1      30.520  28.789  23.944  1.00  0.00     0.032 C 
ATOM      9  C   UNL A   1      30.771  29.376  22.567  1.00  0.00     0.006 C 
ENDBRANCH   7   8
BRANCH   7  10
ATOM     10  N   UNL A   1      31.464  26.494  24.160  1.00  0.00    -0.280 N 
ATOM     11  C   UNL A   1      32.595  25.737  23.904  1.00  0.00     0.266 C 
ATOM     12  C   UNL A   1      30.267  25.895  23.825  1.00  0.00     0.149 C 
ATOM     13  O   UNL A   1      33.745  26.148  23.843  1.00  0.00    -0.268 OA
ATOM     14  C   UNL A   1      32.223  24.313  23.722  1.00  0.00     0.081 C 
ATOM     15  S   UNL A   1      30.546  24.210  23.363  1.00  0.00    -0.054 SA
ATOM     16  S   UNL A   1      28.735  26.555  23.868  1.00  0.00    -0.052 S 
ATOM     17  C   UNL A   1      33.032  23.266  23.939  1.00  0.00     0.029 C 
BRANCH  17  18
ATOM     18  C   UNL A   1      34.396  23.398  24.469  1.00  0.00    -0.024 A 
ATOM     19  C   UNL A   1      34.612  23.583  25.837  1.00  0.00     0.009 A 
ATOM     20  C   UNL A   1      35.500  23.283  23.609  1.00  0.00     0.009 A 
ATOM     21  C   UNL A   1      35.917  23.624  26.342  1.00  0.00     0.016 A 
ATOM     22  C   UNL A   1      36.803  23.311  24.114  1.00  0.00     0.016 A 
ATOM     23  C   UNL A   1      37.019  23.476  25.487  1.00  0.00     0.060 A 
BRANCH  23  24
ATOM     24  C   UNL A   1      38.385  23.496  26.078  1.00  0.00     0.337 C 
ATOM     25  O   UNL A   1      38.757  24.331  26.891  1.00  0.00    -0.246 OA
BRANCH  24  26
ATOM     26  O   UNL A   1      39.137  22.476  25.593  1.00  0.00    -0.465 OA
ATOM     27  C   UNL A   1      38.686  21.181  25.991  1.00  0.00     0.282 C 
ENDBRANCH  24  26
ENDBRANCH  23  24
ENDBRANCH  17  18
ENDBRANCH   7  10
ENDBRANCH   4   7
ENDBRANCH   2   3
ENDBRANCH   1   2
BRANCH   1  28
ATOM     28  C   UNL A   1      35.018  31.277  27.603  1.00  0.00     0.023 C 
BRANCH  28  29
ATOM     29  C   UNL A   1      36.051  31.562  28.679  1.00  0.00     0.116 C 
BRANCH  29  30
ATOM     30  N   UNL A   1      35.809  30.834  29.918  1.00  0.00    -0.352 N 
ATOM     31  C   UNL A   1      36.673  30.012  30.607  1.00  0.00     0.251 C 
ATOM     32  H   UNL A   1      34.914  30.943  30.313  1.00  0.00     0.163 HD
ATOM     33  O   UNL A   1      36.283  29.362  31.570  1.00  0.00    -0.269 OA
BRANCH  31  34
ATOM     34  C   UNL A   1      38.067  29.902  30.132  1.00  0.00     0.039 A 
ATOM     35  C   UNL A   1      39.108  29.921  31.061  1.00  0.00     0.014 A 
ATOM     36  C   UNL A   1      38.323  29.669  28.779  1.00  0.00     0.014 A 
ATOM     37  C   UNL A   1      40.404  29.622  30.640  1.00  0.00     0.010 A 
ATOM     38  C   UNL A   1      39.591  29.267  28.385  1.00  0.00     0.010 A 
ATOM     39  C   UNL A   1      40.647  29.244  29.308  1.00  0.00    -0.014 A 
BRANCH  39  40
ATOM     40  C   UNL A   1      41.996  28.827  28.849  1.00  0.00     0.031 A 
ATOM     41  C   UNL A   1      43.093  29.851  28.736  1.00  0.00     0.074 A 
ATOM     42  C   UNL A   1      42.213  27.554  28.461  1.00  0.00     0.049 A 
ATOM     43  N   UNL A   1      44.309  29.711  28.275  1.00  0.00    -0.248 NA
ATOM     44  C   UNL A   1      42.771  31.224  29.165  1.00  0.00     0.031 C 
ATOM     45  C   UNL A   1      41.219  26.477  28.478  1.00  0.00     0.029 A 
ATOM     46  N   UNL A   1      43.343  26.949  27.966  1.00  0.00    -0.354 N 
ATOM     47  C   UNL A   1      44.884  30.975  28.339  1.00  0.00     0.074 A 
ATOM     48  C   UNL A   1      43.867  31.881  28.823  1.00  0.00     0.031 C 
ATOM     49  C   UNL A   1      41.791  25.341  28.048  1.00  0.00     0.029 A 
ATOM     50  C   UNL A   1      43.175  25.614  27.676  1.00  0.00     0.049 A 
ATOM     51  H   UNL A   1      44.192  27.426  27.831  1.00  0.00     0.167 HD
ATOM     52  C   UNL A   1      46.152  31.344  28.047  1.00  0.00     0.031 A 
ATOM     53  C   UNL A   1      44.035  24.714  27.160  1.00  0.00     0.031 A 
ATOM     54  C   UNL A   1      47.164  30.435  27.583  1.00  0.00     0.049 A 
ATOM     55  C   UNL A   1      45.437  25.152  26.828  1.00  0.00     0.074 A 
ATOM     56  C   UNL A   1      48.496  30.697  27.315  1.00  0.00     0.029 A 
ATOM     57  N   UNL A   1      46.957  29.091  27.314  1.00  0.00    -0.354 N 
ATOM     58  N   UNL A   1      45.984  26.338  26.964  1.00  0.00    -0.248 NA
ATOM     59  C   UNL A   1      46.342  24.131  26.284  1.00  0.00     0.031 C 
ATOM     60  C   UNL A   1      49.080  29.525  26.826  1.00  0.00     0.029 A 
ATOM     61  C   UNL A   1      48.130  28.515  26.857  1.00  0.00     0.049 A 
ATOM     62  H   UNL A   1      46.103  28.615  27.432  1.00  0.00     0.167 HD
ATOM     63  C   UNL A   1      47.304  26.196  26.552  1.00  0.00     0.074 A 
ATOM     64  C   UNL A   1      47.477  24.807  26.176  1.00  0.00     0.031 C 
ATOM     65  C   UNL A   1      48.286  27.130  26.492  1.00  0.00     0.031 A 
BRANCH  52  66
ATOM     66  C   UNL A   1      46.514  32.797  28.220  1.00  0.00    -0.014 A 
ATOM     67  C   UNL A   1      46.996  33.287  29.447  1.00  0.00     0.010 A 
ATOM     68  C   UNL A   1      46.405  33.678  27.129  1.00  0.00     0.010 A 
ATOM     69  C   UNL A   1      47.322  34.638  29.592  1.00  0.00     0.020 A 
ATOM     70  C   UNL A   1      46.762  35.023  27.260  1.00  0.00     0.020 A 
ATOM     71  C   UNL A   1      47.203  35.498  28.496  1.00  0.00     0.054 A 
BRANCH  71  72
ATOM     72  S   UNL A   1      47.662  37.239  28.708  1.00  0.00     0.124 S 
ATOM     73  O   UNL A   1      46.375  37.911  28.550  1.00  0.00    -0.237 OA
ATOM     74  O   UNL A   1      48.219  37.259  30.058  1.00  0.00    -0.237 OA
ATOM     75  O   UNL A   1      48.625  37.478  27.636  1.00  0.00    -0.744 OA
ENDBRANCH  71  72
ENDBRANCH  52  66
BRANCH  53  76
ATOM     76  C   UNL A   1      43.601  23.307  26.935  1.00  0.00    -0.014 A 
ATOM     77  C   UNL A   1      43.585  22.761  25.639  1.00  0.00     0.010 A 
ATOM     78  C   UNL A   1      43.204  22.500  28.018  1.00  0.00     0.010 A 
ATOM     79  C   UNL A   1      43.161  21.445  25.428  1.00  0.00     0.020 A 
ATOM     80  C   UNL A   1      42.811  21.174  27.815  1.00  0.00     0.020 A 
ATOM     81  C   UNL A   1      42.779  20.659  26.518  1.00  0.00     0.054 A 
BRANCH  81  82
ATOM     82  S   UNL A   1      42.277  18.940  26.223  1.00  0.00     0.124 S 
ATOM     83  O   UNL A   1      42.403  18.355  27.554  1.00  0.00    -0.237 OA
ATOM     84  O   UNL A   1      40.913  19.093  25.724  1.00  0.00    -0.237 OA
ATOM     85  O   UNL A   1      43.244  18.467  25.235  1.00  0.00    -0.744 OA
ENDBRANCH  81  82
ENDBRANCH  53  76
BRANCH  65  86
ATOM     86  C   UNL A   1      49.651  26.679  26.043  1.00  0.00    -0.014 A 
ATOM     87  C   UNL A   1      50.109  26.919  24.736  1.00  0.00     0.010 A 
ATOM     88  C   UNL A   1      50.515  26.069  26.972  1.00  0.00     0.010 A 
ATOM     89  C   UNL A   1      51.398  26.533  24.359  1.00  0.00     0.020 A 
ATOM     90  C   UNL A   1      51.815  25.713  26.609  1.00  0.00     0.020 A 
ATOM     91  C   UNL A   1      52.245  25.936  25.299  1.00  0.00     0.054 A 
BRANCH  91  92
ATOM     92  S   UNL A   1      53.932  25.498  24.799  1.00  0.00     0.124 S 
ATOM     93  O   UNL A   1      54.009  26.068  23.457  1.00  0.00    -0.237 OA
ATOM     94  O   UNL A   1      54.747  26.164  25.812  1.00  0.00    -0.237 OA
ATOM     95  O   UNL A   1      53.944  24.039  24.859  1.00  0.00    -0.744 OA
ENDBRANCH  91  92
ENDBRANCH  65  86
ENDBRANCH  39  40
ENDBRANCH  31  34
ENDBRANCH  29  30
ENDBRANCH  28  29
ENDBRANCH   1  28
TORSDOF 19
ENDMDL
MODEL 2
REMARK VINA RESULT:     -10.9      1.414      2.304
REMARK SMILES CC[C@@H](C(=O)NCCCCNC(=O)c1ccc(-c2c3nc(c(-c4ccc(S(=O)(=O)[O-])cc4)c4ccc([nH]4)c(-c4ccc(S(=O)(=O)[O-])cc4)c4nc(c(-c5ccc(S(=O)(=O)[O-])cc5)c5ccc2[nH]5)C=C4)C=C3)cc1)N1C(=O)/C(=C\c2ccc(C(=O)OC)cc2)SC1=S
REMARK SMILES IDX 8 1 7 2 6 3 4 4 5 5 3 7 2 8 1 9 74 10 75 11 90 12 76 13
REMARK SMILES IDX 77 14 89 15 91 16 78 17 79 18 80 19 88 20 81 21 87 22 82 23
REMARK SMILES IDX 83 24 84 25 85 26 86 27 9 28 10 29 11 30 12 31 13 33 14 34
REMARK SMILES IDX 15 35 73 36 16 37 72 38 17 39 18 40 19 41 66 42 20 43 71 44
REMARK SMILES IDX 65 45 67 46 21 47 70 48 64 49 63 50 22 52 52 53 33 54 51 55
REMARK SMILES IDX 34 56 37 57 50 58 68 59 35 60 36 61 49 63 69 64 38 65 23 66
REMARK SMILES IDX 24 67 32 68 25 69 31 70 26 71 27 72 28 73 29 74 30 75 53 76
REMARK SMILES IDX 54 77 62 78 55 79 61 80 56 81 57 82 58 83 59 84 60 85 39 86
REMARK SMILES IDX 40 87 48 88 41 89 47 90 42 91 43 92 44 93 45 94 46 95
REMARK H PARENT 6 6 11 32 67 51 37 62
REMARK Flexibility Score: inf
ROOT
ATOM      1  C   UNL A   1      34.651  30.615  27.776  1.00  0.00     0.023 C 
ENDROOT
BRANCH   1   2
ATOM      2  C   UNL A   1      33.313  30.487  27.050  1.00  0.00     0.116 C 
BRANCH   2   3
ATOM      3  N   UNL A   1      32.643  29.270  27.445  1.00  0.00    -0.354 N 
ATOM      4  C   UNL A   1      32.447  28.110  26.760  1.00  0.00     0.243 C 
ATOM      5  O   UNL A   1      31.823  27.225  27.354  1.00  0.00    -0.273 OA
ATOM      6  H   UNL A   1      32.269  29.281  28.355  1.00  0.00     0.163 HD
BRANCH   4   7
ATOM      7  C   UNL A   1      33.056  27.892  25.350  1.00  0.00     0.181 C 
BRANCH   7   8
ATOM      8  C   UNL A   1      33.701  29.123  24.663  1.00  0.00     0.032 C 
ATOM      9  C   UNL A   1      34.364  28.928  23.312  1.00  0.00     0.006 C 
ENDBRANCH   7   8
BRANCH   7  10
ATOM     10  N   UNL A   1      31.929  27.378  24.517  1.00  0.00    -0.280 N 
ATOM     11  C   UNL A   1      32.015  26.099  23.992  1.00  0.00     0.266 C 
ATOM     12  C   UNL A   1      30.863  28.129  24.068  1.00  0.00     0.149 C 
ATOM     13  O   UNL A   1      32.996  25.371  24.009  1.00  0.00    -0.268 OA
ATOM     14  C   UNL A   1      30.714  25.706  23.398  1.00  0.00     0.081 C 
ATOM     15  S   UNL A   1      29.781  27.118  23.098  1.00  0.00    -0.054 SA
ATOM     16  S   UNL A   1      30.525  29.733  24.378  1.00  0.00    -0.052 S 
ATOM     17  C   UNL A   1      30.278  24.447  23.246  1.00  0.00     0.029 C 
BRANCH  17  18
ATOM     18  C   UNL A   1      31.020  23.274  23.731  1.00  0.00    -0.024 A 
ATOM     19  C   UNL A   1      31.808  22.521  22.858  1.00  0.00     0.009 A 
ATOM     20  C   UNL A   1      30.986  22.934  25.092  1.00  0.00     0.009 A 
ATOM     21  C   UNL A   1      32.576  21.457  23.346  1.00  0.00     0.016 A 
ATOM     22  C   UNL A   1      31.762  21.879  25.583  1.00  0.00     0.016 A 
ATOM     23  C   UNL A   1      32.567  21.138  24.711  1.00  0.00     0.060 A 
BRANCH  23  24
ATOM     24  C   UNL A   1      33.425  20.017  25.184  1.00  0.00     0.337 C 
ATOM     25  O   UNL A   1      33.011  19.092  25.870  1.00  0.00    -0.246 OA
BRANCH  24  26
ATOM     26  O   UNL A   1      34.702  20.170  24.752  1.00  0.00    -0.465 OA
ATOM     27  C   UNL A   1      35.530  20.925  25.637  1.00  0.00     0.282 C 
ENDBRANCH  24  26
ENDBRANCH  23  24
ENDBRANCH  17  18
ENDBRANCH   7  10
ENDBRANCH   4   7
ENDBRANCH   2   3
ENDBRANCH   1   2
BRANCH   1  28
ATOM     28  C   UNL A   1      35.231  32.024  27.792  1.00  0.00     0.023 C 
BRANCH  28  29
ATOM     29  C   UNL A   1      36.034  32.361  29.037  1.00  0.00     0.116 C 
BRANCH  29  30
ATOM     30  N   UNL A   1      35.725  31.500  30.171  1.00  0.00    -0.352 N 
ATOM     31  C   UNL A   1      36.523  30.542  30.757  1.00  0.00     0.251 C 
ATOM     32  H   UNL A   1      34.833  31.618  30.570  1.00  0.00     0.163 HD
ATOM     33  O   UNL A   1      36.077  29.804  31.627  1.00  0.00    -0.269 OA
BRANCH  31  34
ATOM     34  C   UNL A   1      37.914  30.401  30.283  1.00  0.00     0.039 A 
ATOM     35  C   UNL A   1      38.959  30.455  31.206  1.00  0.00     0.014 A 
ATOM     36  C   UNL A   1      38.163  30.105  28.941  1.00  0.00     0.014 A 
ATOM     37  C   UNL A   1      40.251  30.128  30.794  1.00  0.00     0.010 A 
ATOM     38  C   UNL A   1      39.427  29.676  28.560  1.00  0.00     0.010 A 
ATOM     39  C   UNL A   1      40.486  29.687  29.480  1.00  0.00    -0.014 A 
BRANCH  39  40
ATOM     40  C   UNL A   1      41.831  29.240  29.035  1.00  0.00     0.031 A 
ATOM     41  C   UNL A   1      42.958  30.235  28.956  1.00  0.00     0.074 A 
ATOM     42  C   UNL A   1      42.019  27.967  28.631  1.00  0.00     0.049 A 
ATOM     43  N   UNL A   1      44.176  30.068  28.512  1.00  0.00    -0.248 NA
ATOM     44  C   UNL A   1      42.666  31.609  29.402  1.00  0.00     0.031 C 
ATOM     45  C   UNL A   1      40.995  26.919  28.616  1.00  0.00     0.029 A 
ATOM     46  N   UNL A   1      43.139  27.339  28.144  1.00  0.00    -0.354 N 
ATOM     47  C   UNL A   1      44.785  31.315  28.605  1.00  0.00     0.074 A 
ATOM     48  C   UNL A   1      43.786  32.241  29.087  1.00  0.00     0.031 C 
ATOM     49  C   UNL A   1      41.542  25.774  28.177  1.00  0.00     0.029 A 
ATOM     50  C   UNL A   1      42.939  26.014  27.830  1.00  0.00     0.049 A 
ATOM     51  H   UNL A   1      44.004  27.794  28.030  1.00  0.00     0.167 HD
ATOM     52  C   UNL A   1      46.067  31.653  28.339  1.00  0.00     0.031 A 
ATOM     53  C   UNL A   1      43.783  25.099  27.314  1.00  0.00     0.031 A 
ATOM     54  C   UNL A   1      47.061  30.723  27.876  1.00  0.00     0.049 A 
ATOM     55  C   UNL A   1      45.201  25.503  27.011  1.00  0.00     0.074 A 
ATOM     56  C   UNL A   1      48.404  30.952  27.633  1.00  0.00     0.029 A 
ATOM     57  N   UNL A   1      46.821  29.389  27.583  1.00  0.00    -0.354 N 
ATOM     58  N   UNL A   1      45.778  26.670  27.174  1.00  0.00    -0.248 NA
ATOM     59  C   UNL A   1      46.086  24.465  26.465  1.00  0.00     0.031 C 
ATOM     60  C   UNL A   1      48.962  29.771  27.135  1.00  0.00     0.029 A 
ATOM     61  C   UNL A   1      47.985  28.788  27.136  1.00  0.00     0.049 A 
ATOM     62  H   UNL A   1      45.952  28.936  27.680  1.00  0.00     0.167 HD
ATOM     63  C   UNL A   1      47.100  26.498  26.781  1.00  0.00     0.074 A 
ATOM     64  C   UNL A   1      47.241  25.111  26.386  1.00  0.00     0.031 C 
ATOM     65  C   UNL A   1      48.108  27.405  26.751  1.00  0.00     0.031 A 
BRANCH  52  66
ATOM     66  C   UNL A   1      46.466  33.092  28.540  1.00  0.00    -0.014 A 
ATOM     67  C   UNL A   1      46.339  34.035  27.503  1.00  0.00     0.010 A 
ATOM     68  C   UNL A   1      46.940  33.517  29.795  1.00  0.00     0.010 A 
ATOM     69  C   UNL A   1      46.717  35.365  27.704  1.00  0.00     0.020 A 
ATOM     70  C   UNL A   1      47.288  34.854  30.010  1.00  0.00     0.020 A 
ATOM     71  C   UNL A   1      47.190  35.765  28.958  1.00  0.00     0.054 A 
BRANCH  71  72
ATOM     72  S   UNL A   1      47.646  37.504  29.196  1.00  0.00     0.124 S 
ATOM     73  O   UNL A   1      48.361  37.456  30.468  1.00  0.00    -0.237 OA
ATOM     74  O   UNL A   1      48.471  37.781  28.022  1.00  0.00    -0.237 OA
ATOM     75  O   UNL A   1      46.361  38.199  29.229  1.00  0.00    -0.744 OA
ENDBRANCH  71  72
ENDBRANCH  52  66
BRANCH  53  76
ATOM     76  C   UNL A   1      43.313  23.708  27.060  1.00  0.00    -0.014 A 
ATOM     77  C   UNL A   1      43.019  22.844  28.131  1.00  0.00     0.010 A 
ATOM     78  C   UNL A   1      43.152  23.237  25.744  1.00  0.00     0.010 A 
ATOM     79  C   UNL A   1      42.594  21.534  27.891  1.00  0.00     0.020 A 
ATOM     80  C   UNL A   1      42.697  21.938  25.500  1.00  0.00     0.020 A 
ATOM     81  C   UNL A   1      42.434  21.090  26.576  1.00  0.00     0.054 A 
BRANCH  81  82
ATOM     82  S   UNL A   1      41.837  19.400  26.291  1.00  0.00     0.124 S 
ATOM     83  O   UNL A   1      40.396  19.602  26.178  1.00  0.00    -0.237 OA
ATOM     84  O   UNL A   1      42.524  19.028  25.057  1.00  0.00    -0.237 OA
ATOM     85  O   UNL A   1      42.278  18.677  27.482  1.00  0.00    -0.744 OA
ENDBRANCH  81  82
ENDBRANCH  53  76
BRANCH  65  86
ATOM     86  C   UNL A   1      49.468  26.923  26.316  1.00  0.00    -0.014 A 
ATOM     87  C   UNL A   1      50.315  26.227  27.196  1.00  0.00     0.010 A 
ATOM     88  C   UNL A   1      49.869  27.110  24.980  1.00  0.00     0.010 A 
ATOM     89  C   UNL A   1      51.551  25.749  26.753  1.00  0.00     0.020 A 
ATOM     90  C   UNL A   1      51.089  26.605  24.526  1.00  0.00     0.020 A 
ATOM     91  C   UNL A   1      51.929  25.937  25.420  1.00  0.00     0.054 A 
BRANCH  91  92
ATOM     92  S   UNL A   1      53.512  25.256  24.857  1.00  0.00     0.124 S 
ATOM     93  O   UNL A   1      54.472  26.040  25.629  1.00  0.00    -0.237 OA
ATOM     94  O   UNL A   1      53.405  23.849  25.232  1.00  0.00    -0.237 OA
ATOM     95  O   UNL A   1      53.510  25.514  23.419  1.00  0.00    -0.744 OA
ENDBRANCH  91  92
ENDBRANCH  65  86
ENDBRANCH  39  40
ENDBRANCH  31  34
ENDBRANCH  29  30
ENDBRANCH  28  29
ENDBRANCH   1  28
TORSDOF 19
ENDMDL
MODEL 3
REMARK VINA RESULT:     -10.7      6.569     11.137
REMARK SMILES CC[C@@H](C(=O)NCCCCNC(=O)c1ccc(-c2c3nc(c(-c4ccc(S(=O)(=O)[O-])cc4)c4ccc([nH]4)c(-c4ccc(S(=O)(=O)[O-])cc4)c4nc(c(-c5ccc(S(=O)(=O)[O-])cc5)c5ccc2[nH]5)C=C4)C=C3)cc1)N1C(=O)/C(=C\c2ccc(C(=O)OC)cc2)SC1=S
REMARK SMILES IDX 8 1 7 2 6 3 4 4 5 5 3 7 2 8 1 9 74 10 75 11 90 12 76 13
REMARK SMILES IDX 77 14 89 15 91 16 78 17 79 18 80 19 88 20 81 21 87 22 82 23
REMARK SMILES IDX 83 24 84 25 85 26 86 27 9 28 10 29 11 30 12 31 13 33 14 34
REMARK SMILES IDX 15 35 73 36 16 37 72 38 17 39 18 40 19 41 66 42 20 43 71 44
REMARK SMILES IDX 65 45 67 46 21 47 70 48 64 49 63 50 22 52 52 53 33 54 51 55
REMARK SMILES IDX 34 56 37 57 50 58 68 59 35 60 36 61 49 63 69 64 38 65 23 66
REMARK SMILES IDX 24 67 32 68 25 69 31 70 26 71 27 72 28 73 29 74 30 75 53 76
REMARK SMILES IDX 54 77 62 78 55 79 61 80 56 81 57 82 58 83 59 84 60 85 39 86
REMARK SMILES IDX 40 87 48 88 41 89 47 90 42 91 43 92 44 93 45 94 46 95
REMARK H PARENT 6 6 11 32 67 51 37 62
REMARK Flexibility Score: inf
ROOT
ATOM      1  C   UNL A   1      34.428  31.667  28.316  1.00  0.00     0.023 C 
ENDROOT
BRANCH   1   2
ATOM      2  C   UNL A   1      34.053  30.630  27.259  1.00  0.00     0.116 C 
BRANCH   2   3
ATOM      3  N   UNL A   1      33.162  29.642  27.820  1.00  0.00    -0.354 N 
ATOM      4  C   UNL A   1      32.773  28.430  27.338  1.00  0.00     0.243 C 
ATOM      5  O   UNL A   1      31.983  27.791  28.040  1.00  0.00    -0.273 OA
ATOM      6  H   UNL A   1      32.774  29.884  28.692  1.00  0.00     0.163 HD
BRANCH   4   7
ATOM      7  C   UNL A   1      33.366  27.856  26.024  1.00  0.00     0.181 C 
BRANCH   7   8
ATOM      8  C   UNL A   1      33.824  28.878  24.952  1.00  0.00     0.032 C 
ATOM      9  C   UNL A   1      34.064  28.381  23.539  1.00  0.00     0.006 C 
ENDBRANCH   7   8
BRANCH   7  10
ATOM     10  N   UNL A   1      32.294  26.981  25.466  1.00  0.00    -0.280 N 
ATOM     11  C   UNL A   1      31.103  27.559  25.057  1.00  0.00     0.266 C 
ATOM     12  C   UNL A   1      32.306  25.601  25.473  1.00  0.00     0.149 C 
ATOM     13  O   UNL A   1      30.759  28.718  25.238  1.00  0.00    -0.268 OA
ATOM     14  C   UNL A   1      30.277  26.562  24.334  1.00  0.00     0.081 C 
ATOM     15  S   UNL A   1      30.825  24.982  24.728  1.00  0.00    -0.054 SA
ATOM     16  S   UNL A   1      33.505  24.582  26.027  1.00  0.00    -0.052 S 
ATOM     17  C   UNL A   1      29.343  26.849  23.415  1.00  0.00     0.029 C 
BRANCH  17  18
ATOM     18  C   UNL A   1      29.069  28.213  22.943  1.00  0.00    -0.024 A 
ATOM     19  C   UNL A   1      30.010  28.901  22.173  1.00  0.00     0.009 A 
ATOM     20  C   UNL A   1      27.832  28.817  23.217  1.00  0.00     0.009 A 
ATOM     21  C   UNL A   1      29.705  30.168  21.659  1.00  0.00     0.016 A 
ATOM     22  C   UNL A   1      27.522  30.076  22.694  1.00  0.00     0.016 A 
ATOM     23  C   UNL A   1      28.457  30.757  21.905  1.00  0.00     0.060 A 
BRANCH  23  24
ATOM     24  C   UNL A   1      28.171  32.091  21.311  1.00  0.00     0.337 C 
ATOM     25  O   UNL A   1      28.205  32.316  20.109  1.00  0.00    -0.246 OA
BRANCH  24  26
ATOM     26  O   UNL A   1      27.875  32.997  22.276  1.00  0.00    -0.465 OA
ATOM     27  C   UNL A   1      29.003  33.421  23.043  1.00  0.00     0.282 C 
ENDBRANCH  24  26
ENDBRANCH  23  24
ENDBRANCH  17  18
ENDBRANCH   7  10
ENDBRANCH   4   7
ENDBRANCH   2   3
ENDBRANCH   1   2
BRANCH   1  28
ATOM     28  C   UNL A   1      33.889  33.067  28.049  1.00  0.00     0.023 C 
BRANCH  28  29
ATOM     29  C   UNL A   1      34.410  34.134  28.997  1.00  0.00     0.116 C 
BRANCH  29  30
ATOM     30  N   UNL A   1      33.372  34.712  29.841  1.00  0.00    -0.352 N 
ATOM     31  C   UNL A   1      33.330  34.780  31.215  1.00  0.00     0.251 C 
ATOM     32  H   UNL A   1      32.602  35.103  29.368  1.00  0.00     0.163 HD
ATOM     33  O   UNL A   1      32.326  35.182  31.791  1.00  0.00    -0.269 OA
BRANCH  31  34
ATOM     34  C   UNL A   1      34.508  34.321  31.978  1.00  0.00     0.039 A 
ATOM     35  C   UNL A   1      34.610  32.975  32.332  1.00  0.00     0.014 A 
ATOM     36  C   UNL A   1      35.555  35.208  32.239  1.00  0.00     0.014 A 
ATOM     37  C   UNL A   1      35.804  32.501  32.876  1.00  0.00     0.010 A 
ATOM     38  C   UNL A   1      36.775  34.713  32.679  1.00  0.00     0.010 A 
ATOM     39  C   UNL A   1      36.912  33.356  33.007  1.00  0.00    -0.014 A 
BRANCH  39  40
ATOM     40  C   UNL A   1      38.227  32.863  33.493  1.00  0.00     0.031 A 
ATOM     41  C   UNL A   1      39.099  32.047  32.577  1.00  0.00     0.074 A 
ATOM     42  C   UNL A   1      38.598  33.079  34.771  1.00  0.00     0.049 A 
ATOM     43  N   UNL A   1      40.235  31.453  32.833  1.00  0.00    -0.248 NA
ATOM     44  C   UNL A   1      38.614  31.843  31.200  1.00  0.00     0.031 C 
ATOM     45  C   UNL A   1      37.819  33.816  35.770  1.00  0.00     0.029 A 
ATOM     46  N   UNL A   1      39.725  32.692  35.453  1.00  0.00    -0.354 N 
ATOM     47  C   UNL A   1      40.586  30.790  31.662  1.00  0.00     0.074 A 
ATOM     48  C   UNL A   1      39.515  31.003  30.716  1.00  0.00     0.031 C 
ATOM     49  C   UNL A   1      38.506  33.854  36.924  1.00  0.00     0.029 A 
ATOM     50  C   UNL A   1      39.747  33.105  36.766  1.00  0.00     0.049 A 
ATOM     51  H   UNL A   1      40.448  32.167  35.042  1.00  0.00     0.167 HD
ATOM     52  C   UNL A   1      41.711  30.090  31.390  1.00  0.00     0.031 A 
ATOM     53  C   UNL A   1      40.661  32.896  37.734  1.00  0.00     0.031 A 
ATOM     54  C   UNL A   1      42.781  29.897  32.331  1.00  0.00     0.049 A 
ATOM     55  C   UNL A   1      41.898  32.101  37.412  1.00  0.00     0.074 A 
ATOM     56  C   UNL A   1      43.990  29.253  32.135  1.00  0.00     0.029 A 
ATOM     57  N   UNL A   1      42.771  30.341  33.644  1.00  0.00    -0.354 N 
ATOM     58  N   UNL A   1      42.246  31.542  36.276  1.00  0.00    -0.248 NA
ATOM     59  C   UNL A   1      42.871  31.915  38.497  1.00  0.00     0.031 C 
ATOM     60  C   UNL A   1      44.686  29.256  33.347  1.00  0.00     0.029 A 
ATOM     61  C   UNL A   1      43.941  29.963  34.279  1.00  0.00     0.049 A 
ATOM     62  H   UNL A   1      42.040  30.852  34.063  1.00  0.00     0.167 HD
ATOM     63  C   UNL A   1      43.492  30.968  36.502  1.00  0.00     0.074 A 
ATOM     64  C   UNL A   1      43.841  31.258  37.878  1.00  0.00     0.031 C 
ATOM     65  C   UNL A   1      44.276  30.265  35.648  1.00  0.00     0.031 A 
BRANCH  52  66
ATOM     66  C   UNL A   1      41.838  29.479  30.019  1.00  0.00    -0.014 A 
ATOM     67  C   UNL A   1      41.287  28.217  29.729  1.00  0.00     0.010 A 
ATOM     68  C   UNL A   1      42.487  30.192  28.994  1.00  0.00     0.010 A 
ATOM     69  C   UNL A   1      41.418  27.662  28.454  1.00  0.00     0.020 A 
ATOM     70  C   UNL A   1      42.590  29.654  27.707  1.00  0.00     0.020 A 
ATOM     71  C   UNL A   1      42.069  28.385  27.451  1.00  0.00     0.054 A 
BRANCH  71  72
ATOM     72  S   UNL A   1      42.198  27.651  25.798  1.00  0.00     0.124 S 
ATOM     73  O   UNL A   1      43.497  26.988  25.863  1.00  0.00    -0.237 OA
ATOM     74  O   UNL A   1      41.040  26.760  25.755  1.00  0.00    -0.237 OA
ATOM     75  O   UNL A   1      42.129  28.801  24.900  1.00  0.00    -0.744 OA
ENDBRANCH  71  72
ENDBRANCH  52  66
BRANCH  53  76
ATOM     76  C   UNL A   1      40.447  33.457  39.098  1.00  0.00    -0.014 A 
ATOM     77  C   UNL A   1      39.851  32.679  40.107  1.00  0.00     0.010 A 
ATOM     78  C   UNL A   1      40.843  34.774  39.399  1.00  0.00     0.010 A 
ATOM     79  C   UNL A   1      39.636  33.213  41.382  1.00  0.00     0.020 A 
ATOM     80  C   UNL A   1      40.659  35.300  40.681  1.00  0.00     0.020 A 
ATOM     81  C   UNL A   1      40.044  34.520  41.661  1.00  0.00     0.054 A 
BRANCH  81  82
ATOM     82  S   UNL A   1      39.795  35.174  43.335  1.00  0.00     0.124 S 
ATOM     83  O   UNL A   1      38.768  34.279  43.861  1.00  0.00    -0.237 OA
ATOM     84  O   UNL A   1      41.122  35.032  43.928  1.00  0.00    -0.237 OA
ATOM     85  O   UNL A   1      39.369  36.552  43.104  1.00  0.00    -0.744 OA
ENDBRANCH  81  82
ENDBRANCH  53  76
BRANCH  65  86
ATOM     86  C   UNL A   1      45.613  29.792  36.156  1.00  0.00    -0.014 A 
ATOM     87  C   UNL A   1      45.769  28.522  36.737  1.00  0.00     0.010 A 
ATOM     88  C   UNL A   1      46.744  30.611  35.979  1.00  0.00     0.010 A 
ATOM     89  C   UNL A   1      47.030  28.090  37.157  1.00  0.00     0.020 A 
ATOM     90  C   UNL A   1      48.010  30.168  36.367  1.00  0.00     0.020 A 
ATOM     91  C   UNL A   1      48.144  28.914  36.966  1.00  0.00     0.054 A 
BRANCH  91  92
ATOM     92  S   UNL A   1      49.776  28.304  37.467  1.00  0.00     0.124 S 
ATOM     93  O   UNL A   1      50.259  29.390  38.315  1.00  0.00    -0.237 OA
ATOM     94  O   UNL A   1      49.452  27.061  38.161  1.00  0.00    -0.237 OA
ATOM     95  O   UNL A   1      50.488  28.138  36.202  1.00  0.00    -0.744 OA
ENDBRANCH  91  92
ENDBRANCH  65  86
ENDBRANCH  39  40
ENDBRANCH  31  34
ENDBRANCH  29  30
ENDBRANCH  28  29
ENDBRANCH   1  28
TORSDOF 19
ENDMDL
