MODEL 1
REMARK VINA RESULT:     -11.6      0.000      0.000
REMARK SMILES CC(=O)c1ccc(N2/C(=[NH+]/C(=O)CCC(=O)NCCCCNC(=O)c3ccc(-c4c5nc(c(-c6ccc(S(=O)(=O)[O-])cc6)c6ccc([nH]6)c(-c6ccc(S(=O)(=O)[O-])cc6)c6nc(c(-c7ccc(S(=O)(=O)[O-])cc7)c7ccc4[nH]7)C=C6)C=C5)cc3)S[C@H]3CS(=O)(=O)C[C@@H]32)cc1
REMARK SMILES IDX 19 1 18 2 17 3 15 4 16 5 14 7 13 8 11 9 8 10 9 11 92 12
REMARK SMILES IDX 10 13 85 14 86 15 91 16 87 18 88 19 12 20 89 21 90 22 7 23
REMARK SMILES IDX 4 24 5 25 94 26 6 27 93 28 2 29 1 30 3 31 20 32 21 33 22 34
REMARK SMILES IDX 23 35 24 37 25 38 26 39 84 40 27 41 83 42 28 43 29 44 30 45
REMARK SMILES IDX 77 46 31 47 82 48 76 49 78 50 32 51 81 52 75 53 74 54 33 56
REMARK SMILES IDX 63 57 44 58 62 59 45 60 48 61 61 62 79 63 46 64 47 65 60 67
REMARK SMILES IDX 80 68 49 69 34 70 35 71 43 72 36 73 42 74 37 75 38 76 39 77
REMARK SMILES IDX 40 78 41 79 64 80 65 81 73 82 66 83 72 84 67 85 68 86 69 87
REMARK SMILES IDX 70 88 71 89 50 90 51 91 59 92 52 93 58 94 53 95 54 96 55 97
REMARK SMILES IDX 56 98 57 99
REMARK H PARENT 17 6 10 17 22 36 78 55 48 66
REMARK Flexibility Score: inf
ROOT
ATOM      1  C   UNL A   1      36.870  21.970  24.537  1.00  0.00     0.023 C 
ENDROOT
BRANCH   1   2
ATOM      2  C   UNL A   1      35.343  22.059  24.432  1.00  0.00     0.116 C 
BRANCH   2   3
ATOM      3  N   UNL A   1      34.859  22.960  23.390  1.00  0.00    -0.356 N 
ATOM      4  C   UNL A   1      33.613  23.187  22.895  1.00  0.00     0.220 C 
ATOM      5  O   UNL A   1      33.477  24.051  22.028  1.00  0.00    -0.275 OA
ATOM      6  H   UNL A   1      35.563  23.503  22.969  1.00  0.00     0.163 HD
BRANCH   4   7
ATOM      7  C   UNL A   1      32.426  22.408  23.401  1.00  0.00     0.112 C 
BRANCH   7   8
ATOM      8  C   UNL A   1      31.324  23.368  23.854  1.00  0.00     0.138 C 
BRANCH   8   9
ATOM      9  C   UNL A   1      31.942  24.450  24.703  1.00  0.00     0.308 C 
ATOM     10  N   UNL A   1      32.287  28.143  24.541  1.00  0.00    -0.217 N 
ATOM     11  C   UNL A   1      32.405  26.745  24.781  1.00  0.00     0.319 C 
ATOM     12  C   UNL A   1      33.202  28.927  25.418  1.00  0.00     0.212 C 
ATOM     13  N   UNL A   1      31.767  25.748  24.251  1.00  0.00    -0.204 N 
ATOM     14  S   UNL A   1      33.629  26.525  26.100  1.00  0.00    -0.029 SA
ATOM     15  C   UNL A   1      33.189  28.130  26.736  1.00  0.00     0.120 C 
ATOM     16  C   UNL A   1      32.884  30.321  25.903  1.00  0.00     0.188 C 
ATOM     17  H   UNL A   1      31.144  25.918  23.508  1.00  0.00     0.316 HD
ATOM     18  C   UNL A   1      34.072  28.774  27.768  1.00  0.00     0.156 C 
ATOM     19  S   UNL A   1      34.041  30.490  27.288  1.00  0.00     0.155 S 
ATOM     20  O   UNL A   1      32.424  24.090  25.779  1.00  0.00    -0.247 OA
ATOM     21  O   UNL A   1      33.452  31.273  28.352  1.00  0.00    -0.229 OA
ATOM     22  O   UNL A   1      35.343  30.809  26.749  1.00  0.00    -0.229 OA
BRANCH  10  23
ATOM     23  C   UNL A   1      31.332  28.806  23.744  1.00  0.00     0.128 A 
ATOM     24  C   UNL A   1      29.483  30.383  22.202  1.00  0.00     0.018 A 
ATOM     25  C   UNL A   1      30.472  29.612  21.582  1.00  0.00     0.016 A 
ATOM     26  C   UNL A   1      29.380  30.325  23.584  1.00  0.00     0.016 A 
ATOM     27  C   UNL A   1      31.403  28.868  22.344  1.00  0.00     0.052 A 
ATOM     28  C   UNL A   1      30.246  29.486  24.309  1.00  0.00     0.052 A 
BRANCH  24  29
ATOM     29  C   UNL A   1      28.491  31.134  21.378  1.00  0.00     0.159 C 
ATOM     30  C   UNL A   1      28.187  32.579  21.705  1.00  0.00     0.093 C 
ATOM     31  O   UNL A   1      27.943  30.560  20.440  1.00  0.00    -0.295 OA
ENDBRANCH  24  29
ENDBRANCH  10  23
ENDBRANCH   8   9
ENDBRANCH   7   8
ENDBRANCH   4   7
ENDBRANCH   2   3
ENDBRANCH   1   2
BRANCH   1  32
ATOM     32  C   UNL A   1      37.519  23.248  25.055  1.00  0.00     0.023 C 
BRANCH  32  33
ATOM     33  C   UNL A   1      38.273  23.214  26.375  1.00  0.00     0.116 C 
BRANCH  33  34
ATOM     34  N   UNL A   1      39.710  23.312  26.202  1.00  0.00    -0.352 N 
ATOM     35  C   UNL A   1      40.703  24.113  26.717  1.00  0.00     0.251 C 
ATOM     36  H   UNL A   1      40.058  22.649  25.564  1.00  0.00     0.163 HD
ATOM     37  O   UNL A   1      41.826  23.913  26.246  1.00  0.00    -0.269 OA
BRANCH  35  38
ATOM     38  C   UNL A   1      40.519  25.242  27.690  1.00  0.00     0.039 A 
ATOM     39  C   UNL A   1      41.614  26.114  27.876  1.00  0.00     0.014 A 
ATOM     40  C   UNL A   1      39.365  25.516  28.416  1.00  0.00     0.014 A 
ATOM     41  C   UNL A   1      41.520  27.286  28.643  1.00  0.00     0.010 A 
ATOM     42  C   UNL A   1      39.258  26.688  29.183  1.00  0.00     0.010 A 
ATOM     43  C   UNL A   1      40.330  27.587  29.300  1.00  0.00    -0.014 A 
BRANCH  43  44
ATOM     44  C   UNL A   1      40.263  28.665  30.323  1.00  0.00     0.031 A 
ATOM     45  C   UNL A   1      41.228  28.580  31.475  1.00  0.00     0.074 A 
ATOM     46  C   UNL A   1      39.379  29.679  30.260  1.00  0.00     0.049 A 
ATOM     47  N   UNL A   1      41.283  29.289  32.570  1.00  0.00    -0.248 NA
ATOM     48  C   UNL A   1      42.265  27.535  31.380  1.00  0.00     0.031 C 
ATOM     49  C   UNL A   1      38.439  29.928  29.168  1.00  0.00     0.029 A 
ATOM     50  N   UNL A   1      39.123  30.695  31.153  1.00  0.00    -0.354 N 
ATOM     51  C   UNL A   1      42.349  28.771  33.297  1.00  0.00     0.074 A 
ATOM     52  C   UNL A   1      42.881  27.658  32.543  1.00  0.00     0.031 C 
ATOM     53  C   UNL A   1      37.701  31.016  29.462  1.00  0.00     0.029 A 
ATOM     54  C   UNL A   1      38.089  31.524  30.777  1.00  0.00     0.049 A 
ATOM     55  H   UNL A   1      39.635  30.817  31.985  1.00  0.00     0.167 HD
ATOM     56  C   UNL A   1      42.857  29.193  34.477  1.00  0.00     0.031 A 
ATOM     57  C   UNL A   1      37.516  32.558  31.430  1.00  0.00     0.031 A 
ATOM     58  C   UNL A   1      42.332  30.298  35.228  1.00  0.00     0.049 A 
ATOM     59  C   UNL A   1      38.034  32.943  32.799  1.00  0.00     0.074 A 
ATOM     60  C   UNL A   1      42.764  30.792  36.446  1.00  0.00     0.029 A 
ATOM     61  N   UNL A   1      41.266  31.087  34.828  1.00  0.00    -0.354 N 
ATOM     62  N   UNL A   1      39.039  32.437  33.477  1.00  0.00    -0.248 NA
ATOM     63  C   UNL A   1      37.344  34.045  33.489  1.00  0.00     0.031 C 
ATOM     64  C   UNL A   1      41.923  31.848  36.808  1.00  0.00     0.029 A 
ATOM     65  C   UNL A   1      41.013  32.055  35.784  1.00  0.00     0.049 A 
ATOM     66  H   UNL A   1      40.762  30.976  33.990  1.00  0.00     0.167 HD
ATOM     67  C   UNL A   1      39.124  33.188  34.649  1.00  0.00     0.074 A 
ATOM     68  C   UNL A   1      38.082  34.188  34.581  1.00  0.00     0.031 C 
ATOM     69  C   UNL A   1      39.986  33.061  35.688  1.00  0.00     0.031 A 
BRANCH  56  70
ATOM     70  C   UNL A   1      44.032  28.434  35.033  1.00  0.00    -0.014 A 
ATOM     71  C   UNL A   1      45.348  28.755  34.650  1.00  0.00     0.010 A 
ATOM     72  C   UNL A   1      43.819  27.406  35.968  1.00  0.00     0.010 A 
ATOM     73  C   UNL A   1      46.428  28.037  35.168  1.00  0.00     0.020 A 
ATOM     74  C   UNL A   1      44.900  26.708  36.513  1.00  0.00     0.020 A 
ATOM     75  C   UNL A   1      46.196  27.019  36.099  1.00  0.00     0.054 A 
BRANCH  75  76
ATOM     76  S   UNL A   1      47.621  26.131  36.780  1.00  0.00     0.124 S 
ATOM     77  O   UNL A   1      47.590  24.883  36.020  1.00  0.00    -0.237 OA
ATOM     78  O   UNL A   1      48.733  27.027  36.471  1.00  0.00    -0.237 OA
ATOM     79  O   UNL A   1      47.303  26.001  38.200  1.00  0.00    -0.744 OA
ENDBRANCH  75  76
ENDBRANCH  56  70
BRANCH  57  80
ATOM     80  C   UNL A   1      36.370  33.310  30.832  1.00  0.00    -0.014 A 
ATOM     81  C   UNL A   1      36.457  33.832  29.527  1.00  0.00     0.010 A 
ATOM     82  C   UNL A   1      35.212  33.572  31.588  1.00  0.00     0.010 A 
ATOM     83  C   UNL A   1      35.432  34.630  29.007  1.00  0.00     0.020 A 
ATOM     84  C   UNL A   1      34.170  34.343  31.059  1.00  0.00     0.020 A 
ATOM     85  C   UNL A   1      34.295  34.884  29.778  1.00  0.00     0.054 A 
BRANCH  85  86
ATOM     86  S   UNL A   1      32.974  35.912  29.076  1.00  0.00     0.124 S 
ATOM     87  O   UNL A   1      33.726  37.003  28.467  1.00  0.00    -0.237 OA
ATOM     88  O   UNL A   1      32.322  34.995  28.144  1.00  0.00    -0.237 OA
ATOM     89  O   UNL A   1      32.170  36.279  30.241  1.00  0.00    -0.744 OA
ENDBRANCH  85  86
ENDBRANCH  57  80
BRANCH  69  90
ATOM     90  C   UNL A   1      39.891  34.062  36.812  1.00  0.00    -0.014 A 
ATOM     91  C   UNL A   1      40.576  35.289  36.766  1.00  0.00     0.010 A 
ATOM     92  C   UNL A   1      39.037  33.795  37.899  1.00  0.00     0.010 A 
ATOM     93  C   UNL A   1      40.431  36.217  37.801  1.00  0.00     0.020 A 
ATOM     94  C   UNL A   1      38.865  34.734  38.920  1.00  0.00     0.020 A 
ATOM     95  C   UNL A   1      39.575  35.935  38.870  1.00  0.00     0.054 A 
BRANCH  95  96
ATOM     96  S   UNL A   1      39.365  37.179  40.174  1.00  0.00     0.124 S 
ATOM     97  O   UNL A   1      38.655  38.242  39.469  1.00  0.00    -0.237 OA
ATOM     98  O   UNL A   1      38.584  36.459  41.177  1.00  0.00    -0.237 OA
ATOM     99  O   UNL A   1      40.733  37.501  40.571  1.00  0.00    -0.744 OA
ENDBRANCH  95  96
ENDBRANCH  69  90
ENDBRANCH  43  44
ENDBRANCH  35  38
ENDBRANCH  33  34
ENDBRANCH  32  33
ENDBRANCH   1  32
TORSDOF 18
ENDMDL
MODEL 2
REMARK VINA RESULT:     -11.5      3.427      9.522
REMARK SMILES CC(=O)c1ccc(N2/C(=[NH+]/C(=O)CCC(=O)NCCCCNC(=O)c3ccc(-c4c5nc(c(-c6ccc(S(=O)(=O)[O-])cc6)c6ccc([nH]6)c(-c6ccc(S(=O)(=O)[O-])cc6)c6nc(c(-c7ccc(S(=O)(=O)[O-])cc7)c7ccc4[nH]7)C=C6)C=C5)cc3)S[C@H]3CS(=O)(=O)C[C@@H]32)cc1
REMARK SMILES IDX 19 1 18 2 17 3 15 4 16 5 14 7 13 8 11 9 8 10 9 11 92 12
REMARK SMILES IDX 10 13 85 14 86 15 91 16 87 18 88 19 12 20 89 21 90 22 7 23
REMARK SMILES IDX 4 24 5 25 94 26 6 27 93 28 2 29 1 30 3 31 20 32 21 33 22 34
REMARK SMILES IDX 23 35 24 37 25 38 26 39 84 40 27 41 83 42 28 43 29 44 30 45
REMARK SMILES IDX 77 46 31 47 82 48 76 49 78 50 32 51 81 52 75 53 74 54 33 56
REMARK SMILES IDX 63 57 44 58 62 59 45 60 48 61 61 62 79 63 46 64 47 65 60 67
REMARK SMILES IDX 80 68 49 69 34 70 35 71 43 72 36 73 42 74 37 75 38 76 39 77
REMARK SMILES IDX 40 78 41 79 64 80 65 81 73 82 66 83 72 84 67 85 68 86 69 87
REMARK SMILES IDX 70 88 71 89 50 90 51 91 59 92 52 93 58 94 53 95 54 96 55 97
REMARK SMILES IDX 56 98 57 99
REMARK H PARENT 17 6 10 17 22 36 78 55 48 66
REMARK Flexibility Score: inf
ROOT
ATOM      1  C   UNL A   1      34.893  34.922  28.769  1.00  0.00     0.023 C 
ENDROOT
BRANCH   1   2
ATOM      2  C   UNL A   1      35.175  33.462  28.395  1.00  0.00     0.116 C 
BRANCH   2   3
ATOM      3  N   UNL A   1      35.374  32.572  29.536  1.00  0.00    -0.356 N 
ATOM      4  C   UNL A   1      36.013  31.378  29.652  1.00  0.00     0.220 C 
ATOM      5  O   UNL A   1      36.068  30.851  30.765  1.00  0.00    -0.275 OA
ATOM      6  H   UNL A   1      34.973  32.897  30.373  1.00  0.00     0.163 HD
BRANCH   4   7
ATOM      7  C   UNL A   1      36.646  30.719  28.454  1.00  0.00     0.112 C 
BRANCH   7   8
ATOM      8  C   UNL A   1      36.078  29.309  28.271  1.00  0.00     0.138 C 
BRANCH   8   9
ATOM      9  C   UNL A   1      34.841  29.393  27.413  1.00  0.00     0.308 C 
ATOM     10  N   UNL A   1      33.146  27.246  24.902  1.00  0.00    -0.217 N 
ATOM     11  C   UNL A   1      33.649  28.297  25.719  1.00  0.00     0.319 C 
ATOM     12  C   UNL A   1      32.053  27.724  24.009  1.00  0.00     0.212 C 
ATOM     13  N   UNL A   1      34.567  28.279  26.635  1.00  0.00    -0.204 N 
ATOM     14  S   UNL A   1      32.700  29.790  25.324  1.00  0.00    -0.029 SA
ATOM     15  C   UNL A   1      31.317  28.758  24.882  1.00  0.00     0.120 C 
ATOM     16  C   UNL A   1      30.914  26.842  23.556  1.00  0.00     0.188 C 
ATOM     17  H   UNL A   1      35.083  27.453  26.781  1.00  0.00     0.316 HD
ATOM     18  C   UNL A   1      30.159  29.367  24.140  1.00  0.00     0.156 C 
ATOM     19  S   UNL A   1      29.709  28.075  22.998  1.00  0.00     0.155 S 
ATOM     20  O   UNL A   1      34.126  30.382  27.584  1.00  0.00    -0.247 OA
ATOM     21  O   UNL A   1      28.361  27.635  23.283  1.00  0.00    -0.229 OA
ATOM     22  O   UNL A   1      30.095  28.515  21.677  1.00  0.00    -0.229 OA
BRANCH  10  23
ATOM     23  C   UNL A   1      33.440  25.870  24.986  1.00  0.00     0.128 A 
ATOM     24  C   UNL A   1      34.283  23.128  25.225  1.00  0.00     0.018 A 
ATOM     25  C   UNL A   1      33.361  23.685  26.119  1.00  0.00     0.016 A 
ATOM     26  C   UNL A   1      34.740  23.919  24.182  1.00  0.00     0.016 A 
ATOM     27  C   UNL A   1      32.978  25.044  26.021  1.00  0.00     0.052 A 
ATOM     28  C   UNL A   1      34.254  25.232  24.041  1.00  0.00     0.052 A 
BRANCH  24  29
ATOM     29  C   UNL A   1      34.648  21.684  25.327  1.00  0.00     0.159 C 
ATOM     30  C   UNL A   1      36.067  21.295  25.675  1.00  0.00     0.093 C 
ATOM     31  O   UNL A   1      33.779  20.838  25.131  1.00  0.00    -0.295 OA
ENDBRANCH  24  29
ENDBRANCH  10  23
ENDBRANCH   8   9
ENDBRANCH   7   8
ENDBRANCH   4   7
ENDBRANCH   2   3
ENDBRANCH   1   2
BRANCH   1  32
ATOM     32  C   UNL A   1      33.411  35.225  28.958  1.00  0.00     0.023 C 
BRANCH  32  33
ATOM     33  C   UNL A   1      32.998  36.337  29.910  1.00  0.00     0.116 C 
BRANCH  33  34
ATOM     34  N   UNL A   1      32.227  35.851  31.039  1.00  0.00    -0.352 N 
ATOM     35  C   UNL A   1      32.524  35.218  32.223  1.00  0.00     0.251 C 
ATOM     36  H   UNL A   1      31.262  36.012  30.932  1.00  0.00     0.163 HD
ATOM     37  O   UNL A   1      31.542  34.903  32.902  1.00  0.00    -0.269 OA
BRANCH  35  38
ATOM     38  C   UNL A   1      33.888  34.797  32.690  1.00  0.00     0.039 A 
ATOM     39  C   UNL A   1      34.055  33.441  33.044  1.00  0.00     0.014 A 
ATOM     40  C   UNL A   1      35.005  35.619  32.793  1.00  0.00     0.014 A 
ATOM     41  C   UNL A   1      35.311  32.895  33.354  1.00  0.00     0.010 A 
ATOM     42  C   UNL A   1      36.267  35.082  33.097  1.00  0.00     0.010 A 
ATOM     43  C   UNL A   1      36.435  33.717  33.375  1.00  0.00    -0.014 A 
BRANCH  43  44
ATOM     44  C   UNL A   1      37.725  33.246  33.946  1.00  0.00     0.031 A 
ATOM     45  C   UNL A   1      37.867  33.277  35.445  1.00  0.00     0.074 A 
ATOM     46  C   UNL A   1      38.750  32.818  33.183  1.00  0.00     0.049 A 
ATOM     47  N   UNL A   1      38.922  33.074  36.186  1.00  0.00    -0.248 NA
ATOM     48  C   UNL A   1      36.646  33.602  36.206  1.00  0.00     0.031 C 
ATOM     49  C   UNL A   1      38.727  32.663  31.729  1.00  0.00     0.029 A 
ATOM     50  N   UNL A   1      40.025  32.439  33.535  1.00  0.00    -0.354 N 
ATOM     51  C   UNL A   1      38.496  33.255  37.497  1.00  0.00     0.074 A 
ATOM     52  C   UNL A   1      37.102  33.633  37.447  1.00  0.00     0.031 C 
ATOM     53  C   UNL A   1      39.935  32.236  31.314  1.00  0.00     0.029 A 
ATOM     54  C   UNL A   1      40.830  32.118  32.464  1.00  0.00     0.049 A 
ATOM     55  H   UNL A   1      40.333  32.400  34.469  1.00  0.00     0.167 HD
ATOM     56  C   UNL A   1      39.194  33.102  38.646  1.00  0.00     0.031 A 
ATOM     57  C   UNL A   1      42.138  31.786  32.422  1.00  0.00     0.031 A 
ATOM     58  C   UNL A   1      40.578  32.725  38.699  1.00  0.00     0.049 A 
ATOM     59  C   UNL A   1      42.925  31.726  33.714  1.00  0.00     0.074 A 
ATOM     60  C   UNL A   1      41.382  32.563  39.814  1.00  0.00     0.029 A 
ATOM     61  N   UNL A   1      41.363  32.443  37.593  1.00  0.00    -0.354 N 
ATOM     62  N   UNL A   1      42.509  31.908  34.946  1.00  0.00    -0.248 NA
ATOM     63  C   UNL A   1      44.358  31.408  33.608  1.00  0.00     0.031 C 
ATOM     64  C   UNL A   1      42.668  32.234  39.377  1.00  0.00     0.029 A 
ATOM     65  C   UNL A   1      42.647  32.124  37.995  1.00  0.00     0.049 A 
ATOM     66  H   UNL A   1      41.053  32.467  36.658  1.00  0.00     0.167 HD
ATOM     67  C   UNL A   1      43.620  31.685  35.759  1.00  0.00     0.074 A 
ATOM     68  C   UNL A   1      44.717  31.340  34.882  1.00  0.00     0.031 C 
ATOM     69  C   UNL A   1      43.722  31.757  37.109  1.00  0.00     0.031 A 
BRANCH  56  70
ATOM     70  C   UNL A   1      38.466  33.365  39.936  1.00  0.00    -0.014 A 
ATOM     71  C   UNL A   1      38.527  34.626  40.558  1.00  0.00     0.010 A 
ATOM     72  C   UNL A   1      37.690  32.348  40.519  1.00  0.00     0.010 A 
ATOM     73  C   UNL A   1      37.852  34.853  41.759  1.00  0.00     0.020 A 
ATOM     74  C   UNL A   1      36.987  32.582  41.703  1.00  0.00     0.020 A 
ATOM     75  C   UNL A   1      37.083  33.829  42.322  1.00  0.00     0.054 A 
BRANCH  75  76
ATOM     76  S   UNL A   1      36.189  34.167  43.862  1.00  0.00     0.124 S 
ATOM     77  O   UNL A   1      36.561  33.018  44.685  1.00  0.00    -0.237 OA
ATOM     78  O   UNL A   1      36.751  35.448  44.283  1.00  0.00    -0.237 OA
ATOM     79  O   UNL A   1      34.789  34.208  43.449  1.00  0.00    -0.744 OA
ENDBRANCH  75  76
ENDBRANCH  56  70
BRANCH  57  80
ATOM     80  C   UNL A   1      42.822  31.500  31.123  1.00  0.00    -0.014 A 
ATOM     81  C   UNL A   1      43.359  32.546  30.348  1.00  0.00     0.010 A 
ATOM     82  C   UNL A   1      42.878  30.189  30.616  1.00  0.00     0.010 A 
ATOM     83  C   UNL A   1      43.899  32.295  29.082  1.00  0.00     0.020 A 
ATOM     84  C   UNL A   1      43.448  29.928  29.364  1.00  0.00     0.020 A 
ATOM     85  C   UNL A   1      43.937  30.986  28.596  1.00  0.00     0.054 A 
BRANCH  85  86
ATOM     86  S   UNL A   1      44.654  30.682  26.956  1.00  0.00     0.124 S 
ATOM     87  O   UNL A   1      45.321  29.399  27.147  1.00  0.00    -0.237 OA
ATOM     88  O   UNL A   1      43.474  30.661  26.095  1.00  0.00    -0.237 OA
ATOM     89  O   UNL A   1      45.543  31.825  26.753  1.00  0.00    -0.744 OA
ENDBRANCH  85  86
ENDBRANCH  57  80
BRANCH  69  90
ATOM     90  C   UNL A   1      45.045  31.399  37.738  1.00  0.00    -0.014 A 
ATOM     91  C   UNL A   1      46.052  32.360  37.937  1.00  0.00     0.010 A 
ATOM     92  C   UNL A   1      45.251  30.086  38.206  1.00  0.00     0.010 A 
ATOM     93  C   UNL A   1      47.250  32.008  38.565  1.00  0.00     0.020 A 
ATOM     94  C   UNL A   1      46.434  29.739  38.862  1.00  0.00     0.020 A 
ATOM     95  C   UNL A   1      47.433  30.701  39.026  1.00  0.00     0.054 A 
BRANCH  95  96
ATOM     96  S   UNL A   1      48.975  30.285  39.884  1.00  0.00     0.124 S 
ATOM     97  O   UNL A   1      48.663  30.644  41.264  1.00  0.00    -0.237 OA
ATOM     98  O   UNL A   1      49.109  28.854  39.622  1.00  0.00    -0.237 OA
ATOM     99  O   UNL A   1      49.975  31.127  39.232  1.00  0.00    -0.744 OA
ENDBRANCH  95  96
ENDBRANCH  69  90
ENDBRANCH  43  44
ENDBRANCH  35  38
ENDBRANCH  33  34
ENDBRANCH  32  33
ENDBRANCH   1  32
TORSDOF 18
ENDMDL
MODEL 3
REMARK VINA RESULT:     -11.5      2.533      9.044
REMARK SMILES CC(=O)c1ccc(N2/C(=[NH+]/C(=O)CCC(=O)NCCCCNC(=O)c3ccc(-c4c5nc(c(-c6ccc(S(=O)(=O)[O-])cc6)c6ccc([nH]6)c(-c6ccc(S(=O)(=O)[O-])cc6)c6nc(c(-c7ccc(S(=O)(=O)[O-])cc7)c7ccc4[nH]7)C=C6)C=C5)cc3)S[C@H]3CS(=O)(=O)C[C@@H]32)cc1
REMARK SMILES IDX 19 1 18 2 17 3 15 4 16 5 14 7 13 8 11 9 8 10 9 11 92 12
REMARK SMILES IDX 10 13 85 14 86 15 91 16 87 18 88 19 12 20 89 21 90 22 7 23
REMARK SMILES IDX 4 24 5 25 94 26 6 27 93 28 2 29 1 30 3 31 20 32 21 33 22 34
REMARK SMILES IDX 23 35 24 37 25 38 26 39 84 40 27 41 83 42 28 43 29 44 30 45
REMARK SMILES IDX 77 46 31 47 82 48 76 49 78 50 32 51 81 52 75 53 74 54 33 56
REMARK SMILES IDX 63 57 44 58 62 59 45 60 48 61 61 62 79 63 46 64 47 65 60 67
REMARK SMILES IDX 80 68 49 69 34 70 35 71 43 72 36 73 42 74 37 75 38 76 39 77
REMARK SMILES IDX 40 78 41 79 64 80 65 81 73 82 66 83 72 84 67 85 68 86 69 87
REMARK SMILES IDX 70 88 71 89 50 90 51 91 59 92 52 93 58 94 53 95 54 96 55 97
REMARK SMILES IDX 56 98 57 99
REMARK H PARENT 17 6 10 17 22 36 78 55 48 66
REMARK Flexibility Score: inf
ROOT
ATOM      1  C   UNL A   1      34.594  34.814  28.993  1.00  0.00     0.023 C 
ENDROOT
BRANCH   1   2
ATOM      2  C   UNL A   1      34.755  33.666  27.990  1.00  0.00     0.116 C 
BRANCH   2   3
ATOM      3  N   UNL A   1      33.508  33.001  27.624  1.00  0.00    -0.356 N 
ATOM      4  C   UNL A   1      33.233  31.713  27.288  1.00  0.00     0.220 C 
ATOM      5  O   UNL A   1      32.061  31.405  27.061  1.00  0.00    -0.275 OA
ATOM      6  H   UNL A   1      32.723  33.593  27.621  1.00  0.00     0.163 HD
BRANCH   4   7
ATOM      7  C   UNL A   1      34.331  30.684  27.203  1.00  0.00     0.112 C 
BRANCH   7   8
ATOM      8  C   UNL A   1      33.906  29.403  27.926  1.00  0.00     0.138 C 
BRANCH   8   9
ATOM      9  C   UNL A   1      34.029  28.243  26.971  1.00  0.00     0.308 C 
ATOM     10  N   UNL A   1      31.945  26.705  24.309  1.00  0.00    -0.217 N 
ATOM     11  C   UNL A   1      32.872  27.015  25.345  1.00  0.00     0.319 C 
ATOM     12  C   UNL A   1      32.230  25.374  23.704  1.00  0.00     0.212 C 
ATOM     13  N   UNL A   1      32.978  28.076  26.083  1.00  0.00    -0.204 N 
ATOM     14  S   UNL A   1      34.036  25.631  25.460  1.00  0.00    -0.029 SA
ATOM     15  C   UNL A   1      33.769  25.300  23.730  1.00  0.00     0.120 C 
ATOM     16  C   UNL A   1      31.935  25.046  22.259  1.00  0.00     0.188 C 
ATOM     17  H   UNL A   1      32.293  28.781  26.011  1.00  0.00     0.316 HD
ATOM     18  C   UNL A   1      34.259  24.003  23.150  1.00  0.00     0.156 C 
ATOM     19  S   UNL A   1      32.958  23.571  22.012  1.00  0.00     0.155 S 
ATOM     20  O   UNL A   1      35.104  27.641  26.980  1.00  0.00    -0.247 OA
ATOM     21  O   UNL A   1      33.491  23.540  20.667  1.00  0.00    -0.229 OA
ATOM     22  O   UNL A   1      32.256  22.439  22.571  1.00  0.00    -0.229 OA
BRANCH  10  23
ATOM     23  C   UNL A   1      30.978  27.553  23.733  1.00  0.00     0.128 A 
ATOM     24  C   UNL A   1      28.920  29.334  22.797  1.00  0.00     0.018 A 
ATOM     25  C   UNL A   1      30.275  29.661  22.673  1.00  0.00     0.016 A 
ATOM     26  C   UNL A   1      28.593  28.098  23.336  1.00  0.00     0.016 A 
ATOM     27  C   UNL A   1      31.283  28.800  23.168  1.00  0.00     0.052 A 
ATOM     28  C   UNL A   1      29.620  27.213  23.714  1.00  0.00     0.052 A 
BRANCH  24  29
ATOM     29  C   UNL A   1      27.876  30.242  22.238  1.00  0.00     0.159 C 
ATOM     30  C   UNL A   1      28.036  30.794  20.839  1.00  0.00     0.093 C 
ATOM     31  O   UNL A   1      26.898  30.518  22.929  1.00  0.00    -0.295 OA
ENDBRANCH  24  29
ENDBRANCH  10  23
ENDBRANCH   8   9
ENDBRANCH   7   8
ENDBRANCH   4   7
ENDBRANCH   2   3
ENDBRANCH   1   2
BRANCH   1  32
ATOM     32  C   UNL A   1      33.211  35.455  28.965  1.00  0.00     0.023 C 
BRANCH  32  33
ATOM     33  C   UNL A   1      32.914  36.618  29.899  1.00  0.00     0.116 C 
BRANCH  33  34
ATOM     34  N   UNL A   1      32.242  36.202  31.116  1.00  0.00    -0.352 N 
ATOM     35  C   UNL A   1      32.601  35.482  32.232  1.00  0.00     0.251 C 
ATOM     36  H   UNL A   1      31.307  36.506  31.151  1.00  0.00     0.163 HD
ATOM     37  O   UNL A   1      31.687  35.285  33.036  1.00  0.00    -0.269 OA
BRANCH  35  38
ATOM     38  C   UNL A   1      33.938  34.847  32.489  1.00  0.00     0.039 A 
ATOM     39  C   UNL A   1      33.966  33.442  32.625  1.00  0.00     0.014 A 
ATOM     40  C   UNL A   1      35.153  35.516  32.594  1.00  0.00     0.014 A 
ATOM     41  C   UNL A   1      35.167  32.721  32.722  1.00  0.00     0.010 A 
ATOM     42  C   UNL A   1      36.360  34.804  32.685  1.00  0.00     0.010 A 
ATOM     43  C   UNL A   1      36.381  33.402  32.745  1.00  0.00    -0.014 A 
BRANCH  43  44
ATOM     44  C   UNL A   1      37.647  32.711  33.105  1.00  0.00     0.031 A 
ATOM     45  C   UNL A   1      38.168  32.912  34.503  1.00  0.00     0.074 A 
ATOM     46  C   UNL A   1      38.334  31.941  32.237  1.00  0.00     0.049 A 
ATOM     47  N   UNL A   1      39.311  32.559  35.026  1.00  0.00    -0.248 NA
ATOM     48  C   UNL A   1      37.275  33.631  35.432  1.00  0.00     0.031 C 
ATOM     49  C   UNL A   1      37.912  31.598  30.880  1.00  0.00     0.029 A 
ATOM     50  N   UNL A   1      39.549  31.311  32.374  1.00  0.00    -0.354 N 
ATOM     51  C   UNL A   1      39.278  33.019  36.338  1.00  0.00     0.074 A 
ATOM     52  C   UNL A   1      38.026  33.719  36.516  1.00  0.00     0.031 C 
ATOM     53  C   UNL A   1      38.859  30.832  30.306  1.00  0.00     0.029 A 
ATOM     54  C   UNL A   1      39.972  30.656  31.238  1.00  0.00     0.049 A 
ATOM     55  H   UNL A   1      40.070  31.327  33.210  1.00  0.00     0.167 HD
ATOM     56  C   UNL A   1      40.197  32.858  37.317  1.00  0.00     0.031 A 
ATOM     57  C   UNL A   1      41.129  30.009  30.981  1.00  0.00     0.031 A 
ATOM     58  C   UNL A   1      41.441  32.162  37.145  1.00  0.00     0.049 A 
ATOM     59  C   UNL A   1      42.188  29.935  32.060  1.00  0.00     0.074 A 
ATOM     60  C   UNL A   1      42.449  31.962  38.071  1.00  0.00     0.029 A 
ATOM     61  N   UNL A   1      41.843  31.545  35.971  1.00  0.00    -0.354 N 
ATOM     62  N   UNL A   1      42.145  30.383  33.295  1.00  0.00    -0.248 NA
ATOM     63  C   UNL A   1      43.449  29.261  31.713  1.00  0.00     0.031 C 
ATOM     64  C   UNL A   1      43.486  31.268  37.440  1.00  0.00     0.029 A 
ATOM     65  C   UNL A   1      43.092  30.976  36.143  1.00  0.00     0.049 A 
ATOM     66  H   UNL A   1      41.318  31.516  35.139  1.00  0.00     0.167 HD
ATOM     67  C   UNL A   1      43.354  30.006  33.878  1.00  0.00     0.074 A 
ATOM     68  C   UNL A   1      44.097  29.284  32.870  1.00  0.00     0.031 C 
ATOM     69  C   UNL A   1      43.808  30.237  35.135  1.00  0.00     0.031 A 
BRANCH  56  70
ATOM     70  C   UNL A   1      39.890  33.468  38.658  1.00  0.00    -0.014 A 
ATOM     71  C   UNL A   1      40.235  34.803  38.942  1.00  0.00     0.010 A 
ATOM     72  C   UNL A   1      39.226  32.707  39.636  1.00  0.00     0.010 A 
ATOM     73  C   UNL A   1      39.951  35.354  40.193  1.00  0.00     0.020 A 
ATOM     74  C   UNL A   1      38.910  33.266  40.877  1.00  0.00     0.020 A 
ATOM     75  C   UNL A   1      39.288  34.581  41.152  1.00  0.00     0.054 A 
BRANCH  75  76
ATOM     76  S   UNL A   1      38.900  35.336  42.754  1.00  0.00     0.124 S 
ATOM     77  O   UNL A   1      37.444  35.217  42.799  1.00  0.00    -0.237 OA
ATOM     78  O   UNL A   1      39.629  34.486  43.692  1.00  0.00    -0.237 OA
ATOM     79  O   UNL A   1      39.408  36.700  42.627  1.00  0.00    -0.744 OA
ENDBRANCH  75  76
ENDBRANCH  56  70
BRANCH  57  80
ATOM     80  C   UNL A   1      41.386  29.387  29.646  1.00  0.00    -0.014 A 
ATOM     81  C   UNL A   1      40.941  28.081  29.365  1.00  0.00     0.010 A 
ATOM     82  C   UNL A   1      42.141  30.066  28.671  1.00  0.00     0.010 A 
ATOM     83  C   UNL A   1      41.275  27.454  28.160  1.00  0.00     0.020 A 
ATOM     84  C   UNL A   1      42.451  29.455  27.450  1.00  0.00     0.020 A 
ATOM     85  C   UNL A   1      42.032  28.145  27.210  1.00  0.00     0.054 A 
BRANCH  85  86
ATOM     86  S   UNL A   1      42.444  27.316  25.648  1.00  0.00     0.124 S 
ATOM     87  O   UNL A   1      42.311  28.401  24.682  1.00  0.00    -0.237 OA
ATOM     88  O   UNL A   1      43.806  26.846  25.890  1.00  0.00    -0.237 OA
ATOM     89  O   UNL A   1      41.439  26.259  25.545  1.00  0.00    -0.744 OA
ENDBRANCH  85  86
ENDBRANCH  57  80
BRANCH  69  90
ATOM     90  C   UNL A   1      45.143  29.653  35.522  1.00  0.00    -0.014 A 
ATOM     91  C   UNL A   1      45.255  28.352  36.043  1.00  0.00     0.010 A 
ATOM     92  C   UNL A   1      46.314  30.399  35.288  1.00  0.00     0.010 A 
ATOM     93  C   UNL A   1      46.511  27.820  36.349  1.00  0.00     0.020 A 
ATOM     94  C   UNL A   1      47.573  29.859  35.564  1.00  0.00     0.020 A 
ATOM     95  C   UNL A   1      47.662  28.575  36.105  1.00  0.00     0.054 A 
BRANCH  95  96
ATOM     96  S   UNL A   1      49.282  27.841  36.462  1.00  0.00     0.124 S 
ATOM     97  O   UNL A   1      49.751  27.475  35.130  1.00  0.00    -0.237 OA
ATOM     98  O   UNL A   1      49.997  28.944  37.100  1.00  0.00    -0.237 OA
ATOM     99  O   UNL A   1      48.968  26.718  37.343  1.00  0.00    -0.744 OA
ENDBRANCH  95  96
ENDBRANCH  69  90
ENDBRANCH  43  44
ENDBRANCH  35  38
ENDBRANCH  33  34
ENDBRANCH  32  33
ENDBRANCH   1  32
TORSDOF 18
ENDMDL
