MODEL 1
REMARK VINA RESULT:     -11.9      0.000      0.000
REMARK SMILES C[C@H]1N=N[C@H](S/C(=C/c2ccc(-c3cccc(Cl)c3)o2)C(=O)NCCCCNC(=O)c2ccc(-c3c4nc(c(-c5ccc(S(=O)(=O)[O-])cc5)c5ccc([nH]5)c(-c5ccc(S(=O)(=O)[O-])cc5)c5nc(c(-c6ccc(S(=O)(=O)[O-])cc6)c6ccc3[nH]6)C=C5)C=C4)cc2)[NH2+]1
REMARK SMILES IDX 26 1 25 2 24 3 23 4 21 5 22 6 7 8 8 9 6 10 5 11 1 12 2 13
REMARK SMILES IDX 3 14 91 15 4 16 9 19 10 20 20 21 11 22 12 23 13 24 14 25
REMARK SMILES IDX 19 26 15 27 17 28 16 29 18 30 27 31 28 32 29 33 30 35 31 36
REMARK SMILES IDX 32 37 90 38 33 39 89 40 34 41 35 42 36 43 83 44 37 45 88 46
REMARK SMILES IDX 82 47 84 48 38 49 87 50 81 51 80 52 39 54 69 55 50 56 68 57
REMARK SMILES IDX 51 58 54 59 67 60 85 61 52 62 53 63 66 65 86 66 55 67 40 68
REMARK SMILES IDX 41 69 49 70 42 71 48 72 43 73 44 74 45 75 46 76 47 77 70 78
REMARK SMILES IDX 71 79 79 80 72 81 78 82 73 83 74 84 75 85 76 86 77 87 56 88
REMARK SMILES IDX 57 89 65 90 58 91 64 92 59 93 60 94 61 95 62 96 63 97
REMARK H PARENT 23 7 91 17 91 18 28 34 84 53 54 64
REMARK Flexibility Score: inf
ROOT
ATOM      1  C   UNL A   1      33.421  27.841  26.577  1.00  0.00     0.023 C 
ENDROOT
BRANCH   1   2
ATOM      2  C   UNL A   1      31.937  27.518  26.737  1.00  0.00     0.023 C 
BRANCH   2   3
ATOM      3  C   UNL A   1      31.421  26.202  26.180  1.00  0.00     0.116 C 
BRANCH   3   4
ATOM      4  N   UNL A   1      30.158  26.194  25.478  1.00  0.00    -0.352 N 
ATOM      5  C   UNL A   1      29.890  26.664  24.211  1.00  0.00     0.258 C 
ATOM      6  O   UNL A   1      28.833  26.312  23.680  1.00  0.00    -0.269 OA
ATOM      7  H   UNL A   1      29.396  25.805  25.964  1.00  0.00     0.163 HD
BRANCH   5   8
ATOM      8  C   UNL A   1      30.785  27.681  23.519  1.00  0.00     0.084 C 
ATOM      9  C   UNL A   1      31.925  27.439  22.846  1.00  0.00     0.068 C 
BRANCH   8  10
ATOM     10  S   UNL A   1      30.191  29.325  23.770  1.00  0.00    -0.030 SA
BRANCH  10  11
ATOM     11  C   UNL A   1      28.716  29.533  22.707  1.00  0.00     0.393 C 
ATOM     12  C   UNL A   1      27.922  32.516  20.921  1.00  0.00     0.106 C 
ATOM     13  C   UNL A   1      28.419  31.659  22.075  1.00  0.00     0.324 C 
ATOM     14  N   UNL A   1      27.294  31.256  22.932  1.00  0.00    -0.126 NA
ATOM     15  N   UNL A   1      29.069  30.436  21.602  1.00  0.00    -0.293 N 
ATOM     16  N   UNL A   1      27.498  30.086  23.345  1.00  0.00    -0.115 NA
ATOM     17  H   UNL A   1      30.079  30.553  21.512  1.00  0.00     0.350 HD
ATOM     18  H   UNL A   1      28.783  30.122  20.675  1.00  0.00     0.350 HD
ENDBRANCH  10  11
ENDBRANCH   8  10
BRANCH   9  19
ATOM     19  C   UNL A   1      32.518  26.175  22.615  1.00  0.00     0.128 A 
ATOM     20  C   UNL A   1      32.494  25.315  21.527  1.00  0.00     0.051 A 
ATOM     21  O   UNL A   1      33.266  25.575  23.602  1.00  0.00    -0.457 OA
ATOM     22  C   UNL A   1      33.205  24.139  21.895  1.00  0.00     0.051 A 
ATOM     23  C   UNL A   1      33.613  24.324  23.198  1.00  0.00     0.134 A 
BRANCH  23  24
ATOM     24  C   UNL A   1      34.200  23.464  24.218  1.00  0.00     0.019 A 
ATOM     25  C   UNL A   1      34.965  24.006  25.257  1.00  0.00     0.012 A 
ATOM     26  C   UNL A   1      34.125  22.065  24.099  1.00  0.00     0.032 A 
ATOM     27  C   UNL A   1      35.668  23.176  26.136  1.00  0.00     0.002 A 
ATOM     28  C   UNL A   1      34.848  21.241  24.963  1.00  0.00     0.041 A 
ATOM     29  C   UNL A   1      35.624  21.791  25.979  1.00  0.00     0.020 A 
ATOM     30  Cl  UNL A   1      34.817  19.535  24.739  1.00  0.00    -0.084 Cl
ENDBRANCH  23  24
ENDBRANCH   9  19
ENDBRANCH   5   8
ENDBRANCH   3   4
ENDBRANCH   2   3
ENDBRANCH   1   2
BRANCH   1  31
ATOM     31  C   UNL A   1      33.833  29.237  26.111  1.00  0.00     0.116 C 
BRANCH  31  32
ATOM     32  N   UNL A   1      33.676  30.313  27.077  1.00  0.00    -0.352 N 
ATOM     33  C   UNL A   1      34.577  30.835  27.986  1.00  0.00     0.251 C 
ATOM     34  H   UNL A   1      32.786  30.737  27.085  1.00  0.00     0.163 HD
ATOM     35  O   UNL A   1      34.304  31.833  28.634  1.00  0.00    -0.269 OA
BRANCH  33  36
ATOM     36  C   UNL A   1      35.866  30.160  28.229  1.00  0.00     0.039 A 
ATOM     37  C   UNL A   1      36.828  30.186  27.214  1.00  0.00     0.014 A 
ATOM     38  C   UNL A   1      36.142  29.541  29.447  1.00  0.00     0.014 A 
ATOM     39  C   UNL A   1      38.109  29.696  27.468  1.00  0.00     0.010 A 
ATOM     40  C   UNL A   1      37.444  29.139  29.729  1.00  0.00     0.010 A 
ATOM     41  C   UNL A   1      38.445  29.231  28.749  1.00  0.00    -0.014 A 
BRANCH  41  42
ATOM     42  C   UNL A   1      39.846  28.880  29.093  1.00  0.00     0.031 A 
ATOM     43  C   UNL A   1      40.740  29.891  29.756  1.00  0.00     0.074 A 
ATOM     44  C   UNL A   1      40.327  27.671  28.739  1.00  0.00     0.049 A 
ATOM     45  N   UNL A   1      42.001  29.782  30.086  1.00  0.00    -0.248 NA
ATOM     46  C   UNL A   1      40.150  31.205  30.062  1.00  0.00     0.031 C 
ATOM     47  C   UNL A   1      39.570  26.628  28.038  1.00  0.00     0.029 A 
ATOM     48  N   UNL A   1      41.568  27.112  28.915  1.00  0.00    -0.354 N 
ATOM     49  C   UNL A   1      42.359  31.013  30.621  1.00  0.00     0.074 A 
ATOM     50  C   UNL A   1      41.199  31.871  30.523  1.00  0.00     0.031 C 
ATOM     51  C   UNL A   1      40.350  25.547  27.879  1.00  0.00     0.029 A 
ATOM     52  C   UNL A   1      41.671  25.830  28.427  1.00  0.00     0.049 A 
ATOM     53  H   UNL A   1      42.314  27.583  29.352  1.00  0.00     0.167 HD
ATOM     54  C   UNL A   1      43.540  31.388  31.166  1.00  0.00     0.031 A 
ATOM     55  C   UNL A   1      42.715  24.978  28.419  1.00  0.00     0.031 A 
ATOM     56  C   UNL A   1      44.687  30.525  31.271  1.00  0.00     0.049 A 
ATOM     57  C   UNL A   1      44.012  25.416  29.039  1.00  0.00     0.074 A 
ATOM     58  C   UNL A   1      45.913  30.788  31.854  1.00  0.00     0.029 A 
ATOM     59  N   UNL A   1      44.747  29.229  30.780  1.00  0.00    -0.354 N 
ATOM     60  N   UNL A   1      44.309  26.563  29.604  1.00  0.00    -0.248 NA
ATOM     61  C   UNL A   1      45.111  24.441  29.033  1.00  0.00     0.031 C 
ATOM     62  C   UNL A   1      46.732  29.668  31.673  1.00  0.00     0.029 A 
ATOM     63  C   UNL A   1      45.996  28.687  31.029  1.00  0.00     0.049 A 
ATOM     64  H   UNL A   1      44.010  28.764  30.322  1.00  0.00     0.167 HD
ATOM     65  C   UNL A   1      45.623  26.440  30.041  1.00  0.00     0.074 A 
ATOM     66  C   UNL A   1      46.053  25.099  29.696  1.00  0.00     0.031 C 
ATOM     67  C   UNL A   1      46.406  27.352  30.668  1.00  0.00     0.031 A 
BRANCH  54  68
ATOM     68  C   UNL A   1      43.647  32.796  31.693  1.00  0.00    -0.014 A 
ATOM     69  C   UNL A   1      43.983  33.865  30.841  1.00  0.00     0.010 A 
ATOM     70  C   UNL A   1      43.375  33.062  33.047  1.00  0.00     0.010 A 
ATOM     71  C   UNL A   1      44.086  35.165  31.342  1.00  0.00     0.020 A 
ATOM     72  C   UNL A   1      43.448  34.367  33.546  1.00  0.00     0.020 A 
ATOM     73  C   UNL A   1      43.819  35.407  32.692  1.00  0.00     0.054 A 
BRANCH  73  74
ATOM     74  S   UNL A   1      43.935  37.110  33.308  1.00  0.00     0.124 S 
ATOM     75  O   UNL A   1      45.163  37.062  34.098  1.00  0.00    -0.237 OA
ATOM     76  O   UNL A   1      44.013  37.891  32.075  1.00  0.00    -0.237 OA
ATOM     77  O   UNL A   1      42.705  37.286  34.076  1.00  0.00    -0.744 OA
ENDBRANCH  73  74
ENDBRANCH  54  68
BRANCH  55  78
ATOM     78  C   UNL A   1      42.568  23.619  27.825  1.00  0.00    -0.014 A 
ATOM     79  C   UNL A   1      42.066  22.554  28.593  1.00  0.00     0.010 A 
ATOM     80  C   UNL A   1      42.926  23.383  26.484  1.00  0.00     0.010 A 
ATOM     81  C   UNL A   1      41.946  21.274  28.042  1.00  0.00     0.020 A 
ATOM     82  C   UNL A   1      42.780  22.112  25.920  1.00  0.00     0.020 A 
ATOM     83  C   UNL A   1      42.303  21.062  26.707  1.00  0.00     0.054 A 
BRANCH  83  84
ATOM     84  S   UNL A   1      42.099  19.403  26.000  1.00  0.00     0.124 S 
ATOM     85  O   UNL A   1      42.636  18.554  27.058  1.00  0.00    -0.237 OA
ATOM     86  O   UNL A   1      40.654  19.323  25.795  1.00  0.00    -0.237 OA
ATOM     87  O   UNL A   1      42.892  19.456  24.773  1.00  0.00    -0.744 OA
ENDBRANCH  83  84
ENDBRANCH  55  78
BRANCH  67  88
ATOM     88  C   UNL A   1      47.798  26.918  31.042  1.00  0.00    -0.014 A 
ATOM     89  C   UNL A   1      48.063  26.320  32.286  1.00  0.00     0.010 A 
ATOM     90  C   UNL A   1      48.848  27.088  30.122  1.00  0.00     0.010 A 
ATOM     91  C   UNL A   1      49.365  25.939  32.621  1.00  0.00     0.020 A 
ATOM     92  C   UNL A   1      50.145  26.680  30.441  1.00  0.00     0.020 A 
ATOM     93  C   UNL A   1      50.399  26.126  31.698  1.00  0.00     0.054 A 
BRANCH  93  94
ATOM     94  S   UNL A   1      52.075  25.604  32.147  1.00  0.00     0.124 S 
ATOM     95  O   UNL A   1      52.852  26.053  30.994  1.00  0.00    -0.237 OA
ATOM     96  O   UNL A   1      52.317  26.333  33.390  1.00  0.00    -0.237 OA
ATOM     97  O   UNL A   1      51.960  24.155  32.294  1.00  0.00    -0.744 OA
ENDBRANCH  93  94
ENDBRANCH  67  88
ENDBRANCH  41  42
ENDBRANCH  33  36
ENDBRANCH  31  32
ENDBRANCH   1  31
TORSDOF 18
ENDMDL
MODEL 2
REMARK VINA RESULT:     -11.5      2.321      2.943
REMARK SMILES C[C@H]1N=N[C@H](S/C(=C/c2ccc(-c3cccc(Cl)c3)o2)C(=O)NCCCCNC(=O)c2ccc(-c3c4nc(c(-c5ccc(S(=O)(=O)[O-])cc5)c5ccc([nH]5)c(-c5ccc(S(=O)(=O)[O-])cc5)c5nc(c(-c6ccc(S(=O)(=O)[O-])cc6)c6ccc3[nH]6)C=C5)C=C4)cc2)[NH2+]1
REMARK SMILES IDX 26 1 25 2 24 3 23 4 21 5 22 6 7 8 8 9 6 10 5 11 1 12 2 13
REMARK SMILES IDX 3 14 91 15 4 16 9 19 10 20 20 21 11 22 12 23 13 24 14 25
REMARK SMILES IDX 19 26 15 27 17 28 16 29 18 30 27 31 28 32 29 33 30 35 31 36
REMARK SMILES IDX 32 37 90 38 33 39 89 40 34 41 35 42 36 43 83 44 37 45 88 46
REMARK SMILES IDX 82 47 84 48 38 49 87 50 81 51 80 52 39 54 69 55 50 56 68 57
REMARK SMILES IDX 51 58 54 59 67 60 85 61 52 62 53 63 66 65 86 66 55 67 40 68
REMARK SMILES IDX 41 69 49 70 42 71 48 72 43 73 44 74 45 75 46 76 47 77 70 78
REMARK SMILES IDX 71 79 79 80 72 81 78 82 73 83 74 84 75 85 76 86 77 87 56 88
REMARK SMILES IDX 57 89 65 90 58 91 64 92 59 93 60 94 61 95 62 96 63 97
REMARK H PARENT 23 7 91 17 91 18 28 34 84 53 54 64
REMARK Flexibility Score: inf
ROOT
ATOM      1  C   UNL A   1      33.435  27.919  26.747  1.00  0.00     0.023 C 
ENDROOT
BRANCH   1   2
ATOM      2  C   UNL A   1      31.959  27.538  26.845  1.00  0.00     0.023 C 
BRANCH   2   3
ATOM      3  C   UNL A   1      31.516  26.212  26.247  1.00  0.00     0.116 C 
BRANCH   3   4
ATOM      4  N   UNL A   1      30.286  26.171  25.491  1.00  0.00    -0.352 N 
ATOM      5  C   UNL A   1      30.080  26.562  24.186  1.00  0.00     0.258 C 
ATOM      6  O   UNL A   1      29.044  26.186  23.631  1.00  0.00    -0.269 OA
ATOM      7  H   UNL A   1      29.498  25.820  25.965  1.00  0.00     0.163 HD
BRANCH   5   8
ATOM      8  C   UNL A   1      31.016  27.525  23.473  1.00  0.00     0.084 C 
ATOM      9  C   UNL A   1      32.137  27.220  22.792  1.00  0.00     0.068 C 
BRANCH   8  10
ATOM     10  S   UNL A   1      30.504  29.199  23.707  1.00  0.00    -0.030 SA
BRANCH  10  11
ATOM     11  C   UNL A   1      29.075  29.486  22.601  1.00  0.00     0.393 C 
ATOM     12  C   UNL A   1      28.103  32.679  21.345  1.00  0.00     0.106 C 
ATOM     13  C   UNL A   1      28.616  31.661  22.353  1.00  0.00     0.324 C 
ATOM     14  N   UNL A   1      27.490  31.014  23.041  1.00  0.00    -0.126 NA
ATOM     15  N   UNL A   1      29.401  30.608  21.708  1.00  0.00    -0.293 N 
ATOM     16  N   UNL A   1      27.779  29.807  23.245  1.00  0.00    -0.115 NA
ATOM     17  H   UNL A   1      30.399  30.820  21.712  1.00  0.00     0.350 HD
ATOM     18  H   UNL A   1      29.194  30.453  20.722  1.00  0.00     0.350 HD
ENDBRANCH  10  11
ENDBRANCH   8  10
BRANCH   9  19
ATOM     19  C   UNL A   1      32.665  25.925  22.573  1.00  0.00     0.128 A 
ATOM     20  C   UNL A   1      32.422  24.968  21.599  1.00  0.00     0.051 A 
ATOM     21  O   UNL A   1      33.591  25.403  23.447  1.00  0.00    -0.457 OA
ATOM     22  C   UNL A   1      33.186  23.816  21.932  1.00  0.00     0.051 A 
ATOM     23  C   UNL A   1      33.844  24.112  23.106  1.00  0.00     0.134 A 
BRANCH  23  24
ATOM     24  C   UNL A   1      34.616  23.337  24.070  1.00  0.00     0.019 A 
ATOM     25  C   UNL A   1      34.109  22.144  24.597  1.00  0.00     0.012 A 
ATOM     26  C   UNL A   1      35.820  23.843  24.591  1.00  0.00     0.032 A 
ATOM     27  C   UNL A   1      34.767  21.489  25.645  1.00  0.00     0.002 A 
ATOM     28  C   UNL A   1      36.459  23.199  25.651  1.00  0.00     0.041 A 
ATOM     29  C   UNL A   1      35.934  22.026  26.185  1.00  0.00     0.020 A 
ATOM     30  Cl  UNL A   1      37.879  23.889  26.336  1.00  0.00    -0.084 Cl
ENDBRANCH  23  24
ENDBRANCH   9  19
ENDBRANCH   5   8
ENDBRANCH   3   4
ENDBRANCH   2   3
ENDBRANCH   1   2
BRANCH   1  31
ATOM     31  C   UNL A   1      33.827  29.188  25.992  1.00  0.00     0.116 C 
BRANCH  31  32
ATOM     32  N   UNL A   1      33.642  30.446  26.700  1.00  0.00    -0.352 N 
ATOM     33  C   UNL A   1      34.473  31.098  27.591  1.00  0.00     0.251 C 
ATOM     34  H   UNL A   1      32.790  30.904  26.515  1.00  0.00     0.163 HD
ATOM     35  O   UNL A   1      34.202  32.219  27.992  1.00  0.00    -0.269 OA
BRANCH  33  36
ATOM     36  C   UNL A   1      35.675  30.426  28.120  1.00  0.00     0.039 A 
ATOM     37  C   UNL A   1      36.888  30.620  27.452  1.00  0.00     0.014 A 
ATOM     38  C   UNL A   1      35.622  29.645  29.273  1.00  0.00     0.014 A 
ATOM     39  C   UNL A   1      38.068  30.130  28.012  1.00  0.00     0.010 A 
ATOM     40  C   UNL A   1      36.807  29.238  29.877  1.00  0.00     0.010 A 
ATOM     41  C   UNL A   1      38.043  29.493  29.262  1.00  0.00    -0.014 A 
BRANCH  41  42
ATOM     42  C   UNL A   1      39.301  29.129  29.962  1.00  0.00     0.031 A 
ATOM     43  C   UNL A   1      39.739  29.893  31.180  1.00  0.00     0.074 A 
ATOM     44  C   UNL A   1      40.081  28.155  29.449  1.00  0.00     0.049 A 
ATOM     45  N   UNL A   1      40.828  29.752  31.892  1.00  0.00    -0.248 NA
ATOM     46  C   UNL A   1      38.855  30.974  31.645  1.00  0.00     0.031 C 
ATOM     47  C   UNL A   1      39.789  27.384  28.236  1.00  0.00     0.029 A 
ATOM     48  N   UNL A   1      41.281  27.647  29.879  1.00  0.00    -0.354 N 
ATOM     49  C   UNL A   1      40.767  30.733  32.873  1.00  0.00     0.074 A 
ATOM     50  C   UNL A   1      39.564  31.498  32.635  1.00  0.00     0.031 C 
ATOM     51  C   UNL A   1      40.761  26.479  28.043  1.00  0.00     0.029 A 
ATOM     52  C   UNL A   1      41.765  26.630  29.089  1.00  0.00     0.049 A 
ATOM     53  H   UNL A   1      41.751  27.978  30.678  1.00  0.00     0.167 HD
ATOM     54  C   UNL A   1      41.625  30.962  33.896  1.00  0.00     0.031 A 
ATOM     55  C   UNL A   1      42.893  25.901  29.195  1.00  0.00     0.031 A 
ATOM     56  C   UNL A   1      42.816  30.190  34.133  1.00  0.00     0.049 A 
ATOM     57  C   UNL A   1      43.825  26.170  30.344  1.00  0.00     0.074 A 
ATOM     58  C   UNL A   1      43.724  30.304  35.170  1.00  0.00     0.029 A 
ATOM     59  N   UNL A   1      43.263  29.158  33.322  1.00  0.00    -0.354 N 
ATOM     60  N   UNL A   1      43.713  27.059  31.303  1.00  0.00    -0.248 NA
ATOM     61  C   UNL A   1      45.026  25.330  30.433  1.00  0.00     0.031 C 
ATOM     62  C   UNL A   1      44.747  29.373  34.960  1.00  0.00     0.029 A 
ATOM     63  C   UNL A   1      44.445  28.640  33.823  1.00  0.00     0.049 A 
ATOM     64  H   UNL A   1      42.807  28.841  32.509  1.00  0.00     0.167 HD
ATOM     65  C   UNL A   1      44.820  26.870  32.123  1.00  0.00     0.074 A 
ATOM     66  C   UNL A   1      45.573  25.767  31.559  1.00  0.00     0.031 C 
ATOM     67  C   UNL A   1      45.183  27.548  33.240  1.00  0.00     0.031 A 
BRANCH  54  68
ATOM     68  C   UNL A   1      41.302  32.097  34.834  1.00  0.00    -0.014 A 
ATOM     69  C   UNL A   1      41.829  33.384  34.623  1.00  0.00     0.010 A 
ATOM     70  C   UNL A   1      40.434  31.884  35.919  1.00  0.00     0.010 A 
ATOM     71  C   UNL A   1      41.528  34.427  35.503  1.00  0.00     0.020 A 
ATOM     72  C   UNL A   1      40.106  32.932  36.786  1.00  0.00     0.020 A 
ATOM     73  C   UNL A   1      40.669  34.193  36.580  1.00  0.00     0.054 A 
BRANCH  73  74
ATOM     74  S   UNL A   1      40.276  35.573  37.691  1.00  0.00     0.124 S 
ATOM     75  O   UNL A   1      39.840  36.602  36.751  1.00  0.00    -0.237 OA
ATOM     76  O   UNL A   1      39.226  35.012  38.538  1.00  0.00    -0.237 OA
ATOM     77  O   UNL A   1      41.540  35.843  38.370  1.00  0.00    -0.744 OA
ENDBRANCH  73  74
ENDBRANCH  54  68
BRANCH  55  78
ATOM     78  C   UNL A   1      43.192  24.834  28.198  1.00  0.00    -0.014 A 
ATOM     79  C   UNL A   1      43.933  25.126  27.040  1.00  0.00     0.010 A 
ATOM     80  C   UNL A   1      42.742  23.517  28.406  1.00  0.00     0.010 A 
ATOM     81  C   UNL A   1      44.198  24.129  26.095  1.00  0.00     0.020 A 
ATOM     82  C   UNL A   1      43.030  22.510  27.479  1.00  0.00     0.020 A 
ATOM     83  C   UNL A   1      43.745  22.826  26.322  1.00  0.00     0.054 A 
BRANCH  83  84
ATOM     84  S   UNL A   1      44.137  21.539  25.104  1.00  0.00     0.124 S 
ATOM     85  O   UNL A   1      43.983  22.258  23.843  1.00  0.00    -0.237 OA
ATOM     86  O   UNL A   1      45.505  21.172  25.462  1.00  0.00    -0.237 OA
ATOM     87  O   UNL A   1      43.135  20.507  25.365  1.00  0.00    -0.744 OA
ENDBRANCH  83  84
ENDBRANCH  55  78
BRANCH  67  88
ATOM     88  C   UNL A   1      46.438  27.095  33.937  1.00  0.00    -0.014 A 
ATOM     89  C   UNL A   1      47.697  27.606  33.573  1.00  0.00     0.010 A 
ATOM     90  C   UNL A   1      46.351  26.166  34.989  1.00  0.00     0.010 A 
ATOM     91  C   UNL A   1      48.852  27.162  34.221  1.00  0.00     0.020 A 
ATOM     92  C   UNL A   1      47.501  25.742  35.660  1.00  0.00     0.020 A 
ATOM     93  C   UNL A   1      48.747  26.229  35.258  1.00  0.00     0.054 A 
BRANCH  93  94
ATOM     94  S   UNL A   1      50.258  25.683  36.097  1.00  0.00     0.124 S 
ATOM     95  O   UNL A   1      49.952  24.285  36.391  1.00  0.00    -0.237 OA
ATOM     96  O   UNL A   1      51.286  25.902  35.084  1.00  0.00    -0.237 OA
ATOM     97  O   UNL A   1      50.343  26.560  37.262  1.00  0.00    -0.744 OA
ENDBRANCH  93  94
ENDBRANCH  67  88
ENDBRANCH  41  42
ENDBRANCH  33  36
ENDBRANCH  31  32
ENDBRANCH   1  31
TORSDOF 18
ENDMDL
MODEL 3
REMARK VINA RESULT:     -11.5      3.010      3.775
REMARK SMILES C[C@H]1N=N[C@H](S/C(=C/c2ccc(-c3cccc(Cl)c3)o2)C(=O)NCCCCNC(=O)c2ccc(-c3c4nc(c(-c5ccc(S(=O)(=O)[O-])cc5)c5ccc([nH]5)c(-c5ccc(S(=O)(=O)[O-])cc5)c5nc(c(-c6ccc(S(=O)(=O)[O-])cc6)c6ccc3[nH]6)C=C5)C=C4)cc2)[NH2+]1
REMARK SMILES IDX 26 1 25 2 24 3 23 4 21 5 22 6 7 8 8 9 6 10 5 11 1 12 2 13
REMARK SMILES IDX 3 14 91 15 4 16 9 19 10 20 20 21 11 22 12 23 13 24 14 25
REMARK SMILES IDX 19 26 15 27 17 28 16 29 18 30 27 31 28 32 29 33 30 35 31 36
REMARK SMILES IDX 32 37 90 38 33 39 89 40 34 41 35 42 36 43 83 44 37 45 88 46
REMARK SMILES IDX 82 47 84 48 38 49 87 50 81 51 80 52 39 54 69 55 50 56 68 57
REMARK SMILES IDX 51 58 54 59 67 60 85 61 52 62 53 63 66 65 86 66 55 67 40 68
REMARK SMILES IDX 41 69 49 70 42 71 48 72 43 73 44 74 45 75 46 76 47 77 70 78
REMARK SMILES IDX 71 79 79 80 72 81 78 82 73 83 74 84 75 85 76 86 77 87 56 88
REMARK SMILES IDX 57 89 65 90 58 91 64 92 59 93 60 94 61 95 62 96 63 97
REMARK H PARENT 23 7 91 17 91 18 28 34 84 53 54 64
REMARK Flexibility Score: inf
ROOT
ATOM      1  C   UNL A   1      34.501  29.001  26.822  1.00  0.00     0.023 C 
ENDROOT
BRANCH   1   2
ATOM      2  C   UNL A   1      33.004  29.276  26.942  1.00  0.00     0.023 C 
BRANCH   2   3
ATOM      3  C   UNL A   1      32.157  29.228  25.681  1.00  0.00     0.116 C 
BRANCH   3   4
ATOM      4  N   UNL A   1      32.677  28.540  24.523  1.00  0.00    -0.352 N 
ATOM      5  C   UNL A   1      31.987  27.769  23.614  1.00  0.00     0.258 C 
ATOM      6  O   UNL A   1      32.544  27.505  22.544  1.00  0.00    -0.269 OA
ATOM      7  H   UNL A   1      33.644  28.632  24.363  1.00  0.00     0.163 HD
BRANCH   5   8
ATOM      8  C   UNL A   1      30.637  27.147  23.940  1.00  0.00     0.084 C 
ATOM      9  C   UNL A   1      30.403  26.041  24.670  1.00  0.00     0.068 C 
BRANCH   8  10
ATOM     10  S   UNL A   1      29.326  28.028  23.149  1.00  0.00    -0.030 SA
BRANCH  10  11
ATOM     11  C   UNL A   1      30.026  29.603  22.537  1.00  0.00     0.393 C 
ATOM     12  C   UNL A   1      28.571  32.811  23.093  1.00  0.00     0.106 C 
ATOM     13  C   UNL A   1      28.615  31.319  22.799  1.00  0.00     0.324 C 
ATOM     14  N   UNL A   1      28.821  31.089  21.362  1.00  0.00    -0.126 NA
ATOM     15  N   UNL A   1      29.710  30.658  23.511  1.00  0.00    -0.293 N 
ATOM     16  N   UNL A   1      29.557  30.080  21.214  1.00  0.00    -0.115 NA
ATOM     17  H   UNL A   1      29.404  30.272  24.405  1.00  0.00     0.350 HD
ATOM     18  H   UNL A   1      30.490  31.262  23.766  1.00  0.00     0.350 HD
ENDBRANCH  10  11
ENDBRANCH   8  10
BRANCH   9  19
ATOM     19  C   UNL A   1      31.372  25.235  25.316  1.00  0.00     0.128 A 
ATOM     20  C   UNL A   1      32.299  25.503  26.312  1.00  0.00     0.051 A 
ATOM     21  O   UNL A   1      31.527  23.918  24.947  1.00  0.00    -0.457 OA
ATOM     22  C   UNL A   1      33.070  24.324  26.506  1.00  0.00     0.051 A 
ATOM     23  C   UNL A   1      32.595  23.395  25.606  1.00  0.00     0.134 A 
BRANCH  23  24
ATOM     24  C   UNL A   1      33.046  22.086  25.153  1.00  0.00     0.019 A 
ATOM     25  C   UNL A   1      32.124  21.079  24.846  1.00  0.00     0.012 A 
ATOM     26  C   UNL A   1      34.415  21.766  25.149  1.00  0.00     0.032 A 
ATOM     27  C   UNL A   1      32.553  19.775  24.577  1.00  0.00     0.002 A 
ATOM     28  C   UNL A   1      34.837  20.458  24.904  1.00  0.00     0.041 A 
ATOM     29  C   UNL A   1      33.910  19.459  24.622  1.00  0.00     0.020 A 
ATOM     30  Cl  UNL A   1      36.510  20.071  24.998  1.00  0.00    -0.084 Cl
ENDBRANCH  23  24
ENDBRANCH   9  19
ENDBRANCH   5   8
ENDBRANCH   3   4
ENDBRANCH   2   3
ENDBRANCH   1   2
BRANCH   1  31
ATOM     31  C   UNL A   1      35.479  29.832  27.650  1.00  0.00     0.116 C 
BRANCH  31  32
ATOM     32  N   UNL A   1      35.390  29.686  29.095  1.00  0.00    -0.352 N 
ATOM     33  C   UNL A   1      36.383  29.693  30.056  1.00  0.00     0.251 C 
ATOM     34  H   UNL A   1      34.476  29.563  29.443  1.00  0.00     0.163 HD
ATOM     35  O   UNL A   1      36.103  29.684  31.244  1.00  0.00    -0.269 OA
BRANCH  33  36
ATOM     36  C   UNL A   1      37.804  29.653  29.660  1.00  0.00     0.039 A 
ATOM     37  C   UNL A   1      38.766  29.521  30.666  1.00  0.00     0.014 A 
ATOM     38  C   UNL A   1      38.186  29.710  28.322  1.00  0.00     0.014 A 
ATOM     39  C   UNL A   1      40.103  29.322  30.318  1.00  0.00     0.010 A 
ATOM     40  C   UNL A   1      39.502  29.420  27.974  1.00  0.00     0.010 A 
ATOM     41  C   UNL A   1      40.468  29.204  28.969  1.00  0.00    -0.014 A 
BRANCH  41  42
ATOM     42  C   UNL A   1      41.847  28.809  28.581  1.00  0.00     0.031 A 
ATOM     43  C   UNL A   1      42.942  29.837  28.526  1.00  0.00     0.074 A 
ATOM     44  C   UNL A   1      42.087  27.535  28.211  1.00  0.00     0.049 A 
ATOM     45  N   UNL A   1      44.191  29.690  28.163  1.00  0.00    -0.248 NA
ATOM     46  C   UNL A   1      42.583  31.217  28.897  1.00  0.00     0.031 C 
ATOM     47  C   UNL A   1      41.089  26.461  28.167  1.00  0.00     0.029 A 
ATOM     48  N   UNL A   1      43.243  26.924  27.796  1.00  0.00    -0.354 N 
ATOM     49  C   UNL A   1      44.759  30.955  28.247  1.00  0.00     0.074 A 
ATOM     50  C   UNL A   1      43.709  31.867  28.641  1.00  0.00     0.031 C 
ATOM     51  C   UNL A   1      41.684  25.319  27.787  1.00  0.00     0.029 A 
ATOM     52  C   UNL A   1      43.092  25.585  27.519  1.00  0.00     0.049 A 
ATOM     53  H   UNL A   1      44.101  27.398  27.706  1.00  0.00     0.167 HD
ATOM     54  C   UNL A   1      46.046  31.320  28.036  1.00  0.00     0.031 A 
ATOM     55  C   UNL A   1      43.988  24.672  27.096  1.00  0.00     0.031 A 
ATOM     56  C   UNL A   1      47.089  30.404  27.655  1.00  0.00     0.049 A 
ATOM     57  C   UNL A   1      45.412  25.101  26.878  1.00  0.00     0.074 A 
ATOM     58  C   UNL A   1      48.435  30.661  27.469  1.00  0.00     0.029 A 
ATOM     59  N   UNL A   1      46.900  29.054  27.401  1.00  0.00    -0.354 N 
ATOM     60  N   UNL A   1      45.946  26.291  27.031  1.00  0.00    -0.248 NA
ATOM     61  C   UNL A   1      46.358  24.064  26.445  1.00  0.00     0.031 C 
ATOM     62  C   UNL A   1      49.053  29.476  27.056  1.00  0.00     0.029 A 
ATOM     63  C   UNL A   1      48.101  28.469  27.040  1.00  0.00     0.049 A 
ATOM     64  H   UNL A   1      46.038  28.582  27.467  1.00  0.00     0.167 HD
ATOM     65  C   UNL A   1      47.296  26.140  26.733  1.00  0.00     0.074 A 
ATOM     66  C   UNL A   1      47.499  24.740  26.416  1.00  0.00     0.031 C 
ATOM     67  C   UNL A   1      48.278  27.074  26.720  1.00  0.00     0.031 A 
BRANCH  54  68
ATOM     68  C   UNL A   1      46.395  32.776  28.217  1.00  0.00    -0.014 A 
ATOM     69  C   UNL A   1      46.228  33.696  27.166  1.00  0.00     0.010 A 
ATOM     70  C   UNL A   1      46.861  33.236  29.461  1.00  0.00     0.010 A 
ATOM     71  C   UNL A   1      46.561  35.042  27.343  1.00  0.00     0.020 A 
ATOM     72  C   UNL A   1      47.167  34.588  29.651  1.00  0.00     0.020 A 
ATOM     73  C   UNL A   1      47.030  35.479  28.585  1.00  0.00     0.054 A 
BRANCH  73  74
ATOM     74  S   UNL A   1      47.429  37.236  28.792  1.00  0.00     0.124 S 
ATOM     75  O   UNL A   1      48.214  37.224  30.024  1.00  0.00    -0.237 OA
ATOM     76  O   UNL A   1      48.177  37.540  27.574  1.00  0.00    -0.237 OA
ATOM     77  O   UNL A   1      46.122  37.880  28.892  1.00  0.00    -0.744 OA
ENDBRANCH  73  74
ENDBRANCH  54  68
BRANCH  55  78
ATOM     78  C   UNL A   1      43.570  23.259  26.872  1.00  0.00    -0.014 A 
ATOM     79  C   UNL A   1      43.935  22.585  25.693  1.00  0.00     0.010 A 
ATOM     80  C   UNL A   1      42.810  22.577  27.840  1.00  0.00     0.010 A 
ATOM     81  C   UNL A   1      43.527  21.265  25.474  1.00  0.00     0.020 A 
ATOM     82  C   UNL A   1      42.425  21.248  27.639  1.00  0.00     0.020 A 
ATOM     83  C   UNL A   1      42.774  20.605  26.450  1.00  0.00     0.054 A 
BRANCH  83  84
ATOM     84  S   UNL A   1      42.293  18.878  26.164  1.00  0.00     0.124 S 
ATOM     85  O   UNL A   1      42.567  18.269  27.462  1.00  0.00    -0.237 OA
ATOM     86  O   UNL A   1      40.882  18.999  25.806  1.00  0.00    -0.237 OA
ATOM     87  O   UNL A   1      43.170  18.456  25.074  1.00  0.00    -0.744 OA
ENDBRANCH  83  84
ENDBRANCH  55  78
BRANCH  67  88
ATOM     88  C   UNL A   1      49.666  26.603  26.374  1.00  0.00    -0.014 A 
ATOM     89  C   UNL A   1      50.455  25.915  27.313  1.00  0.00     0.010 A 
ATOM     90  C   UNL A   1      50.174  26.828  25.082  1.00  0.00     0.010 A 
ATOM     91  C   UNL A   1      51.746  25.500  26.978  1.00  0.00     0.020 A 
ATOM     92  C   UNL A   1      51.453  26.387  24.734  1.00  0.00     0.020 A 
ATOM     93  C   UNL A   1      52.239  25.743  25.692  1.00  0.00     0.054 A 
BRANCH  93  94
ATOM     94  S   UNL A   1      53.909  25.176  25.275  1.00  0.00     0.124 S 
ATOM     95  O   UNL A   1      53.790  23.730  25.443  1.00  0.00    -0.237 OA
ATOM     96  O   UNL A   1      54.073  25.638  23.899  1.00  0.00    -0.237 OA
ATOM     97  O   UNL A   1      54.758  25.849  26.256  1.00  0.00    -0.744 OA
ENDBRANCH  93  94
ENDBRANCH  67  88
ENDBRANCH  41  42
ENDBRANCH  33  36
ENDBRANCH  31  32
ENDBRANCH   1  31
TORSDOF 18
ENDMDL
