MODEL 1
REMARK VINA RESULT:     -11.5      0.000      0.000
REMARK SMILES O=C(NCCCCNC(=O)[C@H]1CC1(c1ccccc1)c1ccccc1)c1ccc(-c2c3nc(c(-c4ccc(S(=O)(=O)[O-])cc4)c4ccc([nH]4)c(-c4ccc(S(=O)(=O)[O-])cc4)c4nc(c(-c5ccc(S(=O)(=O)[O-])cc5)c5ccc2[nH]5)C=C4)C=C3)cc1
REMARK SMILES IDX 4 1 3 2 1 3 2 4 26 6 27 7 85 8 28 9 84 10 29 11 30 12 31 13
REMARK SMILES IDX 78 14 32 15 83 16 77 17 79 18 33 19 82 20 76 21 75 22 34 24
REMARK SMILES IDX 64 25 45 26 63 27 46 28 49 29 62 30 80 31 47 32 48 33 61 35
REMARK SMILES IDX 81 36 50 37 35 38 36 39 44 40 37 41 43 42 38 43 39 44 40 45
REMARK SMILES IDX 41 46 42 47 65 48 66 49 74 50 67 51 73 52 68 53 69 54 70 55
REMARK SMILES IDX 71 56 72 57 51 58 52 59 60 60 53 61 59 62 54 63 55 64 56 65
REMARK SMILES IDX 57 66 58 67 5 68 6 69 7 70 8 71 9 72 10 74 11 75 12 76 13 77
REMARK SMILES IDX 14 78 15 79 19 80 16 81 18 82 17 83 20 84 21 85 25 86 22 87
REMARK SMILES IDX 24 88 23 89
REMARK H PARENT 3 5 79 23 49 34 8 73
REMARK Flexibility Score: inf
ROOT
ATOM      1  C   UNL A   1      36.398  23.320  26.212  1.00  0.00     0.116 C 
ENDROOT
BRANCH   1   2
ATOM      2  N   UNL A   1      37.624  22.545  26.072  1.00  0.00    -0.352 N 
ATOM      3  O   UNL A   1      39.838  22.122  26.045  1.00  0.00    -0.269 OA
ATOM      4  C   UNL A   1      38.928  22.895  26.335  1.00  0.00     0.251 C 
ATOM      5  H   UNL A   1      37.500  21.628  25.738  1.00  0.00     0.163 HD
BRANCH   4   6
ATOM      6  C   UNL A   1      39.239  24.214  26.930  1.00  0.00     0.039 A 
ATOM      7  C   UNL A   1      39.880  25.200  26.181  1.00  0.00     0.014 A 
ATOM      8  C   UNL A   1      38.896  24.462  28.262  1.00  0.00     0.014 A 
ATOM      9  C   UNL A   1      40.336  26.356  26.807  1.00  0.00     0.010 A 
ATOM     10  C   UNL A   1      39.275  25.666  28.868  1.00  0.00     0.010 A 
ATOM     11  C   UNL A   1      40.039  26.604  28.158  1.00  0.00    -0.014 A 
BRANCH  11  12
ATOM     12  C   UNL A   1      40.509  27.867  28.787  1.00  0.00     0.031 A 
ATOM     13  C   UNL A   1      41.938  28.034  29.236  1.00  0.00     0.074 A 
ATOM     14  C   UNL A   1      39.642  28.892  28.911  1.00  0.00     0.049 A 
ATOM     15  N   UNL A   1      42.514  29.082  29.770  1.00  0.00    -0.248 NA
ATOM     16  C   UNL A   1      42.834  26.878  29.073  1.00  0.00     0.031 C 
ATOM     17  C   UNL A   1      38.232  28.854  28.516  1.00  0.00     0.029 A 
ATOM     18  N   UNL A   1      39.821  30.168  29.379  1.00  0.00    -0.354 N 
ATOM     19  C   UNL A   1      43.829  28.709  30.026  1.00  0.00     0.074 A 
ATOM     20  C   UNL A   1      43.962  27.330  29.607  1.00  0.00     0.031 C 
ATOM     21  C   UNL A   1      37.688  30.065  28.707  1.00  0.00     0.029 A 
ATOM     22  C   UNL A   1      38.690  30.946  29.295  1.00  0.00     0.049 A 
ATOM     23  H   UNL A   1      40.676  30.496  29.739  1.00  0.00     0.167 HD
ATOM     24  C   UNL A   1      44.833  29.448  30.559  1.00  0.00     0.031 A 
ATOM     25  C   UNL A   1      38.473  32.223  29.661  1.00  0.00     0.031 A 
ATOM     26  C   UNL A   1      44.700  30.823  30.967  1.00  0.00     0.049 A 
ATOM     27  C   UNL A   1      39.597  33.014  30.262  1.00  0.00     0.074 A 
ATOM     28  C   UNL A   1      45.669  31.662  31.492  1.00  0.00     0.029 A 
ATOM     29  N   UNL A   1      43.530  31.562  30.897  1.00  0.00    -0.354 N 
ATOM     30  N   UNL A   1      40.837  32.645  30.477  1.00  0.00    -0.248 NA
ATOM     31  C   UNL A   1      39.293  34.391  30.670  1.00  0.00     0.031 C 
ATOM     32  C   UNL A   1      45.073  32.894  31.780  1.00  0.00     0.029 A 
ATOM     33  C   UNL A   1      43.744  32.839  31.389  1.00  0.00     0.049 A 
ATOM     34  H   UNL A   1      42.671  31.228  30.549  1.00  0.00     0.167 HD
ATOM     35  C   UNL A   1      41.465  33.749  31.039  1.00  0.00     0.074 A 
ATOM     36  C   UNL A   1      40.475  34.805  31.109  1.00  0.00     0.031 C 
ATOM     37  C   UNL A   1      42.747  33.876  31.461  1.00  0.00     0.031 A 
BRANCH  24  38
ATOM     38  C   UNL A   1      46.167  28.776  30.758  1.00  0.00    -0.014 A 
ATOM     39  C   UNL A   1      47.174  28.850  29.780  1.00  0.00     0.010 A 
ATOM     40  C   UNL A   1      46.436  28.109  31.968  1.00  0.00     0.010 A 
ATOM     41  C   UNL A   1      48.414  28.237  29.993  1.00  0.00     0.020 A 
ATOM     42  C   UNL A   1      47.682  27.514  32.194  1.00  0.00     0.020 A 
ATOM     43  C   UNL A   1      48.658  27.569  31.197  1.00  0.00     0.054 A 
BRANCH  43  44
ATOM     44  S   UNL A   1      50.280  26.799  31.456  1.00  0.00     0.124 S 
ATOM     45  O   UNL A   1      51.186  27.918  31.209  1.00  0.00    -0.237 OA
ATOM     46  O   UNL A   1      50.205  26.347  32.844  1.00  0.00    -0.237 OA
ATOM     47  O   UNL A   1      50.321  25.733  30.458  1.00  0.00    -0.744 OA
ENDBRANCH  43  44
ENDBRANCH  24  38
BRANCH  25  48
ATOM     48  C   UNL A   1      37.123  32.818  29.478  1.00  0.00    -0.014 A 
ATOM     49  C   UNL A   1      36.247  32.957  30.568  1.00  0.00     0.010 A 
ATOM     50  C   UNL A   1      36.725  33.288  28.213  1.00  0.00     0.010 A 
ATOM     51  C   UNL A   1      34.995  33.553  30.395  1.00  0.00     0.020 A 
ATOM     52  C   UNL A   1      35.486  33.907  28.041  1.00  0.00     0.020 A 
ATOM     53  C   UNL A   1      34.623  34.026  29.133  1.00  0.00     0.054 A 
BRANCH  53  54
ATOM     54  S   UNL A   1      33.024  34.861  28.942  1.00  0.00     0.124 S 
ATOM     55  O   UNL A   1      32.487  34.801  30.297  1.00  0.00    -0.237 OA
ATOM     56  O   UNL A   1      33.411  36.189  28.472  1.00  0.00    -0.237 OA
ATOM     57  O   UNL A   1      32.328  34.040  27.953  1.00  0.00    -0.744 OA
ENDBRANCH  53  54
ENDBRANCH  25  48
BRANCH  37  58
ATOM     58  C   UNL A   1      43.154  35.210  32.021  1.00  0.00    -0.014 A 
ATOM     59  C   UNL A   1      43.751  36.187  31.204  1.00  0.00     0.010 A 
ATOM     60  C   UNL A   1      42.905  35.503  33.373  1.00  0.00     0.010 A 
ATOM     61  C   UNL A   1      44.119  37.423  31.739  1.00  0.00     0.020 A 
ATOM     62  C   UNL A   1      43.253  36.746  33.906  1.00  0.00     0.020 A 
ATOM     63  C   UNL A   1      43.871  37.694  33.089  1.00  0.00     0.054 A 
BRANCH  63  64
ATOM     64  S   UNL A   1      44.327  39.319  33.754  1.00  0.00     0.124 S 
ATOM     65  O   UNL A   1      44.930  38.964  35.035  1.00  0.00    -0.237 OA
ATOM     66  O   UNL A   1      45.250  39.834  32.746  1.00  0.00    -0.237 OA
ATOM     67  O   UNL A   1      43.051  40.026  33.840  1.00  0.00    -0.744 OA
ENDBRANCH  63  64
ENDBRANCH  37  58
ENDBRANCH  11  12
ENDBRANCH   4   6
ENDBRANCH   1   2
BRANCH   1  68
ATOM     68  C   UNL A   1      35.940  23.973  24.910  1.00  0.00     0.023 C 
BRANCH  68  69
ATOM     69  C   UNL A   1      34.713  24.880  25.011  1.00  0.00     0.023 C 
BRANCH  69  70
ATOM     70  C   UNL A   1      33.532  24.476  24.139  1.00  0.00     0.116 C 
BRANCH  70  71
ATOM     71  N   UNL A   1      33.657  24.841  22.758  1.00  0.00    -0.356 N 
ATOM     72  C   UNL A   1      32.920  25.708  22.004  1.00  0.00     0.224 C 
ATOM     73  H   UNL A   1      34.392  24.397  22.276  1.00  0.00     0.163 HD
ATOM     74  O   UNL A   1      33.276  25.849  20.833  1.00  0.00    -0.275 OA
BRANCH  72  75
ATOM     75  C   UNL A   1      31.697  26.449  22.428  1.00  0.00     0.095 C 
ATOM     76  C   UNL A   1      30.886  25.735  23.483  1.00  0.00     0.032 C 
ATOM     77  C   UNL A   1      31.127  27.235  23.611  1.00  0.00     0.033 C 
BRANCH  77  78
ATOM     78  C   UNL A   1      31.904  27.701  24.850  1.00  0.00    -0.037 A 
ATOM     79  C   UNL A   1      33.214  28.205  24.737  1.00  0.00     0.004 A 
ATOM     80  C   UNL A   1      31.404  27.532  26.157  1.00  0.00     0.004 A 
ATOM     81  C   UNL A   1      33.969  28.552  25.862  1.00  0.00     0.000 A 
ATOM     82  C   UNL A   1      32.152  27.878  27.287  1.00  0.00     0.000 A 
ATOM     83  C   UNL A   1      33.436  28.390  27.137  1.00  0.00     0.000 A 
ENDBRANCH  77  78
BRANCH  77  84
ATOM     84  C   UNL A   1      29.937  28.208  23.256  1.00  0.00    -0.037 A 
ATOM     85  C   UNL A   1      28.594  27.794  23.388  1.00  0.00     0.004 A 
ATOM     86  C   UNL A   1      30.123  29.517  22.769  1.00  0.00     0.004 A 
ATOM     87  C   UNL A   1      27.514  28.600  23.016  1.00  0.00     0.000 A 
ATOM     88  C   UNL A   1      29.046  30.343  22.420  1.00  0.00     0.000 A 
ATOM     89  C   UNL A   1      27.742  29.879  22.530  1.00  0.00     0.000 A 
ENDBRANCH  77  84
ENDBRANCH  72  75
ENDBRANCH  70  71
ENDBRANCH  69  70
ENDBRANCH  68  69
ENDBRANCH   1  68
TORSDOF 16
ENDMDL
MODEL 2
REMARK VINA RESULT:     -11.5      2.972      9.678
REMARK SMILES O=C(NCCCCNC(=O)[C@H]1CC1(c1ccccc1)c1ccccc1)c1ccc(-c2c3nc(c(-c4ccc(S(=O)(=O)[O-])cc4)c4ccc([nH]4)c(-c4ccc(S(=O)(=O)[O-])cc4)c4nc(c(-c5ccc(S(=O)(=O)[O-])cc5)c5ccc2[nH]5)C=C4)C=C3)cc1
REMARK SMILES IDX 4 1 3 2 1 3 2 4 26 6 27 7 85 8 28 9 84 10 29 11 30 12 31 13
REMARK SMILES IDX 78 14 32 15 83 16 77 17 79 18 33 19 82 20 76 21 75 22 34 24
REMARK SMILES IDX 64 25 45 26 63 27 46 28 49 29 62 30 80 31 47 32 48 33 61 35
REMARK SMILES IDX 81 36 50 37 35 38 36 39 44 40 37 41 43 42 38 43 39 44 40 45
REMARK SMILES IDX 41 46 42 47 65 48 66 49 74 50 67 51 73 52 68 53 69 54 70 55
REMARK SMILES IDX 71 56 72 57 51 58 52 59 60 60 53 61 59 62 54 63 55 64 56 65
REMARK SMILES IDX 57 66 58 67 5 68 6 69 7 70 8 71 9 72 10 74 11 75 12 76 13 77
REMARK SMILES IDX 14 78 15 79 19 80 16 81 18 82 17 83 20 84 21 85 25 86 22 87
REMARK SMILES IDX 24 88 23 89
REMARK H PARENT 3 5 79 23 49 34 8 73
REMARK Flexibility Score: inf
ROOT
ATOM      1  C   UNL A   1      33.343  28.380  27.255  1.00  0.00     0.116 C 
ENDROOT
BRANCH   1   2
ATOM      2  N   UNL A   1      33.311  29.816  27.501  1.00  0.00    -0.352 N 
ATOM      3  O   UNL A   1      34.021  31.830  28.224  1.00  0.00    -0.269 OA
ATOM      4  C   UNL A   1      34.287  30.653  27.988  1.00  0.00     0.251 C 
ATOM      5  H   UNL A   1      32.457  30.255  27.285  1.00  0.00     0.163 HD
BRANCH   4   6
ATOM      6  C   UNL A   1      35.645  30.133  28.261  1.00  0.00     0.039 A 
ATOM      7  C   UNL A   1      35.985  29.661  29.530  1.00  0.00     0.014 A 
ATOM      8  C   UNL A   1      36.597  30.128  27.237  1.00  0.00     0.014 A 
ATOM      9  C   UNL A   1      37.311  29.358  29.821  1.00  0.00     0.010 A 
ATOM     10  C   UNL A   1      37.912  29.735  27.509  1.00  0.00     0.010 A 
ATOM     11  C   UNL A   1      38.292  29.390  28.815  1.00  0.00    -0.014 A 
BRANCH  11  12
ATOM     12  C   UNL A   1      39.693  29.023  29.152  1.00  0.00     0.031 A 
ATOM     13  C   UNL A   1      40.585  29.963  29.920  1.00  0.00     0.074 A 
ATOM     14  C   UNL A   1      40.148  27.805  28.796  1.00  0.00     0.049 A 
ATOM     15  N   UNL A   1      41.818  29.780  30.323  1.00  0.00    -0.248 NA
ATOM     16  C   UNL A   1      40.029  31.278  30.278  1.00  0.00     0.031 C 
ATOM     17  C   UNL A   1      39.382  26.806  28.047  1.00  0.00     0.029 A 
ATOM     18  N   UNL A   1      41.350  27.190  29.036  1.00  0.00    -0.354 N 
ATOM     19  C   UNL A   1      42.193  30.958  30.960  1.00  0.00     0.074 A 
ATOM     20  C   UNL A   1      41.063  31.858  30.874  1.00  0.00     0.031 C 
ATOM     21  C   UNL A   1      40.110  25.685  27.936  1.00  0.00     0.029 A 
ATOM     22  C   UNL A   1      41.415  25.906  28.548  1.00  0.00     0.049 A 
ATOM     23  H   UNL A   1      42.094  27.625  29.511  1.00  0.00     0.167 HD
ATOM     24  C   UNL A   1      43.369  31.260  31.563  1.00  0.00     0.031 A 
ATOM     25  C   UNL A   1      42.415  25.005  28.576  1.00  0.00     0.031 A 
ATOM     26  C   UNL A   1      44.490  30.359  31.654  1.00  0.00     0.049 A 
ATOM     27  C   UNL A   1      43.712  25.370  29.236  1.00  0.00     0.074 A 
ATOM     28  C   UNL A   1      45.713  30.567  32.269  1.00  0.00     0.029 A 
ATOM     29  N   UNL A   1      44.526  29.082  31.117  1.00  0.00    -0.354 N 
ATOM     30  N   UNL A   1      44.036  26.484  29.848  1.00  0.00    -0.248 NA
ATOM     31  C   UNL A   1      44.776  24.359  29.208  1.00  0.00     0.031 C 
ATOM     32  C   UNL A   1      46.504  29.431  32.067  1.00  0.00     0.029 A 
ATOM     33  C   UNL A   1      45.757  28.497  31.367  1.00  0.00     0.049 A 
ATOM     34  H   UNL A   1      43.786  28.653  30.629  1.00  0.00     0.167 HD
ATOM     35  C   UNL A   1      45.341  26.304  30.287  1.00  0.00     0.074 A 
ATOM     36  C   UNL A   1      45.738  24.968  29.890  1.00  0.00     0.031 C 
ATOM     37  C   UNL A   1      46.141  27.170  30.957  1.00  0.00     0.031 A 
BRANCH  24  38
ATOM     38  C   UNL A   1      43.519  32.639  32.153  1.00  0.00    -0.014 A 
ATOM     39  C   UNL A   1      43.194  32.896  33.497  1.00  0.00     0.010 A 
ATOM     40  C   UNL A   1      44.049  33.679  31.366  1.00  0.00     0.010 A 
ATOM     41  C   UNL A   1      43.361  34.177  34.032  1.00  0.00     0.020 A 
ATOM     42  C   UNL A   1      44.237  34.956  31.904  1.00  0.00     0.020 A 
ATOM     43  C   UNL A   1      43.877  35.201  33.231  1.00  0.00     0.054 A 
BRANCH  43  44
ATOM     44  S   UNL A   1      44.101  36.849  33.955  1.00  0.00     0.124 S 
ATOM     45  O   UNL A   1      42.852  37.027  34.689  1.00  0.00    -0.237 OA
ATOM     46  O   UNL A   1      45.296  36.679  34.780  1.00  0.00    -0.237 OA
ATOM     47  O   UNL A   1      44.270  37.718  32.792  1.00  0.00    -0.744 OA
ENDBRANCH  43  44
ENDBRANCH  24  38
BRANCH  25  48
ATOM     48  C   UNL A   1      42.221  23.676  27.938  1.00  0.00    -0.014 A 
ATOM     49  C   UNL A   1      42.631  23.450  26.614  1.00  0.00     0.010 A 
ATOM     50  C   UNL A   1      41.662  22.615  28.675  1.00  0.00     0.010 A 
ATOM     51  C   UNL A   1      42.481  22.186  26.035  1.00  0.00     0.020 A 
ATOM     52  C   UNL A   1      41.534  21.346  28.110  1.00  0.00     0.020 A 
ATOM     53  C   UNL A   1      41.936  21.142  26.788  1.00  0.00     0.054 A 
BRANCH  53  54
ATOM     54  S   UNL A   1      41.814  19.491  26.045  1.00  0.00     0.124 S 
ATOM     55  O   UNL A   1      40.388  19.396  25.750  1.00  0.00    -0.237 OA
ATOM     56  O   UNL A   1      42.695  19.598  24.885  1.00  0.00    -0.237 OA
ATOM     57  O   UNL A   1      42.297  18.606  27.102  1.00  0.00    -0.744 OA
ENDBRANCH  53  54
ENDBRANCH  25  48
BRANCH  37  58
ATOM     58  C   UNL A   1      47.519  26.691  31.317  1.00  0.00    -0.014 A 
ATOM     59  C   UNL A   1      47.781  26.115  32.573  1.00  0.00     0.010 A 
ATOM     60  C   UNL A   1      48.557  26.785  30.373  1.00  0.00     0.010 A 
ATOM     61  C   UNL A   1      49.066  25.671  32.890  1.00  0.00     0.020 A 
ATOM     62  C   UNL A   1      49.839  26.322  30.679  1.00  0.00     0.020 A 
ATOM     63  C   UNL A   1      50.089  25.780  31.942  1.00  0.00     0.054 A 
BRANCH  63  64
ATOM     64  S   UNL A   1      51.743  25.165  32.363  1.00  0.00     0.124 S 
ATOM     65  O   UNL A   1      52.583  25.870  31.399  1.00  0.00    -0.237 OA
ATOM     66  O   UNL A   1      51.898  25.580  33.754  1.00  0.00    -0.237 OA
ATOM     67  O   UNL A   1      51.635  23.722  32.158  1.00  0.00    -0.744 OA
ENDBRANCH  63  64
ENDBRANCH  37  58
ENDBRANCH  11  12
ENDBRANCH   4   6
ENDBRANCH   1   2
BRANCH   1  68
ATOM     68  C   UNL A   1      32.498  27.948  26.060  1.00  0.00     0.023 C 
BRANCH  68  69
ATOM     69  C   UNL A   1      33.109  26.873  25.160  1.00  0.00     0.023 C 
BRANCH  69  70
ATOM     70  C   UNL A   1      32.138  25.810  24.664  1.00  0.00     0.116 C 
BRANCH  70  71
ATOM     71  N   UNL A   1      31.464  25.086  25.702  1.00  0.00    -0.356 N 
ATOM     72  C   UNL A   1      31.925  24.112  26.540  1.00  0.00     0.224 C 
ATOM     73  H   UNL A   1      30.519  25.330  25.833  1.00  0.00     0.163 HD
ATOM     74  O   UNL A   1      31.121  23.680  27.368  1.00  0.00    -0.275 OA
BRANCH  72  75
ATOM     75  C   UNL A   1      33.272  23.474  26.518  1.00  0.00     0.095 C 
ATOM     76  C   UNL A   1      33.377  22.240  27.383  1.00  0.00     0.032 C 
ATOM     77  C   UNL A   1      33.998  22.233  25.990  1.00  0.00     0.033 C 
BRANCH  77  78
ATOM     78  C   UNL A   1      33.438  21.208  24.995  1.00  0.00    -0.037 A 
ATOM     79  C   UNL A   1      32.948  21.611  23.738  1.00  0.00     0.004 A 
ATOM     80  C   UNL A   1      33.268  19.850  25.331  1.00  0.00     0.004 A 
ATOM     81  C   UNL A   1      32.354  20.705  22.854  1.00  0.00     0.000 A 
ATOM     82  C   UNL A   1      32.678  18.937  24.452  1.00  0.00     0.000 A 
ATOM     83  C   UNL A   1      32.222  19.367  23.211  1.00  0.00     0.000 A 
ENDBRANCH  77  78
BRANCH  77  84
ATOM     84  C   UNL A   1      35.566  22.373  25.879  1.00  0.00    -0.037 A 
ATOM     85  C   UNL A   1      36.210  23.598  26.162  1.00  0.00     0.004 A 
ATOM     86  C   UNL A   1      36.413  21.322  25.476  1.00  0.00     0.004 A 
ATOM     87  C   UNL A   1      37.587  23.781  26.007  1.00  0.00     0.000 A 
ATOM     88  C   UNL A   1      37.797  21.488  25.343  1.00  0.00     0.000 A 
ATOM     89  C   UNL A   1      38.383  22.722  25.596  1.00  0.00     0.000 A 
ENDBRANCH  77  84
ENDBRANCH  72  75
ENDBRANCH  70  71
ENDBRANCH  69  70
ENDBRANCH  68  69
ENDBRANCH   1  68
TORSDOF 16
ENDMDL
MODEL 3
REMARK VINA RESULT:     -11.5      3.187      9.572
REMARK SMILES O=C(NCCCCNC(=O)[C@H]1CC1(c1ccccc1)c1ccccc1)c1ccc(-c2c3nc(c(-c4ccc(S(=O)(=O)[O-])cc4)c4ccc([nH]4)c(-c4ccc(S(=O)(=O)[O-])cc4)c4nc(c(-c5ccc(S(=O)(=O)[O-])cc5)c5ccc2[nH]5)C=C4)C=C3)cc1
REMARK SMILES IDX 4 1 3 2 1 3 2 4 26 6 27 7 85 8 28 9 84 10 29 11 30 12 31 13
REMARK SMILES IDX 78 14 32 15 83 16 77 17 79 18 33 19 82 20 76 21 75 22 34 24
REMARK SMILES IDX 64 25 45 26 63 27 46 28 49 29 62 30 80 31 47 32 48 33 61 35
REMARK SMILES IDX 81 36 50 37 35 38 36 39 44 40 37 41 43 42 38 43 39 44 40 45
REMARK SMILES IDX 41 46 42 47 65 48 66 49 74 50 67 51 73 52 68 53 69 54 70 55
REMARK SMILES IDX 71 56 72 57 51 58 52 59 60 60 53 61 59 62 54 63 55 64 56 65
REMARK SMILES IDX 57 66 58 67 5 68 6 69 7 70 8 71 9 72 10 74 11 75 12 76 13 77
REMARK SMILES IDX 14 78 15 79 19 80 16 81 18 82 17 83 20 84 21 85 25 86 22 87
REMARK SMILES IDX 24 88 23 89
REMARK H PARENT 3 5 79 23 49 34 8 73
REMARK Flexibility Score: inf
ROOT
ATOM      1  C   UNL A   1      33.865  28.590  26.131  1.00  0.00     0.116 C 
ENDROOT
BRANCH   1   2
ATOM      2  N   UNL A   1      33.650  29.876  26.781  1.00  0.00    -0.352 N 
ATOM      3  O   UNL A   1      34.029  31.599  28.184  1.00  0.00    -0.269 OA
ATOM      4  C   UNL A   1      34.446  30.567  27.663  1.00  0.00     0.251 C 
ATOM      5  H   UNL A   1      32.801  30.321  26.552  1.00  0.00     0.163 HD
BRANCH   4   6
ATOM      6  C   UNL A   1      35.788  30.052  28.014  1.00  0.00     0.039 A 
ATOM      7  C   UNL A   1      36.036  29.510  29.276  1.00  0.00     0.014 A 
ATOM      8  C   UNL A   1      36.818  30.124  27.072  1.00  0.00     0.014 A 
ATOM      9  C   UNL A   1      37.340  29.209  29.654  1.00  0.00     0.010 A 
ATOM     10  C   UNL A   1      38.116  29.735  27.425  1.00  0.00     0.010 A 
ATOM     11  C   UNL A   1      38.397  29.317  28.735  1.00  0.00    -0.014 A 
BRANCH  11  12
ATOM     12  C   UNL A   1      39.774  28.952  29.161  1.00  0.00     0.031 A 
ATOM     13  C   UNL A   1      40.600  29.879  30.014  1.00  0.00     0.074 A 
ATOM     14  C   UNL A   1      40.264  27.747  28.808  1.00  0.00     0.049 A 
ATOM     15  N   UNL A   1      41.804  29.695  30.499  1.00  0.00    -0.248 NA
ATOM     16  C   UNL A   1      40.009  31.180  30.365  1.00  0.00     0.031 C 
ATOM     17  C   UNL A   1      39.562  26.762  27.982  1.00  0.00     0.029 A 
ATOM     18  N   UNL A   1      41.451  27.135  29.117  1.00  0.00    -0.354 N 
ATOM     19  C   UNL A   1      42.122  30.858  31.191  1.00  0.00     0.074 A 
ATOM     20  C   UNL A   1      40.992  31.752  31.047  1.00  0.00     0.031 C 
ATOM     21  C   UNL A   1      40.307  25.649  27.895  1.00  0.00     0.029 A 
ATOM     22  C   UNL A   1      41.563  25.864  28.604  1.00  0.00     0.049 A 
ATOM     23  H   UNL A   1      42.156  27.563  29.655  1.00  0.00     0.167 HD
ATOM     24  C   UNL A   1      43.250  31.154  31.883  1.00  0.00     0.031 A 
ATOM     25  C   UNL A   1      42.567  24.971  28.680  1.00  0.00     0.031 A 
ATOM     26  C   UNL A   1      44.369  30.259  32.031  1.00  0.00     0.049 A 
ATOM     27  C   UNL A   1      43.810  25.328  29.440  1.00  0.00     0.074 A 
ATOM     28  C   UNL A   1      45.543  30.460  32.737  1.00  0.00     0.029 A 
ATOM     29  N   UNL A   1      44.455  28.996  31.466  1.00  0.00    -0.354 N 
ATOM     30  N   UNL A   1      44.079  26.428  30.101  1.00  0.00    -0.248 NA
ATOM     31  C   UNL A   1      44.883  24.326  29.462  1.00  0.00     0.031 C 
ATOM     32  C   UNL A   1      46.357  29.335  32.562  1.00  0.00     0.029 A 
ATOM     33  C   UNL A   1      45.670  28.414  31.788  1.00  0.00     0.049 A 
ATOM     34  H   UNL A   1      43.755  28.574  30.916  1.00  0.00     0.167 HD
ATOM     35  C   UNL A   1      45.352  26.247  30.626  1.00  0.00     0.074 A 
ATOM     36  C   UNL A   1      45.788  24.924  30.226  1.00  0.00     0.031 C 
ATOM     37  C   UNL A   1      46.094  27.101  31.373  1.00  0.00     0.031 A 
BRANCH  24  38
ATOM     38  C   UNL A   1      43.345  32.517  32.517  1.00  0.00    -0.014 A 
ATOM     39  C   UNL A   1      43.894  33.608  31.821  1.00  0.00     0.010 A 
ATOM     40  C   UNL A   1      42.823  32.722  33.808  1.00  0.00     0.010 A 
ATOM     41  C   UNL A   1      43.953  34.872  32.419  1.00  0.00     0.020 A 
ATOM     42  C   UNL A   1      42.861  33.988  34.401  1.00  0.00     0.020 A 
ATOM     43  C   UNL A   1      43.441  35.052  33.708  1.00  0.00     0.054 A 
BRANCH  43  44
ATOM     44  S   UNL A   1      43.513  36.705  34.453  1.00  0.00     0.124 S 
ATOM     45  O   UNL A   1      43.332  37.568  33.289  1.00  0.00    -0.237 OA
ATOM     46  O   UNL A   1      42.398  36.682  35.397  1.00  0.00    -0.237 OA
ATOM     47  O   UNL A   1      44.840  36.752  35.063  1.00  0.00    -0.744 OA
ENDBRANCH  43  44
ENDBRANCH  24  38
BRANCH  25  48
ATOM     48  C   UNL A   1      42.430  23.657  27.997  1.00  0.00    -0.014 A 
ATOM     49  C   UNL A   1      42.965  23.457  26.713  1.00  0.00     0.010 A 
ATOM     50  C   UNL A   1      41.799  22.583  28.653  1.00  0.00     0.010 A 
ATOM     51  C   UNL A   1      42.867  22.208  26.094  1.00  0.00     0.020 A 
ATOM     52  C   UNL A   1      41.723  21.327  28.049  1.00  0.00     0.020 A 
ATOM     53  C   UNL A   1      42.249  21.150  26.768  1.00  0.00     0.054 A 
BRANCH  53  54
ATOM     54  S   UNL A   1      42.194  19.517  25.979  1.00  0.00     0.124 S 
ATOM     55  O   UNL A   1      40.776  19.383  25.660  1.00  0.00    -0.237 OA
ATOM     56  O   UNL A   1      43.088  19.684  24.837  1.00  0.00    -0.237 OA
ATOM     57  O   UNL A   1      42.690  18.620  27.021  1.00  0.00    -0.744 OA
ENDBRANCH  53  54
ENDBRANCH  25  48
BRANCH  37  58
ATOM     58  C   UNL A   1      47.448  26.622  31.818  1.00  0.00    -0.014 A 
ATOM     59  C   UNL A   1      47.604  25.902  33.015  1.00  0.00     0.010 A 
ATOM     60  C   UNL A   1      48.572  26.866  31.010  1.00  0.00     0.010 A 
ATOM     61  C   UNL A   1      48.868  25.461  33.413  1.00  0.00     0.020 A 
ATOM     62  C   UNL A   1      49.834  26.407  31.394  1.00  0.00     0.020 A 
ATOM     63  C   UNL A   1      49.977  25.720  32.600  1.00  0.00     0.054 A 
BRANCH  63  64
ATOM     64  S   UNL A   1      51.604  25.107  33.118  1.00  0.00     0.124 S 
ATOM     65  O   UNL A   1      52.456  26.268  32.875  1.00  0.00    -0.237 OA
ATOM     66  O   UNL A   1      51.390  24.768  34.523  1.00  0.00    -0.237 OA
ATOM     67  O   UNL A   1      51.838  23.966  32.237  1.00  0.00    -0.744 OA
ENDBRANCH  63  64
ENDBRANCH  37  58
ENDBRANCH  11  12
ENDBRANCH   4   6
ENDBRANCH   1   2
BRANCH   1  68
ATOM     68  C   UNL A   1      32.889  27.508  26.587  1.00  0.00     0.023 C 
BRANCH  68  69
ATOM     69  C   UNL A   1      33.054  26.137  25.930  1.00  0.00     0.023 C 
BRANCH  69  70
ATOM     70  C   UNL A   1      31.762  25.479  25.463  1.00  0.00     0.116 C 
BRANCH  70  71
ATOM     71  N   UNL A   1      31.095  24.697  26.464  1.00  0.00    -0.356 N 
ATOM     72  C   UNL A   1      30.975  23.343  26.590  1.00  0.00     0.224 C 
ATOM     73  H   UNL A   1      30.655  25.219  27.174  1.00  0.00     0.163 HD
ATOM     74  O   UNL A   1      30.361  22.941  27.580  1.00  0.00    -0.275 OA
BRANCH  72  75
ATOM     75  C   UNL A   1      31.450  22.307  25.629  1.00  0.00     0.095 C 
ATOM     76  C   UNL A   1      31.526  22.790  24.200  1.00  0.00     0.032 C 
ATOM     77  C   UNL A   1      32.662  21.944  24.767  1.00  0.00     0.033 C 
BRANCH  77  78
ATOM     78  C   UNL A   1      34.046  22.605  24.821  1.00  0.00    -0.037 A 
ATOM     79  C   UNL A   1      34.781  22.845  23.645  1.00  0.00     0.004 A 
ATOM     80  C   UNL A   1      34.698  22.885  26.039  1.00  0.00     0.004 A 
ATOM     81  C   UNL A   1      36.079  23.366  23.680  1.00  0.00     0.000 A 
ATOM     82  C   UNL A   1      35.994  23.407  26.084  1.00  0.00     0.000 A 
ATOM     83  C   UNL A   1      36.683  23.649  24.901  1.00  0.00     0.000 A 
ENDBRANCH  77  78
BRANCH  77  84
ATOM     84  C   UNL A   1      32.744  20.430  24.332  1.00  0.00    -0.037 A 
ATOM     85  C   UNL A   1      33.413  19.477  25.132  1.00  0.00     0.004 A 
ATOM     86  C   UNL A   1      32.192  19.935  23.134  1.00  0.00     0.004 A 
ATOM     87  C   UNL A   1      33.568  18.142  24.747  1.00  0.00     0.000 A 
ATOM     88  C   UNL A   1      32.319  18.593  22.753  1.00  0.00     0.000 A 
ATOM     89  C   UNL A   1      33.019  17.699  23.553  1.00  0.00     0.000 A 
ENDBRANCH  77  84
ENDBRANCH  72  75
ENDBRANCH  70  71
ENDBRANCH  69  70
ENDBRANCH  68  69
ENDBRANCH   1  68
TORSDOF 16
ENDMDL
