MODEL 1
REMARK VINA RESULT:     -11.0      0.000      0.000
REMARK SMILES Cc1cc(F)c(C(=O)NCCCCNC(=O)c2ccc(-c3c4nc(c(-c5ccc(S(=O)(=O)[O-])cc5)c5ccc([nH]5)c(-c5ccc(S(=O)(=O)[O-])cc5)c5nc(c(-c6ccc(S(=O)(=O)[O-])cc6)c6ccc3[nH]6)C=C5)C=C4)cc2)cc1F
REMARK SMILES IDX 13 1 12 2 11 3 10 4 9 5 7 6 8 7 6 9 1 10 2 11 3 12 78 13
REMARK SMILES IDX 4 14 77 15 79 16 5 17 14 18 15 19 16 21 17 22 18 23 76 24
REMARK SMILES IDX 19 25 75 26 20 27 21 28 22 29 69 30 23 31 74 32 68 33 70 34
REMARK SMILES IDX 24 35 73 36 67 37 66 38 25 40 55 41 36 42 54 43 37 44 40 45
REMARK SMILES IDX 53 46 71 47 38 48 39 49 52 51 72 52 41 53 26 54 27 55 35 56
REMARK SMILES IDX 28 57 34 58 29 59 30 60 31 61 32 62 33 63 56 64 57 65 65 66
REMARK SMILES IDX 58 67 64 68 59 69 60 70 61 71 62 72 63 73 42 74 43 75 51 76
REMARK SMILES IDX 44 77 50 78 45 79 46 80 47 81 48 82 49 83
REMARK H PARENT 9 8 14 20 70 39 40 50
REMARK Flexibility Score: inf
ROOT
ATOM      1  C   UNL A   1      33.412  29.213  26.451  1.00  0.00     0.116 C 
ENDROOT
BRANCH   1   2
ATOM      2  C   UNL A   1      32.823  28.022  27.196  1.00  0.00     0.023 C 
BRANCH   2   3
ATOM      3  C   UNL A   1      31.517  27.456  26.646  1.00  0.00     0.023 C 
BRANCH   3   4
ATOM      4  C   UNL A   1      31.610  26.135  25.890  1.00  0.00     0.116 C 
BRANCH   4   5
ATOM      5  N   UNL A   1      31.366  24.957  26.706  1.00  0.00    -0.352 N 
ATOM      6  C   UNL A   1      32.073  23.782  26.813  1.00  0.00     0.254 C 
ATOM      7  O   UNL A   1      31.716  22.938  27.628  1.00  0.00    -0.269 OA
ATOM      8  H   UNL A   1      30.563  25.009  27.275  1.00  0.00     0.163 HD
BRANCH   6   9
ATOM      9  C   UNL A   1      33.246  23.518  25.956  1.00  0.00     0.078 A 
ATOM     10  C   UNL A   1      36.538  23.013  23.226  1.00  0.00     0.047 C 
ATOM     11  C   UNL A   1      35.402  23.112  24.197  1.00  0.00    -0.012 A 
ATOM     12  C   UNL A   1      34.126  22.645  23.867  1.00  0.00     0.046 A 
ATOM     13  C   UNL A   1      35.588  23.734  25.435  1.00  0.00     0.127 A 
ATOM     14  C   UNL A   1      33.059  22.849  24.744  1.00  0.00     0.136 A 
ATOM     15  C   UNL A   1      34.535  23.909  26.327  1.00  0.00     0.056 A 
ATOM     16  F   UNL A   1      36.798  24.200  25.771  1.00  0.00    -0.207 F 
ATOM     17  F   UNL A   1      31.846  22.422  24.365  1.00  0.00    -0.206 F 
ENDBRANCH   6   9
ENDBRANCH   4   5
ENDBRANCH   3   4
ENDBRANCH   2   3
ENDBRANCH   1   2
BRANCH   1  18
ATOM     18  N   UNL A   1      33.396  30.457  27.207  1.00  0.00    -0.352 N 
ATOM     19  C   UNL A   1      34.346  31.004  28.046  1.00  0.00     0.251 C 
ATOM     20  H   UNL A   1      32.576  30.993  27.104  1.00  0.00     0.163 HD
ATOM     21  O   UNL A   1      34.105  32.044  28.638  1.00  0.00    -0.269 OA
BRANCH  19  22
ATOM     22  C   UNL A   1      35.631  30.299  28.270  1.00  0.00     0.039 A 
ATOM     23  C   UNL A   1      35.908  29.675  29.486  1.00  0.00     0.014 A 
ATOM     24  C   UNL A   1      36.594  30.307  27.256  1.00  0.00     0.014 A 
ATOM     25  C   UNL A   1      37.207  29.262  29.765  1.00  0.00     0.010 A 
ATOM     26  C   UNL A   1      37.873  29.798  27.505  1.00  0.00     0.010 A 
ATOM     27  C   UNL A   1      38.210  29.334  28.785  1.00  0.00    -0.014 A 
BRANCH  27  28
ATOM     28  C   UNL A   1      39.604  28.944  29.137  1.00  0.00     0.031 A 
ATOM     29  C   UNL A   1      40.451  29.819  30.026  1.00  0.00     0.074 A 
ATOM     30  C   UNL A   1      40.079  27.752  28.723  1.00  0.00     0.049 A 
ATOM     31  N   UNL A   1      41.661  29.603  30.477  1.00  0.00    -0.248 NA
ATOM     32  C   UNL A   1      39.872  31.099  30.469  1.00  0.00     0.031 C 
ATOM     33  C   UNL A   1      39.348  26.804  27.880  1.00  0.00     0.029 A 
ATOM     34  N   UNL A   1      41.265  27.113  28.987  1.00  0.00    -0.354 N 
ATOM     35  C   UNL A   1      41.993  30.719  31.238  1.00  0.00     0.074 A 
ATOM     36  C   UNL A   1      40.870  31.627  31.167  1.00  0.00     0.031 C 
ATOM     37  C   UNL A   1      40.063  25.678  27.762  1.00  0.00     0.029 A 
ATOM     38  C   UNL A   1      41.337  25.846  28.457  1.00  0.00     0.049 A 
ATOM     39  H   UNL A   1      41.995  27.523  29.506  1.00  0.00     0.167 HD
ATOM     40  C   UNL A   1      43.124  30.959  31.944  1.00  0.00     0.031 A 
ATOM     41  C   UNL A   1      42.312  24.917  28.514  1.00  0.00     0.031 A 
ATOM     42  C   UNL A   1      44.233  30.044  32.031  1.00  0.00     0.049 A 
ATOM     43  C   UNL A   1      43.573  25.222  29.269  1.00  0.00     0.074 A 
ATOM     44  C   UNL A   1      45.417  30.200  32.730  1.00  0.00     0.029 A 
ATOM     45  N   UNL A   1      44.294  28.804  31.412  1.00  0.00    -0.354 N 
ATOM     46  N   UNL A   1      43.870  26.291  29.969  1.00  0.00    -0.248 NA
ATOM     47  C   UNL A   1      44.632  24.205  29.239  1.00  0.00     0.031 C 
ATOM     48  C   UNL A   1      46.216  29.080  32.492  1.00  0.00     0.029 A 
ATOM     49  C   UNL A   1      45.506  28.197  31.694  1.00  0.00     0.049 A 
ATOM     50  H   UNL A   1      43.583  28.416  30.854  1.00  0.00     0.167 HD
ATOM     51  C   UNL A   1      45.150  26.076  30.463  1.00  0.00     0.074 A 
ATOM     52  C   UNL A   1      45.562  24.766  30.004  1.00  0.00     0.031 C 
ATOM     53  C   UNL A   1      45.914  26.897  31.223  1.00  0.00     0.031 A 
BRANCH  40  54
ATOM     54  C   UNL A   1      43.240  32.264  32.690  1.00  0.00    -0.014 A 
ATOM     55  C   UNL A   1      43.787  33.388  32.044  1.00  0.00     0.010 A 
ATOM     56  C   UNL A   1      42.922  32.347  34.057  1.00  0.00     0.010 A 
ATOM     57  C   UNL A   1      44.038  34.565  32.757  1.00  0.00     0.020 A 
ATOM     58  C   UNL A   1      43.149  33.531  34.766  1.00  0.00     0.020 A 
ATOM     59  C   UNL A   1      43.726  34.625  34.117  1.00  0.00     0.054 A 
BRANCH  59  60
ATOM     60  S   UNL A   1      44.073  36.153  35.031  1.00  0.00     0.124 S 
ATOM     61  O   UNL A   1      44.500  35.646  36.331  1.00  0.00    -0.237 OA
ATOM     62  O   UNL A   1      45.117  36.781  34.224  1.00  0.00    -0.237 OA
ATOM     63  O   UNL A   1      42.789  36.853  35.023  1.00  0.00    -0.744 OA
ENDBRANCH  59  60
ENDBRANCH  40  54
BRANCH  41  64
ATOM     64  C   UNL A   1      42.101  23.608  27.839  1.00  0.00    -0.014 A 
ATOM     65  C   UNL A   1      41.487  22.545  28.528  1.00  0.00     0.010 A 
ATOM     66  C   UNL A   1      42.605  23.385  26.546  1.00  0.00     0.010 A 
ATOM     67  C   UNL A   1      41.441  21.269  27.967  1.00  0.00     0.020 A 
ATOM     68  C   UNL A   1      42.533  22.113  25.969  1.00  0.00     0.020 A 
ATOM     69  C   UNL A   1      41.983  21.057  26.697  1.00  0.00     0.054 A 
BRANCH  69  70
ATOM     70  S   UNL A   1      41.974  19.376  26.014  1.00  0.00     0.124 S 
ATOM     71  O   UNL A   1      42.472  18.593  27.140  1.00  0.00    -0.237 OA
ATOM     72  O   UNL A   1      40.566  19.172  25.679  1.00  0.00    -0.237 OA
ATOM     73  O   UNL A   1      42.875  19.471  24.869  1.00  0.00    -0.744 OA
ENDBRANCH  69  70
ENDBRANCH  41  64
BRANCH  53  74
ATOM     74  C   UNL A   1      47.290  26.427  31.610  1.00  0.00    -0.014 A 
ATOM     75  C   UNL A   1      48.371  26.634  30.733  1.00  0.00     0.010 A 
ATOM     76  C   UNL A   1      47.486  25.668  32.776  1.00  0.00     0.010 A 
ATOM     77  C   UNL A   1      49.617  26.061  30.997  1.00  0.00     0.020 A 
ATOM     78  C   UNL A   1      48.740  25.115  33.057  1.00  0.00     0.020 A 
ATOM     79  C   UNL A   1      49.790  25.294  32.153  1.00  0.00     0.054 A 
BRANCH  79  80
ATOM     80  S   UNL A   1      51.404  24.529  32.466  1.00  0.00     0.124 S 
ATOM     81  O   UNL A   1      51.154  23.133  32.124  1.00  0.00    -0.237 OA
ATOM     82  O   UNL A   1      52.286  25.252  31.553  1.00  0.00    -0.237 OA
ATOM     83  O   UNL A   1      51.638  24.794  33.884  1.00  0.00    -0.744 OA
ENDBRANCH  79  80
ENDBRANCH  53  74
ENDBRANCH  27  28
ENDBRANCH  19  22
ENDBRANCH   1  18
TORSDOF 14
ENDMDL
MODEL 2
REMARK VINA RESULT:     -11.0      3.027      9.448
REMARK SMILES Cc1cc(F)c(C(=O)NCCCCNC(=O)c2ccc(-c3c4nc(c(-c5ccc(S(=O)(=O)[O-])cc5)c5ccc([nH]5)c(-c5ccc(S(=O)(=O)[O-])cc5)c5nc(c(-c6ccc(S(=O)(=O)[O-])cc6)c6ccc3[nH]6)C=C5)C=C4)cc2)cc1F
REMARK SMILES IDX 13 1 12 2 11 3 10 4 9 5 7 6 8 7 6 9 1 10 2 11 3 12 78 13
REMARK SMILES IDX 4 14 77 15 79 16 5 17 14 18 15 19 16 21 17 22 18 23 76 24
REMARK SMILES IDX 19 25 75 26 20 27 21 28 22 29 69 30 23 31 74 32 68 33 70 34
REMARK SMILES IDX 24 35 73 36 67 37 66 38 25 40 55 41 36 42 54 43 37 44 40 45
REMARK SMILES IDX 53 46 71 47 38 48 39 49 52 51 72 52 41 53 26 54 27 55 35 56
REMARK SMILES IDX 28 57 34 58 29 59 30 60 31 61 32 62 33 63 56 64 57 65 65 66
REMARK SMILES IDX 58 67 64 68 59 69 60 70 61 71 62 72 63 73 42 74 43 75 51 76
REMARK SMILES IDX 44 77 50 78 45 79 46 80 47 81 48 82 49 83
REMARK H PARENT 9 8 14 20 70 39 40 50
REMARK Flexibility Score: inf
ROOT
ATOM      1  C   UNL A   1      37.079  23.269  24.911  1.00  0.00     0.116 C 
ENDROOT
BRANCH   1   2
ATOM      2  C   UNL A   1      35.796  23.120  25.719  1.00  0.00     0.023 C 
BRANCH   2   3
ATOM      3  C   UNL A   1      35.544  21.751  26.342  1.00  0.00     0.023 C 
BRANCH   3   4
ATOM      4  C   UNL A   1      34.194  21.549  27.024  1.00  0.00     0.116 C 
BRANCH   4   5
ATOM      5  N   UNL A   1      33.419  20.435  26.505  1.00  0.00    -0.352 N 
ATOM      6  C   UNL A   1      32.585  20.358  25.413  1.00  0.00     0.254 C 
ATOM      7  O   UNL A   1      32.079  19.281  25.118  1.00  0.00    -0.269 OA
ATOM      8  H   UNL A   1      33.505  19.599  27.018  1.00  0.00     0.163 HD
BRANCH   6   9
ATOM      9  C   UNL A   1      32.283  21.553  24.600  1.00  0.00     0.078 A 
ATOM     10  C   UNL A   1      31.570  25.241  22.494  1.00  0.00     0.047 C 
ATOM     11  C   UNL A   1      31.752  23.928  23.191  1.00  0.00    -0.012 A 
ATOM     12  C   UNL A   1      31.022  23.613  24.342  1.00  0.00     0.046 A 
ATOM     13  C   UNL A   1      32.708  23.017  22.735  1.00  0.00     0.127 A 
ATOM     14  C   UNL A   1      31.289  22.432  25.038  1.00  0.00     0.136 A 
ATOM     15  C   UNL A   1      32.954  21.822  23.405  1.00  0.00     0.056 A 
ATOM     16  F   UNL A   1      33.428  23.300  21.641  1.00  0.00    -0.207 F 
ATOM     17  F   UNL A   1      30.593  22.194  26.159  1.00  0.00    -0.206 F 
ENDBRANCH   6   9
ENDBRANCH   4   5
ENDBRANCH   3   4
ENDBRANCH   2   3
ENDBRANCH   1   2
BRANCH   1  18
ATOM     18  N   UNL A   1      38.172  22.421  25.364  1.00  0.00    -0.352 N 
ATOM     19  C   UNL A   1      39.244  22.709  26.185  1.00  0.00     0.251 C 
ATOM     20  H   UNL A   1      38.142  21.494  25.032  1.00  0.00     0.163 HD
ATOM     21  O   UNL A   1      40.094  21.857  26.394  1.00  0.00    -0.269 OA
BRANCH  19  22
ATOM     22  C   UNL A   1      39.392  24.066  26.762  1.00  0.00     0.039 A 
ATOM     23  C   UNL A   1      39.999  25.093  26.041  1.00  0.00     0.014 A 
ATOM     24  C   UNL A   1      38.956  24.298  28.070  1.00  0.00     0.014 A 
ATOM     25  C   UNL A   1      40.368  26.266  26.693  1.00  0.00     0.010 A 
ATOM     26  C   UNL A   1      39.238  25.518  28.693  1.00  0.00     0.010 A 
ATOM     27  C   UNL A   1      40.007  26.487  28.033  1.00  0.00    -0.014 A 
BRANCH  27  28
ATOM     28  C   UNL A   1      40.473  27.723  28.720  1.00  0.00     0.031 A 
ATOM     29  C   UNL A   1      41.921  27.897  29.104  1.00  0.00     0.074 A 
ATOM     30  C   UNL A   1      39.601  28.732  28.922  1.00  0.00     0.049 A 
ATOM     31  N   UNL A   1      42.505  28.931  29.655  1.00  0.00    -0.248 NA
ATOM     32  C   UNL A   1      42.833  26.771  28.837  1.00  0.00     0.031 C 
ATOM     33  C   UNL A   1      38.180  28.697  28.571  1.00  0.00     0.029 A 
ATOM     34  N   UNL A   1      39.787  29.996  29.427  1.00  0.00    -0.354 N 
ATOM     35  C   UNL A   1      43.841  28.578  29.816  1.00  0.00     0.074 A 
ATOM     36  C   UNL A   1      43.979  27.222  29.331  1.00  0.00     0.031 C 
ATOM     37  C   UNL A   1      37.642  29.902  28.796  1.00  0.00     0.029 A 
ATOM     38  C   UNL A   1      38.657  30.778  29.376  1.00  0.00     0.049 A 
ATOM     39  H   UNL A   1      40.646  30.311  29.790  1.00  0.00     0.167 HD
ATOM     40  C   UNL A   1      44.861  29.320  30.307  1.00  0.00     0.031 A 
ATOM     41  C   UNL A   1      38.448  32.056  29.753  1.00  0.00     0.031 A 
ATOM     42  C   UNL A   1      44.726  30.677  30.770  1.00  0.00     0.049 A 
ATOM     43  C   UNL A   1      39.586  32.845  30.332  1.00  0.00     0.074 A 
ATOM     44  C   UNL A   1      45.708  31.510  31.276  1.00  0.00     0.029 A 
ATOM     45  N   UNL A   1      43.544  31.403  30.773  1.00  0.00    -0.354 N 
ATOM     46  N   UNL A   1      40.836  32.484  30.488  1.00  0.00    -0.248 NA
ATOM     47  C   UNL A   1      39.286  34.207  30.793  1.00  0.00     0.031 C 
ATOM     48  C   UNL A   1      45.112  32.720  31.637  1.00  0.00     0.029 A 
ATOM     49  C   UNL A   1      43.770  32.665  31.296  1.00  0.00     0.049 A 
ATOM     50  H   UNL A   1      42.675  31.071  30.452  1.00  0.00     0.167 HD
ATOM     51  C   UNL A   1      41.475  33.574  31.065  1.00  0.00     0.074 A 
ATOM     52  C   UNL A   1      40.480  34.617  31.208  1.00  0.00     0.031 C 
ATOM     53  C   UNL A   1      42.770  33.694  31.447  1.00  0.00     0.031 A 
BRANCH  40  54
ATOM     54  C   UNL A   1      46.232  28.695  30.381  1.00  0.00    -0.014 A 
ATOM     55  C   UNL A   1      46.607  27.972  31.528  1.00  0.00     0.010 A 
ATOM     56  C   UNL A   1      47.186  28.922  29.373  1.00  0.00     0.010 A 
ATOM     57  C   UNL A   1      47.917  27.509  31.681  1.00  0.00     0.020 A 
ATOM     58  C   UNL A   1      48.491  28.439  29.511  1.00  0.00     0.020 A 
ATOM     59  C   UNL A   1      48.854  27.754  30.674  1.00  0.00     0.054 A 
BRANCH  59  60
ATOM     60  S   UNL A   1      50.555  27.161  30.893  1.00  0.00     0.124 S 
ATOM     61  O   UNL A   1      51.162  28.240  31.665  1.00  0.00    -0.237 OA
ATOM     62  O   UNL A   1      50.366  25.900  31.608  1.00  0.00    -0.237 OA
ATOM     63  O   UNL A   1      51.044  27.019  29.522  1.00  0.00    -0.744 OA
ENDBRANCH  59  60
ENDBRANCH  40  54
BRANCH  41  64
ATOM     64  C   UNL A   1      37.097  32.650  29.566  1.00  0.00    -0.014 A 
ATOM     65  C   UNL A   1      36.763  33.286  28.356  1.00  0.00     0.010 A 
ATOM     66  C   UNL A   1      36.178  32.676  30.630  1.00  0.00     0.010 A 
ATOM     67  C   UNL A   1      35.567  33.995  28.234  1.00  0.00     0.020 A 
ATOM     68  C   UNL A   1      34.965  33.361  30.500  1.00  0.00     0.020 A 
ATOM     69  C   UNL A   1      34.684  34.044  29.315  1.00  0.00     0.054 A 
BRANCH  69  70
ATOM     70  S   UNL A   1      33.167  35.027  29.160  1.00  0.00     0.124 S 
ATOM     71  O   UNL A   1      33.687  36.305  28.684  1.00  0.00    -0.237 OA
ATOM     72  O   UNL A   1      32.387  34.264  28.187  1.00  0.00    -0.237 OA
ATOM     73  O   UNL A   1      32.627  35.035  30.517  1.00  0.00    -0.744 OA
ENDBRANCH  69  70
ENDBRANCH  41  64
BRANCH  53  74
ATOM     74  C   UNL A   1      43.207  34.989  32.074  1.00  0.00    -0.014 A 
ATOM     75  C   UNL A   1      43.011  35.200  33.452  1.00  0.00     0.010 A 
ATOM     76  C   UNL A   1      43.687  36.044  31.279  1.00  0.00     0.010 A 
ATOM     77  C   UNL A   1      43.256  36.453  34.019  1.00  0.00     0.020 A 
ATOM     78  C   UNL A   1      43.958  37.292  31.849  1.00  0.00     0.020 A 
ATOM     79  C   UNL A   1      43.716  37.495  33.210  1.00  0.00     0.054 A 
BRANCH  79  80
ATOM     80  S   UNL A   1      43.998  39.125  33.954  1.00  0.00     0.124 S 
ATOM     81  O   UNL A   1      45.257  39.530  33.338  1.00  0.00    -0.237 OA
ATOM     82  O   UNL A   1      42.820  39.880  33.534  1.00  0.00    -0.237 OA
ATOM     83  O   UNL A   1      44.066  38.840  35.386  1.00  0.00    -0.744 OA
ENDBRANCH  79  80
ENDBRANCH  53  74
ENDBRANCH  27  28
ENDBRANCH  19  22
ENDBRANCH   1  18
TORSDOF 14
ENDMDL
MODEL 3
REMARK VINA RESULT:     -10.9      3.018      9.553
REMARK SMILES Cc1cc(F)c(C(=O)NCCCCNC(=O)c2ccc(-c3c4nc(c(-c5ccc(S(=O)(=O)[O-])cc5)c5ccc([nH]5)c(-c5ccc(S(=O)(=O)[O-])cc5)c5nc(c(-c6ccc(S(=O)(=O)[O-])cc6)c6ccc3[nH]6)C=C5)C=C4)cc2)cc1F
REMARK SMILES IDX 13 1 12 2 11 3 10 4 9 5 7 6 8 7 6 9 1 10 2 11 3 12 78 13
REMARK SMILES IDX 4 14 77 15 79 16 5 17 14 18 15 19 16 21 17 22 18 23 76 24
REMARK SMILES IDX 19 25 75 26 20 27 21 28 22 29 69 30 23 31 74 32 68 33 70 34
REMARK SMILES IDX 24 35 73 36 67 37 66 38 25 40 55 41 36 42 54 43 37 44 40 45
REMARK SMILES IDX 53 46 71 47 38 48 39 49 52 51 72 52 41 53 26 54 27 55 35 56
REMARK SMILES IDX 28 57 34 58 29 59 30 60 31 61 32 62 33 63 56 64 57 65 65 66
REMARK SMILES IDX 58 67 64 68 59 69 60 70 61 71 62 72 63 73 42 74 43 75 51 76
REMARK SMILES IDX 44 77 50 78 45 79 46 80 47 81 48 82 49 83
REMARK H PARENT 9 8 14 20 70 39 40 50
REMARK Flexibility Score: inf
ROOT
ATOM      1  C   UNL A   1      36.998  23.192  25.240  1.00  0.00     0.116 C 
ENDROOT
BRANCH   1   2
ATOM      2  C   UNL A   1      36.147  22.681  24.084  1.00  0.00     0.023 C 
BRANCH   2   3
ATOM      3  C   UNL A   1      35.180  23.682  23.460  1.00  0.00     0.023 C 
BRANCH   3   4
ATOM      4  C   UNL A   1      33.864  23.121  22.931  1.00  0.00     0.116 C 
BRANCH   4   5
ATOM      5  N   UNL A   1      32.824  22.976  23.937  1.00  0.00    -0.352 N 
ATOM      6  C   UNL A   1      32.333  21.852  24.559  1.00  0.00     0.254 C 
ATOM      7  O   UNL A   1      31.489  21.972  25.440  1.00  0.00    -0.269 OA
ATOM      8  H   UNL A   1      32.403  23.821  24.219  1.00  0.00     0.163 HD
BRANCH   6   9
ATOM      9  C   UNL A   1      32.800  20.504  24.176  1.00  0.00     0.078 A 
ATOM     10  C   UNL A   1      34.004  16.448  23.372  1.00  0.00     0.047 C 
ATOM     11  C   UNL A   1      33.649  17.884  23.609  1.00  0.00    -0.012 A 
ATOM     12  C   UNL A   1      34.288  18.633  24.602  1.00  0.00     0.046 A 
ATOM     13  C   UNL A   1      32.620  18.483  22.877  1.00  0.00     0.127 A 
ATOM     14  C   UNL A   1      33.863  19.933  24.879  1.00  0.00     0.136 A 
ATOM     15  C   UNL A   1      32.215  19.791  23.126  1.00  0.00     0.056 A 
ATOM     16  F   UNL A   1      31.984  17.784  21.928  1.00  0.00    -0.207 F 
ATOM     17  F   UNL A   1      34.479  20.596  25.869  1.00  0.00    -0.206 F 
ENDBRANCH   6   9
ENDBRANCH   4   5
ENDBRANCH   3   4
ENDBRANCH   2   3
ENDBRANCH   1   2
BRANCH   1  18
ATOM     18  N   UNL A   1      38.214  22.425  25.470  1.00  0.00    -0.352 N 
ATOM     19  C   UNL A   1      39.385  22.780  26.110  1.00  0.00     0.251 C 
ATOM     20  H   UNL A   1      38.198  21.508  25.113  1.00  0.00     0.163 HD
ATOM     21  O   UNL A   1      40.321  21.996  26.141  1.00  0.00    -0.269 OA
BRANCH  19  22
ATOM     22  C   UNL A   1      39.525  24.131  26.704  1.00  0.00     0.039 A 
ATOM     23  C   UNL A   1      40.154  25.162  26.010  1.00  0.00     0.014 A 
ATOM     24  C   UNL A   1      39.058  24.350  28.005  1.00  0.00     0.014 A 
ATOM     25  C   UNL A   1      40.511  26.326  26.684  1.00  0.00     0.010 A 
ATOM     26  C   UNL A   1      39.330  25.562  28.648  1.00  0.00     0.010 A 
ATOM     27  C   UNL A   1      40.120  26.534  28.017  1.00  0.00    -0.014 A 
BRANCH  27  28
ATOM     28  C   UNL A   1      40.574  27.761  28.728  1.00  0.00     0.031 A 
ATOM     29  C   UNL A   1      42.018  27.935  29.127  1.00  0.00     0.074 A 
ATOM     30  C   UNL A   1      39.695  28.762  28.941  1.00  0.00     0.049 A 
ATOM     31  N   UNL A   1      42.592  28.962  29.700  1.00  0.00    -0.248 NA
ATOM     32  C   UNL A   1      42.937  26.819  28.848  1.00  0.00     0.031 C 
ATOM     33  C   UNL A   1      38.277  28.726  28.579  1.00  0.00     0.029 A 
ATOM     34  N   UNL A   1      39.871  30.018  29.468  1.00  0.00    -0.354 N 
ATOM     35  C   UNL A   1      43.928  28.613  29.864  1.00  0.00     0.074 A 
ATOM     36  C   UNL A   1      44.078  27.267  29.358  1.00  0.00     0.031 C 
ATOM     37  C   UNL A   1      37.731  29.925  28.820  1.00  0.00     0.029 A 
ATOM     38  C   UNL A   1      38.737  30.795  29.422  1.00  0.00     0.049 A 
ATOM     39  H   UNL A   1      40.725  30.331  29.844  1.00  0.00     0.167 HD
ATOM     40  C   UNL A   1      44.942  29.352  30.377  1.00  0.00     0.031 A 
ATOM     41  C   UNL A   1      38.519  32.065  29.819  1.00  0.00     0.031 A 
ATOM     42  C   UNL A   1      44.795  30.700  30.861  1.00  0.00     0.049 A 
ATOM     43  C   UNL A   1      39.648  32.850  30.421  1.00  0.00     0.074 A 
ATOM     44  C   UNL A   1      45.770  31.529  31.389  1.00  0.00     0.029 A 
ATOM     45  N   UNL A   1      43.610  31.421  30.867  1.00  0.00    -0.354 N 
ATOM     46  N   UNL A   1      40.900  32.493  30.580  1.00  0.00    -0.248 NA
ATOM     47  C   UNL A   1      39.339  34.203  30.903  1.00  0.00     0.031 C 
ATOM     48  C   UNL A   1      45.165  32.730  31.765  1.00  0.00     0.029 A 
ATOM     49  C   UNL A   1      43.825  32.675  31.414  1.00  0.00     0.049 A 
ATOM     50  H   UNL A   1      42.746  31.089  30.534  1.00  0.00     0.167 HD
ATOM     51  C   UNL A   1      41.529  33.576  31.181  1.00  0.00     0.074 A 
ATOM     52  C   UNL A   1      40.527  34.611  31.334  1.00  0.00     0.031 C 
ATOM     53  C   UNL A   1      42.820  33.695  31.574  1.00  0.00     0.031 A 
BRANCH  40  54
ATOM     54  C   UNL A   1      46.314  28.733  30.450  1.00  0.00    -0.014 A 
ATOM     55  C   UNL A   1      47.209  28.893  29.375  1.00  0.00     0.010 A 
ATOM     56  C   UNL A   1      46.676  27.899  31.522  1.00  0.00     0.010 A 
ATOM     57  C   UNL A   1      48.428  28.209  29.357  1.00  0.00     0.020 A 
ATOM     58  C   UNL A   1      47.906  27.233  31.520  1.00  0.00     0.020 A 
ATOM     59  C   UNL A   1      48.765  27.375  30.426  1.00  0.00     0.054 A 
BRANCH  59  60
ATOM     60  S   UNL A   1      50.344  26.483  30.382  1.00  0.00     0.124 S 
ATOM     61  O   UNL A   1      50.242  25.614  31.549  1.00  0.00    -0.237 OA
ATOM     62  O   UNL A   1      50.295  25.808  29.085  1.00  0.00    -0.237 OA
ATOM     63  O   UNL A   1      51.340  27.548  30.478  1.00  0.00    -0.744 OA
ENDBRANCH  59  60
ENDBRANCH  40  54
BRANCH  41  64
ATOM     64  C   UNL A   1      37.167  32.656  29.632  1.00  0.00    -0.014 A 
ATOM     65  C   UNL A   1      36.807  33.230  28.398  1.00  0.00     0.010 A 
ATOM     66  C   UNL A   1      36.273  32.743  30.714  1.00  0.00     0.010 A 
ATOM     67  C   UNL A   1      35.611  33.937  28.266  1.00  0.00     0.020 A 
ATOM     68  C   UNL A   1      35.060  33.427  30.575  1.00  0.00     0.020 A 
ATOM     69  C   UNL A   1      34.754  34.048  29.363  1.00  0.00     0.054 A 
BRANCH  69  70
ATOM     70  S   UNL A   1      33.238  35.029  29.191  1.00  0.00     0.124 S 
ATOM     71  O   UNL A   1      33.763  36.311  28.731  1.00  0.00    -0.237 OA
ATOM     72  O   UNL A   1      32.474  34.271  28.202  1.00  0.00    -0.237 OA
ATOM     73  O   UNL A   1      32.678  35.028  30.539  1.00  0.00    -0.744 OA
ENDBRANCH  69  70
ENDBRANCH  41  64
BRANCH  53  74
ATOM     74  C   UNL A   1      43.245  34.982  32.227  1.00  0.00    -0.014 A 
ATOM     75  C   UNL A   1      43.139  35.126  33.623  1.00  0.00     0.010 A 
ATOM     76  C   UNL A   1      43.624  36.089  31.448  1.00  0.00     0.010 A 
ATOM     77  C   UNL A   1      43.371  36.364  34.227  1.00  0.00     0.020 A 
ATOM     78  C   UNL A   1      43.881  37.324  32.053  1.00  0.00     0.020 A 
ATOM     79  C   UNL A   1      43.728  37.459  33.435  1.00  0.00     0.054 A 
BRANCH  79  80
ATOM     80  S   UNL A   1      43.994  39.068  34.230  1.00  0.00     0.124 S 
ATOM     81  O   UNL A   1      43.869  38.735  35.645  1.00  0.00    -0.237 OA
ATOM     82  O   UNL A   1      45.337  39.430  33.785  1.00  0.00    -0.237 OA
ATOM     83  O   UNL A   1      42.921  39.899  33.686  1.00  0.00    -0.744 OA
ENDBRANCH  79  80
ENDBRANCH  53  74
ENDBRANCH  27  28
ENDBRANCH  19  22
ENDBRANCH   1  18
TORSDOF 14
ENDMDL
