MODEL 1
REMARK VINA RESULT:     -11.9      0.000      0.000
REMARK SMILES Cc1cc(C)cc(-c2ccc([C@@H](C)C(=O)NCCCCNC(=O)c3ccc(-c4c5nc(c(-c6ccc(S(=O)(=O)[O-])cc6)c6ccc([nH]6)c(-c6ccc(S(=O)(=O)[O-])cc6)c6nc(c(-c7ccc(S(=O)(=O)[O-])cc7)c7ccc4[nH]7)C=C6)C=C5)cc3)cc2F)c1
REMARK SMILES IDX 19 1 18 2 17 3 16 4 14 5 15 6 12 8 13 9 11 10 8 11 9 12
REMARK SMILES IDX 85 13 10 14 84 15 86 16 7 17 1 18 2 19 3 20 87 21 4 22 5 23
REMARK SMILES IDX 6 24 20 25 21 26 22 27 23 29 24 30 25 31 83 32 26 33 82 34
REMARK SMILES IDX 27 35 28 36 29 37 76 38 30 39 81 40 75 41 77 42 31 43 80 44
REMARK SMILES IDX 74 45 73 46 32 48 62 49 43 50 61 51 44 52 47 53 60 54 78 55
REMARK SMILES IDX 45 56 46 57 59 59 79 60 48 61 33 62 34 63 42 64 35 65 41 66
REMARK SMILES IDX 36 67 37 68 38 69 39 70 40 71 63 72 64 73 72 74 65 75 71 76
REMARK SMILES IDX 66 77 67 78 68 79 69 80 70 81 49 82 50 83 58 84 51 85 57 86
REMARK SMILES IDX 52 87 53 88 54 89 55 90 56 91
REMARK H PARENT 16 7 21 28 77 47 47 58
REMARK Flexibility Score: inf
ROOT
ATOM      1  C   UNL A   1      33.630  28.190  26.034  1.00  0.00     0.023 C 
ENDROOT
BRANCH   1   2
ATOM      2  C   UNL A   1      33.093  29.112  24.940  1.00  0.00     0.023 C 
BRANCH   2   3
ATOM      3  C   UNL A   1      31.577  29.316  24.952  1.00  0.00     0.116 C 
BRANCH   3   4
ATOM      4  N   UNL A   1      31.054  29.631  23.639  1.00  0.00    -0.356 N 
ATOM      5  C   UNL A   1      30.428  28.860  22.708  1.00  0.00     0.227 C 
ATOM      6  O   UNL A   1      30.140  29.407  21.637  1.00  0.00    -0.274 OA
ATOM      7  H   UNL A   1      31.173  30.571  23.371  1.00  0.00     0.163 HD
BRANCH   5   8
ATOM      8  C   UNL A   1      30.061  27.383  22.928  1.00  0.00     0.105 C 
ATOM      9  C   UNL A   1      28.744  27.176  23.676  1.00  0.00     0.023 C 
BRANCH   8  10
ATOM     10  C   UNL A   1      31.235  26.531  23.383  1.00  0.00    -0.033 A 
ATOM     11  C   UNL A   1      33.318  24.751  24.231  1.00  0.00     0.017 A 
ATOM     12  C   UNL A   1      33.405  25.481  23.033  1.00  0.00     0.012 A 
ATOM     13  C   UNL A   1      32.172  24.974  25.010  1.00  0.00     0.131 A 
ATOM     14  C   UNL A   1      32.404  26.376  22.633  1.00  0.00     0.005 A 
ATOM     15  C   UNL A   1      31.144  25.825  24.592  1.00  0.00     0.044 A 
ATOM     16  F   UNL A   1      32.025  24.367  26.200  1.00  0.00    -0.206 F 
BRANCH  11  17
ATOM     17  C   UNL A   1      34.376  23.781  24.606  1.00  0.00    -0.015 A 
ATOM     18  C   UNL A   1      37.926  23.757  26.045  1.00  0.00     0.044 C 
ATOM     19  C   UNL A   1      36.602  23.285  25.521  1.00  0.00    -0.050 A 
ATOM     20  C   UNL A   1      36.335  21.915  25.438  1.00  0.00     0.006 A 
ATOM     21  C   UNL A   1      35.620  24.201  25.112  1.00  0.00     0.012 A 
ATOM     22  C   UNL A   1      35.109  21.459  24.947  1.00  0.00    -0.050 A 
ATOM     23  C   UNL A   1      34.824  19.988  24.890  1.00  0.00     0.044 C 
ATOM     24  C   UNL A   1      34.155  22.393  24.520  1.00  0.00     0.012 A 
ENDBRANCH  11  17
ENDBRANCH   8  10
ENDBRANCH   5   8
ENDBRANCH   3   4
ENDBRANCH   2   3
ENDBRANCH   1   2
BRANCH   1  25
ATOM     25  C   UNL A   1      33.337  28.627  27.466  1.00  0.00     0.116 C 
BRANCH  25  26
ATOM     26  N   UNL A   1      33.382  30.069  27.668  1.00  0.00    -0.352 N 
ATOM     27  C   UNL A   1      34.453  30.838  28.071  1.00  0.00     0.251 C 
ATOM     28  H   UNL A   1      32.544  30.554  27.495  1.00  0.00     0.163 HD
ATOM     29  O   UNL A   1      34.320  32.038  28.263  1.00  0.00    -0.269 OA
BRANCH  27  30
ATOM     30  C   UNL A   1      35.752  30.175  28.317  1.00  0.00     0.039 A 
ATOM     31  C   UNL A   1      36.695  30.134  27.287  1.00  0.00     0.014 A 
ATOM     32  C   UNL A   1      36.063  29.676  29.584  1.00  0.00     0.014 A 
ATOM     33  C   UNL A   1      37.987  29.678  27.556  1.00  0.00     0.010 A 
ATOM     34  C   UNL A   1      37.367  29.283  29.864  1.00  0.00     0.010 A 
ATOM     35  C   UNL A   1      38.347  29.298  28.859  1.00  0.00    -0.014 A 
BRANCH  35  36
ATOM     36  C   UNL A   1      39.747  28.952  29.208  1.00  0.00     0.031 A 
ATOM     37  C   UNL A   1      40.648  29.983  29.826  1.00  0.00     0.074 A 
ATOM     38  C   UNL A   1      40.235  27.740  28.874  1.00  0.00     0.049 A 
ATOM     39  N   UNL A   1      41.925  29.905  30.099  1.00  0.00    -0.248 NA
ATOM     40  C   UNL A   1      40.041  31.284  30.153  1.00  0.00     0.031 C 
ATOM     41  C   UNL A   1      39.477  26.669  28.220  1.00  0.00     0.029 A 
ATOM     42  N   UNL A   1      41.493  27.210  29.022  1.00  0.00    -0.354 N 
ATOM     43  C   UNL A   1      42.281  31.150  30.601  1.00  0.00     0.074 A 
ATOM     44  C   UNL A   1      41.094  31.977  30.564  1.00  0.00     0.031 C 
ATOM     45  C   UNL A   1      40.280  25.608  28.038  1.00  0.00     0.029 A 
ATOM     46  C   UNL A   1      41.616  25.933  28.527  1.00  0.00     0.049 A 
ATOM     47  H   UNL A   1      42.237  27.699  29.443  1.00  0.00     0.167 HD
ATOM     48  C   UNL A   1      43.484  31.564  31.064  1.00  0.00     0.031 A 
ATOM     49  C   UNL A   1      42.687  25.118  28.462  1.00  0.00     0.031 A 
ATOM     50  C   UNL A   1      44.656  30.733  31.125  1.00  0.00     0.049 A 
ATOM     51  C   UNL A   1      44.007  25.593  29.003  1.00  0.00     0.074 A 
ATOM     52  C   UNL A   1      45.900  31.039  31.648  1.00  0.00     0.029 A 
ATOM     53  N   UNL A   1      44.729  29.434  30.648  1.00  0.00    -0.354 N 
ATOM     54  N   UNL A   1      44.305  26.751  29.540  1.00  0.00    -0.248 NA
ATOM     55  C   UNL A   1      45.132  24.649  28.935  1.00  0.00     0.031 C 
ATOM     56  C   UNL A   1      46.737  29.935  31.454  1.00  0.00     0.029 A 
ATOM     57  C   UNL A   1      46.003  28.929  30.847  1.00  0.00     0.049 A 
ATOM     58  H   UNL A   1      43.986  28.942  30.230  1.00  0.00     0.167 HD
ATOM     59  C   UNL A   1      45.648  26.669  29.891  1.00  0.00     0.074 A 
ATOM     60  C   UNL A   1      46.100  25.344  29.518  1.00  0.00     0.031 C 
ATOM     61  C   UNL A   1      46.435  27.607  30.470  1.00  0.00     0.031 A 
BRANCH  48  62
ATOM     62  C   UNL A   1      43.589  32.987  31.541  1.00  0.00    -0.014 A 
ATOM     63  C   UNL A   1      43.969  34.018  30.662  1.00  0.00     0.010 A 
ATOM     64  C   UNL A   1      43.278  33.302  32.875  1.00  0.00     0.010 A 
ATOM     65  C   UNL A   1      44.080  35.332  31.122  1.00  0.00     0.020 A 
ATOM     66  C   UNL A   1      43.363  34.620  33.332  1.00  0.00     0.020 A 
ATOM     67  C   UNL A   1      43.783  35.624  32.456  1.00  0.00     0.054 A 
BRANCH  67  68
ATOM     68  S   UNL A   1      43.922  37.341  33.025  1.00  0.00     0.124 S 
ATOM     69  O   UNL A   1      43.809  38.081  31.772  1.00  0.00    -0.237 OA
ATOM     70  O   UNL A   1      42.788  37.472  33.935  1.00  0.00    -0.237 OA
ATOM     71  O   UNL A   1      45.236  37.389  33.662  1.00  0.00    -0.744 OA
ENDBRANCH  67  68
ENDBRANCH  48  62
BRANCH  49  72
ATOM     72  C   UNL A   1      42.550  23.761  27.871  1.00  0.00    -0.014 A 
ATOM     73  C   UNL A   1      42.812  23.552  26.505  1.00  0.00     0.010 A 
ATOM     74  C   UNL A   1      42.172  22.668  28.672  1.00  0.00     0.010 A 
ATOM     75  C   UNL A   1      42.687  22.276  25.948  1.00  0.00     0.020 A 
ATOM     76  C   UNL A   1      42.068  21.387  28.122  1.00  0.00     0.020 A 
ATOM     77  C   UNL A   1      42.317  21.201  26.760  1.00  0.00     0.054 A 
BRANCH  77  78
ATOM     78  S   UNL A   1      42.217  19.542  26.031  1.00  0.00     0.124 S 
ATOM     79  O   UNL A   1      40.796  19.435  25.715  1.00  0.00    -0.237 OA
ATOM     80  O   UNL A   1      43.114  19.646  24.882  1.00  0.00    -0.237 OA
ATOM     81  O   UNL A   1      42.691  18.670  27.103  1.00  0.00    -0.744 OA
ENDBRANCH  77  78
ENDBRANCH  49  72
BRANCH  61  82
ATOM     82  C   UNL A   1      47.862  27.233  30.758  1.00  0.00    -0.014 A 
ATOM     83  C   UNL A   1      48.200  26.513  31.916  1.00  0.00     0.010 A 
ATOM     84  C   UNL A   1      48.866  27.549  29.825  1.00  0.00     0.010 A 
ATOM     85  C   UNL A   1      49.524  26.128  32.145  1.00  0.00     0.020 A 
ATOM     86  C   UNL A   1      50.187  27.149  30.040  1.00  0.00     0.020 A 
ATOM     87  C   UNL A   1      50.509  26.449  31.205  1.00  0.00     0.054 A 
BRANCH  87  88
ATOM     88  S   UNL A   1      52.210  25.886  31.492  1.00  0.00     0.124 S 
ATOM     89  O   UNL A   1      52.796  26.006  30.161  1.00  0.00    -0.237 OA
ATOM     90  O   UNL A   1      52.702  26.840  32.484  1.00  0.00    -0.237 OA
ATOM     91  O   UNL A   1      52.044  24.520  31.981  1.00  0.00    -0.744 OA
ENDBRANCH  87  88
ENDBRANCH  61  82
ENDBRANCH  35  36
ENDBRANCH  27  30
ENDBRANCH  25  26
ENDBRANCH   1  25
TORSDOF 16
ENDMDL
MODEL 2
REMARK VINA RESULT:     -11.4      2.705      3.408
REMARK SMILES Cc1cc(C)cc(-c2ccc([C@@H](C)C(=O)NCCCCNC(=O)c3ccc(-c4c5nc(c(-c6ccc(S(=O)(=O)[O-])cc6)c6ccc([nH]6)c(-c6ccc(S(=O)(=O)[O-])cc6)c6nc(c(-c7ccc(S(=O)(=O)[O-])cc7)c7ccc4[nH]7)C=C6)C=C5)cc3)cc2F)c1
REMARK SMILES IDX 19 1 18 2 17 3 16 4 14 5 15 6 12 8 13 9 11 10 8 11 9 12
REMARK SMILES IDX 85 13 10 14 84 15 86 16 7 17 1 18 2 19 3 20 87 21 4 22 5 23
REMARK SMILES IDX 6 24 20 25 21 26 22 27 23 29 24 30 25 31 83 32 26 33 82 34
REMARK SMILES IDX 27 35 28 36 29 37 76 38 30 39 81 40 75 41 77 42 31 43 80 44
REMARK SMILES IDX 74 45 73 46 32 48 62 49 43 50 61 51 44 52 47 53 60 54 78 55
REMARK SMILES IDX 45 56 46 57 59 59 79 60 48 61 33 62 34 63 42 64 35 65 41 66
REMARK SMILES IDX 36 67 37 68 38 69 39 70 40 71 63 72 64 73 72 74 65 75 71 76
REMARK SMILES IDX 66 77 67 78 68 79 69 80 70 81 49 82 50 83 58 84 51 85 57 86
REMARK SMILES IDX 52 87 53 88 54 89 55 90 56 91
REMARK H PARENT 16 7 21 28 77 47 47 58
REMARK Flexibility Score: inf
ROOT
ATOM      1  C   UNL A   1      34.542  28.974  27.389  1.00  0.00     0.023 C 
ENDROOT
BRANCH   1   2
ATOM      2  C   UNL A   1      33.033  29.174  27.244  1.00  0.00     0.023 C 
BRANCH   2   3
ATOM      3  C   UNL A   1      32.610  30.105  26.107  1.00  0.00     0.116 C 
BRANCH   3   4
ATOM      4  N   UNL A   1      31.781  29.434  25.127  1.00  0.00    -0.356 N 
ATOM      5  C   UNL A   1      32.096  28.595  24.101  1.00  0.00     0.227 C 
ATOM      6  O   UNL A   1      31.159  28.216  23.388  1.00  0.00    -0.274 OA
ATOM      7  H   UNL A   1      30.819  29.616  25.219  1.00  0.00     0.163 HD
BRANCH   5   8
ATOM      8  C   UNL A   1      33.521  28.102  23.807  1.00  0.00     0.105 C 
ATOM      9  C   UNL A   1      34.123  28.675  22.523  1.00  0.00     0.023 C 
BRANCH   8  10
ATOM     10  C   UNL A   1      33.700  26.608  24.025  1.00  0.00    -0.033 A 
ATOM     11  C   UNL A   1      34.208  23.799  24.303  1.00  0.00     0.017 A 
ATOM     12  C   UNL A   1      34.296  24.682  25.393  1.00  0.00     0.012 A 
ATOM     13  C   UNL A   1      33.816  24.363  23.079  1.00  0.00     0.131 A 
ATOM     14  C   UNL A   1      34.016  26.050  25.267  1.00  0.00     0.005 A 
ATOM     15  C   UNL A   1      33.587  25.735  22.934  1.00  0.00     0.044 A 
ATOM     16  F   UNL A   1      33.647  23.591  21.992  1.00  0.00    -0.206 F 
BRANCH  11  17
ATOM     17  C   UNL A   1      34.550  22.364  24.461  1.00  0.00    -0.015 A 
ATOM     18  C   UNL A   1      37.628  20.144  24.984  1.00  0.00     0.044 C 
ATOM     19  C   UNL A   1      36.201  20.582  24.828  1.00  0.00    -0.050 A 
ATOM     20  C   UNL A   1      35.173  19.637  24.892  1.00  0.00     0.006 A 
ATOM     21  C   UNL A   1      35.879  21.932  24.622  1.00  0.00     0.012 A 
ATOM     22  C   UNL A   1      33.839  20.027  24.744  1.00  0.00    -0.050 A 
ATOM     23  C   UNL A   1      32.743  19.009  24.842  1.00  0.00     0.044 C 
ATOM     24  C   UNL A   1      33.545  21.378  24.511  1.00  0.00     0.012 A 
ENDBRANCH  11  17
ENDBRANCH   8  10
ENDBRANCH   5   8
ENDBRANCH   3   4
ENDBRANCH   2   3
ENDBRANCH   1   2
BRANCH   1  25
ATOM     25  C   UNL A   1      35.350  30.236  27.674  1.00  0.00     0.116 C 
BRANCH  25  26
ATOM     26  N   UNL A   1      35.325  30.655  29.069  1.00  0.00    -0.352 N 
ATOM     27  C   UNL A   1      36.300  30.476  30.027  1.00  0.00     0.251 C 
ATOM     28  H   UNL A   1      34.512  31.123  29.364  1.00  0.00     0.163 HD
ATOM     29  O   UNL A   1      36.108  30.824  31.184  1.00  0.00    -0.269 OA
BRANCH  27  30
ATOM     30  C   UNL A   1      37.561  29.805  29.643  1.00  0.00     0.039 A 
ATOM     31  C   UNL A   1      38.019  29.932  28.329  1.00  0.00     0.014 A 
ATOM     32  C   UNL A   1      38.325  29.130  30.598  1.00  0.00     0.014 A 
ATOM     33  C   UNL A   1      39.291  29.462  27.996  1.00  0.00     0.010 A 
ATOM     34  C   UNL A   1      39.615  28.722  30.280  1.00  0.00     0.010 A 
ATOM     35  C   UNL A   1      40.119  28.900  28.982  1.00  0.00    -0.014 A 
BRANCH  35  36
ATOM     36  C   UNL A   1      41.527  28.530  28.695  1.00  0.00     0.031 A 
ATOM     37  C   UNL A   1      42.598  29.584  28.688  1.00  0.00     0.074 A 
ATOM     38  C   UNL A   1      41.822  27.263  28.341  1.00  0.00     0.049 A 
ATOM     39  N   UNL A   1      43.858  29.475  28.355  1.00  0.00    -0.248 NA
ATOM     40  C   UNL A   1      42.193  30.944  29.079  1.00  0.00     0.031 C 
ATOM     41  C   UNL A   1      40.861  26.159  28.256  1.00  0.00     0.029 A 
ATOM     42  N   UNL A   1      43.013  26.693  27.967  1.00  0.00    -0.354 N 
ATOM     43  C   UNL A   1      44.390  30.754  28.466  1.00  0.00     0.074 A 
ATOM     44  C   UNL A   1      43.309  31.628  28.866  1.00  0.00     0.031 C 
ATOM     45  C   UNL A   1      41.504  25.044  27.872  1.00  0.00     0.029 A 
ATOM     46  C   UNL A   1      42.911  25.360  27.647  1.00  0.00     0.049 A 
ATOM     47  H   UNL A   1      43.861  27.192  27.931  1.00  0.00     0.167 HD
ATOM     48  C   UNL A   1      45.666  31.161  28.268  1.00  0.00     0.031 A 
ATOM     49  C   UNL A   1      43.842  24.489  27.210  1.00  0.00     0.031 A 
ATOM     50  C   UNL A   1      46.745  30.285  27.897  1.00  0.00     0.049 A 
ATOM     51  C   UNL A   1      45.256  24.960  27.018  1.00  0.00     0.074 A 
ATOM     52  C   UNL A   1      48.086  30.590  27.747  1.00  0.00     0.029 A 
ATOM     53  N   UNL A   1      46.606  28.934  27.618  1.00  0.00    -0.354 N 
ATOM     54  N   UNL A   1      45.754  26.160  27.198  1.00  0.00    -0.248 NA
ATOM     55  C   UNL A   1      46.236  23.959  26.571  1.00  0.00     0.031 C 
ATOM     56  C   UNL A   1      48.754  29.429  27.342  1.00  0.00     0.029 A 
ATOM     57  C   UNL A   1      47.835  28.395  27.278  1.00  0.00     0.049 A 
ATOM     58  H   UNL A   1      45.761  28.433  27.657  1.00  0.00     0.167 HD
ATOM     59  C   UNL A   1      47.108  26.054  26.904  1.00  0.00     0.074 A 
ATOM     60  C   UNL A   1      47.355  24.672  26.547  1.00  0.00     0.031 C 
ATOM     61  C   UNL A   1      48.062  27.016  26.927  1.00  0.00     0.031 A 
BRANCH  48  62
ATOM     62  C   UNL A   1      45.961  32.624  28.448  1.00  0.00    -0.014 A 
ATOM     63  C   UNL A   1      45.854  33.522  27.370  1.00  0.00     0.010 A 
ATOM     64  C   UNL A   1      46.321  33.114  29.716  1.00  0.00     0.010 A 
ATOM     65  C   UNL A   1      46.148  34.876  27.547  1.00  0.00     0.020 A 
ATOM     66  C   UNL A   1      46.592  34.473  29.902  1.00  0.00     0.020 A 
ATOM     67  C   UNL A   1      46.522  35.342  28.810  1.00  0.00     0.054 A 
BRANCH  67  68
ATOM     68  S   UNL A   1      46.886  37.107  29.016  1.00  0.00     0.124 S 
ATOM     69  O   UNL A   1      46.973  37.558  27.630  1.00  0.00    -0.237 OA
ATOM     70  O   UNL A   1      45.726  37.591  29.761  1.00  0.00    -0.237 OA
ATOM     71  O   UNL A   1      48.146  37.117  29.757  1.00  0.00    -0.744 OA
ENDBRANCH  67  68
ENDBRANCH  48  62
BRANCH  49  72
ATOM     72  C   UNL A   1      43.465  23.077  26.935  1.00  0.00    -0.014 A 
ATOM     73  C   UNL A   1      43.712  22.510  25.672  1.00  0.00     0.010 A 
ATOM     74  C   UNL A   1      42.873  22.288  27.937  1.00  0.00     0.010 A 
ATOM     75  C   UNL A   1      43.361  21.182  25.412  1.00  0.00     0.020 A 
ATOM     76  C   UNL A   1      42.542  20.953  27.688  1.00  0.00     0.020 A 
ATOM     77  C   UNL A   1      42.779  20.412  26.422  1.00  0.00     0.054 A 
BRANCH  77  78
ATOM     78  S   UNL A   1      42.385  18.673  26.084  1.00  0.00     0.124 S 
ATOM     79  O   UNL A   1      42.669  18.042  27.369  1.00  0.00    -0.237 OA
ATOM     80  O   UNL A   1      40.975  18.734  25.707  1.00  0.00    -0.237 OA
ATOM     81  O   UNL A   1      43.297  18.323  24.996  1.00  0.00    -0.744 OA
ENDBRANCH  77  78
ENDBRANCH  49  72
BRANCH  61  82
ATOM     82  C   UNL A   1      49.466  26.609  26.578  1.00  0.00    -0.014 A 
ATOM     83  C   UNL A   1      50.338  26.108  27.559  1.00  0.00     0.010 A 
ATOM     84  C   UNL A   1      49.895  26.666  25.239  1.00  0.00     0.010 A 
ATOM     85  C   UNL A   1      51.624  25.686  27.210  1.00  0.00     0.020 A 
ATOM     86  C   UNL A   1      51.172  26.227  24.883  1.00  0.00     0.020 A 
ATOM     87  C   UNL A   1      52.032  25.748  25.875  1.00  0.00     0.054 A 
BRANCH  87  88
ATOM     88  S   UNL A   1      53.683  25.138  25.434  1.00  0.00     0.124 S 
ATOM     89  O   UNL A   1      53.902  25.769  24.136  1.00  0.00    -0.237 OA
ATOM     90  O   UNL A   1      54.515  25.639  26.525  1.00  0.00    -0.237 OA
ATOM     91  O   UNL A   1      53.518  23.687  25.402  1.00  0.00    -0.744 OA
ENDBRANCH  87  88
ENDBRANCH  61  82
ENDBRANCH  35  36
ENDBRANCH  27  30
ENDBRANCH  25  26
ENDBRANCH   1  25
TORSDOF 16
ENDMDL
MODEL 3
REMARK VINA RESULT:     -10.8      6.091     12.459
REMARK SMILES Cc1cc(C)cc(-c2ccc([C@@H](C)C(=O)NCCCCNC(=O)c3ccc(-c4c5nc(c(-c6ccc(S(=O)(=O)[O-])cc6)c6ccc([nH]6)c(-c6ccc(S(=O)(=O)[O-])cc6)c6nc(c(-c7ccc(S(=O)(=O)[O-])cc7)c7ccc4[nH]7)C=C6)C=C5)cc3)cc2F)c1
REMARK SMILES IDX 19 1 18 2 17 3 16 4 14 5 15 6 12 8 13 9 11 10 8 11 9 12
REMARK SMILES IDX 85 13 10 14 84 15 86 16 7 17 1 18 2 19 3 20 87 21 4 22 5 23
REMARK SMILES IDX 6 24 20 25 21 26 22 27 23 29 24 30 25 31 83 32 26 33 82 34
REMARK SMILES IDX 27 35 28 36 29 37 76 38 30 39 81 40 75 41 77 42 31 43 80 44
REMARK SMILES IDX 74 45 73 46 32 48 62 49 43 50 61 51 44 52 47 53 60 54 78 55
REMARK SMILES IDX 45 56 46 57 59 59 79 60 48 61 33 62 34 63 42 64 35 65 41 66
REMARK SMILES IDX 36 67 37 68 38 69 39 70 40 71 63 72 64 73 72 74 65 75 71 76
REMARK SMILES IDX 66 77 67 78 68 79 69 80 70 81 49 82 50 83 58 84 51 85 57 86
REMARK SMILES IDX 52 87 53 88 54 89 55 90 56 91
REMARK H PARENT 16 7 21 28 77 47 47 58
REMARK Flexibility Score: inf
ROOT
ATOM      1  C   UNL A   1      43.818  22.855  26.988  1.00  0.00     0.023 C 
ENDROOT
BRANCH   1   2
ATOM      2  C   UNL A   1      44.439  22.970  25.595  1.00  0.00     0.023 C 
BRANCH   2   3
ATOM      3  C   UNL A   1      45.337  24.189  25.386  1.00  0.00     0.116 C 
BRANCH   3   4
ATOM      4  N   UNL A   1      46.546  24.124  26.182  1.00  0.00    -0.356 N 
ATOM      5  C   UNL A   1      46.910  24.771  27.324  1.00  0.00     0.227 C 
ATOM      6  O   UNL A   1      48.049  24.546  27.749  1.00  0.00    -0.274 OA
ATOM      7  H   UNL A   1      47.225  23.501  25.837  1.00  0.00     0.163 HD
BRANCH   5   8
ATOM      8  C   UNL A   1      45.990  25.733  28.093  1.00  0.00     0.105 C 
ATOM      9  C   UNL A   1      46.331  27.210  27.894  1.00  0.00     0.023 C 
BRANCH   8  10
ATOM     10  C   UNL A   1      45.715  25.292  29.521  1.00  0.00    -0.033 A 
ATOM     11  C   UNL A   1      45.133  24.664  32.259  1.00  0.00     0.017 A 
ATOM     12  C   UNL A   1      44.449  24.053  31.193  1.00  0.00     0.012 A 
ATOM     13  C   UNL A   1      46.146  25.567  31.906  1.00  0.00     0.131 A 
ATOM     14  C   UNL A   1      44.754  24.334  29.854  1.00  0.00     0.005 A 
ATOM     15  C   UNL A   1      46.421  25.893  30.574  1.00  0.00     0.044 A 
ATOM     16  F   UNL A   1      46.896  26.158  32.852  1.00  0.00    -0.206 F 
BRANCH  11  17
ATOM     17  C   UNL A   1      44.758  24.374  33.664  1.00  0.00    -0.015 A 
ATOM     18  C   UNL A   1      41.773  24.798  36.029  1.00  0.00     0.044 C 
ATOM     19  C   UNL A   1      43.119  24.402  35.495  1.00  0.00    -0.050 A 
ATOM     20  C   UNL A   1      44.011  23.699  36.309  1.00  0.00     0.006 A 
ATOM     21  C   UNL A   1      43.497  24.725  34.182  1.00  0.00     0.012 A 
ATOM     22  C   UNL A   1      45.269  23.327  35.830  1.00  0.00    -0.050 A 
ATOM     23  C   UNL A   1      46.206  22.548  36.704  1.00  0.00     0.044 C 
ATOM     24  C   UNL A   1      45.635  23.685  34.524  1.00  0.00     0.012 A 
ENDBRANCH  11  17
ENDBRANCH   8  10
ENDBRANCH   5   8
ENDBRANCH   3   4
ENDBRANCH   2   3
ENDBRANCH   1   2
BRANCH   1  25
ATOM     25  C   UNL A   1      42.361  23.294  27.097  1.00  0.00     0.116 C 
BRANCH  25  26
ATOM     26  N   UNL A   1      41.899  24.103  25.977  1.00  0.00    -0.352 N 
ATOM     27  C   UNL A   1      41.456  25.409  25.997  1.00  0.00     0.251 C 
ATOM     28  H   UNL A   1      41.903  23.663  25.098  1.00  0.00     0.163 HD
ATOM     29  O   UNL A   1      41.032  25.938  24.980  1.00  0.00    -0.269 OA
BRANCH  27  30
ATOM     30  C   UNL A   1      41.452  26.139  27.284  1.00  0.00     0.039 A 
ATOM     31  C   UNL A   1      42.499  27.021  27.561  1.00  0.00     0.014 A 
ATOM     32  C   UNL A   1      40.377  26.015  28.166  1.00  0.00     0.014 A 
ATOM     33  C   UNL A   1      42.421  27.852  28.680  1.00  0.00     0.010 A 
ATOM     34  C   UNL A   1      40.270  26.888  29.243  1.00  0.00     0.010 A 
ATOM     35  C   UNL A   1      41.281  27.827  29.501  1.00  0.00    -0.014 A 
BRANCH  35  36
ATOM     36  C   UNL A   1      41.100  28.798  30.608  1.00  0.00     0.031 A 
ATOM     37  C   UNL A   1      41.934  28.688  31.853  1.00  0.00     0.074 A 
ATOM     38  C   UNL A   1      40.115  29.716  30.533  1.00  0.00     0.049 A 
ATOM     39  N   UNL A   1      41.848  29.370  32.966  1.00  0.00    -0.248 NA
ATOM     40  C   UNL A   1      42.984  27.656  31.859  1.00  0.00     0.031 C 
ATOM     41  C   UNL A   1      39.200  29.889  29.401  1.00  0.00     0.029 A 
ATOM     42  N   UNL A   1      39.705  30.665  31.436  1.00  0.00    -0.354 N 
ATOM     43  C   UNL A   1      42.808  28.834  33.814  1.00  0.00     0.074 A 
ATOM     44  C   UNL A   1      43.443  27.746  33.100  1.00  0.00     0.031 C 
ATOM     45  C   UNL A   1      38.349  30.892  29.672  1.00  0.00     0.029 A 
ATOM     46  C   UNL A   1      38.631  31.408  31.008  1.00  0.00     0.049 A 
ATOM     47  H   UNL A   1      40.139  30.799  32.310  1.00  0.00     0.167 HD
ATOM     48  C   UNL A   1      43.142  29.219  35.068  1.00  0.00     0.031 A 
ATOM     49  C   UNL A   1      37.941  32.389  31.623  1.00  0.00     0.031 A 
ATOM     50  C   UNL A   1      42.528  30.316  35.766  1.00  0.00     0.049 A 
ATOM     51  C   UNL A   1      38.345  32.813  33.008  1.00  0.00     0.074 A 
ATOM     52  C   UNL A   1      42.850  30.831  37.009  1.00  0.00     0.029 A 
ATOM     53  N   UNL A   1      41.469  31.068  35.281  1.00  0.00    -0.354 N 
ATOM     54  N   UNL A   1      39.304  32.339  33.766  1.00  0.00    -0.248 NA
ATOM     55  C   UNL A   1      37.577  33.909  33.617  1.00  0.00     0.031 C 
ATOM     56  C   UNL A   1      41.959  31.873  37.293  1.00  0.00     0.029 A 
ATOM     57  C   UNL A   1      41.111  32.031  36.209  1.00  0.00     0.049 A 
ATOM     58  H   UNL A   1      41.036  30.937  34.408  1.00  0.00     0.167 HD
ATOM     59  C   UNL A   1      39.268  33.091  34.934  1.00  0.00     0.074 A 
ATOM     60  C   UNL A   1      38.201  34.059  34.778  1.00  0.00     0.031 C 
ATOM     61  C   UNL A   1      40.047  32.987  36.037  1.00  0.00     0.031 A 
BRANCH  48  62
ATOM     62  C   UNL A   1      44.223  28.440  35.766  1.00  0.00    -0.014 A 
ATOM     63  C   UNL A   1      45.547  28.455  35.291  1.00  0.00     0.010 A 
ATOM     64  C   UNL A   1      43.918  27.709  36.928  1.00  0.00     0.010 A 
ATOM     65  C   UNL A   1      46.538  27.713  35.939  1.00  0.00     0.020 A 
ATOM     66  C   UNL A   1      44.912  26.986  37.593  1.00  0.00     0.020 A 
ATOM     67  C   UNL A   1      46.212  26.978  37.083  1.00  0.00     0.054 A 
BRANCH  67  68
ATOM     68  S   UNL A   1      47.520  26.035  37.914  1.00  0.00     0.124 S 
ATOM     69  O   UNL A   1      48.247  27.087  38.618  1.00  0.00    -0.237 OA
ATOM     70  O   UNL A   1      46.766  25.117  38.763  1.00  0.00    -0.237 OA
ATOM     71  O   UNL A   1      48.245  25.405  36.812  1.00  0.00    -0.744 OA
ENDBRANCH  67  68
ENDBRANCH  48  62
BRANCH  49  72
ATOM     72  C   UNL A   1      36.803  33.044  30.926  1.00  0.00    -0.014 A 
ATOM     73  C   UNL A   1      35.484  32.822  31.358  1.00  0.00     0.010 A 
ATOM     74  C   UNL A   1      37.033  33.905  29.838  1.00  0.00     0.010 A 
ATOM     75  C   UNL A   1      34.413  33.439  30.707  1.00  0.00     0.020 A 
ATOM     76  C   UNL A   1      35.965  34.543  29.199  1.00  0.00     0.020 A 
ATOM     77  C   UNL A   1      34.660  34.297  29.632  1.00  0.00     0.054 A 
BRANCH  77  78
ATOM     78  S   UNL A   1      33.260  35.135  28.836  1.00  0.00     0.124 S 
ATOM     79  O   UNL A   1      33.924  36.217  28.117  1.00  0.00    -0.237 OA
ATOM     80  O   UNL A   1      32.689  34.079  28.004  1.00  0.00    -0.237 OA
ATOM     81  O   UNL A   1      32.426  35.548  29.963  1.00  0.00    -0.744 OA
ENDBRANCH  77  78
ENDBRANCH  49  72
BRANCH  61  82
ATOM     82  C   UNL A   1      39.795  33.957  37.157  1.00  0.00    -0.014 A 
ATOM     83  C   UNL A   1      38.934  33.628  38.218  1.00  0.00     0.010 A 
ATOM     84  C   UNL A   1      40.480  35.186  37.181  1.00  0.00     0.010 A 
ATOM     85  C   UNL A   1      38.748  34.520  39.278  1.00  0.00     0.020 A 
ATOM     86  C   UNL A   1      40.313  36.071  38.249  1.00  0.00     0.020 A 
ATOM     87  C   UNL A   1      39.439  35.735  39.286  1.00  0.00     0.054 A 
BRANCH  87  88
ATOM     88  S   UNL A   1      39.232  36.851  40.702  1.00  0.00     0.124 S 
ATOM     89  O   UNL A   1      40.605  37.278  40.954  1.00  0.00    -0.237 OA
ATOM     90  O   UNL A   1      38.340  37.881  40.174  1.00  0.00    -0.237 OA
ATOM     91  O   UNL A   1      38.645  35.997  41.732  1.00  0.00    -0.744 OA
ENDBRANCH  87  88
ENDBRANCH  61  82
ENDBRANCH  35  36
ENDBRANCH  27  30
ENDBRANCH  25  26
ENDBRANCH   1  25
TORSDOF 16
ENDMDL
