MODEL 1
REMARK VINA RESULT:     -10.5      0.000      0.000
REMARK SMILES O=C(NCCCCNC(=O)c1cc(OCc2ccc(F)cc2)cs1)c1ccc(-c2c3nc(c(-c4ccc(S(=O)(=O)[O-])cc4)c4ccc([nH]4)c(-c4ccc(S(=O)(=O)[O-])cc4)c4nc(c(-c5ccc(S(=O)(=O)[O-])cc5)c5ccc2[nH]5)C=C4)C=C3)cc1
REMARK SMILES IDX 5 1 4 2 3 3 1 4 2 5 25 7 26 8 84 9 27 10 83 11 28 12 29 13
REMARK SMILES IDX 30 14 77 15 31 16 82 17 76 18 78 19 32 20 81 21 75 22 74 23
REMARK SMILES IDX 33 25 63 26 44 27 62 28 45 29 48 30 61 31 79 32 46 33 47 34
REMARK SMILES IDX 60 36 80 37 49 38 34 39 35 40 43 41 36 42 42 43 37 44 38 45
REMARK SMILES IDX 39 46 40 47 41 48 64 49 65 50 73 51 66 52 72 53 67 54 68 55
REMARK SMILES IDX 69 56 70 57 71 58 50 59 51 60 59 61 52 62 58 63 53 64 54 65
REMARK SMILES IDX 55 66 56 67 57 68 6 69 7 70 8 71 9 72 10 74 11 75 12 76
REMARK SMILES IDX 24 77 13 78 23 79 14 80 15 81 16 82 17 83 22 84 18 85 21 86
REMARK SMILES IDX 19 87 20 88
REMARK H PARENT 3 6 78 24 48 35 8 73
REMARK Flexibility Score: inf
ROOT
ATOM      1  C   UNL A   1      33.548  27.967  25.623  1.00  0.00     0.023 C 
ENDROOT
BRANCH   1   2
ATOM      2  C   UNL A   1      33.627  28.246  27.118  1.00  0.00     0.116 C 
BRANCH   2   3
ATOM      3  N   UNL A   1      33.486  29.654  27.462  1.00  0.00    -0.352 N 
ATOM      4  O   UNL A   1      34.092  31.651  28.323  1.00  0.00    -0.269 OA
ATOM      5  C   UNL A   1      34.415  30.508  28.012  1.00  0.00     0.251 C 
ATOM      6  H   UNL A   1      32.604  30.050  27.274  1.00  0.00     0.163 HD
BRANCH   5   7
ATOM      7  C   UNL A   1      35.795  30.034  28.271  1.00  0.00     0.039 A 
ATOM      8  C   UNL A   1      36.160  29.546  29.525  1.00  0.00     0.014 A 
ATOM      9  C   UNL A   1      36.742  30.104  27.244  1.00  0.00     0.014 A 
ATOM     10  C   UNL A   1      37.499  29.290  29.802  1.00  0.00     0.010 A 
ATOM     11  C   UNL A   1      38.074  29.758  27.499  1.00  0.00     0.010 A 
ATOM     12  C   UNL A   1      38.471  29.386  28.791  1.00  0.00    -0.014 A 
BRANCH  12  13
ATOM     13  C   UNL A   1      39.880  29.036  29.111  1.00  0.00     0.031 A 
ATOM     14  C   UNL A   1      40.464  27.700  28.738  1.00  0.00     0.074 A 
ATOM     15  C   UNL A   1      40.653  29.971  29.699  1.00  0.00     0.049 A 
ATOM     16  N   UNL A   1      41.692  27.271  28.893  1.00  0.00    -0.248 NA
ATOM     17  C   UNL A   1      39.563  26.717  28.117  1.00  0.00     0.031 C 
ATOM     18  C   UNL A   1      40.195  31.299  30.122  1.00  0.00     0.029 A 
ATOM     19  N   UNL A   1      41.986  29.966  30.018  1.00  0.00    -0.354 N 
ATOM     20  C   UNL A   1      41.709  25.968  28.406  1.00  0.00     0.074 A 
ATOM     21  C   UNL A   1      40.362  25.668  27.968  1.00  0.00     0.031 C 
ATOM     22  C   UNL A   1      41.241  31.998  30.588  1.00  0.00     0.029 A 
ATOM     23  C   UNL A   1      42.427  31.152  30.553  1.00  0.00     0.049 A 
ATOM     24  H   UNL A   1      42.571  29.186  29.876  1.00  0.00     0.167 HD
ATOM     25  C   UNL A   1      42.752  25.107  28.326  1.00  0.00     0.031 A 
ATOM     26  C   UNL A   1      43.649  31.521  30.982  1.00  0.00     0.031 A 
ATOM     27  C   UNL A   1      44.092  25.410  28.759  1.00  0.00     0.049 A 
ATOM     28  C   UNL A   1      44.782  30.542  30.888  1.00  0.00     0.074 A 
ATOM     29  C   UNL A   1      45.218  24.607  28.700  1.00  0.00     0.029 A 
ATOM     30  N   UNL A   1      44.489  26.610  29.327  1.00  0.00    -0.354 N 
ATOM     31  N   UNL A   1      44.776  29.324  30.404  1.00  0.00    -0.248 NA
ATOM     32  C   UNL A   1      46.084  30.988  31.398  1.00  0.00     0.031 C 
ATOM     33  C   UNL A   1      46.288  25.306  29.270  1.00  0.00     0.029 A 
ATOM     34  C   UNL A   1      45.838  26.562  29.640  1.00  0.00     0.049 A 
ATOM     35  H   UNL A   1      43.900  27.383  29.486  1.00  0.00     0.167 HD
ATOM     36  C   UNL A   1      46.076  28.856  30.550  1.00  0.00     0.074 A 
ATOM     37  C   UNL A   1      46.846  29.935  31.136  1.00  0.00     0.031 C 
ATOM     38  C   UNL A   1      46.585  27.640  30.237  1.00  0.00     0.031 A 
BRANCH  25  39
ATOM     39  C   UNL A   1      42.490  23.736  27.757  1.00  0.00    -0.014 A 
ATOM     40  C   UNL A   1      42.638  23.480  26.382  1.00  0.00     0.010 A 
ATOM     41  C   UNL A   1      42.170  22.670  28.620  1.00  0.00     0.010 A 
ATOM     42  C   UNL A   1      42.450  22.191  25.878  1.00  0.00     0.020 A 
ATOM     43  C   UNL A   1      42.000  21.375  28.121  1.00  0.00     0.020 A 
ATOM     44  C   UNL A   1      42.131  21.146  26.751  1.00  0.00     0.054 A 
BRANCH  44  45
ATOM     45  S   UNL A   1      41.935  19.473  26.074  1.00  0.00     0.124 S 
ATOM     46  O   UNL A   1      40.494  19.409  25.842  1.00  0.00    -0.237 OA
ATOM     47  O   UNL A   1      42.762  19.514  24.871  1.00  0.00    -0.237 OA
ATOM     48  O   UNL A   1      42.435  18.607  27.140  1.00  0.00    -0.744 OA
ENDBRANCH  44  45
ENDBRANCH  25  39
BRANCH  26  49
ATOM     49  C   UNL A   1      43.850  32.876  31.559  1.00  0.00    -0.014 A 
ATOM     50  C   UNL A   1      43.690  33.102  32.936  1.00  0.00     0.010 A 
ATOM     51  C   UNL A   1      44.221  33.947  30.725  1.00  0.00     0.010 A 
ATOM     52  C   UNL A   1      43.878  34.382  33.467  1.00  0.00     0.020 A 
ATOM     53  C   UNL A   1      44.438  35.220  31.256  1.00  0.00     0.020 A 
ATOM     54  C   UNL A   1      44.249  35.433  32.623  1.00  0.00     0.054 A 
BRANCH  54  55
ATOM     55  S   UNL A   1      44.537  37.076  33.334  1.00  0.00     0.124 S 
ATOM     56  O   UNL A   1      45.282  37.739  32.269  1.00  0.00    -0.237 OA
ATOM     57  O   UNL A   1      43.180  37.570  33.560  1.00  0.00    -0.237 OA
ATOM     58  O   UNL A   1      45.297  36.791  34.549  1.00  0.00    -0.744 OA
ENDBRANCH  54  55
ENDBRANCH  26  49
BRANCH  38  59
ATOM     59  C   UNL A   1      48.046  27.425  30.518  1.00  0.00    -0.014 A 
ATOM     60  C   UNL A   1      48.470  26.840  31.725  1.00  0.00     0.010 A 
ATOM     61  C   UNL A   1      49.004  27.801  29.559  1.00  0.00     0.010 A 
ATOM     62  C   UNL A   1      49.833  26.679  31.988  1.00  0.00     0.020 A 
ATOM     63  C   UNL A   1      50.366  27.618  29.810  1.00  0.00     0.020 A 
ATOM     64  C   UNL A   1      50.772  27.075  31.032  1.00  0.00     0.054 A 
BRANCH  64  65
ATOM     65  S   UNL A   1      52.535  26.844  31.388  1.00  0.00     0.124 S 
ATOM     66  O   UNL A   1      53.023  26.267  30.140  1.00  0.00    -0.237 OA
ATOM     67  O   UNL A   1      52.989  28.204  31.673  1.00  0.00    -0.237 OA
ATOM     68  O   UNL A   1      52.538  25.941  32.537  1.00  0.00    -0.744 OA
ENDBRANCH  64  65
ENDBRANCH  38  59
ENDBRANCH  12  13
ENDBRANCH   5   7
ENDBRANCH   2   3
ENDBRANCH   1   2
BRANCH   1  69
ATOM     69  C   UNL A   1      33.309  29.188  24.742  1.00  0.00     0.023 C 
BRANCH  69  70
ATOM     70  C   UNL A   1      33.242  28.902  23.246  1.00  0.00     0.116 C 
BRANCH  70  71
ATOM     71  N   UNL A   1      31.991  29.319  22.632  1.00  0.00    -0.351 N 
ATOM     72  C   UNL A   1      30.864  28.557  22.385  1.00  0.00     0.261 C 
ATOM     73  H   UNL A   1      31.940  30.263  22.358  1.00  0.00     0.163 HD
ATOM     74  O   UNL A   1      29.925  29.067  21.785  1.00  0.00    -0.268 OA
BRANCH  72  75
ATOM     75  C   UNL A   1      30.878  27.192  22.862  1.00  0.00     0.096 A 
ATOM     76  C   UNL A   1      30.373  26.692  24.047  1.00  0.00     0.072 A 
ATOM     77  S   UNL A   1      31.642  25.976  21.939  1.00  0.00    -0.135 S 
ATOM     78  C   UNL A   1      30.839  25.375  24.310  1.00  0.00     0.131 A 
ATOM     79  C   UNL A   1      31.501  24.849  23.222  1.00  0.00     0.112 A 
BRANCH  78  80
ATOM     80  O   UNL A   1      30.726  24.628  25.439  1.00  0.00    -0.488 OA
BRANCH  80  81
ATOM     81  C   UNL A   1      31.710  24.866  26.452  1.00  0.00     0.265 C 
BRANCH  81  82
ATOM     82  C   UNL A   1      32.883  23.906  26.395  1.00  0.00    -0.011 A 
ATOM     83  C   UNL A   1      32.738  22.570  26.811  1.00  0.00     0.010 A 
ATOM     84  C   UNL A   1      34.128  24.332  25.907  1.00  0.00     0.010 A 
ATOM     85  C   UNL A   1      33.823  21.692  26.770  1.00  0.00     0.039 A 
ATOM     86  C   UNL A   1      35.208  23.448  25.855  1.00  0.00     0.039 A 
ATOM     87  C   UNL A   1      35.048  22.141  26.296  1.00  0.00     0.123 A 
ATOM     88  F   UNL A   1      36.091  21.303  26.269  1.00  0.00    -0.207 F 
ENDBRANCH  81  82
ENDBRANCH  80  81
ENDBRANCH  78  80
ENDBRANCH  72  75
ENDBRANCH  70  71
ENDBRANCH  69  70
ENDBRANCH   1  69
TORSDOF 17
ENDMDL
MODEL 2
REMARK VINA RESULT:     -10.4      3.084      9.183
REMARK SMILES O=C(NCCCCNC(=O)c1cc(OCc2ccc(F)cc2)cs1)c1ccc(-c2c3nc(c(-c4ccc(S(=O)(=O)[O-])cc4)c4ccc([nH]4)c(-c4ccc(S(=O)(=O)[O-])cc4)c4nc(c(-c5ccc(S(=O)(=O)[O-])cc5)c5ccc2[nH]5)C=C4)C=C3)cc1
REMARK SMILES IDX 5 1 4 2 3 3 1 4 2 5 25 7 26 8 84 9 27 10 83 11 28 12 29 13
REMARK SMILES IDX 30 14 77 15 31 16 82 17 76 18 78 19 32 20 81 21 75 22 74 23
REMARK SMILES IDX 33 25 63 26 44 27 62 28 45 29 48 30 61 31 79 32 46 33 47 34
REMARK SMILES IDX 60 36 80 37 49 38 34 39 35 40 43 41 36 42 42 43 37 44 38 45
REMARK SMILES IDX 39 46 40 47 41 48 64 49 65 50 73 51 66 52 72 53 67 54 68 55
REMARK SMILES IDX 69 56 70 57 71 58 50 59 51 60 59 61 52 62 58 63 53 64 54 65
REMARK SMILES IDX 55 66 56 67 57 68 6 69 7 70 8 71 9 72 10 74 11 75 12 76
REMARK SMILES IDX 24 77 13 78 23 79 14 80 15 81 16 82 17 83 22 84 18 85 21 86
REMARK SMILES IDX 19 87 20 88
REMARK H PARENT 3 6 78 24 48 35 8 73
REMARK Flexibility Score: inf
ROOT
ATOM      1  C   UNL A   1      35.460  23.388  25.897  1.00  0.00     0.023 C 
ENDROOT
BRANCH   1   2
ATOM      2  C   UNL A   1      36.786  23.827  25.289  1.00  0.00     0.116 C 
BRANCH   2   3
ATOM      3  N   UNL A   1      37.858  22.856  25.455  1.00  0.00    -0.352 N 
ATOM      4  O   UNL A   1      39.896  22.098  26.065  1.00  0.00    -0.269 OA
ATOM      5  C   UNL A   1      39.065  23.001  26.103  1.00  0.00     0.251 C 
ATOM      6  H   UNL A   1      37.698  21.974  25.048  1.00  0.00     0.163 HD
BRANCH   5   7
ATOM      7  C   UNL A   1      39.378  24.265  26.809  1.00  0.00     0.039 A 
ATOM      8  C   UNL A   1      40.128  25.264  26.189  1.00  0.00     0.014 A 
ATOM      9  C   UNL A   1      38.933  24.438  28.124  1.00  0.00     0.014 A 
ATOM     10  C   UNL A   1      40.573  26.352  26.931  1.00  0.00     0.010 A 
ATOM     11  C   UNL A   1      39.307  25.579  28.842  1.00  0.00     0.010 A 
ATOM     12  C   UNL A   1      40.164  26.528  28.264  1.00  0.00    -0.014 A 
BRANCH  12  13
ATOM     13  C   UNL A   1      40.606  27.741  29.000  1.00  0.00     0.031 A 
ATOM     14  C   UNL A   1      39.698  28.927  29.182  1.00  0.00     0.074 A 
ATOM     15  C   UNL A   1      41.833  27.737  29.560  1.00  0.00     0.049 A 
ATOM     16  N   UNL A   1      39.917  30.031  29.851  1.00  0.00    -0.248 NA
ATOM     17  C   UNL A   1      38.380  28.877  28.530  1.00  0.00     0.031 C 
ATOM     18  C   UNL A   1      42.811  26.650  29.441  1.00  0.00     0.029 A 
ATOM     19  N   UNL A   1      42.459  28.656  30.361  1.00  0.00    -0.354 N 
ATOM     20  C   UNL A   1      38.777  30.811  29.691  1.00  0.00     0.074 A 
ATOM     21  C   UNL A   1      37.875  30.063  28.841  1.00  0.00     0.031 C 
ATOM     22  C   UNL A   1      43.885  26.939  30.190  1.00  0.00     0.029 A 
ATOM     23  C   UNL A   1      43.700  28.253  30.792  1.00  0.00     0.049 A 
ATOM     24  H   UNL A   1      42.057  29.522  30.604  1.00  0.00     0.167 HD
ATOM     25  C   UNL A   1      38.507  32.035  30.208  1.00  0.00     0.031 A 
ATOM     26  C   UNL A   1      44.600  28.873  31.579  1.00  0.00     0.031 A 
ATOM     27  C   UNL A   1      39.406  32.775  31.056  1.00  0.00     0.049 A 
ATOM     28  C   UNL A   1      44.276  30.230  32.129  1.00  0.00     0.074 A 
ATOM     29  C   UNL A   1      39.211  34.014  31.644  1.00  0.00     0.029 A 
ATOM     30  N   UNL A   1      40.666  32.347  31.441  1.00  0.00    -0.354 N 
ATOM     31  N   UNL A   1      43.182  30.937  31.979  1.00  0.00    -0.248 NA
ATOM     32  C   UNL A   1      45.307  30.871  32.955  1.00  0.00     0.031 C 
ATOM     33  C   UNL A   1      40.370  34.353  32.351  1.00  0.00     0.029 A 
ATOM     34  C   UNL A   1      41.268  33.304  32.242  1.00  0.00     0.049 A 
ATOM     35  H   UNL A   1      41.075  31.489  31.183  1.00  0.00     0.167 HD
ATOM     36  C   UNL A   1      43.392  32.110  32.694  1.00  0.00     0.074 A 
ATOM     37  C   UNL A   1      44.703  32.000  33.303  1.00  0.00     0.031 C 
ATOM     38  C   UNL A   1      42.579  33.185  32.827  1.00  0.00     0.031 A 
BRANCH  25  39
ATOM     39  C   UNL A   1      37.183  32.667  29.864  1.00  0.00    -0.014 A 
ATOM     40  C   UNL A   1      36.040  32.430  30.648  1.00  0.00     0.010 A 
ATOM     41  C   UNL A   1      37.100  33.575  28.791  1.00  0.00     0.010 A 
ATOM     42  C   UNL A   1      34.833  33.071  30.352  1.00  0.00     0.020 A 
ATOM     43  C   UNL A   1      35.899  34.232  28.504  1.00  0.00     0.020 A 
ATOM     44  C   UNL A   1      34.771  33.967  29.280  1.00  0.00     0.054 A 
BRANCH  44  45
ATOM     45  S   UNL A   1      33.203  34.818  28.946  1.00  0.00     0.124 S 
ATOM     46  O   UNL A   1      32.586  34.842  30.270  1.00  0.00    -0.237 OA
ATOM     47  O   UNL A   1      33.642  36.114  28.435  1.00  0.00    -0.237 OA
ATOM     48  O   UNL A   1      32.543  33.957  27.967  1.00  0.00    -0.744 OA
ENDBRANCH  44  45
ENDBRANCH  25  39
BRANCH  26  49
ATOM     49  C   UNL A   1      45.903  28.218  31.867  1.00  0.00    -0.014 A 
ATOM     50  C   UNL A   1      47.015  28.430  31.037  1.00  0.00     0.010 A 
ATOM     51  C   UNL A   1      46.036  27.385  32.994  1.00  0.00     0.010 A 
ATOM     52  C   UNL A   1      48.234  27.806  31.316  1.00  0.00     0.020 A 
ATOM     53  C   UNL A   1      47.260  26.782  33.292  1.00  0.00     0.020 A 
ATOM     54  C   UNL A   1      48.348  26.984  32.441  1.00  0.00     0.054 A 
BRANCH  54  55
ATOM     55  S   UNL A   1      49.949  26.219  32.818  1.00  0.00     0.124 S 
ATOM     56  O   UNL A   1      50.883  27.276  32.443  1.00  0.00    -0.237 OA
ATOM     57  O   UNL A   1      49.843  25.945  34.249  1.00  0.00    -0.237 OA
ATOM     58  O   UNL A   1      49.966  25.033  31.965  1.00  0.00    -0.744 OA
ENDBRANCH  54  55
ENDBRANCH  26  49
BRANCH  38  59
ATOM     59  C   UNL A   1      43.089  34.319  33.671  1.00  0.00    -0.014 A 
ATOM     60  C   UNL A   1      42.851  34.352  35.057  1.00  0.00     0.010 A 
ATOM     61  C   UNL A   1      43.823  35.359  33.073  1.00  0.00     0.010 A 
ATOM     62  C   UNL A   1      43.300  35.429  35.824  1.00  0.00     0.020 A 
ATOM     63  C   UNL A   1      44.294  36.426  33.842  1.00  0.00     0.020 A 
ATOM     64  C   UNL A   1      44.012  36.463  35.210  1.00  0.00     0.054 A 
BRANCH  64  65
ATOM     65  S   UNL A   1      44.597  37.847  36.226  1.00  0.00     0.124 S 
ATOM     66  O   UNL A   1      43.837  37.660  37.458  1.00  0.00    -0.237 OA
ATOM     67  O   UNL A   1      46.032  37.591  36.327  1.00  0.00    -0.237 OA
ATOM     68  O   UNL A   1      44.236  39.027  35.443  1.00  0.00    -0.744 OA
ENDBRANCH  64  65
ENDBRANCH  38  59
ENDBRANCH  12  13
ENDBRANCH   5   7
ENDBRANCH   2   3
ENDBRANCH   1   2
BRANCH   1  69
ATOM     69  C   UNL A   1      35.435  21.970  26.457  1.00  0.00     0.023 C 
BRANCH  69  70
ATOM     70  C   UNL A   1      34.113  21.549  27.089  1.00  0.00     0.116 C 
BRANCH  70  71
ATOM     71  N   UNL A   1      33.527  20.368  26.473  1.00  0.00    -0.351 N 
ATOM     72  C   UNL A   1      32.554  20.309  25.492  1.00  0.00     0.261 C 
ATOM     73  H   UNL A   1      33.866  19.502  26.795  1.00  0.00     0.163 HD
ATOM     74  O   UNL A   1      32.128  19.213  25.148  1.00  0.00    -0.268 OA
BRANCH  72  75
ATOM     75  C   UNL A   1      32.106  21.566  24.935  1.00  0.00     0.096 A 
ATOM     76  C   UNL A   1      32.550  22.205  23.793  1.00  0.00     0.072 A 
ATOM     77  S   UNL A   1      30.919  22.482  25.751  1.00  0.00    -0.135 S 
ATOM     78  C   UNL A   1      32.104  23.554  23.732  1.00  0.00     0.131 A 
ATOM     79  C   UNL A   1      31.172  23.820  24.710  1.00  0.00     0.112 A 
BRANCH  78  80
ATOM     80  O   UNL A   1      32.474  24.548  22.884  1.00  0.00    -0.488 OA
BRANCH  80  81
ATOM     81  C   UNL A   1      33.750  25.148  23.136  1.00  0.00     0.265 C 
BRANCH  81  82
ATOM     82  C   UNL A   1      33.663  26.464  23.886  1.00  0.00    -0.011 A 
ATOM     83  C   UNL A   1      33.469  27.673  23.194  1.00  0.00     0.010 A 
ATOM     84  C   UNL A   1      33.755  26.492  25.287  1.00  0.00     0.010 A 
ATOM     85  C   UNL A   1      33.404  28.885  23.886  1.00  0.00     0.039 A 
ATOM     86  C   UNL A   1      33.676  27.703  25.977  1.00  0.00     0.039 A 
ATOM     87  C   UNL A   1      33.512  28.888  25.270  1.00  0.00     0.123 A 
ATOM     88  F   UNL A   1      33.461  30.050  25.931  1.00  0.00    -0.207 F 
ENDBRANCH  81  82
ENDBRANCH  80  81
ENDBRANCH  78  80
ENDBRANCH  72  75
ENDBRANCH  70  71
ENDBRANCH  69  70
ENDBRANCH   1  69
TORSDOF 17
ENDMDL
MODEL 3
REMARK VINA RESULT:     -10.4      2.055      2.939
REMARK SMILES O=C(NCCCCNC(=O)c1cc(OCc2ccc(F)cc2)cs1)c1ccc(-c2c3nc(c(-c4ccc(S(=O)(=O)[O-])cc4)c4ccc([nH]4)c(-c4ccc(S(=O)(=O)[O-])cc4)c4nc(c(-c5ccc(S(=O)(=O)[O-])cc5)c5ccc2[nH]5)C=C4)C=C3)cc1
REMARK SMILES IDX 5 1 4 2 3 3 1 4 2 5 25 7 26 8 84 9 27 10 83 11 28 12 29 13
REMARK SMILES IDX 30 14 77 15 31 16 82 17 76 18 78 19 32 20 81 21 75 22 74 23
REMARK SMILES IDX 33 25 63 26 44 27 62 28 45 29 48 30 61 31 79 32 46 33 47 34
REMARK SMILES IDX 60 36 80 37 49 38 34 39 35 40 43 41 36 42 42 43 37 44 38 45
REMARK SMILES IDX 39 46 40 47 41 48 64 49 65 50 73 51 66 52 72 53 67 54 68 55
REMARK SMILES IDX 69 56 70 57 71 58 50 59 51 60 59 61 52 62 58 63 53 64 54 65
REMARK SMILES IDX 55 66 56 67 57 68 6 69 7 70 8 71 9 72 10 74 11 75 12 76
REMARK SMILES IDX 24 77 13 78 23 79 14 80 15 81 16 82 17 83 22 84 18 85 21 86
REMARK SMILES IDX 19 87 20 88
REMARK H PARENT 3 6 78 24 48 35 8 73
REMARK Flexibility Score: inf
ROOT
ATOM      1  C   UNL A   1      32.558  27.738  25.984  1.00  0.00     0.023 C 
ENDROOT
BRANCH   1   2
ATOM      2  C   UNL A   1      33.641  28.217  26.943  1.00  0.00     0.116 C 
BRANCH   2   3
ATOM      3  N   UNL A   1      33.458  29.588  27.397  1.00  0.00    -0.352 N 
ATOM      4  O   UNL A   1      34.001  31.523  28.427  1.00  0.00    -0.269 OA
ATOM      5  C   UNL A   1      34.358  30.418  28.030  1.00  0.00     0.251 C 
ATOM      6  H   UNL A   1      32.569  29.976  27.228  1.00  0.00     0.163 HD
BRANCH   5   7
ATOM      7  C   UNL A   1      35.745  29.957  28.272  1.00  0.00     0.039 A 
ATOM      8  C   UNL A   1      36.125  29.451  29.515  1.00  0.00     0.014 A 
ATOM      9  C   UNL A   1      36.685  30.059  27.240  1.00  0.00     0.014 A 
ATOM     10  C   UNL A   1      37.469  29.209  29.778  1.00  0.00     0.010 A 
ATOM     11  C   UNL A   1      38.023  29.727  27.481  1.00  0.00     0.010 A 
ATOM     12  C   UNL A   1      38.433  29.336  28.764  1.00  0.00    -0.014 A 
BRANCH  12  13
ATOM     13  C   UNL A   1      39.849  29.000  29.070  1.00  0.00     0.031 A 
ATOM     14  C   UNL A   1      40.438  27.665  28.702  1.00  0.00     0.074 A 
ATOM     15  C   UNL A   1      40.623  29.947  29.638  1.00  0.00     0.049 A 
ATOM     16  N   UNL A   1      41.670  27.246  28.846  1.00  0.00    -0.248 NA
ATOM     17  C   UNL A   1      39.536  26.668  28.103  1.00  0.00     0.031 C 
ATOM     18  C   UNL A   1      40.161  31.276  30.052  1.00  0.00     0.029 A 
ATOM     19  N   UNL A   1      41.960  29.954  29.939  1.00  0.00    -0.354 N 
ATOM     20  C   UNL A   1      41.690  25.939  28.372  1.00  0.00     0.074 A 
ATOM     21  C   UNL A   1      40.340  25.624  27.955  1.00  0.00     0.031 C 
ATOM     22  C   UNL A   1      41.207  31.987  30.497  1.00  0.00     0.029 A 
ATOM     23  C   UNL A   1      42.399  31.149  30.456  1.00  0.00     0.049 A 
ATOM     24  H   UNL A   1      42.548  29.178  29.797  1.00  0.00     0.167 HD
ATOM     25  C   UNL A   1      42.739  25.083  28.288  1.00  0.00     0.031 A 
ATOM     26  C   UNL A   1      43.624  31.532  30.865  1.00  0.00     0.031 A 
ATOM     27  C   UNL A   1      44.082  25.401  28.700  1.00  0.00     0.049 A 
ATOM     28  C   UNL A   1      44.762  30.560  30.766  1.00  0.00     0.074 A 
ATOM     29  C   UNL A   1      45.214  24.605  28.635  1.00  0.00     0.029 A 
ATOM     30  N   UNL A   1      44.478  26.610  29.250  1.00  0.00    -0.354 N 
ATOM     31  N   UNL A   1      44.759  29.337  30.295  1.00  0.00    -0.248 NA
ATOM     32  C   UNL A   1      46.068  31.021  31.255  1.00  0.00     0.031 C 
ATOM     33  C   UNL A   1      46.285  25.318  29.183  1.00  0.00     0.029 A 
ATOM     34  C   UNL A   1      45.831  26.575  29.546  1.00  0.00     0.049 A 
ATOM     35  H   UNL A   1      43.885  27.380  29.409  1.00  0.00     0.167 HD
ATOM     36  C   UNL A   1      46.064  28.880  30.429  1.00  0.00     0.074 A 
ATOM     37  C   UNL A   1      46.833  29.971  30.993  1.00  0.00     0.031 C 
ATOM     38  C   UNL A   1      46.577  27.664  30.122  1.00  0.00     0.031 A 
BRANCH  25  39
ATOM     39  C   UNL A   1      42.479  23.705  27.737  1.00  0.00    -0.014 A 
ATOM     40  C   UNL A   1      42.449  23.472  26.350  1.00  0.00     0.010 A 
ATOM     41  C   UNL A   1      42.345  22.614  28.616  1.00  0.00     0.010 A 
ATOM     42  C   UNL A   1      42.267  22.178  25.854  1.00  0.00     0.020 A 
ATOM     43  C   UNL A   1      42.182  21.316  28.123  1.00  0.00     0.020 A 
ATOM     44  C   UNL A   1      42.133  21.108  26.744  1.00  0.00     0.054 A 
BRANCH  44  45
ATOM     45  S   UNL A   1      41.942  19.433  26.072  1.00  0.00     0.124 S 
ATOM     46  O   UNL A   1      42.313  18.605  27.217  1.00  0.00    -0.237 OA
ATOM     47  O   UNL A   1      40.530  19.394  25.701  1.00  0.00    -0.237 OA
ATOM     48  O   UNL A   1      42.878  19.401  24.950  1.00  0.00    -0.744 OA
ENDBRANCH  44  45
ENDBRANCH  25  39
BRANCH  26  49
ATOM     49  C   UNL A   1      43.822  32.894  31.425  1.00  0.00    -0.014 A 
ATOM     50  C   UNL A   1      44.087  33.986  30.584  1.00  0.00     0.010 A 
ATOM     51  C   UNL A   1      43.730  33.103  32.814  1.00  0.00     0.010 A 
ATOM     52  C   UNL A   1      44.276  35.262  31.122  1.00  0.00     0.020 A 
ATOM     53  C   UNL A   1      43.890  34.381  33.353  1.00  0.00     0.020 A 
ATOM     54  C   UNL A   1      44.178  35.451  32.504  1.00  0.00     0.054 A 
BRANCH  54  55
ATOM     55  S   UNL A   1      44.376  37.121  33.183  1.00  0.00     0.124 S 
ATOM     56  O   UNL A   1      44.432  37.935  31.974  1.00  0.00    -0.237 OA
ATOM     57  O   UNL A   1      43.175  37.280  33.999  1.00  0.00    -0.237 OA
ATOM     58  O   UNL A   1      45.624  37.032  33.940  1.00  0.00    -0.744 OA
ENDBRANCH  54  55
ENDBRANCH  26  49
BRANCH  38  59
ATOM     59  C   UNL A   1      48.044  27.463  30.386  1.00  0.00    -0.014 A 
ATOM     60  C   UNL A   1      48.491  26.947  31.615  1.00  0.00     0.010 A 
ATOM     61  C   UNL A   1      48.983  27.782  29.389  1.00  0.00     0.010 A 
ATOM     62  C   UNL A   1      49.858  26.797  31.861  1.00  0.00     0.020 A 
ATOM     63  C   UNL A   1      50.350  27.611  29.623  1.00  0.00     0.020 A 
ATOM     64  C   UNL A   1      50.779  27.138  30.865  1.00  0.00     0.054 A 
BRANCH  64  65
ATOM     65  S   UNL A   1      52.549  26.924  31.200  1.00  0.00     0.124 S 
ATOM     66  O   UNL A   1      52.542  25.852  32.190  1.00  0.00    -0.237 OA
ATOM     67  O   UNL A   1      53.085  26.566  29.888  1.00  0.00    -0.237 OA
ATOM     68  O   UNL A   1      52.965  28.232  31.700  1.00  0.00    -0.744 OA
ENDBRANCH  64  65
ENDBRANCH  38  59
ENDBRANCH  12  13
ENDBRANCH   5   7
ENDBRANCH   2   3
ENDBRANCH   1   2
BRANCH   1  69
ATOM     69  C   UNL A   1      31.366  27.047  26.638  1.00  0.00     0.023 C 
BRANCH  69  70
ATOM     70  C   UNL A   1      30.755  25.910  25.827  1.00  0.00     0.116 C 
BRANCH  70  71
ATOM     71  N   UNL A   1      29.983  24.975  26.633  1.00  0.00    -0.351 N 
ATOM     72  C   UNL A   1      30.232  23.634  26.860  1.00  0.00     0.261 C 
ATOM     73  H   UNL A   1      29.183  25.343  27.071  1.00  0.00     0.163 HD
ATOM     74  O   UNL A   1      29.423  22.985  27.510  1.00  0.00    -0.268 OA
BRANCH  72  75
ATOM     75  C   UNL A   1      31.452  23.090  26.304  1.00  0.00     0.096 A 
ATOM     76  C   UNL A   1      31.620  22.396  25.121  1.00  0.00     0.072 A 
ATOM     77  S   UNL A   1      32.914  23.221  27.173  1.00  0.00    -0.135 S 
ATOM     78  C   UNL A   1      32.887  21.755  25.057  1.00  0.00     0.131 A 
ATOM     79  C   UNL A   1      33.708  22.158  26.088  1.00  0.00     0.112 A 
BRANCH  78  80
ATOM     80  O   UNL A   1      33.350  20.842  24.164  1.00  0.00    -0.488 OA
BRANCH  80  81
ATOM     81  C   UNL A   1      34.328  19.919  24.657  1.00  0.00     0.265 C 
BRANCH  81  82
ATOM     82  C   UNL A   1      33.822  18.492  24.751  1.00  0.00    -0.011 A 
ATOM     83  C   UNL A   1      32.820  18.145  25.677  1.00  0.00     0.010 A 
ATOM     84  C   UNL A   1      34.332  17.498  23.901  1.00  0.00     0.010 A 
ATOM     85  C   UNL A   1      32.366  16.828  25.771  1.00  0.00     0.039 A 
ATOM     86  C   UNL A   1      33.866  16.185  23.989  1.00  0.00     0.039 A 
ATOM     87  C   UNL A   1      32.896  15.861  24.929  1.00  0.00     0.123 A 
ATOM     88  F   UNL A   1      32.469  14.597  25.028  1.00  0.00    -0.207 F 
ENDBRANCH  81  82
ENDBRANCH  80  81
ENDBRANCH  78  80
ENDBRANCH  72  75
ENDBRANCH  70  71
ENDBRANCH  69  70
ENDBRANCH   1  69
TORSDOF 17
ENDMDL
