MODEL 1
REMARK VINA RESULT:     -10.0      0.000      0.000
REMARK SMILES CC(C)[NH2+][C@]1(C(=O)NCCCCNC(=O)c2ccc(-c3c4nc(c(-c5ccc(S(=O)(=O)[O-])cc5)c5ccc([nH]5)c(-c5ccc(S(=O)(=O)[O-])cc5)c5nc(c(-c6ccc(S(=O)(=O)[O-])cc6)c6ccc3[nH]6)C=C5)C=C4)cc2)CC[C@@H]([N@@H+](C)[C@@H](C)C(C)C)C1
REMARK SMILES IDX 10 1 9 2 8 3 6 4 7 5 5 7 76 8 86 9 77 10 78 11 4 12 2 15
REMARK SMILES IDX 1 16 3 17 79 18 80 19 81 21 82 22 83 23 84 24 85 25 11 26
REMARK SMILES IDX 12 27 13 28 14 29 15 31 16 32 17 33 75 34 18 35 74 36 19 37
REMARK SMILES IDX 20 38 21 39 68 40 22 41 73 42 67 43 69 44 23 45 72 46 66 47
REMARK SMILES IDX 65 48 24 50 54 51 35 52 53 53 36 54 39 55 52 56 70 57 37 58
REMARK SMILES IDX 38 59 51 61 71 62 40 63 25 64 26 65 34 66 27 67 33 68 28 69
REMARK SMILES IDX 29 70 30 71 31 72 32 73 55 74 56 75 64 76 57 77 63 78 58 79
REMARK SMILES IDX 59 80 60 81 61 82 62 83 41 84 42 85 50 86 43 87 49 88 44 89
REMARK SMILES IDX 45 90 46 91 47 92 48 93
REMARK H PARENT 8 6 4 13 4 14 79 20 13 30 69 49 39 60
REMARK Flexibility Score: inf
ROOT
ATOM      1  C   UNL A   1      33.570  30.212  27.505  1.00  0.00     0.023 C 
ENDROOT
BRANCH   1   2
ATOM      2  C   UNL A   1      32.569  29.557  26.545  1.00  0.00     0.116 C 
BRANCH   2   3
ATOM      3  N   UNL A   1      32.961  29.803  25.169  1.00  0.00    -0.351 N 
ATOM      4  C   UNL A   1      33.087  28.933  24.121  1.00  0.00     0.281 C 
ATOM      5  O   UNL A   1      33.745  29.342  23.159  1.00  0.00    -0.268 OA
ATOM      6  H   UNL A   1      33.169  30.741  24.958  1.00  0.00     0.163 HD
BRANCH   4   7
ATOM      7  C   UNL A   1      32.371  27.540  24.102  1.00  0.00     0.181 C 
ATOM      8  C   UNL A   1      32.495  26.991  22.660  1.00  0.00     0.085 C 
ATOM      9  C   UNL A   1      33.129  26.469  24.928  1.00  0.00     0.144 C 
ATOM     10  C   UNL A   1      32.496  25.477  22.775  1.00  0.00     0.072 C 
ATOM     11  C   UNL A   1      33.205  25.174  24.096  1.00  0.00     0.191 C 
BRANCH   7  12
ATOM     12  N   UNL A   1      30.941  27.580  24.505  1.00  0.00    -0.331 N 
ATOM     13  H   UNL A   1      30.760  26.754  25.074  1.00  0.00     0.347 HD
ATOM     14  H   UNL A   1      30.830  28.472  24.986  1.00  0.00     0.347 HD
BRANCH  12  15
ATOM     15  C   UNL A   1      29.940  27.603  23.433  1.00  0.00     0.176 C 
ATOM     16  C   UNL A   1      28.824  26.636  23.841  1.00  0.00     0.075 C 
ATOM     17  C   UNL A   1      29.350  28.962  23.074  1.00  0.00     0.075 C 
ENDBRANCH  12  15
ENDBRANCH   7  12
BRANCH  11  18
ATOM     18  N   UNL A   1      34.498  24.460  24.097  1.00  0.00    -0.332 N 
ATOM     19  C   UNL A   1      35.176  24.624  25.390  1.00  0.00     0.333 C 
ATOM     20  H   UNL A   1      34.956  24.949  23.327  1.00  0.00     0.348 HD
BRANCH  18  21
ATOM     21  C   UNL A   1      34.641  23.070  23.583  1.00  0.00     0.183 C 
ATOM     22  C   UNL A   1      36.075  22.520  23.592  1.00  0.00     0.075 C 
BRANCH  21  23
ATOM     23  C   UNL A   1      33.614  22.044  24.158  1.00  0.00     0.041 C 
ATOM     24  C   UNL A   1      32.589  21.615  23.093  1.00  0.00     0.013 C 
ATOM     25  C   UNL A   1      34.266  20.772  24.717  1.00  0.00     0.013 C 
ENDBRANCH  21  23
ENDBRANCH  18  21
ENDBRANCH  11  18
ENDBRANCH   4   7
ENDBRANCH   2   3
ENDBRANCH   1   2
BRANCH   1  26
ATOM     26  C   UNL A   1      35.032  30.116  27.081  1.00  0.00     0.023 C 
BRANCH  26  27
ATOM     27  C   UNL A   1      35.924  29.390  28.071  1.00  0.00     0.116 C 
BRANCH  27  28
ATOM     28  N   UNL A   1      35.651  29.722  29.463  1.00  0.00    -0.352 N 
ATOM     29  C   UNL A   1      36.569  29.972  30.457  1.00  0.00     0.251 C 
ATOM     30  H   UNL A   1      34.703  29.771  29.722  1.00  0.00     0.163 HD
ATOM     31  O   UNL A   1      36.210  30.170  31.613  1.00  0.00    -0.269 OA
BRANCH  29  32
ATOM     32  C   UNL A   1      37.999  29.939  30.101  1.00  0.00     0.039 A 
ATOM     33  C   UNL A   1      38.898  29.324  30.973  1.00  0.00     0.014 A 
ATOM     34  C   UNL A   1      38.413  30.397  28.848  1.00  0.00     0.014 A 
ATOM     35  C   UNL A   1      40.208  29.098  30.552  1.00  0.00     0.010 A 
ATOM     36  C   UNL A   1      39.689  30.088  28.398  1.00  0.00     0.010 A 
ATOM     37  C   UNL A   1      40.600  29.439  29.246  1.00  0.00    -0.014 A 
BRANCH  37  38
ATOM     38  C   UNL A   1      41.961  29.141  28.744  1.00  0.00     0.031 A 
ATOM     39  C   UNL A   1      42.280  27.761  28.238  1.00  0.00     0.074 A 
ATOM     40  C   UNL A   1      42.926  30.078  28.825  1.00  0.00     0.049 A 
ATOM     41  N   UNL A   1      43.424  27.276  27.833  1.00  0.00    -0.248 NA
ATOM     42  C   UNL A   1      41.175  26.787  28.225  1.00  0.00     0.031 C 
ATOM     43  C   UNL A   1      42.756  31.431  29.363  1.00  0.00     0.029 A 
ATOM     44  N   UNL A   1      44.249  30.030  28.464  1.00  0.00    -0.354 N 
ATOM     45  C   UNL A   1      43.184  25.937  27.551  1.00  0.00     0.074 A 
ATOM     46  C   UNL A   1      41.801  25.673  27.879  1.00  0.00     0.031 C 
ATOM     47  C   UNL A   1      43.922  32.091  29.269  1.00  0.00     0.029 A 
ATOM     48  C   UNL A   1      44.927  31.203  28.696  1.00  0.00     0.049 A 
ATOM     49  H   UNL A   1      44.672  29.231  28.075  1.00  0.00     0.167 HD
ATOM     50  C   UNL A   1      44.032  25.013  27.041  1.00  0.00     0.031 A 
ATOM     51  C   UNL A   1      46.215  31.527  28.468  1.00  0.00     0.031 A 
ATOM     52  C   UNL A   1      45.393  25.291  26.678  1.00  0.00     0.049 A 
ATOM     53  C   UNL A   1      47.125  30.504  27.847  1.00  0.00     0.074 A 
ATOM     54  C   UNL A   1      46.314  24.451  26.079  1.00  0.00     0.029 A 
ATOM     55  N   UNL A   1      46.028  26.508  26.877  1.00  0.00    -0.354 N 
ATOM     56  N   UNL A   1      46.859  29.262  27.513  1.00  0.00    -0.248 NA
ATOM     57  C   UNL A   1      48.501  30.928  27.557  1.00  0.00     0.031 C 
ATOM     58  C   UNL A   1      47.518  25.151  25.945  1.00  0.00     0.029 A 
ATOM     59  C   UNL A   1      47.333  26.440  26.423  1.00  0.00     0.049 A 
ATOM     60  H   UNL A   1      45.612  27.303  27.282  1.00  0.00     0.167 HD
ATOM     61  C   UNL A   1      48.030  28.763  26.954  1.00  0.00     0.074 A 
ATOM     62  C   UNL A   1      49.000  29.840  26.982  1.00  0.00     0.031 C 
ATOM     63  C   UNL A   1      48.279  27.525  26.461  1.00  0.00     0.031 A 
BRANCH  50  64
ATOM     64  C   UNL A   1      43.496  23.621  26.848  1.00  0.00    -0.014 A 
ATOM     65  C   UNL A   1      43.142  23.149  25.570  1.00  0.00     0.010 A 
ATOM     66  C   UNL A   1      43.343  22.770  27.958  1.00  0.00     0.010 A 
ATOM     67  C   UNL A   1      42.590  21.876  25.413  1.00  0.00     0.020 A 
ATOM     68  C   UNL A   1      42.819  21.484  27.800  1.00  0.00     0.020 A 
ATOM     69  C   UNL A   1      42.424  21.054  26.532  1.00  0.00     0.054 A 
BRANCH  69  70
ATOM     70  S   UNL A   1      41.706  19.405  26.303  1.00  0.00     0.124 S 
ATOM     71  O   UNL A   1      42.403  18.938  25.107  1.00  0.00    -0.237 OA
ATOM     72  O   UNL A   1      42.063  18.721  27.544  1.00  0.00    -0.237 OA
ATOM     73  O   UNL A   1      40.280  19.670  26.130  1.00  0.00    -0.744 OA
ENDBRANCH  69  70
ENDBRANCH  50  64
BRANCH  51  74
ATOM     74  C   UNL A   1      46.703  32.893  28.794  1.00  0.00    -0.014 A 
ATOM     75  C   UNL A   1      46.602  33.928  27.847  1.00  0.00     0.010 A 
ATOM     76  C   UNL A   1      47.242  33.176  30.062  1.00  0.00     0.010 A 
ATOM     77  C   UNL A   1      47.038  35.219  28.160  1.00  0.00     0.020 A 
ATOM     78  C   UNL A   1      47.660  34.471  30.385  1.00  0.00     0.020 A 
ATOM     79  C   UNL A   1      47.562  35.483  29.427  1.00  0.00     0.054 A 
BRANCH  79  80
ATOM     80  S   UNL A   1      48.059  37.181  29.835  1.00  0.00     0.124 S 
ATOM     81  O   UNL A   1      47.077  37.548  30.851  1.00  0.00    -0.237 OA
ATOM     82  O   UNL A   1      49.428  37.005  30.313  1.00  0.00    -0.237 OA
ATOM     83  O   UNL A   1      47.938  37.886  28.561  1.00  0.00    -0.744 OA
ENDBRANCH  79  80
ENDBRANCH  51  74
BRANCH  63  84
ATOM     84  C   UNL A   1      49.647  27.274  25.889  1.00  0.00    -0.014 A 
ATOM     85  C   UNL A   1      50.662  26.695  26.668  1.00  0.00     0.010 A 
ATOM     86  C   UNL A   1      49.895  27.564  24.535  1.00  0.00     0.010 A 
ATOM     87  C   UNL A   1      51.915  26.432  26.108  1.00  0.00     0.020 A 
ATOM     88  C   UNL A   1      51.139  27.282  23.966  1.00  0.00     0.020 A 
ATOM     89  C   UNL A   1      52.145  26.728  24.760  1.00  0.00     0.054 A 
BRANCH  89  90
ATOM     90  S   UNL A   1      53.762  26.330  24.041  1.00  0.00     0.124 S 
ATOM     91  O   UNL A   1      54.523  27.546  24.315  1.00  0.00    -0.237 OA
ATOM     92  O   UNL A   1      54.171  25.150  24.798  1.00  0.00    -0.237 OA
ATOM     93  O   UNL A   1      53.462  26.085  22.632  1.00  0.00    -0.744 OA
ENDBRANCH  89  90
ENDBRANCH  63  84
ENDBRANCH  37  38
ENDBRANCH  29  32
ENDBRANCH  27  28
ENDBRANCH  26  27
ENDBRANCH   1  26
TORSDOF 19
ENDMDL
MODEL 2
REMARK VINA RESULT:      -9.9      2.297      8.719
REMARK SMILES CC(C)[NH2+][C@]1(C(=O)NCCCCNC(=O)c2ccc(-c3c4nc(c(-c5ccc(S(=O)(=O)[O-])cc5)c5ccc([nH]5)c(-c5ccc(S(=O)(=O)[O-])cc5)c5nc(c(-c6ccc(S(=O)(=O)[O-])cc6)c6ccc3[nH]6)C=C5)C=C4)cc2)CC[C@@H]([N@@H+](C)[C@@H](C)C(C)C)C1
REMARK SMILES IDX 10 1 9 2 8 3 6 4 7 5 5 7 76 8 86 9 77 10 78 11 4 12 2 15
REMARK SMILES IDX 1 16 3 17 79 18 80 19 81 21 82 22 83 23 84 24 85 25 11 26
REMARK SMILES IDX 12 27 13 28 14 29 15 31 16 32 17 33 75 34 18 35 74 36 19 37
REMARK SMILES IDX 20 38 21 39 68 40 22 41 73 42 67 43 69 44 23 45 72 46 66 47
REMARK SMILES IDX 65 48 24 50 54 51 35 52 53 53 36 54 39 55 52 56 70 57 37 58
REMARK SMILES IDX 38 59 51 61 71 62 40 63 25 64 26 65 34 66 27 67 33 68 28 69
REMARK SMILES IDX 29 70 30 71 31 72 32 73 55 74 56 75 64 76 57 77 63 78 58 79
REMARK SMILES IDX 59 80 60 81 61 82 62 83 41 84 42 85 50 86 43 87 49 88 44 89
REMARK SMILES IDX 45 90 46 91 47 92 48 93
REMARK H PARENT 8 6 4 13 4 14 79 20 13 30 69 49 39 60
REMARK Flexibility Score: inf
ROOT
ATOM      1  C   UNL A   1      37.613  21.936  24.978  1.00  0.00     0.023 C 
ENDROOT
BRANCH   1   2
ATOM      2  C   UNL A   1      36.085  21.971  24.845  1.00  0.00     0.116 C 
BRANCH   2   3
ATOM      3  N   UNL A   1      35.708  22.556  23.571  1.00  0.00    -0.351 N 
ATOM      4  C   UNL A   1      34.560  23.204  23.206  1.00  0.00     0.281 C 
ATOM      5  O   UNL A   1      34.363  23.307  21.992  1.00  0.00    -0.268 OA
ATOM      6  H   UNL A   1      36.382  22.473  22.860  1.00  0.00     0.163 HD
BRANCH   4   7
ATOM      7  C   UNL A   1      33.597  23.852  24.258  1.00  0.00     0.181 C 
ATOM      8  C   UNL A   1      34.358  25.044  24.888  1.00  0.00     0.085 C 
ATOM      9  C   UNL A   1      32.378  24.550  23.601  1.00  0.00     0.144 C 
ATOM     10  C   UNL A   1      33.303  26.055  25.303  1.00  0.00     0.072 C 
ATOM     11  C   UNL A   1      32.193  25.931  24.259  1.00  0.00     0.191 C 
BRANCH   7  12
ATOM     12  N   UNL A   1      33.140  22.924  25.326  1.00  0.00    -0.331 N 
ATOM     13  H   UNL A   1      33.866  22.219  25.450  1.00  0.00     0.347 HD
ATOM     14  H   UNL A   1      32.971  23.521  26.135  1.00  0.00     0.347 HD
BRANCH  12  15
ATOM     15  C   UNL A   1      31.873  22.218  25.108  1.00  0.00     0.176 C 
ATOM     16  C   UNL A   1      32.200  20.723  25.038  1.00  0.00     0.075 C 
ATOM     17  C   UNL A   1      30.765  22.466  26.124  1.00  0.00     0.075 C 
ENDBRANCH  12  15
ENDBRANCH   7  12
BRANCH  11  18
ATOM     18  N   UNL A   1      31.895  27.062  23.355  1.00  0.00    -0.332 N 
ATOM     19  C   UNL A   1      32.750  27.005  22.161  1.00  0.00     0.333 C 
ATOM     20  H   UNL A   1      32.116  27.835  23.982  1.00  0.00     0.348 HD
BRANCH  18  21
ATOM     21  C   UNL A   1      30.504  27.457  23.007  1.00  0.00     0.183 C 
ATOM     22  C   UNL A   1      29.406  26.750  23.818  1.00  0.00     0.075 C 
BRANCH  21  23
ATOM     23  C   UNL A   1      30.259  28.995  22.905  1.00  0.00     0.041 C 
ATOM     24  C   UNL A   1      28.814  29.310  22.477  1.00  0.00     0.013 C 
ATOM     25  C   UNL A   1      30.532  29.749  24.214  1.00  0.00     0.013 C 
ENDBRANCH  21  23
ENDBRANCH  18  21
ENDBRANCH  11  18
ENDBRANCH   4   7
ENDBRANCH   2   3
ENDBRANCH   1   2
BRANCH   1  26
ATOM     26  C   UNL A   1      38.216  20.548  25.164  1.00  0.00     0.023 C 
BRANCH  26  27
ATOM     27  C   UNL A   1      39.247  20.457  26.273  1.00  0.00     0.116 C 
BRANCH  27  28
ATOM     28  N   UNL A   1      40.379  19.595  25.955  1.00  0.00    -0.352 N 
ATOM     29  C   UNL A   1      41.714  19.919  26.010  1.00  0.00     0.251 C 
ATOM     30  H   UNL A   1      40.163  18.679  25.669  1.00  0.00     0.163 HD
ATOM     31  O   UNL A   1      42.573  19.122  25.645  1.00  0.00    -0.269 OA
BRANCH  29  32
ATOM     32  C   UNL A   1      42.080  21.273  26.464  1.00  0.00     0.039 A 
ATOM     33  C   UNL A   1      42.450  21.461  27.796  1.00  0.00     0.014 A 
ATOM     34  C   UNL A   1      42.183  22.312  25.537  1.00  0.00     0.014 A 
ATOM     35  C   UNL A   1      43.000  22.682  28.183  1.00  0.00     0.010 A 
ATOM     36  C   UNL A   1      42.815  23.492  25.904  1.00  0.00     0.010 A 
ATOM     37  C   UNL A   1      43.227  23.690  27.230  1.00  0.00    -0.014 A 
BRANCH  37  38
ATOM     38  C   UNL A   1      43.880  24.968  27.597  1.00  0.00     0.031 A 
ATOM     39  C   UNL A   1      43.052  26.089  28.161  1.00  0.00     0.074 A 
ATOM     40  C   UNL A   1      45.191  25.148  27.343  1.00  0.00     0.049 A 
ATOM     41  N   UNL A   1      43.415  27.307  28.469  1.00  0.00    -0.248 NA
ATOM     42  C   UNL A   1      41.619  25.818  28.366  1.00  0.00     0.031 C 
ATOM     43  C   UNL A   1      46.085  24.158  26.733  1.00  0.00     0.029 A 
ATOM     44  N   UNL A   1      46.000  26.235  27.558  1.00  0.00    -0.354 N 
ATOM     45  C   UNL A   1      42.252  27.954  28.870  1.00  0.00     0.074 A 
ATOM     46  C   UNL A   1      41.166  27.012  28.717  1.00  0.00     0.031 C 
ATOM     47  C   UNL A   1      47.322  24.675  26.651  1.00  0.00     0.029 A 
ATOM     48  C   UNL A   1      47.304  26.038  27.169  1.00  0.00     0.049 A 
ATOM     49  H   UNL A   1      45.677  27.077  27.952  1.00  0.00     0.167 HD
ATOM     50  C   UNL A   1      42.104  29.211  29.346  1.00  0.00     0.031 A 
ATOM     51  C   UNL A   1      48.367  26.863  27.229  1.00  0.00     0.031 A 
ATOM     52  C   UNL A   1      43.192  30.130  29.534  1.00  0.00     0.049 A 
ATOM     53  C   UNL A   1      48.192  28.237  27.815  1.00  0.00     0.074 A 
ATOM     54  C   UNL A   1      43.164  31.398  30.085  1.00  0.00     0.029 A 
ATOM     55  N   UNL A   1      44.508  29.872  29.180  1.00  0.00    -0.354 N 
ATOM     56  N   UNL A   1      47.097  28.806  28.264  1.00  0.00    -0.248 NA
ATOM     57  C   UNL A   1      49.395  29.073  27.920  1.00  0.00     0.031 C 
ATOM     58  C   UNL A   1      44.461  31.922  30.035  1.00  0.00     0.029 A 
ATOM     59  C   UNL A   1      45.302  30.962  29.490  1.00  0.00     0.049 A 
ATOM     60  H   UNL A   1      44.830  29.038  28.769  1.00  0.00     0.167 HD
ATOM     61  C   UNL A   1      47.484  30.059  28.722  1.00  0.00     0.074 A 
ATOM     62  C   UNL A   1      48.914  30.160  28.511  1.00  0.00     0.031 C 
ATOM     63  C   UNL A   1      46.723  31.039  29.271  1.00  0.00     0.031 A 
BRANCH  50  64
ATOM     64  C   UNL A   1      40.709  29.655  29.695  1.00  0.00    -0.014 A 
ATOM     65  C   UNL A   1      40.285  29.730  31.035  1.00  0.00     0.010 A 
ATOM     66  C   UNL A   1      39.808  29.999  28.672  1.00  0.00     0.010 A 
ATOM     67  C   UNL A   1      38.969  30.085  31.342  1.00  0.00     0.020 A 
ATOM     68  C   UNL A   1      38.499  30.383  28.977  1.00  0.00     0.020 A 
ATOM     69  C   UNL A   1      38.082  30.402  30.309  1.00  0.00     0.054 A 
BRANCH  69  70
ATOM     70  S   UNL A   1      36.380  30.860  30.733  1.00  0.00     0.124 S 
ATOM     71  O   UNL A   1      35.689  30.657  29.461  1.00  0.00    -0.237 OA
ATOM     72  O   UNL A   1      36.041  29.909  31.789  1.00  0.00    -0.237 OA
ATOM     73  O   UNL A   1      36.493  32.251  31.165  1.00  0.00    -0.744 OA
ENDBRANCH  69  70
ENDBRANCH  50  64
BRANCH  51  74
ATOM     74  C   UNL A   1      49.696  26.394  26.755  1.00  0.00    -0.014 A 
ATOM     75  C   UNL A   1      50.604  25.805  27.654  1.00  0.00     0.010 A 
ATOM     76  C   UNL A   1      50.050  26.502  25.398  1.00  0.00     0.010 A 
ATOM     77  C   UNL A   1      51.844  25.341  27.207  1.00  0.00     0.020 A 
ATOM     78  C   UNL A   1      51.282  26.019  24.944  1.00  0.00     0.020 A 
ATOM     79  C   UNL A   1      52.175  25.449  25.854  1.00  0.00     0.054 A 
BRANCH  79  80
ATOM     80  S   UNL A   1      53.761  24.777  25.282  1.00  0.00     0.124 S 
ATOM     81  O   UNL A   1      54.038  25.606  24.114  1.00  0.00    -0.237 OA
ATOM     82  O   UNL A   1      54.632  24.995  26.435  1.00  0.00    -0.237 OA
ATOM     83  O   UNL A   1      53.455  23.376  25.000  1.00  0.00    -0.744 OA
ENDBRANCH  79  80
ENDBRANCH  51  74
BRANCH  63  84
ATOM     84  C   UNL A   1      47.426  32.296  29.703  1.00  0.00    -0.014 A 
ATOM     85  C   UNL A   1      47.595  33.372  28.817  1.00  0.00     0.010 A 
ATOM     86  C   UNL A   1      47.864  32.421  31.034  1.00  0.00     0.010 A 
ATOM     87  C   UNL A   1      48.214  34.548  29.248  1.00  0.00     0.020 A 
ATOM     88  C   UNL A   1      48.464  33.603  31.474  1.00  0.00     0.020 A 
ATOM     89  C   UNL A   1      48.646  34.655  30.574  1.00  0.00     0.054 A 
BRANCH  89  90
ATOM     90  S   UNL A   1      49.400  36.209  31.126  1.00  0.00     0.124 S 
ATOM     91  O   UNL A   1      49.410  36.995  29.895  1.00  0.00    -0.237 OA
ATOM     92  O   UNL A   1      48.475  36.670  32.158  1.00  0.00    -0.237 OA
ATOM     93  O   UNL A   1      50.716  35.800  31.615  1.00  0.00    -0.744 OA
ENDBRANCH  89  90
ENDBRANCH  63  84
ENDBRANCH  37  38
ENDBRANCH  29  32
ENDBRANCH  27  28
ENDBRANCH  26  27
ENDBRANCH   1  26
TORSDOF 19
ENDMDL
MODEL 3
REMARK VINA RESULT:      -9.7      5.230      6.913
REMARK SMILES CC(C)[NH2+][C@]1(C(=O)NCCCCNC(=O)c2ccc(-c3c4nc(c(-c5ccc(S(=O)(=O)[O-])cc5)c5ccc([nH]5)c(-c5ccc(S(=O)(=O)[O-])cc5)c5nc(c(-c6ccc(S(=O)(=O)[O-])cc6)c6ccc3[nH]6)C=C5)C=C4)cc2)CC[C@@H]([N@@H+](C)[C@@H](C)C(C)C)C1
REMARK SMILES IDX 10 1 9 2 8 3 6 4 7 5 5 7 76 8 86 9 77 10 78 11 4 12 2 15
REMARK SMILES IDX 1 16 3 17 79 18 80 19 81 21 82 22 83 23 84 24 85 25 11 26
REMARK SMILES IDX 12 27 13 28 14 29 15 31 16 32 17 33 75 34 18 35 74 36 19 37
REMARK SMILES IDX 20 38 21 39 68 40 22 41 73 42 67 43 69 44 23 45 72 46 66 47
REMARK SMILES IDX 65 48 24 50 54 51 35 52 53 53 36 54 39 55 52 56 70 57 37 58
REMARK SMILES IDX 38 59 51 61 71 62 40 63 25 64 26 65 34 66 27 67 33 68 28 69
REMARK SMILES IDX 29 70 30 71 31 72 32 73 55 74 56 75 64 76 57 77 63 78 58 79
REMARK SMILES IDX 59 80 60 81 61 82 62 83 41 84 42 85 50 86 43 87 49 88 44 89
REMARK SMILES IDX 45 90 46 91 47 92 48 93
REMARK H PARENT 8 6 4 13 4 14 79 20 13 30 69 49 39 60
REMARK Flexibility Score: inf
ROOT
ATOM      1  C   UNL A   1      33.665  26.692  25.712  1.00  0.00     0.023 C 
ENDROOT
BRANCH   1   2
ATOM      2  C   UNL A   1      33.862  25.601  24.652  1.00  0.00     0.116 C 
BRANCH   2   3
ATOM      3  N   UNL A   1      34.877  24.659  25.088  1.00  0.00    -0.351 N 
ATOM      4  C   UNL A   1      34.757  23.520  25.837  1.00  0.00     0.281 C 
ATOM      5  O   UNL A   1      35.803  23.091  26.335  1.00  0.00    -0.268 OA
ATOM      6  H   UNL A   1      35.793  24.873  24.801  1.00  0.00     0.163 HD
BRANCH   4   7
ATOM      7  C   UNL A   1      33.398  22.757  25.983  1.00  0.00     0.181 C 
ATOM      8  C   UNL A   1      32.954  22.351  24.556  1.00  0.00     0.085 C 
ATOM      9  C   UNL A   1      33.557  21.382  26.681  1.00  0.00     0.144 C 
ATOM     10  C   UNL A   1      32.134  21.082  24.706  1.00  0.00     0.072 C 
ATOM     11  C   UNL A   1      32.762  20.332  25.881  1.00  0.00     0.191 C 
BRANCH   7  12
ATOM     12  N   UNL A   1      32.320  23.543  26.641  1.00  0.00    -0.331 N 
ATOM     13  H   UNL A   1      32.198  23.167  27.581  1.00  0.00     0.347 HD
ATOM     14  H   UNL A   1      32.639  24.510  26.597  1.00  0.00     0.347 HD
BRANCH  12  15
ATOM     15  C   UNL A   1      31.003  23.552  25.995  1.00  0.00     0.176 C 
ATOM     16  C   UNL A   1      30.032  22.850  26.949  1.00  0.00     0.075 C 
ATOM     17  C   UNL A   1      30.447  24.911  25.587  1.00  0.00     0.075 C 
ENDBRANCH  12  15
ENDBRANCH   7  12
BRANCH  11  18
ATOM     18  N   UNL A   1      33.420  19.028  25.661  1.00  0.00    -0.332 N 
ATOM     19  C   UNL A   1      32.565  17.933  26.141  1.00  0.00     0.333 C 
ATOM     20  H   UNL A   1      34.259  19.171  26.222  1.00  0.00     0.348 HD
BRANCH  18  21
ATOM     21  C   UNL A   1      34.079  18.676  24.374  1.00  0.00     0.183 C 
ATOM     22  C   UNL A   1      35.591  18.417  24.470  1.00  0.00     0.075 C 
BRANCH  21  23
ATOM     23  C   UNL A   1      33.348  17.582  23.534  1.00  0.00     0.041 C 
ATOM     24  C   UNL A   1      32.479  18.207  22.428  1.00  0.00     0.013 C 
ATOM     25  C   UNL A   1      34.302  16.581  22.867  1.00  0.00     0.013 C 
ENDBRANCH  21  23
ENDBRANCH  18  21
ENDBRANCH  11  18
ENDBRANCH   4   7
ENDBRANCH   2   3
ENDBRANCH   1   2
BRANCH   1  26
ATOM     26  C   UNL A   1      34.276  28.046  25.370  1.00  0.00     0.023 C 
BRANCH  26  27
ATOM     27  C   UNL A   1      34.695  28.868  26.575  1.00  0.00     0.116 C 
BRANCH  27  28
ATOM     28  N   UNL A   1      33.989  30.137  26.696  1.00  0.00    -0.352 N 
ATOM     29  C   UNL A   1      34.278  31.174  27.552  1.00  0.00     0.251 C 
ATOM     30  H   UNL A   1      33.218  30.267  26.098  1.00  0.00     0.163 HD
ATOM     31  O   UNL A   1      33.559  32.167  27.608  1.00  0.00    -0.269 OA
BRANCH  29  32
ATOM     32  C   UNL A   1      35.445  31.031  28.442  1.00  0.00     0.039 A 
ATOM     33  C   UNL A   1      35.470  29.981  29.359  1.00  0.00     0.014 A 
ATOM     34  C   UNL A   1      36.557  31.858  28.265  1.00  0.00     0.014 A 
ATOM     35  C   UNL A   1      36.651  29.710  30.050  1.00  0.00     0.010 A 
ATOM     36  C   UNL A   1      37.755  31.529  28.884  1.00  0.00     0.010 A 
ATOM     37  C   UNL A   1      37.813  30.454  29.785  1.00  0.00    -0.014 A 
BRANCH  37  38
ATOM     38  C   UNL A   1      39.100  30.140  30.446  1.00  0.00     0.031 A 
ATOM     39  C   UNL A   1      39.967  29.040  29.898  1.00  0.00     0.074 A 
ATOM     40  C   UNL A   1      39.446  30.781  31.580  1.00  0.00     0.049 A 
ATOM     41  N   UNL A   1      41.085  28.558  30.373  1.00  0.00    -0.248 NA
ATOM     42  C   UNL A   1      39.491  28.365  28.679  1.00  0.00     0.031 C 
ATOM     43  C   UNL A   1      38.654  31.818  32.248  1.00  0.00     0.029 A 
ATOM     44  N   UNL A   1      40.552  30.644  32.380  1.00  0.00    -0.354 N 
ATOM     45  C   UNL A   1      41.426  27.505  29.533  1.00  0.00     0.074 A 
ATOM     46  C   UNL A   1      40.372  27.385  28.551  1.00  0.00     0.031 C 
ATOM     47  C   UNL A   1      39.314  32.242  33.337  1.00  0.00     0.029 A 
ATOM     48  C   UNL A   1      40.557  31.488  33.465  1.00  0.00     0.049 A 
ATOM     49  H   UNL A   1      41.274  30.001  32.195  1.00  0.00     0.167 HD
ATOM     50  C   UNL A   1      42.530  26.722  29.560  1.00  0.00     0.031 A 
ATOM     51  C   UNL A   1      41.463  31.640  34.450  1.00  0.00     0.031 A 
ATOM     52  C   UNL A   1      43.593  26.872  30.513  1.00  0.00     0.049 A 
ATOM     53  C   UNL A   1      42.710  30.800  34.429  1.00  0.00     0.074 A 
ATOM     54  C   UNL A   1      44.793  26.187  30.581  1.00  0.00     0.029 A 
ATOM     55  N   UNL A   1      43.586  27.777  31.564  1.00  0.00    -0.354 N 
ATOM     56  N   UNL A   1      43.054  29.860  33.579  1.00  0.00    -0.248 NA
ATOM     57  C   UNL A   1      43.698  31.051  35.486  1.00  0.00     0.031 C 
ATOM     58  C   UNL A   1      45.499  26.656  31.695  1.00  0.00     0.029 A 
ATOM     59  C   UNL A   1      44.755  27.662  32.295  1.00  0.00     0.049 A 
ATOM     60  H   UNL A   1      42.857  28.408  31.762  1.00  0.00     0.167 HD
ATOM     61  C   UNL A   1      44.308  29.422  33.988  1.00  0.00     0.074 A 
ATOM     62  C   UNL A   1      44.667  30.208  35.151  1.00  0.00     0.031 C 
ATOM     63  C   UNL A   1      45.092  28.456  33.448  1.00  0.00     0.031 A 
BRANCH  50  64
ATOM     64  C   UNL A   1      42.630  25.639  28.521  1.00  0.00    -0.014 A 
ATOM     65  C   UNL A   1      42.168  24.336  28.784  1.00  0.00     0.010 A 
ATOM     66  C   UNL A   1      43.195  25.924  27.265  1.00  0.00     0.010 A 
ATOM     67  C   UNL A   1      42.321  23.325  27.833  1.00  0.00     0.020 A 
ATOM     68  C   UNL A   1      43.325  24.921  26.300  1.00  0.00     0.020 A 
ATOM     69  C   UNL A   1      42.907  23.622  26.599  1.00  0.00     0.054 A 
BRANCH  69  70
ATOM     70  S   UNL A   1      43.095  22.293  25.380  1.00  0.00     0.124 S 
ATOM     71  O   UNL A   1      41.827  21.581  25.515  1.00  0.00    -0.237 OA
ATOM     72  O   UNL A   1      43.274  23.025  24.128  1.00  0.00    -0.237 OA
ATOM     73  O   UNL A   1      44.273  21.564  25.844  1.00  0.00    -0.744 OA
ENDBRANCH  69  70
ENDBRANCH  50  64
BRANCH  51  74
ATOM     74  C   UNL A   1      41.239  32.655  35.513  1.00  0.00    -0.014 A 
ATOM     75  C   UNL A   1      41.729  33.964  35.359  1.00  0.00     0.010 A 
ATOM     76  C   UNL A   1      40.506  32.330  36.669  1.00  0.00     0.010 A 
ATOM     77  C   UNL A   1      41.498  34.927  36.346  1.00  0.00     0.020 A 
ATOM     78  C   UNL A   1      40.255  33.296  37.648  1.00  0.00     0.020 A 
ATOM     79  C   UNL A   1      40.761  34.588  37.484  1.00  0.00     0.054 A 
BRANCH  79  80
ATOM     80  S   UNL A   1      40.414  35.872  38.719  1.00  0.00     0.124 S 
ATOM     81  O   UNL A   1      39.618  35.141  39.700  1.00  0.00    -0.237 OA
ATOM     82  O   UNL A   1      41.753  36.263  39.154  1.00  0.00    -0.237 OA
ATOM     83  O   UNL A   1      39.694  36.890  37.958  1.00  0.00    -0.744 OA
ENDBRANCH  79  80
ENDBRANCH  51  74
BRANCH  63  84
ATOM     84  C   UNL A   1      46.426  28.210  34.095  1.00  0.00    -0.014 A 
ATOM     85  C   UNL A   1      47.586  28.855  33.631  1.00  0.00     0.010 A 
ATOM     86  C   UNL A   1      46.506  27.371  35.222  1.00  0.00     0.010 A 
ATOM     87  C   UNL A   1      48.810  28.645  34.270  1.00  0.00     0.020 A 
ATOM     88  C   UNL A   1      47.724  27.177  35.876  1.00  0.00     0.020 A 
ATOM     89  C   UNL A   1      48.871  27.806  35.388  1.00  0.00     0.054 A 
BRANCH  89  90
ATOM     90  S   UNL A   1      50.461  27.590  36.233  1.00  0.00     0.124 S 
ATOM     91  O   UNL A   1      50.227  26.379  37.015  1.00  0.00    -0.237 OA
ATOM     92  O   UNL A   1      51.401  27.449  35.123  1.00  0.00    -0.237 OA
ATOM     93  O   UNL A   1      50.608  28.818  37.012  1.00  0.00    -0.744 OA
ENDBRANCH  89  90
ENDBRANCH  63  84
ENDBRANCH  37  38
ENDBRANCH  29  32
ENDBRANCH  27  28
ENDBRANCH  26  27
ENDBRANCH   1  26
TORSDOF 19
ENDMDL
