MODEL 1
REMARK VINA RESULT:     -11.3      0.000      0.000
REMARK SMILES C[C@@H](C(=O)NCCCCNC(=O)c1ccc(-c2c3nc(c(-c4ccc(S(=O)(=O)[O-])cc4)c4ccc([nH]4)c(-c4ccc(S(=O)(=O)[O-])cc4)c4nc(c(-c5ccc(S(=O)(=O)[O-])cc5)c5ccc2[nH]5)C=C4)C=C3)cc1)c1ccc(C[C@H]2CCC[C@@H]2O)cc1Br
REMARK SMILES IDX 7 1 6 2 5 3 3 4 4 5 2 7 1 8 73 9 74 10 85 11 75 12 84 13
REMARK SMILES IDX 86 14 76 15 77 16 78 17 79 18 82 19 80 20 81 21 83 22 8 24
REMARK SMILES IDX 9 25 10 26 11 27 12 29 13 30 14 31 72 32 15 33 71 34 16 35
REMARK SMILES IDX 17 36 18 37 65 38 19 39 70 40 64 41 66 42 20 43 69 44 63 45
REMARK SMILES IDX 62 46 21 48 51 49 32 50 50 51 33 52 36 53 49 54 67 55 34 56
REMARK SMILES IDX 35 57 48 59 68 60 37 61 22 62 23 63 31 64 24 65 30 66 25 67
REMARK SMILES IDX 26 68 27 69 28 70 29 71 52 72 53 73 61 74 54 75 60 76 55 77
REMARK SMILES IDX 56 78 57 79 58 80 59 81 38 82 39 83 47 84 40 85 46 86 41 87
REMARK SMILES IDX 42 88 43 89 44 90 45 91
REMARK H PARENT 5 6 83 23 10 28 66 47 36 58
REMARK Flexibility Score: inf
ROOT
ATOM      1  C   UNL A   1      32.090  30.373  26.100  1.00  0.00     0.023 C 
ENDROOT
BRANCH   1   2
ATOM      2  C   UNL A   1      33.290  29.442  26.255  1.00  0.00     0.116 C 
BRANCH   2   3
ATOM      3  N   UNL A   1      34.035  29.294  25.022  1.00  0.00    -0.356 N 
ATOM      4  C   UNL A   1      33.921  28.381  24.016  1.00  0.00     0.227 C 
ATOM      5  O   UNL A   1      34.546  28.633  22.983  1.00  0.00    -0.274 OA
ATOM      6  H   UNL A   1      34.744  29.965  24.888  1.00  0.00     0.163 HD
BRANCH   4   7
ATOM      7  C   UNL A   1      32.969  27.180  24.145  1.00  0.00     0.106 C 
ATOM      8  C   UNL A   1      33.424  25.882  23.468  1.00  0.00     0.023 C 
BRANCH   7   9
ATOM      9  C   UNL A   1      31.535  27.489  23.703  1.00  0.00    -0.022 A 
ATOM     10  C   UNL A   1      31.366  28.437  22.674  1.00  0.00     0.006 A 
ATOM     11  C   UNL A   1      30.376  26.959  24.301  1.00  0.00     0.022 A 
ATOM     12  C   UNL A   1      30.099  28.894  22.303  1.00  0.00     0.004 A 
ATOM     13  C   UNL A   1      29.109  27.419  23.922  1.00  0.00     0.019 A 
ATOM     14  Br  UNL A   1      30.390  25.658  25.690  1.00  0.00    -0.051 Br
ATOM     15  C   UNL A   1      28.961  28.424  22.960  1.00  0.00    -0.047 A 
BRANCH  15  16
ATOM     16  C   UNL A   1      27.601  29.023  22.698  1.00  0.00     0.041 C 
BRANCH  16  17
ATOM     17  C   UNL A   1      27.569  30.560  22.589  1.00  0.00     0.022 C 
ATOM     18  C   UNL A   1      28.175  31.338  23.772  1.00  0.00     0.007 C 
ATOM     19  C   UNL A   1      28.257  31.153  21.356  1.00  0.00     0.117 C 
ATOM     20  C   UNL A   1      28.840  32.579  23.171  1.00  0.00     0.003 C 
ATOM     21  C   UNL A   1      28.387  32.624  21.721  1.00  0.00     0.032 C 
BRANCH  19  22
ATOM     22  O   UNL A   1      27.476  31.001  20.185  1.00  0.00    -0.393 OA
ATOM     23  H   UNL A   1      26.535  31.038  20.417  1.00  0.00     0.210 HD
ENDBRANCH  19  22
ENDBRANCH  16  17
ENDBRANCH  15  16
ENDBRANCH   7   9
ENDBRANCH   4   7
ENDBRANCH   2   3
ENDBRANCH   1   2
BRANCH   1  24
ATOM     24  C   UNL A   1      31.936  31.426  27.202  1.00  0.00     0.023 C 
BRANCH  24  25
ATOM     25  C   UNL A   1      33.138  32.339  27.421  1.00  0.00     0.116 C 
BRANCH  25  26
ATOM     26  N   UNL A   1      32.768  33.728  27.644  1.00  0.00    -0.352 N 
ATOM     27  C   UNL A   1      33.269  34.626  28.558  1.00  0.00     0.251 C 
ATOM     28  H   UNL A   1      32.058  34.074  27.057  1.00  0.00     0.163 HD
ATOM     29  O   UNL A   1      32.759  35.733  28.671  1.00  0.00    -0.269 OA
BRANCH  27  30
ATOM     30  C   UNL A   1      34.396  34.230  29.431  1.00  0.00     0.039 A 
ATOM     31  C   UNL A   1      34.110  33.657  30.673  1.00  0.00     0.014 A 
ATOM     32  C   UNL A   1      35.721  34.388  29.015  1.00  0.00     0.014 A 
ATOM     33  C   UNL A   1      35.151  33.156  31.459  1.00  0.00     0.010 A 
ATOM     34  C   UNL A   1      36.752  33.838  29.773  1.00  0.00     0.010 A 
ATOM     35  C   UNL A   1      36.476  33.198  30.991  1.00  0.00    -0.014 A 
BRANCH  35  36
ATOM     36  C   UNL A   1      37.571  32.516  31.727  1.00  0.00     0.031 A 
ATOM     37  C   UNL A   1      38.067  33.057  33.038  1.00  0.00     0.074 A 
ATOM     38  C   UNL A   1      38.176  31.449  31.162  1.00  0.00     0.049 A 
ATOM     39  N   UNL A   1      39.062  32.636  33.777  1.00  0.00    -0.248 NA
ATOM     40  C   UNL A   1      37.370  34.235  33.582  1.00  0.00     0.031 C 
ATOM     41  C   UNL A   1      37.819  30.857  29.869  1.00  0.00     0.029 A 
ATOM     42  N   UNL A   1      39.229  30.684  31.595  1.00  0.00    -0.354 N 
ATOM     43  C   UNL A   1      39.123  33.502  34.861  1.00  0.00     0.074 A 
ATOM     44  C   UNL A   1      38.084  34.492  34.670  1.00  0.00     0.031 C 
ATOM     45  C   UNL A   1      38.631  29.818  29.622  1.00  0.00     0.029 A 
ATOM     46  C   UNL A   1      39.590  29.691  30.714  1.00  0.00     0.049 A 
ATOM     47  H   UNL A   1      39.684  30.830  32.457  1.00  0.00     0.167 HD
ATOM     48  C   UNL A   1      39.961  33.468  35.925  1.00  0.00     0.031 A 
ATOM     49  C   UNL A   1      40.591  28.791  30.766  1.00  0.00     0.031 A 
ATOM     50  C   UNL A   1      40.981  32.473  36.121  1.00  0.00     0.049 A 
ATOM     51  C   UNL A   1      41.512  28.784  31.954  1.00  0.00     0.074 A 
ATOM     52  C   UNL A   1      41.823  32.311  37.208  1.00  0.00     0.029 A 
ATOM     53  N   UNL A   1      41.306  31.478  35.212  1.00  0.00    -0.354 N 
ATOM     54  N   UNL A   1      41.496  29.559  33.012  1.00  0.00    -0.248 NA
ATOM     55  C   UNL A   1      42.584  27.779  31.959  1.00  0.00     0.031 C 
ATOM     56  C   UNL A   1      42.693  31.251  36.934  1.00  0.00     0.029 A 
ATOM     57  C   UNL A   1      42.359  30.721  35.698  1.00  0.00     0.049 A 
ATOM     58  H   UNL A   1      40.856  31.332  34.350  1.00  0.00     0.167 HD
ATOM     59  C   UNL A   1      42.546  29.125  33.813  1.00  0.00     0.074 A 
ATOM     60  C   UNL A   1      43.161  28.006  33.130  1.00  0.00     0.031 C 
ATOM     61  C   UNL A   1      42.966  29.614  35.006  1.00  0.00     0.031 A 
BRANCH  48  62
ATOM     62  C   UNL A   1      39.814  34.540  36.971  1.00  0.00    -0.014 A 
ATOM     63  C   UNL A   1      38.995  34.344  38.096  1.00  0.00     0.010 A 
ATOM     64  C   UNL A   1      40.572  35.721  36.870  1.00  0.00     0.010 A 
ATOM     65  C   UNL A   1      38.921  35.320  39.094  1.00  0.00     0.020 A 
ATOM     66  C   UNL A   1      40.518  36.689  37.877  1.00  0.00     0.020 A 
ATOM     67  C   UNL A   1      39.684  36.485  38.978  1.00  0.00     0.054 A 
BRANCH  67  68
ATOM     68  S   UNL A   1      39.611  37.708  40.317  1.00  0.00     0.124 S 
ATOM     69  O   UNL A   1      38.220  38.149  40.245  1.00  0.00    -0.237 OA
ATOM     70  O   UNL A   1      39.959  36.917  41.493  1.00  0.00    -0.237 OA
ATOM     71  O   UNL A   1      40.602  38.709  39.928  1.00  0.00    -0.744 OA
ENDBRANCH  67  68
ENDBRANCH  48  62
BRANCH  49  72
ATOM     72  C   UNL A   1      40.790  27.827  29.650  1.00  0.00    -0.014 A 
ATOM     73  C   UNL A   1      39.923  26.733  29.485  1.00  0.00     0.010 A 
ATOM     74  C   UNL A   1      41.861  27.992  28.753  1.00  0.00     0.010 A 
ATOM     75  C   UNL A   1      40.139  25.805  28.463  1.00  0.00     0.020 A 
ATOM     76  C   UNL A   1      42.066  27.081  27.712  1.00  0.00     0.020 A 
ATOM     77  C   UNL A   1      41.212  25.984  27.585  1.00  0.00     0.054 A 
BRANCH  77  78
ATOM     78  S   UNL A   1      41.461  24.785  26.246  1.00  0.00     0.124 S 
ATOM     79  O   UNL A   1      41.221  25.601  25.060  1.00  0.00    -0.237 OA
ATOM     80  O   UNL A   1      42.844  24.360  26.453  1.00  0.00    -0.237 OA
ATOM     81  O   UNL A   1      40.456  23.760  26.517  1.00  0.00    -0.744 OA
ENDBRANCH  77  78
ENDBRANCH  49  72
BRANCH  61  82
ATOM     82  C   UNL A   1      44.138  28.932  35.656  1.00  0.00    -0.014 A 
ATOM     83  C   UNL A   1      43.948  27.843  36.524  1.00  0.00     0.010 A 
ATOM     84  C   UNL A   1      45.446  29.351  35.355  1.00  0.00     0.010 A 
ATOM     85  C   UNL A   1      45.047  27.203  37.103  1.00  0.00     0.020 A 
ATOM     86  C   UNL A   1      46.548  28.697  35.912  1.00  0.00     0.020 A 
ATOM     87  C   UNL A   1      46.340  27.635  36.793  1.00  0.00     0.054 A 
BRANCH  87  88
ATOM     88  S   UNL A   1      47.752  26.758  37.520  1.00  0.00     0.124 S 
ATOM     89  O   UNL A   1      47.141  26.103  38.674  1.00  0.00    -0.237 OA
ATOM     90  O   UNL A   1      48.170  25.867  36.440  1.00  0.00    -0.237 OA
ATOM     91  O   UNL A   1      48.697  27.827  37.837  1.00  0.00    -0.744 OA
ENDBRANCH  87  88
ENDBRANCH  61  82
ENDBRANCH  35  36
ENDBRANCH  27  30
ENDBRANCH  25  26
ENDBRANCH  24  25
ENDBRANCH   1  24
TORSDOF 18
ENDMDL
MODEL 2
REMARK VINA RESULT:     -11.2      4.879      7.035
REMARK SMILES C[C@@H](C(=O)NCCCCNC(=O)c1ccc(-c2c3nc(c(-c4ccc(S(=O)(=O)[O-])cc4)c4ccc([nH]4)c(-c4ccc(S(=O)(=O)[O-])cc4)c4nc(c(-c5ccc(S(=O)(=O)[O-])cc5)c5ccc2[nH]5)C=C4)C=C3)cc1)c1ccc(C[C@H]2CCC[C@@H]2O)cc1Br
REMARK SMILES IDX 7 1 6 2 5 3 3 4 4 5 2 7 1 8 73 9 74 10 85 11 75 12 84 13
REMARK SMILES IDX 86 14 76 15 77 16 78 17 79 18 82 19 80 20 81 21 83 22 8 24
REMARK SMILES IDX 9 25 10 26 11 27 12 29 13 30 14 31 72 32 15 33 71 34 16 35
REMARK SMILES IDX 17 36 18 37 65 38 19 39 70 40 64 41 66 42 20 43 69 44 63 45
REMARK SMILES IDX 62 46 21 48 51 49 32 50 50 51 33 52 36 53 49 54 67 55 34 56
REMARK SMILES IDX 35 57 48 59 68 60 37 61 22 62 23 63 31 64 24 65 30 66 25 67
REMARK SMILES IDX 26 68 27 69 28 70 29 71 52 72 53 73 61 74 54 75 60 76 55 77
REMARK SMILES IDX 56 78 57 79 58 80 59 81 38 82 39 83 47 84 40 85 46 86 41 87
REMARK SMILES IDX 42 88 43 89 44 90 45 91
REMARK H PARENT 5 6 83 23 10 28 66 47 36 58
REMARK Flexibility Score: inf
ROOT
ATOM      1  C   UNL A   1      32.232  28.186  24.905  1.00  0.00     0.023 C 
ENDROOT
BRANCH   1   2
ATOM      2  C   UNL A   1      31.278  27.202  25.578  1.00  0.00     0.116 C 
BRANCH   2   3
ATOM      3  N   UNL A   1      30.378  26.573  24.633  1.00  0.00    -0.356 N 
ATOM      4  C   UNL A   1      30.616  25.666  23.645  1.00  0.00     0.227 C 
ATOM      5  O   UNL A   1      29.619  25.141  23.141  1.00  0.00    -0.274 OA
ATOM      6  H   UNL A   1      29.436  26.848  24.720  1.00  0.00     0.163 HD
BRANCH   4   7
ATOM      7  C   UNL A   1      32.052  25.253  23.281  1.00  0.00     0.106 C 
ATOM      8  C   UNL A   1      32.480  25.506  21.831  1.00  0.00     0.023 C 
BRANCH   7   9
ATOM      9  C   UNL A   1      32.379  23.802  23.645  1.00  0.00    -0.022 A 
ATOM     10  C   UNL A   1      31.906  22.796  22.779  1.00  0.00     0.006 A 
ATOM     11  C   UNL A   1      33.045  23.396  24.817  1.00  0.00     0.022 A 
ATOM     12  C   UNL A   1      32.025  21.442  23.099  1.00  0.00     0.004 A 
ATOM     13  C   UNL A   1      33.165  22.036  25.130  1.00  0.00     0.019 A 
ATOM     14  Br  UNL A   1      33.773  24.595  26.103  1.00  0.00    -0.051 Br
ATOM     15  C   UNL A   1      32.612  21.051  24.303  1.00  0.00    -0.047 A 
BRANCH  15  16
ATOM     16  C   UNL A   1      32.600  19.610  24.750  1.00  0.00     0.041 C 
BRANCH  16  17
ATOM     17  C   UNL A   1      33.499  18.661  23.936  1.00  0.00     0.022 C 
ATOM     18  C   UNL A   1      34.685  18.032  24.692  1.00  0.00     0.007 C 
ATOM     19  C   UNL A   1      32.790  17.467  23.289  1.00  0.00     0.117 C 
ATOM     20  C   UNL A   1      34.850  16.618  24.128  1.00  0.00     0.003 C 
ATOM     21  C   UNL A   1      33.949  16.557  22.907  1.00  0.00     0.032 C 
BRANCH  19  22
ATOM     22  O   UNL A   1      32.056  17.843  22.139  1.00  0.00    -0.393 OA
ATOM     23  H   UNL A   1      32.627  18.350  21.541  1.00  0.00     0.210 HD
ENDBRANCH  19  22
ENDBRANCH  16  17
ENDBRANCH  15  16
ENDBRANCH   7   9
ENDBRANCH   4   7
ENDBRANCH   2   3
ENDBRANCH   1   2
BRANCH   1  24
ATOM     24  C   UNL A   1      33.534  28.455  25.666  1.00  0.00     0.023 C 
BRANCH  24  25
ATOM     25  C   UNL A   1      33.390  28.686  27.167  1.00  0.00     0.116 C 
BRANCH  25  26
ATOM     26  N   UNL A   1      33.395  30.094  27.532  1.00  0.00    -0.352 N 
ATOM     27  C   UNL A   1      34.394  30.837  28.118  1.00  0.00     0.251 C 
ATOM     28  H   UNL A   1      32.566  30.585  27.330  1.00  0.00     0.163 HD
ATOM     29  O   UNL A   1      34.180  31.996  28.448  1.00  0.00    -0.269 OA
BRANCH  27  30
ATOM     30  C   UNL A   1      35.709  30.215  28.385  1.00  0.00     0.039 A 
ATOM     31  C   UNL A   1      36.653  30.179  27.355  1.00  0.00     0.014 A 
ATOM     32  C   UNL A   1      36.023  29.705  29.648  1.00  0.00     0.014 A 
ATOM     33  C   UNL A   1      37.945  29.716  27.618  1.00  0.00     0.010 A 
ATOM     34  C   UNL A   1      37.327  29.298  29.923  1.00  0.00     0.010 A 
ATOM     35  C   UNL A   1      38.306  29.319  28.917  1.00  0.00    -0.014 A 
BRANCH  35  36
ATOM     36  C   UNL A   1      39.715  28.994  29.256  1.00  0.00     0.031 A 
ATOM     37  C   UNL A   1      40.617  30.033  29.861  1.00  0.00     0.074 A 
ATOM     38  C   UNL A   1      40.202  27.776  28.937  1.00  0.00     0.049 A 
ATOM     39  N   UNL A   1      41.891  29.946  30.148  1.00  0.00    -0.248 NA
ATOM     40  C   UNL A   1      40.019  31.343  30.163  1.00  0.00     0.031 C 
ATOM     41  C   UNL A   1      39.439  26.697  28.301  1.00  0.00     0.029 A 
ATOM     42  N   UNL A   1      41.459  27.247  29.086  1.00  0.00    -0.354 N 
ATOM     43  C   UNL A   1      42.252  31.191  30.648  1.00  0.00     0.074 A 
ATOM     44  C   UNL A   1      41.071  32.025  30.598  1.00  0.00     0.031 C 
ATOM     45  C   UNL A   1      40.241  25.635  28.127  1.00  0.00     0.029 A 
ATOM     46  C   UNL A   1      41.581  25.966  28.600  1.00  0.00     0.049 A 
ATOM     47  H   UNL A   1      42.204  27.737  29.504  1.00  0.00     0.167 HD
ATOM     48  C   UNL A   1      43.456  31.596  31.119  1.00  0.00     0.031 A 
ATOM     49  C   UNL A   1      42.653  25.154  28.523  1.00  0.00     0.031 A 
ATOM     50  C   UNL A   1      44.624  30.759  31.184  1.00  0.00     0.049 A 
ATOM     51  C   UNL A   1      43.979  25.636  29.043  1.00  0.00     0.074 A 
ATOM     52  C   UNL A   1      45.865  31.059  31.720  1.00  0.00     0.029 A 
ATOM     53  N   UNL A   1      44.704  29.465  30.693  1.00  0.00    -0.354 N 
ATOM     54  N   UNL A   1      44.277  26.788  29.593  1.00  0.00    -0.248 NA
ATOM     55  C   UNL A   1      45.112  24.707  28.935  1.00  0.00     0.031 C 
ATOM     56  C   UNL A   1      46.710  29.965  31.506  1.00  0.00     0.029 A 
ATOM     57  C   UNL A   1      45.981  28.966  30.882  1.00  0.00     0.049 A 
ATOM     58  H   UNL A   1      43.962  28.975  30.272  1.00  0.00     0.167 HD
ATOM     59  C   UNL A   1      45.629  26.715  29.910  1.00  0.00     0.074 A 
ATOM     60  C   UNL A   1      46.084  25.400  29.512  1.00  0.00     0.031 C 
ATOM     61  C   UNL A   1      46.423  27.657  30.475  1.00  0.00     0.031 A 
BRANCH  48  62
ATOM     62  C   UNL A   1      43.580  33.014  31.606  1.00  0.00    -0.014 A 
ATOM     63  C   UNL A   1      43.373  33.334  32.959  1.00  0.00     0.010 A 
ATOM     64  C   UNL A   1      43.993  34.024  30.717  1.00  0.00     0.010 A 
ATOM     65  C   UNL A   1      43.558  34.643  33.412  1.00  0.00     0.020 A 
ATOM     66  C   UNL A   1      44.200  35.330  31.171  1.00  0.00     0.020 A 
ATOM     67  C   UNL A   1      43.971  35.632  32.514  1.00  0.00     0.054 A 
BRANCH  67  68
ATOM     68  S   UNL A   1      44.258  37.311  33.143  1.00  0.00     0.124 S 
ATOM     69  O   UNL A   1      45.465  37.129  33.944  1.00  0.00    -0.237 OA
ATOM     70  O   UNL A   1      44.427  38.087  31.918  1.00  0.00    -0.237 OA
ATOM     71  O   UNL A   1      43.045  37.608  33.902  1.00  0.00    -0.744 OA
ENDBRANCH  67  68
ENDBRANCH  48  62
BRANCH  49  72
ATOM     72  C   UNL A   1      42.526  23.802  27.913  1.00  0.00    -0.014 A 
ATOM     73  C   UNL A   1      42.266  22.677  28.715  1.00  0.00     0.010 A 
ATOM     74  C   UNL A   1      42.681  23.633  26.525  1.00  0.00     0.010 A 
ATOM     75  C   UNL A   1      42.192  21.403  28.145  1.00  0.00     0.020 A 
ATOM     76  C   UNL A   1      42.581  22.364  25.947  1.00  0.00     0.020 A 
ATOM     77  C   UNL A   1      42.354  21.255  26.764  1.00  0.00     0.054 A 
BRANCH  77  78
ATOM     78  S   UNL A   1      42.225  19.597  26.037  1.00  0.00     0.124 S 
ATOM     79  O   UNL A   1      43.167  19.681  24.925  1.00  0.00    -0.237 OA
ATOM     80  O   UNL A   1      42.628  18.733  27.144  1.00  0.00    -0.237 OA
ATOM     81  O   UNL A   1      40.817  19.499  25.662  1.00  0.00    -0.744 OA
ENDBRANCH  77  78
ENDBRANCH  49  72
BRANCH  61  82
ATOM     82  C   UNL A   1      47.864  27.294  30.710  1.00  0.00    -0.014 A 
ATOM     83  C   UNL A   1      48.268  26.693  31.915  1.00  0.00     0.010 A 
ATOM     84  C   UNL A   1      48.813  27.508  29.696  1.00  0.00     0.010 A 
ATOM     85  C   UNL A   1      49.605  26.338  32.112  1.00  0.00     0.020 A 
ATOM     86  C   UNL A   1      50.146  27.131  29.880  1.00  0.00     0.020 A 
ATOM     87  C   UNL A   1      50.535  26.560  31.092  1.00  0.00     0.054 A 
BRANCH  87  88
ATOM     88  S   UNL A   1      52.256  26.048  31.353  1.00  0.00     0.124 S 
ATOM     89  O   UNL A   1      52.807  26.136  30.003  1.00  0.00    -0.237 OA
ATOM     90  O   UNL A   1      52.749  27.047  32.299  1.00  0.00    -0.237 OA
ATOM     91  O   UNL A   1      52.137  24.695  31.891  1.00  0.00    -0.744 OA
ENDBRANCH  87  88
ENDBRANCH  61  82
ENDBRANCH  35  36
ENDBRANCH  27  30
ENDBRANCH  25  26
ENDBRANCH  24  25
ENDBRANCH   1  24
TORSDOF 18
ENDMDL
MODEL 3
REMARK VINA RESULT:     -10.9      2.768      8.864
REMARK SMILES C[C@@H](C(=O)NCCCCNC(=O)c1ccc(-c2c3nc(c(-c4ccc(S(=O)(=O)[O-])cc4)c4ccc([nH]4)c(-c4ccc(S(=O)(=O)[O-])cc4)c4nc(c(-c5ccc(S(=O)(=O)[O-])cc5)c5ccc2[nH]5)C=C4)C=C3)cc1)c1ccc(C[C@H]2CCC[C@@H]2O)cc1Br
REMARK SMILES IDX 7 1 6 2 5 3 3 4 4 5 2 7 1 8 73 9 74 10 85 11 75 12 84 13
REMARK SMILES IDX 86 14 76 15 77 16 78 17 79 18 82 19 80 20 81 21 83 22 8 24
REMARK SMILES IDX 9 25 10 26 11 27 12 29 13 30 14 31 72 32 15 33 71 34 16 35
REMARK SMILES IDX 17 36 18 37 65 38 19 39 70 40 64 41 66 42 20 43 69 44 63 45
REMARK SMILES IDX 62 46 21 48 51 49 32 50 50 51 33 52 36 53 49 54 67 55 34 56
REMARK SMILES IDX 35 57 48 59 68 60 37 61 22 62 23 63 31 64 24 65 30 66 25 67
REMARK SMILES IDX 26 68 27 69 28 70 29 71 52 72 53 73 61 74 54 75 60 76 55 77
REMARK SMILES IDX 56 78 57 79 58 80 59 81 38 82 39 83 47 84 40 85 46 86 41 87
REMARK SMILES IDX 42 88 43 89 44 90 45 91
REMARK H PARENT 5 6 83 23 10 28 66 47 36 58
REMARK Flexibility Score: inf
ROOT
ATOM      1  C   UNL A   1      39.318  22.032  25.847  1.00  0.00     0.023 C 
ENDROOT
BRANCH   1   2
ATOM      2  C   UNL A   1      37.889  22.556  25.969  1.00  0.00     0.116 C 
BRANCH   2   3
ATOM      3  N   UNL A   1      36.905  21.496  25.897  1.00  0.00    -0.356 N 
ATOM      4  C   UNL A   1      35.899  21.274  25.004  1.00  0.00     0.227 C 
ATOM      5  O   UNL A   1      35.356  20.168  25.066  1.00  0.00    -0.274 OA
ATOM      6  H   UNL A   1      36.974  20.823  26.613  1.00  0.00     0.163 HD
BRANCH   4   7
ATOM      7  C   UNL A   1      35.562  22.312  23.921  1.00  0.00     0.106 C 
ATOM      8  C   UNL A   1      36.750  23.075  23.324  1.00  0.00     0.023 C 
BRANCH   7   9
ATOM      9  C   UNL A   1      34.496  23.322  24.355  1.00  0.00    -0.022 A 
ATOM     10  C   UNL A   1      34.939  24.485  25.018  1.00  0.00     0.006 A 
ATOM     11  C   UNL A   1      33.108  23.139  24.214  1.00  0.00     0.022 A 
ATOM     12  C   UNL A   1      34.039  25.391  25.581  1.00  0.00     0.004 A 
ATOM     13  C   UNL A   1      32.210  24.055  24.778  1.00  0.00     0.019 A 
ATOM     14  Br  UNL A   1      32.309  21.650  23.337  1.00  0.00    -0.051 Br
ATOM     15  C   UNL A   1      32.665  25.158  25.509  1.00  0.00    -0.047 A 
BRANCH  15  16
ATOM     16  C   UNL A   1      31.681  26.028  26.253  1.00  0.00     0.041 C 
BRANCH  16  17
ATOM     17  C   UNL A   1      30.905  27.035  25.383  1.00  0.00     0.022 C 
ATOM     18  C   UNL A   1      31.751  28.088  24.644  1.00  0.00     0.007 C 
ATOM     19  C   UNL A   1      30.022  26.426  24.290  1.00  0.00     0.117 C 
ATOM     20  C   UNL A   1      31.055  28.330  23.301  1.00  0.00     0.003 C 
ATOM     21  C   UNL A   1      29.713  27.625  23.404  1.00  0.00     0.032 C 
BRANCH  19  22
ATOM     22  O   UNL A   1      28.827  25.878  24.815  1.00  0.00    -0.393 OA
ATOM     23  H   UNL A   1      28.784  24.932  24.602  1.00  0.00     0.210 HD
ENDBRANCH  19  22
ENDBRANCH  16  17
ENDBRANCH  15  16
ENDBRANCH   7   9
ENDBRANCH   4   7
ENDBRANCH   2   3
ENDBRANCH   1   2
BRANCH   1  24
ATOM     24  C   UNL A   1      40.114  22.002  27.155  1.00  0.00     0.023 C 
BRANCH  24  25
ATOM     25  C   UNL A   1      41.235  23.030  27.275  1.00  0.00     0.116 C 
BRANCH  25  26
ATOM     26  N   UNL A   1      41.297  23.942  26.144  1.00  0.00    -0.352 N 
ATOM     27  C   UNL A   1      41.273  25.318  26.134  1.00  0.00     0.251 C 
ATOM     28  H   UNL A   1      41.366  23.515  25.260  1.00  0.00     0.163 HD
ATOM     29  O   UNL A   1      41.230  25.921  25.070  1.00  0.00    -0.269 OA
BRANCH  27  30
ATOM     30  C   UNL A   1      41.255  26.059  27.415  1.00  0.00     0.039 A 
ATOM     31  C   UNL A   1      42.325  26.909  27.710  1.00  0.00     0.014 A 
ATOM     32  C   UNL A   1      40.179  25.947  28.299  1.00  0.00     0.014 A 
ATOM     33  C   UNL A   1      42.271  27.717  28.848  1.00  0.00     0.010 A 
ATOM     34  C   UNL A   1      40.101  26.795  29.402  1.00  0.00     0.010 A 
ATOM     35  C   UNL A   1      41.136  27.703  29.675  1.00  0.00    -0.014 A 
BRANCH  35  36
ATOM     36  C   UNL A   1      40.983  28.678  30.785  1.00  0.00     0.031 A 
ATOM     37  C   UNL A   1      41.813  28.556  32.032  1.00  0.00     0.074 A 
ATOM     38  C   UNL A   1      40.027  29.627  30.698  1.00  0.00     0.049 A 
ATOM     39  N   UNL A   1      41.757  29.269  33.128  1.00  0.00    -0.248 NA
ATOM     40  C   UNL A   1      42.821  27.483  32.062  1.00  0.00     0.031 C 
ATOM     41  C   UNL A   1      39.123  29.819  29.560  1.00  0.00     0.029 A 
ATOM     42  N   UNL A   1      39.646  30.599  31.589  1.00  0.00    -0.354 N 
ATOM     43  C   UNL A   1      42.707  28.725  33.983  1.00  0.00     0.074 A 
ATOM     44  C   UNL A   1      43.304  27.602  33.292  1.00  0.00     0.031 C 
ATOM     45  C   UNL A   1      38.302  30.849  29.818  1.00  0.00     0.029 A 
ATOM     46  C   UNL A   1      38.591  31.367  31.151  1.00  0.00     0.049 A 
ATOM     47  H   UNL A   1      40.085  30.735  32.459  1.00  0.00     0.167 HD
ATOM     48  C   UNL A   1      43.058  29.132  35.227  1.00  0.00     0.031 A 
ATOM     49  C   UNL A   1      37.918  32.363  31.758  1.00  0.00     0.031 A 
ATOM     50  C   UNL A   1      42.475  30.259  35.905  1.00  0.00     0.049 A 
ATOM     51  C   UNL A   1      38.323  32.786  33.142  1.00  0.00     0.074 A 
ATOM     52  C   UNL A   1      42.823  30.795  37.133  1.00  0.00     0.029 A 
ATOM     53  N   UNL A   1      41.420  31.018  35.423  1.00  0.00    -0.354 N 
ATOM     54  N   UNL A   1      39.284  32.314  33.899  1.00  0.00    -0.248 NA
ATOM     55  C   UNL A   1      37.555  33.879  33.755  1.00  0.00     0.031 C 
ATOM     56  C   UNL A   1      41.945  31.846  37.418  1.00  0.00     0.029 A 
ATOM     57  C   UNL A   1      41.081  31.996  36.344  1.00  0.00     0.049 A 
ATOM     58  H   UNL A   1      40.976  30.882  34.555  1.00  0.00     0.167 HD
ATOM     59  C   UNL A   1      39.245  33.062  35.070  1.00  0.00     0.074 A 
ATOM     60  C   UNL A   1      38.182  34.032  34.913  1.00  0.00     0.031 C 
ATOM     61  C   UNL A   1      40.017  32.951  36.178  1.00  0.00     0.031 A 
BRANCH  48  62
ATOM     62  C   UNL A   1      44.128  28.357  35.945  1.00  0.00    -0.014 A 
ATOM     63  C   UNL A   1      45.484  28.703  35.812  1.00  0.00     0.010 A 
ATOM     64  C   UNL A   1      43.767  27.326  36.832  1.00  0.00     0.010 A 
ATOM     65  C   UNL A   1      46.463  28.018  36.539  1.00  0.00     0.020 A 
ATOM     66  C   UNL A   1      44.740  26.653  37.576  1.00  0.00     0.020 A 
ATOM     67  C   UNL A   1      46.083  26.999  37.417  1.00  0.00     0.054 A 
BRANCH  67  68
ATOM     68  S   UNL A   1      47.370  26.166  38.388  1.00  0.00     0.124 S 
ATOM     69  O   UNL A   1      48.069  25.395  37.363  1.00  0.00    -0.237 OA
ATOM     70  O   UNL A   1      48.120  27.284  38.953  1.00  0.00    -0.237 OA
ATOM     71  O   UNL A   1      46.616  25.374  39.357  1.00  0.00    -0.744 OA
ENDBRANCH  67  68
ENDBRANCH  48  62
BRANCH  49  72
ATOM     72  C   UNL A   1      36.776  33.023  31.069  1.00  0.00    -0.014 A 
ATOM     73  C   UNL A   1      35.452  32.719  31.429  1.00  0.00     0.010 A 
ATOM     74  C   UNL A   1      37.009  33.950  30.038  1.00  0.00     0.010 A 
ATOM     75  C   UNL A   1      34.380  33.307  30.750  1.00  0.00     0.020 A 
ATOM     76  C   UNL A   1      35.941  34.561  29.374  1.00  0.00     0.020 A 
ATOM     77  C   UNL A   1      34.633  34.222  29.724  1.00  0.00     0.054 A 
BRANCH  77  78
ATOM     78  S   UNL A   1      33.231  34.998  28.873  1.00  0.00     0.124 S 
ATOM     79  O   UNL A   1      33.856  36.165  28.261  1.00  0.00    -0.237 OA
ATOM     80  O   UNL A   1      32.802  33.951  27.948  1.00  0.00    -0.237 OA
ATOM     81  O   UNL A   1      32.292  35.283  29.956  1.00  0.00    -0.744 OA
ENDBRANCH  77  78
ENDBRANCH  49  72
BRANCH  61  82
ATOM     82  C   UNL A   1      39.751  33.912  37.304  1.00  0.00    -0.014 A 
ATOM     83  C   UNL A   1      39.187  33.469  38.513  1.00  0.00     0.010 A 
ATOM     84  C   UNL A   1      40.116  35.263  37.170  1.00  0.00     0.010 A 
ATOM     85  C   UNL A   1      38.967  34.368  39.560  1.00  0.00     0.020 A 
ATOM     86  C   UNL A   1      39.920  36.159  38.224  1.00  0.00     0.020 A 
ATOM     87  C   UNL A   1      39.335  35.707  39.408  1.00  0.00     0.054 A 
BRANCH  87  88
ATOM     88  S   UNL A   1      39.082  36.845  40.798  1.00  0.00     0.124 S 
ATOM     89  O   UNL A   1      40.429  36.950  41.354  1.00  0.00    -0.237 OA
ATOM     90  O   UNL A   1      38.578  38.049  40.141  1.00  0.00    -0.237 OA
ATOM     91  O   UNL A   1      38.111  36.151  41.641  1.00  0.00    -0.744 OA
ENDBRANCH  87  88
ENDBRANCH  61  82
ENDBRANCH  35  36
ENDBRANCH  27  30
ENDBRANCH  25  26
ENDBRANCH  24  25
ENDBRANCH   1  24
TORSDOF 18
ENDMDL
