MODEL 1
REMARK VINA RESULT:     -12.6      0.000      0.000
REMARK SMILES CN(C)S(=O)(=O)Nc1ccc(-n2nnc(C(=O)NCCCCNC(=O)c3ccc(-c4c5nc(c(-c6ccc(S(=O)(=O)[O-])cc6)c6ccc([nH]6)c(-c6ccc(S(=O)(=O)[O-])cc6)c6nc(c(-c7ccc(S(=O)(=O)[O-])cc7)c7ccc4[nH]7)C=C6)C=C5)cc3)c2N)cc1
REMARK SMILES IDX 20 1 19 2 18 3 16 4 17 5 15 7 12 8 13 9 86 10 14 11 11 12
REMARK SMILES IDX 8 13 9 14 89 15 10 16 88 17 7 18 4 20 5 21 6 22 2 23 1 24
REMARK SMILES IDX 3 25 87 26 21 29 22 30 23 31 24 32 25 34 26 35 27 36 85 37
REMARK SMILES IDX 28 38 84 39 29 40 30 41 31 42 78 43 32 44 83 45 77 46 79 47
REMARK SMILES IDX 33 48 82 49 76 50 75 51 34 53 64 54 45 55 63 56 46 57 49 58
REMARK SMILES IDX 62 59 80 60 47 61 48 62 61 64 81 65 50 66 35 67 36 68 44 69
REMARK SMILES IDX 37 70 43 71 38 72 39 73 40 74 41 75 42 76 65 77 66 78 74 79
REMARK SMILES IDX 67 80 73 81 68 82 69 83 70 84 71 85 72 86 51 87 52 88 60 89
REMARK SMILES IDX 53 90 59 91 54 92 55 93 56 94 57 95 58 96
REMARK H PARENT 18 6 7 19 87 27 87 28 23 33 79 52 49 63
REMARK Flexibility Score: inf
ROOT
ATOM      1  C   UNL A   1      35.284  23.430  24.688  1.00  0.00     0.023 C 
ENDROOT
BRANCH   1   2
ATOM      2  C   UNL A   1      34.527  23.033  25.949  1.00  0.00     0.116 C 
BRANCH   2   3
ATOM      3  N   UNL A   1      33.575  21.940  25.877  1.00  0.00    -0.351 N 
ATOM      4  C   UNL A   1      32.187  22.018  25.751  1.00  0.00     0.275 C 
ATOM      5  O   UNL A   1      31.558  20.963  25.690  1.00  0.00    -0.267 OA
ATOM      6  H   UNL A   1      33.954  21.033  25.921  1.00  0.00     0.163 HD
BRANCH   4   7
ATOM      7  C   UNL A   1      31.514  23.319  25.767  1.00  0.00     0.194 A 
ATOM      8  N   UNL A   1      30.826  25.364  25.333  1.00  0.00    -0.197 N 
ATOM      9  N   UNL A   1      30.833  25.202  26.677  1.00  0.00    -0.059 NA
ATOM     10  C   UNL A   1      31.190  24.161  24.711  1.00  0.00     0.161 A 
ATOM     11  N   UNL A   1      31.199  23.955  26.947  1.00  0.00    -0.122 NA
BRANCH   8  12
ATOM     12  C   UNL A   1      30.544  26.619  24.727  1.00  0.00     0.069 A 
ATOM     13  C   UNL A   1      29.888  29.059  23.516  1.00  0.00     0.050 A 
ATOM     14  C   UNL A   1      31.063  28.939  24.268  1.00  0.00     0.029 A 
ATOM     15  C   UNL A   1      29.168  27.923  23.219  1.00  0.00     0.029 A 
ATOM     16  C   UNL A   1      31.402  27.715  24.871  1.00  0.00     0.031 A 
ATOM     17  C   UNL A   1      29.409  26.761  23.930  1.00  0.00     0.031 A 
BRANCH  13  18
ATOM     18  N   UNL A   1      29.496  30.344  23.054  1.00  0.00    -0.271 N 
ATOM     19  H   UNL A   1      30.153  31.075  23.096  1.00  0.00     0.181 HD
BRANCH  18  20
ATOM     20  S   UNL A   1      27.964  30.683  22.437  1.00  0.00     0.301 S 
ATOM     21  O   UNL A   1      26.983  30.390  23.464  1.00  0.00    -0.189 OA
ATOM     22  O   UNL A   1      27.922  29.973  21.183  1.00  0.00    -0.189 OA
BRANCH  20  23
ATOM     23  N   UNL A   1      27.950  32.357  22.113  1.00  0.00    -0.191 NA
ATOM     24  C   UNL A   1      28.907  33.125  22.942  1.00  0.00     0.125 C 
ATOM     25  C   UNL A   1      28.051  32.808  20.698  1.00  0.00     0.125 C 
ENDBRANCH  20  23
ENDBRANCH  18  20
ENDBRANCH  13  18
ENDBRANCH   8  12
BRANCH  10  26
ATOM     26  N   UNL A   1      31.310  23.992  23.364  1.00  0.00    -0.382 N 
ATOM     27  H   UNL A   1      32.173  23.715  22.978  1.00  0.00     0.158 HD
ATOM     28  H   UNL A   1      30.535  24.146  22.776  1.00  0.00     0.158 HD
ENDBRANCH  10  26
ENDBRANCH   4   7
ENDBRANCH   2   3
ENDBRANCH   1   2
BRANCH   1  29
ATOM     29  C   UNL A   1      36.809  23.380  24.707  1.00  0.00     0.023 C 
BRANCH  29  30
ATOM     30  C   UNL A   1      37.462  23.523  26.075  1.00  0.00     0.116 C 
BRANCH  30  31
ATOM     31  N   UNL A   1      38.472  22.509  26.394  1.00  0.00    -0.352 N 
ATOM     32  C   UNL A   1      39.818  22.744  26.651  1.00  0.00     0.251 C 
ATOM     33  H   UNL A   1      38.168  21.574  26.430  1.00  0.00     0.163 HD
ATOM     34  O   UNL A   1      40.650  21.849  26.570  1.00  0.00    -0.269 OA
BRANCH  32  35
ATOM     35  C   UNL A   1      40.209  24.107  27.058  1.00  0.00     0.039 A 
ATOM     36  C   UNL A   1      39.559  25.257  26.599  1.00  0.00     0.014 A 
ATOM     37  C   UNL A   1      41.222  24.193  28.009  1.00  0.00     0.014 A 
ATOM     38  C   UNL A   1      39.886  26.485  27.179  1.00  0.00     0.010 A 
ATOM     39  C   UNL A   1      41.402  25.357  28.703  1.00  0.00     0.010 A 
ATOM     40  C   UNL A   1      40.796  26.521  28.249  1.00  0.00    -0.014 A 
BRANCH  40  41
ATOM     41  C   UNL A   1      41.044  27.736  29.019  1.00  0.00     0.031 A 
ATOM     42  C   UNL A   1      42.132  28.581  28.459  1.00  0.00     0.074 A 
ATOM     43  C   UNL A   1      40.193  28.176  29.976  1.00  0.00     0.049 A 
ATOM     44  N   UNL A   1      43.327  28.733  28.924  1.00  0.00    -0.248 NA
ATOM     45  C   UNL A   1      41.940  29.174  27.122  1.00  0.00     0.031 C 
ATOM     46  C   UNL A   1      38.899  27.598  30.372  1.00  0.00     0.029 A 
ATOM     47  N   UNL A   1      40.237  29.312  30.723  1.00  0.00    -0.354 N 
ATOM     48  C   UNL A   1      43.938  29.666  28.090  1.00  0.00     0.074 A 
ATOM     49  C   UNL A   1      43.144  29.703  26.890  1.00  0.00     0.031 C 
ATOM     50  C   UNL A   1      38.189  28.502  31.084  1.00  0.00     0.029 A 
ATOM     51  C   UNL A   1      39.040  29.643  31.357  1.00  0.00     0.049 A 
ATOM     52  H   UNL A   1      41.053  29.856  30.811  1.00  0.00     0.167 HD
ATOM     53  C   UNL A   1      44.847  30.556  28.581  1.00  0.00     0.031 A 
ATOM     54  C   UNL A   1      38.763  30.778  32.052  1.00  0.00     0.031 A 
ATOM     55  C   UNL A   1      45.252  30.194  29.917  1.00  0.00     0.049 A 
ATOM     56  C   UNL A   1      40.066  31.368  32.431  1.00  0.00     0.074 A 
ATOM     57  C   UNL A   1      45.879  29.112  30.497  1.00  0.00     0.029 A 
ATOM     58  N   UNL A   1      44.611  30.866  30.930  1.00  0.00    -0.354 N 
ATOM     59  N   UNL A   1      40.913  30.782  33.233  1.00  0.00    -0.248 NA
ATOM     60  C   UNL A   1      40.633  32.381  31.557  1.00  0.00     0.031 C 
ATOM     61  C   UNL A   1      45.233  28.945  31.757  1.00  0.00     0.029 A 
ATOM     62  C   UNL A   1      44.310  29.982  31.927  1.00  0.00     0.049 A 
ATOM     63  H   UNL A   1      44.402  31.829  30.935  1.00  0.00     0.167 HD
ATOM     64  C   UNL A   1      42.157  31.019  32.666  1.00  0.00     0.074 A 
ATOM     65  C   UNL A   1      41.931  32.097  31.703  1.00  0.00     0.031 C 
ATOM     66  C   UNL A   1      43.181  30.128  32.826  1.00  0.00     0.031 A 
BRANCH  53  67
ATOM     67  C   UNL A   1      44.993  31.981  28.085  1.00  0.00    -0.014 A 
ATOM     68  C   UNL A   1      46.261  32.406  27.635  1.00  0.00     0.010 A 
ATOM     69  C   UNL A   1      44.032  32.988  28.315  1.00  0.00     0.010 A 
ATOM     70  C   UNL A   1      46.575  33.766  27.507  1.00  0.00     0.020 A 
ATOM     71  C   UNL A   1      44.321  34.344  28.150  1.00  0.00     0.020 A 
ATOM     72  C   UNL A   1      45.602  34.727  27.779  1.00  0.00     0.054 A 
BRANCH  72  73
ATOM     73  S   UNL A   1      46.039  36.479  27.698  1.00  0.00     0.124 S 
ATOM     74  O   UNL A   1      44.801  37.075  27.209  1.00  0.00    -0.237 OA
ATOM     75  O   UNL A   1      46.382  36.773  29.087  1.00  0.00    -0.237 OA
ATOM     76  O   UNL A   1      47.163  36.508  26.764  1.00  0.00    -0.744 OA
ENDBRANCH  72  73
ENDBRANCH  53  67
BRANCH  54  77
ATOM     77  C   UNL A   1      37.486  31.539  32.120  1.00  0.00    -0.014 A 
ATOM     78  C   UNL A   1      37.033  32.121  33.322  1.00  0.00     0.010 A 
ATOM     79  C   UNL A   1      36.852  31.944  30.927  1.00  0.00     0.010 A 
ATOM     80  C   UNL A   1      36.018  33.101  33.323  1.00  0.00     0.020 A 
ATOM     81  C   UNL A   1      35.844  32.918  30.920  1.00  0.00     0.020 A 
ATOM     82  C   UNL A   1      35.441  33.505  32.117  1.00  0.00     0.054 A 
BRANCH  82  83
ATOM     83  S   UNL A   1      34.238  34.872  32.105  1.00  0.00     0.124 S 
ATOM     84  O   UNL A   1      33.077  34.270  32.757  1.00  0.00    -0.237 OA
ATOM     85  O   UNL A   1      34.924  35.909  32.871  1.00  0.00    -0.237 OA
ATOM     86  O   UNL A   1      34.066  35.167  30.684  1.00  0.00    -0.744 OA
ENDBRANCH  82  83
ENDBRANCH  54  77
BRANCH  66  87
ATOM     87  C   UNL A   1      43.073  29.092  33.920  1.00  0.00    -0.014 A 
ATOM     88  C   UNL A   1      43.597  29.235  35.220  1.00  0.00     0.010 A 
ATOM     89  C   UNL A   1      42.247  27.988  33.647  1.00  0.00     0.010 A 
ATOM     90  C   UNL A   1      43.302  28.286  36.215  1.00  0.00     0.020 A 
ATOM     91  C   UNL A   1      41.934  27.055  34.634  1.00  0.00     0.020 A 
ATOM     92  C   UNL A   1      42.468  27.203  35.913  1.00  0.00     0.054 A 
BRANCH  92  93
ATOM     93  S   UNL A   1      42.033  26.007  37.209  1.00  0.00     0.124 S 
ATOM     94  O   UNL A   1      42.226  24.726  36.534  1.00  0.00    -0.237 OA
ATOM     95  O   UNL A   1      42.992  26.312  38.268  1.00  0.00    -0.237 OA
ATOM     96  O   UNL A   1      40.644  26.332  37.531  1.00  0.00    -0.744 OA
ENDBRANCH  92  93
ENDBRANCH  66  87
ENDBRANCH  40  41
ENDBRANCH  32  35
ENDBRANCH  30  31
ENDBRANCH  29  30
ENDBRANCH   1  29
TORSDOF 19
ENDMDL
MODEL 2
REMARK VINA RESULT:     -12.3      1.418      1.954
REMARK SMILES CN(C)S(=O)(=O)Nc1ccc(-n2nnc(C(=O)NCCCCNC(=O)c3ccc(-c4c5nc(c(-c6ccc(S(=O)(=O)[O-])cc6)c6ccc([nH]6)c(-c6ccc(S(=O)(=O)[O-])cc6)c6nc(c(-c7ccc(S(=O)(=O)[O-])cc7)c7ccc4[nH]7)C=C6)C=C5)cc3)c2N)cc1
REMARK SMILES IDX 20 1 19 2 18 3 16 4 17 5 15 7 12 8 13 9 86 10 14 11 11 12
REMARK SMILES IDX 8 13 9 14 89 15 10 16 88 17 7 18 4 20 5 21 6 22 2 23 1 24
REMARK SMILES IDX 3 25 87 26 21 29 22 30 23 31 24 32 25 34 26 35 27 36 85 37
REMARK SMILES IDX 28 38 84 39 29 40 30 41 31 42 78 43 32 44 83 45 77 46 79 47
REMARK SMILES IDX 33 48 82 49 76 50 75 51 34 53 64 54 45 55 63 56 46 57 49 58
REMARK SMILES IDX 62 59 80 60 47 61 48 62 61 64 81 65 50 66 35 67 36 68 44 69
REMARK SMILES IDX 37 70 43 71 38 72 39 73 40 74 41 75 42 76 65 77 66 78 74 79
REMARK SMILES IDX 67 80 73 81 68 82 69 83 70 84 71 85 72 86 51 87 52 88 60 89
REMARK SMILES IDX 53 90 59 91 54 92 55 93 56 94 57 95 58 96
REMARK H PARENT 18 6 7 19 87 27 87 28 23 33 79 52 49 63
REMARK Flexibility Score: inf
ROOT
ATOM      1  C   UNL A   1      37.745  23.868  26.080  1.00  0.00     0.023 C 
ENDROOT
BRANCH   1   2
ATOM      2  C   UNL A   1      36.438  23.856  25.297  1.00  0.00     0.116 C 
BRANCH   2   3
ATOM      3  N   UNL A   1      35.784  22.584  25.051  1.00  0.00    -0.351 N 
ATOM      4  C   UNL A   1      34.415  22.332  24.938  1.00  0.00     0.275 C 
ATOM      5  O   UNL A   1      34.064  21.175  24.710  1.00  0.00    -0.267 OA
ATOM      6  H   UNL A   1      36.376  21.805  24.952  1.00  0.00     0.163 HD
BRANCH   4   7
ATOM      7  C   UNL A   1      33.443  23.405  25.158  1.00  0.00     0.194 A 
ATOM      8  N   UNL A   1      32.279  25.271  25.078  1.00  0.00    -0.197 N 
ATOM      9  N   UNL A   1      32.310  24.853  26.365  1.00  0.00    -0.059 NA
ATOM     10  C   UNL A   1      32.934  24.337  24.263  1.00  0.00     0.161 A 
ATOM     11  N   UNL A   1      32.967  23.701  26.417  1.00  0.00    -0.122 NA
BRANCH   8  12
ATOM     12  C   UNL A   1      31.704  26.517  24.704  1.00  0.00     0.069 A 
ATOM     13  C   UNL A   1      30.658  29.021  24.008  1.00  0.00     0.050 A 
ATOM     14  C   UNL A   1      30.104  27.851  23.472  1.00  0.00     0.029 A 
ATOM     15  C   UNL A   1      31.584  28.915  25.021  1.00  0.00     0.029 A 
ATOM     16  C   UNL A   1      30.619  26.592  23.824  1.00  0.00     0.031 A 
ATOM     17  C   UNL A   1      32.197  27.698  25.257  1.00  0.00     0.031 A 
BRANCH  13  18
ATOM     18  N   UNL A   1      30.220  30.279  23.512  1.00  0.00    -0.271 N 
ATOM     19  H   UNL A   1      30.675  31.090  23.833  1.00  0.00     0.181 HD
BRANCH  18  20
ATOM     20  S   UNL A   1      28.963  30.454  22.404  1.00  0.00     0.301 S 
ATOM     21  O   UNL A   1      27.719  30.115  23.066  1.00  0.00    -0.189 OA
ATOM     22  O   UNL A   1      29.393  29.694  21.256  1.00  0.00    -0.189 OA
BRANCH  20  23
ATOM     23  N   UNL A   1      28.939  32.106  21.980  1.00  0.00    -0.191 NA
ATOM     24  C   UNL A   1      27.935  32.432  20.942  1.00  0.00     0.125 C 
ATOM     25  C   UNL A   1      28.867  33.118  23.070  1.00  0.00     0.125 C 
ENDBRANCH  20  23
ENDBRANCH  18  20
ENDBRANCH  13  18
ENDBRANCH   8  12
BRANCH  10  26
ATOM     26  N   UNL A   1      33.109  24.471  22.918  1.00  0.00    -0.382 N 
ATOM     27  H   UNL A   1      32.354  24.742  22.347  1.00  0.00     0.158 HD
ATOM     28  H   UNL A   1      33.991  24.297  22.515  1.00  0.00     0.158 HD
ENDBRANCH  10  26
ENDBRANCH   4   7
ENDBRANCH   2   3
ENDBRANCH   1   2
BRANCH   1  29
ATOM     29  C   UNL A   1      38.553  22.577  26.171  1.00  0.00     0.023 C 
BRANCH  29  30
ATOM     30  C   UNL A   1      39.798  22.630  27.045  1.00  0.00     0.116 C 
BRANCH  30  31
ATOM     31  N   UNL A   1      41.036  22.187  26.395  1.00  0.00    -0.352 N 
ATOM     32  C   UNL A   1      42.012  23.009  25.842  1.00  0.00     0.251 C 
ATOM     33  H   UNL A   1      41.190  21.217  26.346  1.00  0.00     0.163 HD
ATOM     34  O   UNL A   1      42.825  22.580  25.033  1.00  0.00    -0.269 OA
BRANCH  32  35
ATOM     35  C   UNL A   1      42.056  24.415  26.289  1.00  0.00     0.039 A 
ATOM     36  C   UNL A   1      41.302  25.430  25.692  1.00  0.00     0.014 A 
ATOM     37  C   UNL A   1      42.835  24.673  27.414  1.00  0.00     0.014 A 
ATOM     38  C   UNL A   1      41.277  26.687  26.300  1.00  0.00     0.010 A 
ATOM     39  C   UNL A   1      42.659  25.838  28.106  1.00  0.00     0.010 A 
ATOM     40  C   UNL A   1      41.943  26.875  27.522  1.00  0.00    -0.014 A 
BRANCH  40  41
ATOM     41  C   UNL A   1      41.808  28.102  28.300  1.00  0.00     0.031 A 
ATOM     42  C   UNL A   1      42.920  29.066  28.086  1.00  0.00     0.074 A 
ATOM     43  C   UNL A   1      40.660  28.438  28.935  1.00  0.00     0.049 A 
ATOM     44  N   UNL A   1      43.888  29.344  28.895  1.00  0.00    -0.248 NA
ATOM     45  C   UNL A   1      43.092  29.649  26.741  1.00  0.00     0.031 C 
ATOM     46  C   UNL A   1      39.377  27.718  28.924  1.00  0.00     0.029 A 
ATOM     47  N   UNL A   1      40.348  29.564  29.631  1.00  0.00    -0.354 N 
ATOM     48  C   UNL A   1      44.624  30.345  28.269  1.00  0.00     0.074 A 
ATOM     49  C   UNL A   1      44.244  30.308  26.881  1.00  0.00     0.031 C 
ATOM     50  C   UNL A   1      38.388  28.532  29.358  1.00  0.00     0.029 A 
ATOM     51  C   UNL A   1      38.985  29.756  29.854  1.00  0.00     0.049 A 
ATOM     52  H   UNL A   1      41.033  30.193  29.955  1.00  0.00     0.167 HD
ATOM     53  C   UNL A   1      45.235  31.325  28.996  1.00  0.00     0.031 A 
ATOM     54  C   UNL A   1      38.385  30.847  30.401  1.00  0.00     0.031 A 
ATOM     55  C   UNL A   1      45.241  30.995  30.400  1.00  0.00     0.049 A 
ATOM     56  C   UNL A   1      39.436  31.572  31.151  1.00  0.00     0.074 A 
ATOM     57  C   UNL A   1      45.768  29.982  31.173  1.00  0.00     0.029 A 
ATOM     58  N   UNL A   1      44.248  31.584  31.148  1.00  0.00    -0.354 N 
ATOM     59  N   UNL A   1      40.048  31.074  32.190  1.00  0.00    -0.248 NA
ATOM     60  C   UNL A   1      40.135  32.649  30.472  1.00  0.00     0.031 C 
ATOM     61  C   UNL A   1      44.783  29.734  32.174  1.00  0.00     0.029 A 
ATOM     62  C   UNL A   1      43.748  30.662  32.024  1.00  0.00     0.049 A 
ATOM     63  H   UNL A   1      43.946  32.518  31.064  1.00  0.00     0.167 HD
ATOM     64  C   UNL A   1      41.374  31.450  32.032  1.00  0.00     0.074 A 
ATOM     65  C   UNL A   1      41.345  32.507  31.020  1.00  0.00     0.031 C 
ATOM     66  C   UNL A   1      42.386  30.675  32.523  1.00  0.00     0.031 A 
BRANCH  53  67
ATOM     67  C   UNL A   1      45.375  32.762  28.536  1.00  0.00    -0.014 A 
ATOM     68  C   UNL A   1      46.563  33.454  28.855  1.00  0.00     0.010 A 
ATOM     69  C   UNL A   1      44.294  33.540  28.072  1.00  0.00     0.010 A 
ATOM     70  C   UNL A   1      46.635  34.852  28.796  1.00  0.00     0.020 A 
ATOM     71  C   UNL A   1      44.368  34.931  27.970  1.00  0.00     0.020 A 
ATOM     72  C   UNL A   1      45.528  35.581  28.364  1.00  0.00     0.054 A 
BRANCH  72  73
ATOM     73  S   UNL A   1      45.597  37.388  28.376  1.00  0.00     0.124 S 
ATOM     74  O   UNL A   1      46.972  37.633  28.797  1.00  0.00    -0.237 OA
ATOM     75  O   UNL A   1      45.289  37.715  26.986  1.00  0.00    -0.237 OA
ATOM     76  O   UNL A   1      44.567  37.763  29.343  1.00  0.00    -0.744 OA
ENDBRANCH  72  73
ENDBRANCH  53  67
BRANCH  54  77
ATOM     77  C   UNL A   1      37.077  31.464  30.050  1.00  0.00    -0.014 A 
ATOM     78  C   UNL A   1      36.226  32.005  31.035  1.00  0.00     0.010 A 
ATOM     79  C   UNL A   1      36.796  31.783  28.705  1.00  0.00     0.010 A 
ATOM     80  C   UNL A   1      35.165  32.868  30.689  1.00  0.00     0.020 A 
ATOM     81  C   UNL A   1      35.743  32.640  28.354  1.00  0.00     0.020 A 
ATOM     82  C   UNL A   1      34.940  33.193  29.350  1.00  0.00     0.054 A 
BRANCH  82  83
ATOM     83  S   UNL A   1      33.665  34.419  28.918  1.00  0.00     0.124 S 
ATOM     84  O   UNL A   1      33.079  34.728  30.220  1.00  0.00    -0.237 OA
ATOM     85  O   UNL A   1      34.445  35.490  28.306  1.00  0.00    -0.237 OA
ATOM     86  O   UNL A   1      32.787  33.694  28.002  1.00  0.00    -0.744 OA
ENDBRANCH  82  83
ENDBRANCH  54  77
BRANCH  66  87
ATOM     87  C   UNL A   1      42.054  29.622  33.555  1.00  0.00    -0.014 A 
ATOM     88  C   UNL A   1      41.502  28.358  33.269  1.00  0.00     0.010 A 
ATOM     89  C   UNL A   1      42.489  29.884  34.867  1.00  0.00     0.010 A 
ATOM     90  C   UNL A   1      41.384  27.387  34.278  1.00  0.00     0.020 A 
ATOM     91  C   UNL A   1      42.394  28.918  35.867  1.00  0.00     0.020 A 
ATOM     92  C   UNL A   1      41.835  27.675  35.572  1.00  0.00     0.054 A 
BRANCH  92  93
ATOM     93  S   UNL A   1      41.741  26.406  36.867  1.00  0.00     0.124 S 
ATOM     94  O   UNL A   1      41.896  25.168  36.108  1.00  0.00    -0.237 OA
ATOM     95  O   UNL A   1      42.858  26.751  37.743  1.00  0.00    -0.237 OA
ATOM     96  O   UNL A   1      40.418  26.607  37.457  1.00  0.00    -0.744 OA
ENDBRANCH  92  93
ENDBRANCH  66  87
ENDBRANCH  40  41
ENDBRANCH  32  35
ENDBRANCH  30  31
ENDBRANCH  29  30
ENDBRANCH   1  29
TORSDOF 19
ENDMDL
MODEL 3
REMARK VINA RESULT:     -11.9      3.201      7.382
REMARK SMILES CN(C)S(=O)(=O)Nc1ccc(-n2nnc(C(=O)NCCCCNC(=O)c3ccc(-c4c5nc(c(-c6ccc(S(=O)(=O)[O-])cc6)c6ccc([nH]6)c(-c6ccc(S(=O)(=O)[O-])cc6)c6nc(c(-c7ccc(S(=O)(=O)[O-])cc7)c7ccc4[nH]7)C=C6)C=C5)cc3)c2N)cc1
REMARK SMILES IDX 20 1 19 2 18 3 16 4 17 5 15 7 12 8 13 9 86 10 14 11 11 12
REMARK SMILES IDX 8 13 9 14 89 15 10 16 88 17 7 18 4 20 5 21 6 22 2 23 1 24
REMARK SMILES IDX 3 25 87 26 21 29 22 30 23 31 24 32 25 34 26 35 27 36 85 37
REMARK SMILES IDX 28 38 84 39 29 40 30 41 31 42 78 43 32 44 83 45 77 46 79 47
REMARK SMILES IDX 33 48 82 49 76 50 75 51 34 53 64 54 45 55 63 56 46 57 49 58
REMARK SMILES IDX 62 59 80 60 47 61 48 62 61 64 81 65 50 66 35 67 36 68 44 69
REMARK SMILES IDX 37 70 43 71 38 72 39 73 40 74 41 75 42 76 65 77 66 78 74 79
REMARK SMILES IDX 67 80 73 81 68 82 69 83 70 84 71 85 72 86 51 87 52 88 60 89
REMARK SMILES IDX 53 90 59 91 54 92 55 93 56 94 57 95 58 96
REMARK H PARENT 18 6 7 19 87 27 87 28 23 33 79 52 49 63
REMARK Flexibility Score: inf
ROOT
ATOM      1  C   UNL A   1      36.748  21.895  24.607  1.00  0.00     0.023 C 
ENDROOT
BRANCH   1   2
ATOM      2  C   UNL A   1      35.241  21.686  24.517  1.00  0.00     0.116 C 
BRANCH   2   3
ATOM      3  N   UNL A   1      34.469  21.633  25.744  1.00  0.00    -0.351 N 
ATOM      4  C   UNL A   1      33.278  22.299  26.039  1.00  0.00     0.275 C 
ATOM      5  O   UNL A   1      32.771  22.102  27.142  1.00  0.00    -0.267 OA
ATOM      6  H   UNL A   1      34.829  21.056  26.456  1.00  0.00     0.163 HD
BRANCH   4   7
ATOM      7  C   UNL A   1      32.706  23.250  25.083  1.00  0.00     0.194 A 
ATOM      8  N   UNL A   1      31.816  25.009  24.106  1.00  0.00    -0.197 N 
ATOM      9  N   UNL A   1      31.321  23.902  23.505  1.00  0.00    -0.059 NA
ATOM     10  C   UNL A   1      32.758  24.638  25.075  1.00  0.00     0.161 A 
ATOM     11  N   UNL A   1      31.890  22.836  24.054  1.00  0.00    -0.122 NA
BRANCH   8  12
ATOM     12  C   UNL A   1      31.348  26.313  23.786  1.00  0.00     0.069 A 
ATOM     13  C   UNL A   1      30.350  28.872  23.232  1.00  0.00     0.050 A 
ATOM     14  C   UNL A   1      31.600  28.481  22.738  1.00  0.00     0.029 A 
ATOM     15  C   UNL A   1      29.541  27.926  23.821  1.00  0.00     0.029 A 
ATOM     16  C   UNL A   1      32.102  27.195  23.005  1.00  0.00     0.031 A 
ATOM     17  C   UNL A   1      30.086  26.719  24.219  1.00  0.00     0.031 A 
BRANCH  13  18
ATOM     18  N   UNL A   1      29.943  30.225  23.079  1.00  0.00    -0.271 N 
ATOM     19  H   UNL A   1      30.528  30.931  23.435  1.00  0.00     0.181 HD
BRANCH  18  20
ATOM     20  S   UNL A   1      28.510  30.684  22.318  1.00  0.00     0.301 S 
ATOM     21  O   UNL A   1      27.433  30.600  23.284  1.00  0.00    -0.189 OA
ATOM     22  O   UNL A   1      28.467  29.875  21.125  1.00  0.00    -0.189 OA
BRANCH  20  23
ATOM     23  N   UNL A   1      28.725  32.313  21.861  1.00  0.00    -0.191 NA
ATOM     24  C   UNL A   1      27.763  32.766  20.830  1.00  0.00     0.125 C 
ATOM     25  C   UNL A   1      28.823  33.344  22.930  1.00  0.00     0.125 C 
ENDBRANCH  20  23
ENDBRANCH  18  20
ENDBRANCH  13  18
ENDBRANCH   8  12
BRANCH  10  26
ATOM     26  N   UNL A   1      33.423  25.511  25.884  1.00  0.00    -0.382 N 
ATOM     27  H   UNL A   1      32.922  26.188  26.395  1.00  0.00     0.158 HD
ATOM     28  H   UNL A   1      34.404  25.465  25.959  1.00  0.00     0.158 HD
ENDBRANCH  10  26
ENDBRANCH   4   7
ENDBRANCH   2   3
ENDBRANCH   1   2
BRANCH   1  29
ATOM     29  C   UNL A   1      37.648  20.669  24.729  1.00  0.00     0.023 C 
BRANCH  29  30
ATOM     30  C   UNL A   1      38.830  20.802  25.680  1.00  0.00     0.116 C 
BRANCH  30  31
ATOM     31  N   UNL A   1      39.648  19.595  25.831  1.00  0.00    -0.352 N 
ATOM     32  C   UNL A   1      41.021  19.558  26.052  1.00  0.00     0.251 C 
ATOM     33  H   UNL A   1      39.183  18.731  25.771  1.00  0.00     0.163 HD
ATOM     34  O   UNL A   1      41.677  18.548  25.828  1.00  0.00    -0.269 OA
BRANCH  32  35
ATOM     35  C   UNL A   1      41.660  20.771  26.597  1.00  0.00     0.039 A 
ATOM     36  C   UNL A   1      42.343  21.697  25.802  1.00  0.00     0.014 A 
ATOM     37  C   UNL A   1      41.473  21.000  27.956  1.00  0.00     0.014 A 
ATOM     38  C   UNL A   1      42.755  22.899  26.383  1.00  0.00     0.010 A 
ATOM     39  C   UNL A   1      41.706  22.245  28.471  1.00  0.00     0.010 A 
ATOM     40  C   UNL A   1      42.411  23.173  27.717  1.00  0.00    -0.014 A 
BRANCH  40  41
ATOM     41  C   UNL A   1      42.649  24.476  28.329  1.00  0.00     0.031 A 
ATOM     42  C   UNL A   1      41.616  25.490  27.986  1.00  0.00     0.074 A 
ATOM     43  C   UNL A   1      43.557  24.661  29.316  1.00  0.00     0.049 A 
ATOM     44  N   UNL A   1      41.734  26.491  27.179  1.00  0.00    -0.248 NA
ATOM     45  C   UNL A   1      40.230  25.258  28.438  1.00  0.00     0.031 C 
ATOM     46  C   UNL A   1      44.393  23.646  29.977  1.00  0.00     0.029 A 
ATOM     47  N   UNL A   1      43.846  25.779  30.035  1.00  0.00    -0.354 N 
ATOM     48  C   UNL A   1      40.522  27.173  27.248  1.00  0.00     0.074 A 
ATOM     49  C   UNL A   1      39.581  26.250  27.824  1.00  0.00     0.031 C 
ATOM     50  C   UNL A   1      44.889  24.141  31.134  1.00  0.00     0.029 A 
ATOM     51  C   UNL A   1      44.569  25.552  31.205  1.00  0.00     0.049 A 
ATOM     52  H   UNL A   1      43.566  26.679  29.748  1.00  0.00     0.167 HD
ATOM     53  C   UNL A   1      40.474  28.531  27.128  1.00  0.00     0.031 A 
ATOM     54  C   UNL A   1      44.879  26.459  32.170  1.00  0.00     0.031 A 
ATOM     55  C   UNL A   1      41.734  29.051  26.656  1.00  0.00     0.049 A 
ATOM     56  C   UNL A   1      44.746  27.796  31.550  1.00  0.00     0.074 A 
ATOM     57  C   UNL A   1      42.500  28.898  25.519  1.00  0.00     0.029 A 
ATOM     58  N   UNL A   1      42.570  29.544  27.629  1.00  0.00    -0.354 N 
ATOM     59  N   UNL A   1      45.499  28.208  30.566  1.00  0.00    -0.248 NA
ATOM     60  C   UNL A   1      43.480  28.492  31.701  1.00  0.00     0.031 C 
ATOM     61  C   UNL A   1      43.849  28.900  25.982  1.00  0.00     0.029 A 
ATOM     62  C   UNL A   1      43.849  29.145  27.359  1.00  0.00     0.049 A 
ATOM     63  H   UNL A   1      42.292  30.096  28.397  1.00  0.00     0.167 HD
ATOM     64  C   UNL A   1      44.633  28.886  29.720  1.00  0.00     0.074 A 
ATOM     65  C   UNL A   1      43.433  29.122  30.523  1.00  0.00     0.031 C 
ATOM     66  C   UNL A   1      44.863  28.935  28.374  1.00  0.00     0.031 A 
BRANCH  53  67
ATOM     67  C   UNL A   1      39.505  29.417  27.885  1.00  0.00    -0.014 A 
ATOM     68  C   UNL A   1      39.752  29.661  29.253  1.00  0.00     0.010 A 
ATOM     69  C   UNL A   1      38.229  29.769  27.398  1.00  0.00     0.010 A 
ATOM     70  C   UNL A   1      38.749  30.150  30.102  1.00  0.00     0.020 A 
ATOM     71  C   UNL A   1      37.236  30.296  28.227  1.00  0.00     0.020 A 
ATOM     72  C   UNL A   1      37.492  30.452  29.582  1.00  0.00     0.054 A 
BRANCH  72  73
ATOM     73  S   UNL A   1      36.177  30.996  30.698  1.00  0.00     0.124 S 
ATOM     74  O   UNL A   1      35.101  31.306  29.764  1.00  0.00    -0.237 OA
ATOM     75  O   UNL A   1      35.976  29.814  31.533  1.00  0.00    -0.237 OA
ATOM     76  O   UNL A   1      36.766  32.145  31.383  1.00  0.00    -0.744 OA
ENDBRANCH  72  73
ENDBRANCH  53  67
BRANCH  54  77
ATOM     77  C   UNL A   1      44.955  26.260  33.643  1.00  0.00    -0.014 A 
ATOM     78  C   UNL A   1      45.585  27.199  34.486  1.00  0.00     0.010 A 
ATOM     79  C   UNL A   1      44.146  25.281  34.256  1.00  0.00     0.010 A 
ATOM     80  C   UNL A   1      45.377  27.185  35.880  1.00  0.00     0.020 A 
ATOM     81  C   UNL A   1      43.934  25.261  35.642  1.00  0.00     0.020 A 
ATOM     82  C   UNL A   1      44.537  26.224  36.448  1.00  0.00     0.054 A 
BRANCH  82  83
ATOM     83  S   UNL A   1      44.154  26.297  38.227  1.00  0.00     0.124 S 
ATOM     84  O   UNL A   1      42.693  26.318  38.229  1.00  0.00    -0.237 OA
ATOM     85  O   UNL A   1      44.768  25.074  38.737  1.00  0.00    -0.237 OA
ATOM     86  O   UNL A   1      44.791  27.537  38.666  1.00  0.00    -0.744 OA
ENDBRANCH  82  83
ENDBRANCH  54  77
BRANCH  66  87
ATOM     87  C   UNL A   1      46.241  28.582  27.863  1.00  0.00    -0.014 A 
ATOM     88  C   UNL A   1      46.604  27.335  27.318  1.00  0.00     0.010 A 
ATOM     89  C   UNL A   1      47.162  29.642  27.787  1.00  0.00     0.010 A 
ATOM     90  C   UNL A   1      47.864  27.160  26.720  1.00  0.00     0.020 A 
ATOM     91  C   UNL A   1      48.404  29.480  27.177  1.00  0.00     0.020 A 
ATOM     92  C   UNL A   1      48.755  28.238  26.651  1.00  0.00     0.054 A 
BRANCH  92  93
ATOM     93  S   UNL A   1      50.360  28.034  25.826  1.00  0.00     0.124 S 
ATOM     94  O   UNL A   1      50.816  26.744  26.335  1.00  0.00    -0.237 OA
ATOM     95  O   UNL A   1      50.004  28.063  24.410  1.00  0.00    -0.237 OA
ATOM     96  O   UNL A   1      51.135  29.187  26.284  1.00  0.00    -0.744 OA
ENDBRANCH  92  93
ENDBRANCH  66  87
ENDBRANCH  40  41
ENDBRANCH  32  35
ENDBRANCH  30  31
ENDBRANCH  29  30
ENDBRANCH   1  29
TORSDOF 19
ENDMDL
