MODEL 1
REMARK VINA RESULT:     -10.6      0.000      0.000
REMARK SMILES O=C(NCCCCNC(=O)[C@H]([C@@H]1CCOC1)[C@@H]1CCS(=O)(=O)C1)c1ccc(-c2c3nc(c(-c4ccc(S(=O)(=O)[O-])cc4)c4ccc([nH]4)c(-c4ccc(S(=O)(=O)[O-])cc4)c4nc(c(-c5ccc(S(=O)(=O)[O-])cc5)c5ccc2[nH]5)C=C4)C=C3)cc1
REMARK SMILES IDX 4 1 3 2 1 3 2 4 24 6 25 7 83 8 26 9 82 10 27 11 28 12 29 13
REMARK SMILES IDX 76 14 30 15 81 16 75 17 77 18 31 19 80 20 74 21 73 22 32 24
REMARK SMILES IDX 62 25 43 26 61 27 44 28 47 29 60 30 78 31 45 32 46 33 59 35
REMARK SMILES IDX 79 36 48 37 33 38 34 39 42 40 35 41 41 42 36 43 37 44 38 45
REMARK SMILES IDX 39 46 40 47 63 48 64 49 72 50 65 51 71 52 66 53 67 54 68 55
REMARK SMILES IDX 69 56 70 57 49 58 50 59 58 60 51 61 57 62 52 63 53 64 54 65
REMARK SMILES IDX 55 66 56 67 5 68 6 69 7 70 8 71 9 72 10 74 11 75 17 76 18 77
REMARK SMILES IDX 23 78 19 79 20 80 21 81 22 82 12 83 13 84 16 85 14 86 15 87
REMARK H PARENT 3 5 77 23 47 34 8 73
REMARK Flexibility Score: inf
ROOT
ATOM      1  C   UNL A   1      33.990  28.158  26.616  1.00  0.00     0.116 C 
ENDROOT
BRANCH   1   2
ATOM      2  N   UNL A   1      33.665  29.528  26.977  1.00  0.00    -0.352 N 
ATOM      3  O   UNL A   1      33.928  31.521  27.991  1.00  0.00    -0.269 OA
ATOM      4  C   UNL A   1      34.417  30.438  27.681  1.00  0.00     0.251 C 
ATOM      5  H   UNL A   1      32.783  29.846  26.678  1.00  0.00     0.163 HD
BRANCH   4   6
ATOM      6  C   UNL A   1      35.798  30.098  28.089  1.00  0.00     0.039 A 
ATOM      7  C   UNL A   1      36.868  30.255  27.206  1.00  0.00     0.014 A 
ATOM      8  C   UNL A   1      36.023  29.608  29.380  1.00  0.00     0.014 A 
ATOM      9  C   UNL A   1      38.133  29.793  27.561  1.00  0.00     0.010 A 
ATOM     10  C   UNL A   1      37.311  29.220  29.763  1.00  0.00     0.010 A 
ATOM     11  C   UNL A   1      38.371  29.281  28.847  1.00  0.00    -0.014 A 
BRANCH  11  12
ATOM     12  C   UNL A   1      39.748  28.874  29.228  1.00  0.00     0.031 A 
ATOM     13  C   UNL A   1      40.640  29.781  30.031  1.00  0.00     0.074 A 
ATOM     14  C   UNL A   1      40.187  27.655  28.857  1.00  0.00     0.049 A 
ATOM     15  N   UNL A   1      41.854  29.563  30.468  1.00  0.00    -0.248 NA
ATOM     16  C   UNL A   1      40.106  31.106  30.383  1.00  0.00     0.031 C 
ATOM     17  C   UNL A   1      39.415  26.685  28.073  1.00  0.00     0.029 A 
ATOM     18  N   UNL A   1      41.373  27.013  29.102  1.00  0.00    -0.354 N 
ATOM     19  C   UNL A   1      42.238  30.723  31.130  1.00  0.00     0.074 A 
ATOM     20  C   UNL A   1      41.135  31.654  31.013  1.00  0.00     0.031 C 
ATOM     21  C   UNL A   1      40.127  25.557  27.946  1.00  0.00     0.029 A 
ATOM     22  C   UNL A   1      41.427  25.743  28.580  1.00  0.00     0.049 A 
ATOM     23  H   UNL A   1      42.114  27.421  29.604  1.00  0.00     0.167 HD
ATOM     24  C   UNL A   1      43.401  30.988  31.777  1.00  0.00     0.031 A 
ATOM     25  C   UNL A   1      42.415  24.829  28.592  1.00  0.00     0.031 A 
ATOM     26  C   UNL A   1      44.499  30.061  31.878  1.00  0.00     0.049 A 
ATOM     27  C   UNL A   1      43.707  25.159  29.282  1.00  0.00     0.074 A 
ATOM     28  C   UNL A   1      45.705  30.223  32.539  1.00  0.00     0.029 A 
ATOM     29  N   UNL A   1      44.532  28.801  31.297  1.00  0.00    -0.354 N 
ATOM     30  N   UNL A   1      44.035  26.249  29.932  1.00  0.00    -0.248 NA
ATOM     31  C   UNL A   1      44.759  24.137  29.238  1.00  0.00     0.031 C 
ATOM     32  C   UNL A   1      46.488  29.086  32.309  1.00  0.00     0.029 A 
ATOM     33  C   UNL A   1      45.747  28.188  31.558  1.00  0.00     0.049 A 
ATOM     34  H   UNL A   1      43.798  28.401  30.776  1.00  0.00     0.167 HD
ATOM     35  C   UNL A   1      45.329  26.038  30.392  1.00  0.00     0.074 A 
ATOM     36  C   UNL A   1      45.714  24.709  29.960  1.00  0.00     0.031 C 
ATOM     37  C   UNL A   1      46.124  26.871  31.109  1.00  0.00     0.031 A 
BRANCH  24  38
ATOM     38  C   UNL A   1      43.558  32.354  32.394  1.00  0.00    -0.014 A 
ATOM     39  C   UNL A   1      43.178  32.605  33.725  1.00  0.00     0.010 A 
ATOM     40  C   UNL A   1      44.122  33.400  31.640  1.00  0.00     0.010 A 
ATOM     41  C   UNL A   1      43.308  33.886  34.271  1.00  0.00     0.020 A 
ATOM     42  C   UNL A   1      44.281  34.675  32.190  1.00  0.00     0.020 A 
ATOM     43  C   UNL A   1      43.851  34.916  33.496  1.00  0.00     0.054 A 
BRANCH  43  44
ATOM     44  S   UNL A   1      43.998  36.571  34.225  1.00  0.00     0.124 S 
ATOM     45  O   UNL A   1      44.929  36.331  35.325  1.00  0.00    -0.237 OA
ATOM     46  O   UNL A   1      44.527  37.364  33.118  1.00  0.00    -0.237 OA
ATOM     47  O   UNL A   1      42.632  36.898  34.624  1.00  0.00    -0.744 OA
ENDBRANCH  43  44
ENDBRANCH  24  38
BRANCH  25  48
ATOM     48  C   UNL A   1      42.206  23.517  27.924  1.00  0.00    -0.014 A 
ATOM     49  C   UNL A   1      42.796  23.248  26.677  1.00  0.00     0.010 A 
ATOM     50  C   UNL A   1      41.457  22.509  28.560  1.00  0.00     0.010 A 
ATOM     51  C   UNL A   1      42.640  21.995  26.079  1.00  0.00     0.020 A 
ATOM     52  C   UNL A   1      41.325  21.247  27.979  1.00  0.00     0.020 A 
ATOM     53  C   UNL A   1      41.912  20.999  26.738  1.00  0.00     0.054 A 
BRANCH  53  54
ATOM     54  S   UNL A   1      41.794  19.356  25.980  1.00  0.00     0.124 S 
ATOM     55  O   UNL A   1      42.671  19.491  24.821  1.00  0.00    -0.237 OA
ATOM     56  O   UNL A   1      42.279  18.481  27.044  1.00  0.00    -0.237 OA
ATOM     57  O   UNL A   1      40.370  19.222  25.676  1.00  0.00    -0.744 OA
ENDBRANCH  53  54
ENDBRANCH  25  48
BRANCH  37  58
ATOM     58  C   UNL A   1      47.487  26.358  31.491  1.00  0.00    -0.014 A 
ATOM     59  C   UNL A   1      47.712  25.742  32.736  1.00  0.00     0.010 A 
ATOM     60  C   UNL A   1      48.549  26.459  30.574  1.00  0.00     0.010 A 
ATOM     61  C   UNL A   1      48.982  25.265  33.068  1.00  0.00     0.020 A 
ATOM     62  C   UNL A   1      49.814  25.958  30.892  1.00  0.00     0.020 A 
ATOM     63  C   UNL A   1      50.026  25.378  32.144  1.00  0.00     0.054 A 
BRANCH  63  64
ATOM     64  S   UNL A   1      51.657  24.717  32.584  1.00  0.00     0.124 S 
ATOM     65  O   UNL A   1      51.718  24.986  34.018  1.00  0.00    -0.237 OA
ATOM     66  O   UNL A   1      51.543  23.309  32.212  1.00  0.00    -0.237 OA
ATOM     67  O   UNL A   1      52.580  25.498  31.763  1.00  0.00    -0.744 OA
ENDBRANCH  63  64
ENDBRANCH  37  58
ENDBRANCH  11  12
ENDBRANCH   4   6
ENDBRANCH   1   2
BRANCH   1  68
ATOM     68  C   UNL A   1      32.762  27.273  26.436  1.00  0.00     0.023 C 
BRANCH  68  69
ATOM     69  C   UNL A   1      32.509  26.764  25.014  1.00  0.00     0.023 C 
BRANCH  69  70
ATOM     70  C   UNL A   1      33.653  26.995  24.028  1.00  0.00     0.116 C 
BRANCH  70  71
ATOM     71  N   UNL A   1      33.681  26.007  22.965  1.00  0.00    -0.356 N 
ATOM     72  C   UNL A   1      33.986  24.683  22.981  1.00  0.00     0.223 C 
ATOM     73  H   UNL A   1      33.438  26.358  22.077  1.00  0.00     0.163 HD
ATOM     74  O   UNL A   1      33.814  24.038  21.946  1.00  0.00    -0.275 OA
BRANCH  72  75
ATOM     75  C   UNL A   1      34.473  24.010  24.266  1.00  0.00     0.088 C 
BRANCH  75  76
ATOM     76  C   UNL A   1      33.430  22.914  24.641  1.00  0.00     0.018 C 
ATOM     77  C   UNL A   1      33.300  22.613  26.150  1.00  0.00     0.021 C 
ATOM     78  C   UNL A   1      33.424  21.596  23.851  1.00  0.00     0.141 C 
ATOM     79  C   UNL A   1      33.850  21.231  26.445  1.00  0.00     0.137 C 
ATOM     80  S   UNL A   1      33.400  20.257  25.035  1.00  0.00     0.150 S 
ATOM     81  O   UNL A   1      34.461  19.316  24.742  1.00  0.00    -0.229 OA
ATOM     82  O   UNL A   1      32.030  19.823  25.216  1.00  0.00    -0.229 OA
ENDBRANCH  75  76
BRANCH  75  83
ATOM     83  C   UNL A   1      36.007  23.801  24.163  1.00  0.00     0.030 C 
ATOM     84  C   UNL A   1      36.565  22.604  23.418  1.00  0.00     0.035 C 
ATOM     85  C   UNL A   1      36.729  23.712  25.493  1.00  0.00     0.164 C 
ATOM     86  C   UNL A   1      36.996  21.631  24.491  1.00  0.00     0.160 C 
ATOM     87  O   UNL A   1      36.979  22.330  25.739  1.00  0.00    -0.381 OA
ENDBRANCH  75  83
ENDBRANCH  72  75
ENDBRANCH  70  71
ENDBRANCH  69  70
ENDBRANCH  68  69
ENDBRANCH   1  68
TORSDOF 16
ENDMDL
MODEL 2
REMARK VINA RESULT:     -10.5      1.111      2.212
REMARK SMILES O=C(NCCCCNC(=O)[C@H]([C@@H]1CCOC1)[C@@H]1CCS(=O)(=O)C1)c1ccc(-c2c3nc(c(-c4ccc(S(=O)(=O)[O-])cc4)c4ccc([nH]4)c(-c4ccc(S(=O)(=O)[O-])cc4)c4nc(c(-c5ccc(S(=O)(=O)[O-])cc5)c5ccc2[nH]5)C=C4)C=C3)cc1
REMARK SMILES IDX 4 1 3 2 1 3 2 4 24 6 25 7 83 8 26 9 82 10 27 11 28 12 29 13
REMARK SMILES IDX 76 14 30 15 81 16 75 17 77 18 31 19 80 20 74 21 73 22 32 24
REMARK SMILES IDX 62 25 43 26 61 27 44 28 47 29 60 30 78 31 45 32 46 33 59 35
REMARK SMILES IDX 79 36 48 37 33 38 34 39 42 40 35 41 41 42 36 43 37 44 38 45
REMARK SMILES IDX 39 46 40 47 63 48 64 49 72 50 65 51 71 52 66 53 67 54 68 55
REMARK SMILES IDX 69 56 70 57 49 58 50 59 58 60 51 61 57 62 52 63 53 64 54 65
REMARK SMILES IDX 55 66 56 67 5 68 6 69 7 70 8 71 9 72 10 74 11 75 17 76 18 77
REMARK SMILES IDX 23 78 19 79 20 80 21 81 22 82 12 83 13 84 16 85 14 86 15 87
REMARK H PARENT 3 5 77 23 47 34 8 73
REMARK Flexibility Score: inf
ROOT
ATOM      1  C   UNL A   1      34.121  28.754  26.142  1.00  0.00     0.116 C 
ENDROOT
BRANCH   1   2
ATOM      2  N   UNL A   1      33.811  29.978  26.860  1.00  0.00    -0.352 N 
ATOM      3  O   UNL A   1      34.075  31.600  28.399  1.00  0.00    -0.269 OA
ATOM      4  C   UNL A   1      34.553  30.632  27.816  1.00  0.00     0.251 C 
ATOM      5  H   UNL A   1      32.949  30.396  26.632  1.00  0.00     0.163 HD
BRANCH   4   6
ATOM      6  C   UNL A   1      35.908  30.146  28.160  1.00  0.00     0.039 A 
ATOM      7  C   UNL A   1      36.177  29.595  29.415  1.00  0.00     0.014 A 
ATOM      8  C   UNL A   1      36.927  30.248  27.208  1.00  0.00     0.014 A 
ATOM      9  C   UNL A   1      37.486  29.280  29.766  1.00  0.00     0.010 A 
ATOM     10  C   UNL A   1      38.228  29.853  27.536  1.00  0.00     0.010 A 
ATOM     11  C   UNL A   1      38.525  29.395  28.828  1.00  0.00    -0.014 A 
BRANCH  11  12
ATOM     12  C   UNL A   1      39.899  28.971  29.203  1.00  0.00     0.031 A 
ATOM     13  C   UNL A   1      40.811  29.874  29.988  1.00  0.00     0.074 A 
ATOM     14  C   UNL A   1      40.316  27.742  28.842  1.00  0.00     0.049 A 
ATOM     15  N   UNL A   1      42.026  29.642  30.417  1.00  0.00    -0.248 NA
ATOM     16  C   UNL A   1      40.300  31.210  30.330  1.00  0.00     0.031 C 
ATOM     17  C   UNL A   1      39.523  26.775  28.075  1.00  0.00     0.029 A 
ATOM     18  N   UNL A   1      41.494  27.084  29.084  1.00  0.00    -0.354 N 
ATOM     19  C   UNL A   1      42.433  30.804  31.063  1.00  0.00     0.074 A 
ATOM     20  C   UNL A   1      41.343  31.750  30.945  1.00  0.00     0.031 C 
ATOM     21  C   UNL A   1      40.217  25.635  27.955  1.00  0.00     0.029 A 
ATOM     22  C   UNL A   1      41.525  25.808  28.576  1.00  0.00     0.049 A 
ATOM     23  H   UNL A   1      42.246  27.487  29.576  1.00  0.00     0.167 HD
ATOM     24  C   UNL A   1      43.605  31.058  31.697  1.00  0.00     0.031 A 
ATOM     25  C   UNL A   1      42.500  24.879  28.591  1.00  0.00     0.031 A 
ATOM     26  C   UNL A   1      44.690  30.115  31.800  1.00  0.00     0.049 A 
ATOM     27  C   UNL A   1      43.802  25.198  29.265  1.00  0.00     0.074 A 
ATOM     28  C   UNL A   1      45.903  30.266  32.448  1.00  0.00     0.029 A 
ATOM     29  N   UNL A   1      44.699  28.849  31.233  1.00  0.00    -0.354 N 
ATOM     30  N   UNL A   1      44.152  26.290  29.901  1.00  0.00    -0.248 NA
ATOM     31  C   UNL A   1      44.838  24.159  29.225  1.00  0.00     0.031 C 
ATOM     32  C   UNL A   1      46.667  29.116  32.225  1.00  0.00     0.029 A 
ATOM     33  C   UNL A   1      45.906  28.221  31.490  1.00  0.00     0.049 A 
ATOM     34  H   UNL A   1      43.954  28.454  30.722  1.00  0.00     0.167 HD
ATOM     35  C   UNL A   1      45.446  26.064  30.352  1.00  0.00     0.074 A 
ATOM     36  C   UNL A   1      45.808  24.725  29.932  1.00  0.00     0.031 C 
ATOM     37  C   UNL A   1      46.260  26.893  31.053  1.00  0.00     0.031 A 
BRANCH  24  38
ATOM     38  C   UNL A   1      43.788  32.429  32.298  1.00  0.00    -0.014 A 
ATOM     39  C   UNL A   1      44.337  33.488  31.552  1.00  0.00     0.010 A 
ATOM     40  C   UNL A   1      43.379  32.670  33.623  1.00  0.00     0.010 A 
ATOM     41  C   UNL A   1      44.523  34.745  32.136  1.00  0.00     0.020 A 
ATOM     42  C   UNL A   1      43.538  33.933  34.201  1.00  0.00     0.020 A 
ATOM     43  C   UNL A   1      44.130  34.956  33.461  1.00  0.00     0.054 A 
BRANCH  43  44
ATOM     44  S   UNL A   1      44.393  36.594  34.197  1.00  0.00     0.124 S 
ATOM     45  O   UNL A   1      45.583  37.054  33.486  1.00  0.00    -0.237 OA
ATOM     46  O   UNL A   1      43.155  37.296  33.869  1.00  0.00    -0.237 OA
ATOM     47  O   UNL A   1      44.586  36.310  35.617  1.00  0.00    -0.744 OA
ENDBRANCH  43  44
ENDBRANCH  24  38
BRANCH  25  48
ATOM     48  C   UNL A   1      42.264  23.564  27.939  1.00  0.00    -0.014 A 
ATOM     49  C   UNL A   1      42.605  23.363  26.590  1.00  0.00     0.010 A 
ATOM     50  C   UNL A   1      41.748  22.486  28.683  1.00  0.00     0.010 A 
ATOM     51  C   UNL A   1      42.433  22.110  25.998  1.00  0.00     0.020 A 
ATOM     52  C   UNL A   1      41.602  21.225  28.102  1.00  0.00     0.020 A 
ATOM     53  C   UNL A   1      41.940  21.046  26.760  1.00  0.00     0.054 A 
BRANCH  53  54
ATOM     54  S   UNL A   1      41.802  19.409  25.992  1.00  0.00     0.124 S 
ATOM     55  O   UNL A   1      42.282  18.532  27.055  1.00  0.00    -0.237 OA
ATOM     56  O   UNL A   1      40.375  19.320  25.692  1.00  0.00    -0.237 OA
ATOM     57  O   UNL A   1      42.670  19.507  24.820  1.00  0.00    -0.744 OA
ENDBRANCH  53  54
ENDBRANCH  25  48
BRANCH  37  58
ATOM     58  C   UNL A   1      47.618  26.363  31.429  1.00  0.00    -0.014 A 
ATOM     59  C   UNL A   1      47.827  25.692  32.648  1.00  0.00     0.010 A 
ATOM     60  C   UNL A   1      48.692  26.506  30.532  1.00  0.00     0.010 A 
ATOM     61  C   UNL A   1      49.093  25.202  32.975  1.00  0.00     0.020 A 
ATOM     62  C   UNL A   1      49.953  25.991  30.844  1.00  0.00     0.020 A 
ATOM     63  C   UNL A   1      50.149  25.356  32.072  1.00  0.00     0.054 A 
BRANCH  63  64
ATOM     64  S   UNL A   1      51.775  24.676  32.502  1.00  0.00     0.124 S 
ATOM     65  O   UNL A   1      51.565  23.243  32.312  1.00  0.00    -0.237 OA
ATOM     66  O   UNL A   1      52.658  25.317  31.531  1.00  0.00    -0.237 OA
ATOM     67  O   UNL A   1      51.971  25.098  33.887  1.00  0.00    -0.744 OA
ENDBRANCH  63  64
ENDBRANCH  37  58
ENDBRANCH  11  12
ENDBRANCH   4   6
ENDBRANCH   1   2
BRANCH   1  68
ATOM     68  C   UNL A   1      33.242  27.576  26.547  1.00  0.00     0.023 C 
BRANCH  68  69
ATOM     69  C   UNL A   1      31.731  27.817  26.480  1.00  0.00     0.023 C 
BRANCH  69  70
ATOM     70  C   UNL A   1      30.911  26.653  25.929  1.00  0.00     0.116 C 
BRANCH  70  71
ATOM     71  N   UNL A   1      30.955  25.483  26.789  1.00  0.00    -0.356 N 
ATOM     72  C   UNL A   1      31.592  24.292  26.647  1.00  0.00     0.223 C 
ATOM     73  H   UNL A   1      30.430  25.569  27.618  1.00  0.00     0.163 HD
ATOM     74  O   UNL A   1      31.560  23.505  27.593  1.00  0.00    -0.275 OA
BRANCH  72  75
ATOM     75  C   UNL A   1      32.371  23.971  25.370  1.00  0.00     0.088 C 
BRANCH  75  76
ATOM     76  C   UNL A   1      33.887  24.085  25.709  1.00  0.00     0.018 C 
ATOM     77  C   UNL A   1      34.781  24.624  24.572  1.00  0.00     0.021 C 
ATOM     78  C   UNL A   1      34.585  22.898  26.392  1.00  0.00     0.141 C 
ATOM     79  C   UNL A   1      35.674  23.513  24.052  1.00  0.00     0.137 C 
ATOM     80  S   UNL A   1      36.089  22.560  25.487  1.00  0.00     0.150 S 
ATOM     81  O   UNL A   1      36.151  21.158  25.131  1.00  0.00    -0.229 OA
ATOM     82  O   UNL A   1      37.190  23.224  26.155  1.00  0.00    -0.229 OA
ENDBRANCH  75  76
BRANCH  75  83
ATOM     83  C   UNL A   1      31.689  22.768  24.666  1.00  0.00     0.030 C 
ATOM     84  C   UNL A   1      31.834  21.369  25.235  1.00  0.00     0.035 C 
ATOM     85  C   UNL A   1      32.091  22.565  23.218  1.00  0.00     0.164 C 
ATOM     86  C   UNL A   1      32.851  20.683  24.352  1.00  0.00     0.160 C 
ATOM     87  O   UNL A   1      33.041  21.503  23.195  1.00  0.00    -0.381 OA
ENDBRANCH  75  83
ENDBRANCH  72  75
ENDBRANCH  70  71
ENDBRANCH  69  70
ENDBRANCH  68  69
ENDBRANCH   1  68
TORSDOF 16
ENDMDL
MODEL 3
REMARK VINA RESULT:     -10.5      4.208     10.134
REMARK SMILES O=C(NCCCCNC(=O)[C@H]([C@@H]1CCOC1)[C@@H]1CCS(=O)(=O)C1)c1ccc(-c2c3nc(c(-c4ccc(S(=O)(=O)[O-])cc4)c4ccc([nH]4)c(-c4ccc(S(=O)(=O)[O-])cc4)c4nc(c(-c5ccc(S(=O)(=O)[O-])cc5)c5ccc2[nH]5)C=C4)C=C3)cc1
REMARK SMILES IDX 4 1 3 2 1 3 2 4 24 6 25 7 83 8 26 9 82 10 27 11 28 12 29 13
REMARK SMILES IDX 76 14 30 15 81 16 75 17 77 18 31 19 80 20 74 21 73 22 32 24
REMARK SMILES IDX 62 25 43 26 61 27 44 28 47 29 60 30 78 31 45 32 46 33 59 35
REMARK SMILES IDX 79 36 48 37 33 38 34 39 42 40 35 41 41 42 36 43 37 44 38 45
REMARK SMILES IDX 39 46 40 47 63 48 64 49 72 50 65 51 71 52 66 53 67 54 68 55
REMARK SMILES IDX 69 56 70 57 49 58 50 59 58 60 51 61 57 62 52 63 53 64 54 65
REMARK SMILES IDX 55 66 56 67 5 68 6 69 7 70 8 71 9 72 10 74 11 75 17 76 18 77
REMARK SMILES IDX 23 78 19 79 20 80 21 81 22 82 12 83 13 84 16 85 14 86 15 87
REMARK H PARENT 3 5 77 23 47 34 8 73
REMARK Flexibility Score: inf
ROOT
ATOM      1  C   UNL A   1      41.242  23.166  27.290  1.00  0.00     0.116 C 
ENDROOT
BRANCH   1   2
ATOM      2  N   UNL A   1      41.512  23.989  26.124  1.00  0.00    -0.352 N 
ATOM      3  O   UNL A   1      41.685  25.884  24.920  1.00  0.00    -0.269 OA
ATOM      4  C   UNL A   1      41.551  25.360  26.022  1.00  0.00     0.251 C 
ATOM      5  H   UNL A   1      41.691  23.496  25.291  1.00  0.00     0.163 HD
BRANCH   4   6
ATOM      6  C   UNL A   1      41.397  26.196  27.234  1.00  0.00     0.039 A 
ATOM      7  C   UNL A   1      40.340  25.986  28.122  1.00  0.00     0.014 A 
ATOM      8  C   UNL A   1      42.327  27.211  27.480  1.00  0.00     0.014 A 
ATOM      9  C   UNL A   1      40.133  26.873  29.173  1.00  0.00     0.010 A 
ATOM     10  C   UNL A   1      42.162  28.052  28.585  1.00  0.00     0.010 A 
ATOM     11  C   UNL A   1      41.047  27.910  29.424  1.00  0.00    -0.014 A 
BRANCH  11  12
ATOM     12  C   UNL A   1      40.848  28.792  30.603  1.00  0.00     0.031 A 
ATOM     13  C   UNL A   1      41.737  28.696  31.813  1.00  0.00     0.074 A 
ATOM     14  C   UNL A   1      39.858  29.706  30.566  1.00  0.00     0.049 A 
ATOM     15  N   UNL A   1      41.713  29.411  32.909  1.00  0.00    -0.248 NA
ATOM     16  C   UNL A   1      42.783  27.663  31.795  1.00  0.00     0.031 C 
ATOM     17  C   UNL A   1      38.926  29.893  29.449  1.00  0.00     0.029 A 
ATOM     18  N   UNL A   1      39.480  30.660  31.475  1.00  0.00    -0.354 N 
ATOM     19  C   UNL A   1      42.723  28.907  33.719  1.00  0.00     0.074 A 
ATOM     20  C   UNL A   1      43.325  27.805  32.997  1.00  0.00     0.031 C 
ATOM     21  C   UNL A   1      38.120  30.929  29.718  1.00  0.00     0.029 A 
ATOM     22  C   UNL A   1      38.431  31.438  31.048  1.00  0.00     0.049 A 
ATOM     23  H   UNL A   1      39.917  30.776  32.349  1.00  0.00     0.167 HD
ATOM     24  C   UNL A   1      43.115  29.324  34.948  1.00  0.00     0.031 A 
ATOM     25  C   UNL A   1      37.775  32.443  31.661  1.00  0.00     0.031 A 
ATOM     26  C   UNL A   1      42.503  30.413  35.666  1.00  0.00     0.049 A 
ATOM     27  C   UNL A   1      38.203  32.861  33.037  1.00  0.00     0.074 A 
ATOM     28  C   UNL A   1      42.848  30.931  36.903  1.00  0.00     0.029 A 
ATOM     29  N   UNL A   1      41.414  31.147  35.219  1.00  0.00    -0.354 N 
ATOM     30  N   UNL A   1      39.184  32.393  33.770  1.00  0.00    -0.248 NA
ATOM     31  C   UNL A   1      37.435  33.941  33.667  1.00  0.00     0.031 C 
ATOM     32  C   UNL A   1      41.933  31.939  37.227  1.00  0.00     0.029 A 
ATOM     33  C   UNL A   1      41.055  32.092  36.166  1.00  0.00     0.049 A 
ATOM     34  H   UNL A   1      40.962  31.016  34.353  1.00  0.00     0.167 HD
ATOM     35  C   UNL A   1      39.164  33.134  34.945  1.00  0.00     0.074 A 
ATOM     36  C   UNL A   1      38.084  34.093  34.815  1.00  0.00     0.031 C 
ATOM     37  C   UNL A   1      39.968  33.030  36.032  1.00  0.00     0.031 A 
BRANCH  24  38
ATOM     38  C   UNL A   1      44.239  28.570  35.614  1.00  0.00    -0.014 A 
ATOM     39  C   UNL A   1      45.580  28.963  35.454  1.00  0.00     0.010 A 
ATOM     40  C   UNL A   1      43.947  27.465  36.436  1.00  0.00     0.010 A 
ATOM     41  C   UNL A   1      46.610  28.235  36.059  1.00  0.00     0.020 A 
ATOM     42  C   UNL A   1      44.971  26.751  37.065  1.00  0.00     0.020 A 
ATOM     43  C   UNL A   1      46.298  27.127  36.854  1.00  0.00     0.054 A 
BRANCH  43  44
ATOM     44  S   UNL A   1      47.653  26.193  37.617  1.00  0.00     0.124 S 
ATOM     45  O   UNL A   1      46.930  25.299  38.519  1.00  0.00    -0.237 OA
ATOM     46  O   UNL A   1      48.286  25.548  36.470  1.00  0.00    -0.237 OA
ATOM     47  O   UNL A   1      48.458  27.221  38.272  1.00  0.00    -0.744 OA
ENDBRANCH  43  44
ENDBRANCH  24  38
BRANCH  25  48
ATOM     48  C   UNL A   1      36.647  33.112  30.961  1.00  0.00    -0.014 A 
ATOM     49  C   UNL A   1      35.355  33.101  31.516  1.00  0.00     0.010 A 
ATOM     50  C   UNL A   1      36.872  33.812  29.761  1.00  0.00     0.010 A 
ATOM     51  C   UNL A   1      34.310  33.778  30.882  1.00  0.00     0.020 A 
ATOM     52  C   UNL A   1      35.837  34.513  29.141  1.00  0.00     0.020 A 
ATOM     53  C   UNL A   1      34.559  34.487  29.703  1.00  0.00     0.054 A 
BRANCH  53  54
ATOM     54  S   UNL A   1      33.205  35.424  28.943  1.00  0.00     0.124 S 
ATOM     55  O   UNL A   1      32.541  34.402  28.140  1.00  0.00    -0.237 OA
ATOM     56  O   UNL A   1      32.460  35.900  30.106  1.00  0.00    -0.237 OA
ATOM     57  O   UNL A   1      33.894  36.467  28.186  1.00  0.00    -0.744 OA
ENDBRANCH  53  54
ENDBRANCH  25  48
BRANCH  37  58
ATOM     58  C   UNL A   1      39.724  33.995  37.161  1.00  0.00    -0.014 A 
ATOM     59  C   UNL A   1      38.936  33.636  38.270  1.00  0.00     0.010 A 
ATOM     60  C   UNL A   1      40.324  35.267  37.130  1.00  0.00     0.010 A 
ATOM     61  C   UNL A   1      38.727  34.543  39.311  1.00  0.00     0.020 A 
ATOM     62  C   UNL A   1      40.140  36.166  38.183  1.00  0.00     0.020 A 
ATOM     63  C   UNL A   1      39.329  35.804  39.260  1.00  0.00     0.054 A 
BRANCH  63  64
ATOM     64  S   UNL A   1      39.076  36.950  40.643  1.00  0.00     0.124 S 
ATOM     65  O   UNL A   1      38.379  36.108  41.612  1.00  0.00    -0.237 OA
ATOM     66  O   UNL A   1      40.440  37.326  41.003  1.00  0.00    -0.237 OA
ATOM     67  O   UNL A   1      38.273  38.024  40.060  1.00  0.00    -0.744 OA
ENDBRANCH  63  64
ENDBRANCH  37  58
ENDBRANCH  11  12
ENDBRANCH   4   6
ENDBRANCH   1   2
BRANCH   1  68
ATOM     68  C   UNL A   1      40.011  22.281  27.133  1.00  0.00     0.023 C 
BRANCH  68  69
ATOM     69  C   UNL A   1      38.809  22.926  26.439  1.00  0.00     0.023 C 
BRANCH  69  70
ATOM     70  C   UNL A   1      37.851  21.951  25.758  1.00  0.00     0.116 C 
BRANCH  70  71
ATOM     71  N   UNL A   1      37.606  22.288  24.367  1.00  0.00    -0.356 N 
ATOM     72  C   UNL A   1      36.485  22.722  23.736  1.00  0.00     0.223 C 
ATOM     73  H   UNL A   1      38.390  22.182  23.779  1.00  0.00     0.163 HD
ATOM     74  O   UNL A   1      36.580  23.053  22.553  1.00  0.00    -0.275 OA
BRANCH  72  75
ATOM     75  C   UNL A   1      35.161  22.848  24.493  1.00  0.00     0.088 C 
BRANCH  75  76
ATOM     76  C   UNL A   1      34.760  24.353  24.483  1.00  0.00     0.018 C 
ATOM     77  C   UNL A   1      34.109  24.874  25.783  1.00  0.00     0.021 C 
ATOM     78  C   UNL A   1      34.000  24.909  23.269  1.00  0.00     0.141 C 
ATOM     79  C   UNL A   1      32.645  25.180  25.534  1.00  0.00     0.137 C 
ATOM     80  S   UNL A   1      32.593  25.824  23.884  1.00  0.00     0.150 S 
ATOM     81  O   UNL A   1      31.382  25.374  23.230  1.00  0.00    -0.229 OA
ATOM     82  O   UNL A   1      32.945  27.228  23.946  1.00  0.00    -0.229 OA
ENDBRANCH  75  76
BRANCH  75  83
ATOM     83  C   UNL A   1      34.245  21.664  24.084  1.00  0.00     0.030 C 
ATOM     84  C   UNL A   1      32.747  21.867  23.962  1.00  0.00     0.035 C 
ATOM     85  C   UNL A   1      34.328  20.451  24.990  1.00  0.00     0.164 C 
ATOM     86  C   UNL A   1      32.158  21.254  25.211  1.00  0.00     0.160 C 
ATOM     87  O   UNL A   1      33.188  20.492  25.845  1.00  0.00    -0.381 OA
ENDBRANCH  75  83
ENDBRANCH  72  75
ENDBRANCH  70  71
ENDBRANCH  69  70
ENDBRANCH  68  69
ENDBRANCH   1  68
TORSDOF 16
ENDMDL
