MODEL 1
REMARK VINA RESULT:      -8.9      0.000      0.000
REMARK SMILES C[C@H](C[NH3+])CS/C=C/C(=O)NCCCCNC(=O)c1ccc(-c2c3nc(c(-c4ccc(S(=O)(=O)[O-])cc4)c4ccc([nH]4)c(-c4ccc(S(=O)(=O)[O-])cc4)c4nc(c(-c5ccc(S(=O)(=O)[O-])cc5)c5ccc2[nH]5)C=C4)C=C3)cc1
REMARK SMILES IDX 12 1 11 2 9 3 10 4 8 6 7 7 6 8 5 9 2 10 1 11 3 12 4 13 13 17
REMARK SMILES IDX 14 18 15 19 16 20 17 21 18 23 19 24 20 25 78 26 21 27 77 28
REMARK SMILES IDX 22 29 23 30 24 31 71 32 25 33 76 34 70 35 72 36 26 37 75 38
REMARK SMILES IDX 69 39 68 40 27 42 57 43 38 44 56 45 39 46 42 47 55 48 73 49
REMARK SMILES IDX 40 50 41 51 54 53 74 54 43 55 28 56 29 57 37 58 30 59 36 60
REMARK SMILES IDX 31 61 32 62 33 63 34 64 35 65 58 66 59 67 67 68 60 69 66 70
REMARK SMILES IDX 61 71 62 72 63 73 64 74 65 75 44 76 45 77 53 78 46 79 52 80
REMARK SMILES IDX 47 81 48 82 49 83 50 84 51 85
REMARK H PARENT 11 5 4 14 4 15 4 16 16 22 72 41 42 52
REMARK Flexibility Score: inf
ROOT
ATOM      1  C   UNL A   1      32.214  29.240  24.253  1.00  0.00     0.116 C 
ENDROOT
BRANCH   1   2
ATOM      2  N   UNL A   1      31.263  29.621  23.228  1.00  0.00    -0.353 N 
ATOM      3  C   UNL A   1      30.308  28.865  22.628  1.00  0.00     0.244 C 
ATOM      4  O   UNL A   1      29.708  29.280  21.639  1.00  0.00    -0.270 OA
ATOM      5  H   UNL A   1      31.315  30.557  22.927  1.00  0.00     0.163 HD
BRANCH   3   6
ATOM      6  C   UNL A   1      29.979  27.522  23.150  1.00  0.00     0.078 C 
ATOM      7  C   UNL A   1      30.763  26.477  22.852  1.00  0.00     0.046 C 
BRANCH   7   8
ATOM      8  S   UNL A   1      30.681  24.971  23.682  1.00  0.00    -0.133 SA
BRANCH   8   9
ATOM      9  C   UNL A   1      30.530  25.519  25.425  1.00  0.00     0.083 C 
BRANCH   9  10
ATOM     10  C   UNL A   1      31.406  24.778  26.462  1.00  0.00     0.051 C 
ATOM     11  C   UNL A   1      32.870  24.815  25.999  1.00  0.00     0.014 C 
BRANCH  10  12
ATOM     12  C   UNL A   1      31.009  23.316  26.761  1.00  0.00     0.262 C 
BRANCH  12  13
ATOM     13  N   UNL A   1      29.572  23.094  26.897  1.00  0.00    -0.357 N 
ATOM     14  H   UNL A   1      29.408  22.301  27.519  1.00  0.00     0.344 HD
ATOM     15  H   UNL A   1      29.171  22.895  25.981  1.00  0.00     0.344 HD
ATOM     16  H   UNL A   1      29.134  23.927  27.287  1.00  0.00     0.344 HD
ENDBRANCH  12  13
ENDBRANCH  10  12
ENDBRANCH   9  10
ENDBRANCH   8   9
ENDBRANCH   7   8
ENDBRANCH   3   6
ENDBRANCH   1   2
BRANCH   1  17
ATOM     17  C   UNL A   1      31.594  29.313  25.644  1.00  0.00     0.023 C 
BRANCH  17  18
ATOM     18  C   UNL A   1      32.374  28.549  26.716  1.00  0.00     0.023 C 
BRANCH  18  19
ATOM     19  C   UNL A   1      33.650  29.232  27.198  1.00  0.00     0.116 C 
BRANCH  19  20
ATOM     20  N   UNL A   1      33.519  30.676  27.321  1.00  0.00    -0.352 N 
ATOM     21  C   UNL A   1      34.356  31.560  27.953  1.00  0.00     0.251 C 
ATOM     22  H   UNL A   1      32.725  31.071  26.895  1.00  0.00     0.163 HD
ATOM     23  O   UNL A   1      34.040  32.741  28.054  1.00  0.00    -0.269 OA
BRANCH  21  24
ATOM     24  C   UNL A   1      35.619  31.068  28.535  1.00  0.00     0.039 A 
ATOM     25  C   UNL A   1      36.804  31.738  28.229  1.00  0.00     0.014 A 
ATOM     26  C   UNL A   1      35.628  29.965  29.392  1.00  0.00     0.014 A 
ATOM     27  C   UNL A   1      37.999  31.322  28.817  1.00  0.00     0.010 A 
ATOM     28  C   UNL A   1      36.804  29.603  30.039  1.00  0.00     0.010 A 
ATOM     29  C   UNL A   1      38.004  30.265  29.743  1.00  0.00    -0.014 A 
BRANCH  29  30
ATOM     30  C   UNL A   1      39.269  29.819  30.376  1.00  0.00     0.031 A 
ATOM     31  C   UNL A   1      39.769  30.507  31.618  1.00  0.00     0.074 A 
ATOM     32  C   UNL A   1      39.979  28.819  29.817  1.00  0.00     0.049 A 
ATOM     33  N   UNL A   1      40.845  30.260  32.320  1.00  0.00    -0.248 NA
ATOM     34  C   UNL A   1      38.973  31.639  32.123  1.00  0.00     0.031 C 
ATOM     35  C   UNL A   1      39.624  28.114  28.582  1.00  0.00     0.029 A 
ATOM     36  N   UNL A   1      41.145  28.219  30.216  1.00  0.00    -0.354 N 
ATOM     37  C   UNL A   1      40.861  31.211  33.334  1.00  0.00     0.074 A 
ATOM     38  C   UNL A   1      39.723  32.076  33.123  1.00  0.00     0.031 C 
ATOM     39  C   UNL A   1      40.534  27.155  28.346  1.00  0.00     0.029 A 
ATOM     40  C   UNL A   1      41.552  27.196  29.392  1.00  0.00     0.049 A 
ATOM     41  H   UNL A   1      41.645  28.495  31.018  1.00  0.00     0.167 HD
ATOM     42  C   UNL A   1      41.731  31.338  34.364  1.00  0.00     0.031 A 
ATOM     43  C   UNL A   1      42.618  26.379  29.475  1.00  0.00     0.031 A 
ATOM     44  C   UNL A   1      42.850  30.459  34.581  1.00  0.00     0.049 A 
ATOM     45  C   UNL A   1      43.552  26.519  30.647  1.00  0.00     0.074 A 
ATOM     46  C   UNL A   1      43.757  30.463  35.625  1.00  0.00     0.029 A 
ATOM     47  N   UNL A   1      43.209  29.416  33.740  1.00  0.00    -0.354 N 
ATOM     48  N   UNL A   1      43.510  27.381  31.637  1.00  0.00    -0.248 NA
ATOM     49  C   UNL A   1      44.660  25.560  30.728  1.00  0.00     0.031 C 
ATOM     50  C   UNL A   1      44.694  29.451  35.391  1.00  0.00     0.029 A 
ATOM     51  C   UNL A   1      44.332  28.778  34.235  1.00  0.00     0.049 A 
ATOM     52  H   UNL A   1      42.735  29.167  32.914  1.00  0.00     0.167 HD
ATOM     53  C   UNL A   1      44.567  27.043  32.476  1.00  0.00     0.074 A 
ATOM     54  C   UNL A   1      45.214  25.889  31.886  1.00  0.00     0.031 C 
ATOM     55  C   UNL A   1      44.962  27.629  33.633  1.00  0.00     0.031 A 
BRANCH  42  56
ATOM     56  C   UNL A   1      41.504  32.466  35.336  1.00  0.00    -0.014 A 
ATOM     57  C   UNL A   1      42.095  33.727  35.138  1.00  0.00     0.010 A 
ATOM     58  C   UNL A   1      40.653  32.276  36.440  1.00  0.00     0.010 A 
ATOM     59  C   UNL A   1      41.869  34.766  36.045  1.00  0.00     0.020 A 
ATOM     60  C   UNL A   1      40.400  33.321  37.333  1.00  0.00     0.020 A 
ATOM     61  C   UNL A   1      41.021  34.556  37.137  1.00  0.00     0.054 A 
BRANCH  61  62
ATOM     62  S   UNL A   1      40.716  35.933  38.276  1.00  0.00     0.124 S 
ATOM     63  O   UNL A   1      39.777  36.753  37.514  1.00  0.00    -0.237 OA
ATOM     64  O   UNL A   1      40.157  35.262  39.447  1.00  0.00    -0.237 OA
ATOM     65  O   UNL A   1      42.039  36.522  38.472  1.00  0.00    -0.744 OA
ENDBRANCH  61  62
ENDBRANCH  42  56
BRANCH  43  66
ATOM     66  C   UNL A   1      42.844  25.334  28.438  1.00  0.00    -0.014 A 
ATOM     67  C   UNL A   1      42.306  24.043  28.589  1.00  0.00     0.010 A 
ATOM     68  C   UNL A   1      43.604  25.626  27.291  1.00  0.00     0.010 A 
ATOM     69  C   UNL A   1      42.552  23.056  27.631  1.00  0.00     0.020 A 
ATOM     70  C   UNL A   1      43.827  24.650  26.316  1.00  0.00     0.020 A 
ATOM     71  C   UNL A   1      43.313  23.365  26.500  1.00  0.00     0.054 A 
BRANCH  71  72
ATOM     72  S   UNL A   1      43.594  22.077  25.254  1.00  0.00     0.124 S 
ATOM     73  O   UNL A   1      43.394  22.812  24.008  1.00  0.00    -0.237 OA
ATOM     74  O   UNL A   1      44.966  21.662  25.532  1.00  0.00    -0.237 OA
ATOM     75  O   UNL A   1      42.574  21.076  25.562  1.00  0.00    -0.744 OA
ENDBRANCH  71  72
ENDBRANCH  43  66
BRANCH  55  76
ATOM     76  C   UNL A   1      46.119  26.998  34.364  1.00  0.00    -0.014 A 
ATOM     77  C   UNL A   1      45.923  25.987  35.320  1.00  0.00     0.010 A 
ATOM     78  C   UNL A   1      47.429  27.418  34.068  1.00  0.00     0.010 A 
ATOM     79  C   UNL A   1      47.011  25.448  36.010  1.00  0.00     0.020 A 
ATOM     80  C   UNL A   1      48.523  26.858  34.731  1.00  0.00     0.020 A 
ATOM     81  C   UNL A   1      48.305  25.893  35.715  1.00  0.00     0.054 A 
BRANCH  81  82
ATOM     82  S   UNL A   1      49.703  25.180  36.623  1.00  0.00     0.124 S 
ATOM     83  O   UNL A   1      50.458  24.533  35.553  1.00  0.00    -0.237 OA
ATOM     84  O   UNL A   1      50.334  26.356  37.216  1.00  0.00    -0.237 OA
ATOM     85  O   UNL A   1      49.070  24.272  37.576  1.00  0.00    -0.744 OA
ENDBRANCH  81  82
ENDBRANCH  55  76
ENDBRANCH  29  30
ENDBRANCH  21  24
ENDBRANCH  19  20
ENDBRANCH  18  19
ENDBRANCH  17  18
ENDBRANCH   1  17
TORSDOF 19
ENDMDL
MODEL 2
REMARK VINA RESULT:      -8.7      3.873      9.819
REMARK SMILES C[C@H](C[NH3+])CS/C=C/C(=O)NCCCCNC(=O)c1ccc(-c2c3nc(c(-c4ccc(S(=O)(=O)[O-])cc4)c4ccc([nH]4)c(-c4ccc(S(=O)(=O)[O-])cc4)c4nc(c(-c5ccc(S(=O)(=O)[O-])cc5)c5ccc2[nH]5)C=C4)C=C3)cc1
REMARK SMILES IDX 12 1 11 2 9 3 10 4 8 6 7 7 6 8 5 9 2 10 1 11 3 12 4 13 13 17
REMARK SMILES IDX 14 18 15 19 16 20 17 21 18 23 19 24 20 25 78 26 21 27 77 28
REMARK SMILES IDX 22 29 23 30 24 31 71 32 25 33 76 34 70 35 72 36 26 37 75 38
REMARK SMILES IDX 69 39 68 40 27 42 57 43 38 44 56 45 39 46 42 47 55 48 73 49
REMARK SMILES IDX 40 50 41 51 54 53 74 54 43 55 28 56 29 57 37 58 30 59 36 60
REMARK SMILES IDX 31 61 32 62 33 63 34 64 35 65 58 66 59 67 67 68 60 69 66 70
REMARK SMILES IDX 61 71 62 72 63 73 64 74 65 75 44 76 45 77 53 78 46 79 52 80
REMARK SMILES IDX 47 81 48 82 49 83 50 84 51 85
REMARK H PARENT 11 5 4 14 4 15 4 16 16 22 72 41 42 52
REMARK Flexibility Score: inf
ROOT
ATOM      1  C   UNL A   1      37.678  21.542  25.910  1.00  0.00     0.116 C 
ENDROOT
BRANCH   1   2
ATOM      2  N   UNL A   1      36.641  22.502  26.232  1.00  0.00    -0.353 N 
ATOM      3  C   UNL A   1      35.319  22.464  25.924  1.00  0.00     0.244 C 
ATOM      4  O   UNL A   1      34.605  23.448  26.101  1.00  0.00    -0.270 OA
ATOM      5  H   UNL A   1      36.935  23.288  26.746  1.00  0.00     0.163 HD
BRANCH   3   6
ATOM      6  C   UNL A   1      34.717  21.237  25.362  1.00  0.00     0.078 C 
ATOM      7  C   UNL A   1      33.395  21.039  25.450  1.00  0.00     0.046 C 
BRANCH   7   8
ATOM      8  S   UNL A   1      32.557  19.847  24.533  1.00  0.00    -0.133 SA
BRANCH   8   9
ATOM      9  C   UNL A   1      32.762  18.361  25.586  1.00  0.00     0.083 C 
BRANCH   9  10
ATOM     10  C   UNL A   1      32.562  16.990  24.896  1.00  0.00     0.051 C 
ATOM     11  C   UNL A   1      33.323  15.916  25.688  1.00  0.00     0.014 C 
BRANCH  10  12
ATOM     12  C   UNL A   1      32.982  16.913  23.412  1.00  0.00     0.262 C 
BRANCH  12  13
ATOM     13  N   UNL A   1      34.416  16.739  23.195  1.00  0.00    -0.357 N 
ATOM     14  H   UNL A   1      34.600  15.781  22.893  1.00  0.00     0.344 HD
ATOM     15  H   UNL A   1      34.915  16.921  24.066  1.00  0.00     0.344 HD
ATOM     16  H   UNL A   1      34.733  17.389  22.478  1.00  0.00     0.344 HD
ENDBRANCH  12  13
ENDBRANCH  10  12
ENDBRANCH   9  10
ENDBRANCH   8   9
ENDBRANCH   7   8
ENDBRANCH   3   6
ENDBRANCH   1   2
BRANCH   1  17
ATOM     17  C   UNL A   1      39.018  22.229  25.670  1.00  0.00     0.023 C 
BRANCH  17  18
ATOM     18  C   UNL A   1      40.061  21.962  26.757  1.00  0.00     0.023 C 
BRANCH  18  19
ATOM     19  C   UNL A   1      40.854  23.185  27.206  1.00  0.00     0.116 C 
BRANCH  19  20
ATOM     20  N   UNL A   1      41.411  23.948  26.100  1.00  0.00    -0.352 N 
ATOM     21  C   UNL A   1      41.671  25.293  26.034  1.00  0.00     0.251 C 
ATOM     22  H   UNL A   1      41.630  23.432  25.291  1.00  0.00     0.163 HD
ATOM     23  O   UNL A   1      42.047  25.797  24.980  1.00  0.00    -0.269 OA
BRANCH  21  24
ATOM     24  C   UNL A   1      41.465  26.128  27.233  1.00  0.00     0.039 A 
ATOM     25  C   UNL A   1      42.309  27.220  27.444  1.00  0.00     0.014 A 
ATOM     26  C   UNL A   1      40.432  25.844  28.131  1.00  0.00     0.014 A 
ATOM     27  C   UNL A   1      42.090  28.053  28.542  1.00  0.00     0.010 A 
ATOM     28  C   UNL A   1      40.167  26.721  29.176  1.00  0.00     0.010 A 
ATOM     29  C   UNL A   1      41.005  27.822  29.404  1.00  0.00    -0.014 A 
BRANCH  29  30
ATOM     30  C   UNL A   1      40.762  28.706  30.570  1.00  0.00     0.031 A 
ATOM     31  C   UNL A   1      41.586  28.541  31.819  1.00  0.00     0.074 A 
ATOM     32  C   UNL A   1      39.784  29.630  30.515  1.00  0.00     0.049 A 
ATOM     33  N   UNL A   1      41.530  29.217  32.938  1.00  0.00    -0.248 NA
ATOM     34  C   UNL A   1      42.585  27.458  31.825  1.00  0.00     0.031 C 
ATOM     35  C   UNL A   1      38.882  29.845  29.379  1.00  0.00     0.029 A 
ATOM     36  N   UNL A   1      39.385  30.566  31.434  1.00  0.00    -0.354 N 
ATOM     37  C   UNL A   1      42.469  28.633  33.780  1.00  0.00     0.074 A 
ATOM     38  C   UNL A   1      43.040  27.513  33.068  1.00  0.00     0.031 C 
ATOM     39  C   UNL A   1      38.061  30.871  29.657  1.00  0.00     0.029 A 
ATOM     40  C   UNL A   1      38.356  31.367  30.998  1.00  0.00     0.049 A 
ATOM     41  H   UNL A   1      39.797  30.656  32.324  1.00  0.00     0.167 HD
ATOM     42  C   UNL A   1      42.843  29.012  35.025  1.00  0.00     0.031 A 
ATOM     43  C   UNL A   1      37.727  32.390  31.607  1.00  0.00     0.031 A 
ATOM     44  C   UNL A   1      42.287  30.143  35.720  1.00  0.00     0.049 A 
ATOM     45  C   UNL A   1      38.183  32.811  32.978  1.00  0.00     0.074 A 
ATOM     46  C   UNL A   1      42.637  30.648  36.959  1.00  0.00     0.029 A 
ATOM     47  N   UNL A   1      41.269  30.947  35.231  1.00  0.00    -0.354 N 
ATOM     48  N   UNL A   1      39.124  32.291  33.730  1.00  0.00    -0.248 NA
ATOM     49  C   UNL A   1      37.511  33.976  33.569  1.00  0.00     0.031 C 
ATOM     50  C   UNL A   1      41.796  31.730  37.241  1.00  0.00     0.029 A 
ATOM     51  C   UNL A   1      40.967  31.937  36.150  1.00  0.00     0.049 A 
ATOM     52  H   UNL A   1      40.825  30.830  34.360  1.00  0.00     0.167 HD
ATOM     53  C   UNL A   1      39.180  33.087  34.869  1.00  0.00     0.074 A 
ATOM     54  C   UNL A   1      38.192  34.132  34.695  1.00  0.00     0.031 C 
ATOM     55  C   UNL A   1      39.980  32.969  35.958  1.00  0.00     0.031 A 
BRANCH  42  56
ATOM     56  C   UNL A   1      43.906  28.197  35.714  1.00  0.00    -0.014 A 
ATOM     57  C   UNL A   1      45.272  28.484  35.538  1.00  0.00     0.010 A 
ATOM     58  C   UNL A   1      43.534  27.155  36.584  1.00  0.00     0.010 A 
ATOM     59  C   UNL A   1      46.247  27.723  36.190  1.00  0.00     0.020 A 
ATOM     60  C   UNL A   1      44.504  26.411  37.261  1.00  0.00     0.020 A 
ATOM     61  C   UNL A   1      45.855  26.691  37.048  1.00  0.00     0.054 A 
BRANCH  61  62
ATOM     62  S   UNL A   1      47.140  25.745  37.910  1.00  0.00     0.124 S 
ATOM     63  O   UNL A   1      48.357  26.227  37.260  1.00  0.00    -0.237 OA
ATOM     64  O   UNL A   1      46.965  26.159  39.299  1.00  0.00    -0.237 OA
ATOM     65  O   UNL A   1      46.794  24.354  37.628  1.00  0.00    -0.744 OA
ENDBRANCH  61  62
ENDBRANCH  42  56
BRANCH  43  66
ATOM     66  C   UNL A   1      36.621  33.108  30.914  1.00  0.00    -0.014 A 
ATOM     67  C   UNL A   1      35.300  33.023  31.389  1.00  0.00     0.010 A 
ATOM     68  C   UNL A   1      36.885  33.879  29.767  1.00  0.00     0.010 A 
ATOM     69  C   UNL A   1      34.260  33.668  30.713  1.00  0.00     0.020 A 
ATOM     70  C   UNL A   1      35.853  34.551  29.107  1.00  0.00     0.020 A 
ATOM     71  C   UNL A   1      34.544  34.428  29.575  1.00  0.00     0.054 A 
BRANCH  71  72
ATOM     72  S   UNL A   1      33.184  35.283  28.731  1.00  0.00     0.124 S 
ATOM     73  O   UNL A   1      32.472  35.897  29.848  1.00  0.00    -0.237 OA
ATOM     74  O   UNL A   1      33.891  36.204  27.845  1.00  0.00    -0.237 OA
ATOM     75  O   UNL A   1      32.471  34.202  28.052  1.00  0.00    -0.744 OA
ENDBRANCH  71  72
ENDBRANCH  43  66
BRANCH  55  76
ATOM     76  C   UNL A   1      39.855  34.029  37.022  1.00  0.00    -0.014 A 
ATOM     77  C   UNL A   1      39.102  33.814  38.189  1.00  0.00     0.010 A 
ATOM     78  C   UNL A   1      40.523  35.255  36.852  1.00  0.00     0.010 A 
ATOM     79  C   UNL A   1      38.971  34.829  39.140  1.00  0.00     0.020 A 
ATOM     80  C   UNL A   1      40.423  36.260  37.816  1.00  0.00     0.020 A 
ATOM     81  C   UNL A   1      39.627  36.049  38.943  1.00  0.00     0.054 A 
BRANCH  81  82
ATOM     82  S   UNL A   1      39.444  37.352  40.190  1.00  0.00     0.124 S 
ATOM     83  O   UNL A   1      38.645  38.344  39.475  1.00  0.00    -0.237 OA
ATOM     84  O   UNL A   1      38.761  36.661  41.280  1.00  0.00    -0.237 OA
ATOM     85  O   UNL A   1      40.820  37.751  40.478  1.00  0.00    -0.744 OA
ENDBRANCH  81  82
ENDBRANCH  55  76
ENDBRANCH  29  30
ENDBRANCH  21  24
ENDBRANCH  19  20
ENDBRANCH  18  19
ENDBRANCH  17  18
ENDBRANCH   1  17
TORSDOF 19
ENDMDL
MODEL 3
REMARK VINA RESULT:      -8.4      3.154      9.752
REMARK SMILES C[C@H](C[NH3+])CS/C=C/C(=O)NCCCCNC(=O)c1ccc(-c2c3nc(c(-c4ccc(S(=O)(=O)[O-])cc4)c4ccc([nH]4)c(-c4ccc(S(=O)(=O)[O-])cc4)c4nc(c(-c5ccc(S(=O)(=O)[O-])cc5)c5ccc2[nH]5)C=C4)C=C3)cc1
REMARK SMILES IDX 12 1 11 2 9 3 10 4 8 6 7 7 6 8 5 9 2 10 1 11 3 12 4 13 13 17
REMARK SMILES IDX 14 18 15 19 16 20 17 21 18 23 19 24 20 25 78 26 21 27 77 28
REMARK SMILES IDX 22 29 23 30 24 31 71 32 25 33 76 34 70 35 72 36 26 37 75 38
REMARK SMILES IDX 69 39 68 40 27 42 57 43 38 44 56 45 39 46 42 47 55 48 73 49
REMARK SMILES IDX 40 50 41 51 54 53 74 54 43 55 28 56 29 57 37 58 30 59 36 60
REMARK SMILES IDX 31 61 32 62 33 63 34 64 35 65 58 66 59 67 67 68 60 69 66 70
REMARK SMILES IDX 61 71 62 72 63 73 64 74 65 75 44 76 45 77 53 78 46 79 52 80
REMARK SMILES IDX 47 81 48 82 49 83 50 84 51 85
REMARK H PARENT 11 5 4 14 4 15 4 16 16 22 72 41 42 52
REMARK Flexibility Score: inf
ROOT
ATOM      1  C   UNL A   1      39.581  21.205  26.130  1.00  0.00     0.116 C 
ENDROOT
BRANCH   1   2
ATOM      2  N   UNL A   1      39.087  22.561  26.002  1.00  0.00    -0.353 N 
ATOM      3  C   UNL A   1      37.825  22.987  25.739  1.00  0.00     0.244 C 
ATOM      4  O   UNL A   1      37.603  24.165  25.470  1.00  0.00    -0.270 OA
ATOM      5  H   UNL A   1      39.758  23.271  26.124  1.00  0.00     0.163 HD
BRANCH   3   6
ATOM      6  C   UNL A   1      36.694  22.036  25.765  1.00  0.00     0.078 C 
ATOM      7  C   UNL A   1      35.598  22.278  25.033  1.00  0.00     0.046 C 
BRANCH   7   8
ATOM      8  S   UNL A   1      34.396  21.087  24.712  1.00  0.00    -0.133 SA
BRANCH   8   9
ATOM      9  C   UNL A   1      33.047  21.614  25.834  1.00  0.00     0.083 C 
BRANCH   9  10
ATOM     10  C   UNL A   1      32.277  22.896  25.437  1.00  0.00     0.051 C 
ATOM     11  C   UNL A   1      30.782  22.690  25.721  1.00  0.00     0.014 C 
BRANCH  10  12
ATOM     12  C   UNL A   1      32.453  23.365  23.976  1.00  0.00     0.262 C 
BRANCH  12  13
ATOM     13  N   UNL A   1      31.389  22.939  23.071  1.00  0.00    -0.357 N 
ATOM     14  H   UNL A   1      31.794  22.420  22.291  1.00  0.00     0.344 HD
ATOM     15  H   UNL A   1      30.899  23.760  22.714  1.00  0.00     0.344 HD
ATOM     16  H   UNL A   1      30.733  22.343  23.573  1.00  0.00     0.344 HD
ENDBRANCH  12  13
ENDBRANCH  10  12
ENDBRANCH   9  10
ENDBRANCH   8   9
ENDBRANCH   7   8
ENDBRANCH   3   6
ENDBRANCH   1   2
BRANCH   1  17
ATOM     17  C   UNL A   1      41.094  21.178  26.324  1.00  0.00     0.023 C 
BRANCH  17  18
ATOM     18  C   UNL A   1      41.548  21.532  27.742  1.00  0.00     0.023 C 
BRANCH  18  19
ATOM     19  C   UNL A   1      42.202  22.902  27.889  1.00  0.00     0.116 C 
BRANCH  19  20
ATOM     20  N   UNL A   1      42.459  23.557  26.615  1.00  0.00    -0.352 N 
ATOM     21  C   UNL A   1      42.375  24.890  26.306  1.00  0.00     0.251 C 
ATOM     22  H   UNL A   1      42.729  22.964  25.877  1.00  0.00     0.163 HD
ATOM     23  O   UNL A   1      42.524  25.265  25.147  1.00  0.00    -0.269 OA
BRANCH  21  24
ATOM     24  C   UNL A   1      42.072  25.861  27.375  1.00  0.00     0.039 A 
ATOM     25  C   UNL A   1      40.943  25.654  28.170  1.00  0.00     0.014 A 
ATOM     26  C   UNL A   1      42.909  26.957  27.602  1.00  0.00     0.014 A 
ATOM     27  C   UNL A   1      40.676  26.530  29.223  1.00  0.00     0.010 A 
ATOM     28  C   UNL A   1      42.685  27.780  28.700  1.00  0.00     0.010 A 
ATOM     29  C   UNL A   1      41.556  27.586  29.508  1.00  0.00    -0.014 A 
BRANCH  29  30
ATOM     30  C   UNL A   1      41.281  28.520  30.628  1.00  0.00     0.031 A 
ATOM     31  C   UNL A   1      42.123  28.463  31.875  1.00  0.00     0.074 A 
ATOM     32  C   UNL A   1      40.259  29.392  30.534  1.00  0.00     0.049 A 
ATOM     33  N   UNL A   1      42.044  29.195  32.956  1.00  0.00    -0.248 NA
ATOM     34  C   UNL A   1      43.172  27.430  31.928  1.00  0.00     0.031 C 
ATOM     35  C   UNL A   1      39.338  29.502  29.398  1.00  0.00     0.029 A 
ATOM     36  N   UNL A   1      39.824  30.356  31.406  1.00  0.00    -0.354 N 
ATOM     37  C   UNL A   1      43.018  28.703  33.817  1.00  0.00     0.074 A 
ATOM     38  C   UNL A   1      43.635  27.574  33.161  1.00  0.00     0.031 C 
ATOM     39  C   UNL A   1      38.471  30.501  29.630  1.00  0.00     0.029 A 
ATOM     40  C   UNL A   1      38.753  31.083  30.939  1.00  0.00     0.049 A 
ATOM     41  H   UNL A   1      40.239  30.514  32.285  1.00  0.00     0.167 HD
ATOM     42  C   UNL A   1      43.384  29.167  35.036  1.00  0.00     0.031 A 
ATOM     43  C   UNL A   1      38.082  32.106  31.498  1.00  0.00     0.031 A 
ATOM     44  C   UNL A   1      42.780  30.306  35.675  1.00  0.00     0.049 A 
ATOM     45  C   UNL A   1      38.529  32.623  32.839  1.00  0.00     0.074 A 
ATOM     46  C   UNL A   1      43.116  30.894  36.882  1.00  0.00     0.029 A 
ATOM     47  N   UNL A   1      41.720  31.033  35.156  1.00  0.00    -0.354 N 
ATOM     48  N   UNL A   1      39.500  32.189  33.608  1.00  0.00    -0.248 NA
ATOM     49  C   UNL A   1      37.807  33.785  33.374  1.00  0.00     0.031 C 
ATOM     50  C   UNL A   1      42.227  31.949  37.114  1.00  0.00     0.029 A 
ATOM     51  C   UNL A   1      41.379  32.056  36.022  1.00  0.00     0.049 A 
ATOM     52  H   UNL A   1      41.275  30.848  34.297  1.00  0.00     0.167 HD
ATOM     53  C   UNL A   1      39.528  33.049  34.702  1.00  0.00     0.074 A 
ATOM     54  C   UNL A   1      38.489  34.034  34.483  1.00  0.00     0.031 C 
ATOM     55  C   UNL A   1      40.342  33.029  35.787  1.00  0.00     0.031 A 
BRANCH  42  56
ATOM     56  C   UNL A   1      44.491  28.442  35.756  1.00  0.00    -0.014 A 
ATOM     57  C   UNL A   1      45.836  28.818  35.590  1.00  0.00     0.010 A 
ATOM     58  C   UNL A   1      44.178  27.396  36.645  1.00  0.00     0.010 A 
ATOM     59  C   UNL A   1      46.851  28.140  36.270  1.00  0.00     0.020 A 
ATOM     60  C   UNL A   1      45.188  26.735  37.350  1.00  0.00     0.020 A 
ATOM     61  C   UNL A   1      46.520  27.103  37.147  1.00  0.00     0.054 A 
BRANCH  61  62
ATOM     62  S   UNL A   1      47.855  26.266  38.045  1.00  0.00     0.124 S 
ATOM     63  O   UNL A   1      47.510  24.859  37.856  1.00  0.00    -0.237 OA
ATOM     64  O   UNL A   1      49.049  26.720  37.338  1.00  0.00    -0.237 OA
ATOM     65  O   UNL A   1      47.717  26.761  39.413  1.00  0.00    -0.744 OA
ENDBRANCH  61  62
ENDBRANCH  42  56
BRANCH  43  66
ATOM     66  C   UNL A   1      36.937  32.732  30.780  1.00  0.00    -0.014 A 
ATOM     67  C   UNL A   1      37.145  33.798  29.886  1.00  0.00     0.010 A 
ATOM     68  C   UNL A   1      35.627  32.266  30.992  1.00  0.00     0.010 A 
ATOM     69  C   UNL A   1      36.063  34.407  29.243  1.00  0.00     0.020 A 
ATOM     70  C   UNL A   1      34.546  32.852  30.327  1.00  0.00     0.020 A 
ATOM     71  C   UNL A   1      34.769  33.930  29.469  1.00  0.00     0.054 A 
BRANCH  71  72
ATOM     72  S   UNL A   1      33.382  34.714  28.600  1.00  0.00     0.124 S 
ATOM     73  O   UNL A   1      32.929  33.640  27.721  1.00  0.00    -0.237 OA
ATOM     74  O   UNL A   1      32.480  35.062  29.695  1.00  0.00    -0.237 OA
ATOM     75  O   UNL A   1      34.003  35.855  27.929  1.00  0.00    -0.744 OA
ENDBRANCH  71  72
ENDBRANCH  43  66
BRANCH  55  76
ATOM     76  C   UNL A   1      40.175  34.137  36.793  1.00  0.00    -0.014 A 
ATOM     77  C   UNL A   1      40.948  35.310  36.732  1.00  0.00     0.010 A 
ATOM     78  C   UNL A   1      39.209  34.004  37.807  1.00  0.00     0.010 A 
ATOM     79  C   UNL A   1      40.799  36.304  37.702  1.00  0.00     0.020 A 
ATOM     80  C   UNL A   1      39.033  35.010  38.759  1.00  0.00     0.020 A 
ATOM     81  C   UNL A   1      39.846  36.143  38.714  1.00  0.00     0.054 A 
BRANCH  81  82
ATOM     82  S   UNL A   1      39.669  37.446  39.962  1.00  0.00     0.124 S 
ATOM     83  O   UNL A   1      39.505  36.669  41.189  1.00  0.00    -0.237 OA
ATOM     84  O   UNL A   1      40.928  38.177  39.845  1.00  0.00    -0.237 OA
ATOM     85  O   UNL A   1      38.484  38.182  39.528  1.00  0.00    -0.744 OA
ENDBRANCH  81  82
ENDBRANCH  55  76
ENDBRANCH  29  30
ENDBRANCH  21  24
ENDBRANCH  19  20
ENDBRANCH  18  19
ENDBRANCH  17  18
ENDBRANCH   1  17
TORSDOF 19
ENDMDL
