MODEL 1
REMARK VINA RESULT:     -11.3      0.000      0.000
REMARK SMILES CC(C)CN(C)c1cc2c(cc1Cl)C=C(C(=O)NCCCCNC(=O)c1ccc(-c3c4nc(c(-c5ccc(S(=O)(=O)[O-])cc5)c5ccc([nH]5)c(-c5ccc(S(=O)(=O)[O-])cc5)c5nc(c(-c6ccc(S(=O)(=O)[O-])cc6)c6ccc3[nH]6)C=C5)C=C4)cc1)[C@@H](C(F)(F)F)O2
REMARK SMILES IDX 20 1 19 2 18 3 16 4 17 5 15 7 7 8 8 9 12 10 9 11 11 12 13 13
REMARK SMILES IDX 10 14 91 15 14 16 86 17 5 18 6 19 4 20 2 21 1 22 3 23 87 24
REMARK SMILES IDX 88 25 89 26 90 27 21 28 22 29 23 30 24 31 25 33 26 34 27 35
REMARK SMILES IDX 85 36 28 37 84 38 29 39 30 40 31 41 78 42 32 43 83 44 77 45
REMARK SMILES IDX 79 46 33 47 82 48 76 49 75 50 34 52 64 53 45 54 63 55 46 56
REMARK SMILES IDX 49 57 62 58 80 59 47 60 48 61 61 63 81 64 50 65 35 66 36 67
REMARK SMILES IDX 44 68 37 69 43 70 38 71 39 72 40 73 41 74 42 75 65 76 66 77
REMARK SMILES IDX 74 78 67 79 73 80 68 81 69 82 70 83 71 84 72 85 51 86 52 87
REMARK SMILES IDX 60 88 53 89 59 90 54 91 55 92 56 93 57 94 58 95
REMARK H PARENT 18 6 23 32 79 51 49 62
REMARK Flexibility Score: inf
ROOT
ATOM      1  C   UNL A   1      32.969  29.010  24.781  1.00  0.00     0.023 C 
ENDROOT
BRANCH   1   2
ATOM      2  C   UNL A   1      31.543  29.019  25.326  1.00  0.00     0.116 C 
BRANCH   2   3
ATOM      3  N   UNL A   1      30.574  28.628  24.318  1.00  0.00    -0.352 N 
ATOM      4  C   UNL A   1      30.300  27.514  23.600  1.00  0.00     0.251 C 
ATOM      5  O   UNL A   1      29.319  27.592  22.853  1.00  0.00    -0.270 OA
ATOM      6  H   UNL A   1      29.957  29.364  24.101  1.00  0.00     0.163 HD
BRANCH   4   7
ATOM      7  C   UNL A   1      31.091  26.254  23.638  1.00  0.00     0.067 C 
ATOM      8  C   UNL A   1      33.176  21.892  25.102  1.00  0.00     0.059 A 
ATOM      9  C   UNL A   1      32.566  22.350  23.924  1.00  0.00     0.074 A 
ATOM     10  C   UNL A   1      33.309  22.808  26.171  1.00  0.00     0.065 A 
ATOM     11  C   UNL A   1      32.066  23.646  23.842  1.00  0.00     0.130 A 
ATOM     12  C   UNL A   1      32.733  24.083  26.111  1.00  0.00     0.034 A 
ATOM     13  Cl  UNL A   1      34.180  22.403  27.612  1.00  0.00    -0.082 Cl
ATOM     14  C   UNL A   1      32.089  24.497  24.949  1.00  0.00     0.019 A 
ATOM     15  O   UNL A   1      31.532  24.037  22.642  1.00  0.00    -0.475 OA
ATOM     16  C   UNL A   1      31.389  25.774  24.862  1.00  0.00     0.025 C 
ATOM     17  C   UNL A   1      31.545  25.481  22.432  1.00  0.00     0.314 C 
BRANCH   8  18
ATOM     18  N   UNL A   1      33.594  20.555  25.205  1.00  0.00    -0.373 N 
ATOM     19  C   UNL A   1      35.028  20.342  25.026  1.00  0.00     0.143 C 
BRANCH  18  20
ATOM     20  C   UNL A   1      32.696  19.555  24.591  1.00  0.00     0.119 C 
BRANCH  20  21
ATOM     21  C   UNL A   1      33.324  18.146  24.548  1.00  0.00     0.002 C 
ATOM     22  C   UNL A   1      32.731  17.212  25.608  1.00  0.00     0.009 C 
ATOM     23  C   UNL A   1      33.127  17.508  23.170  1.00  0.00     0.009 C 
ENDBRANCH  20  21
ENDBRANCH  18  20
ENDBRANCH   8  18
BRANCH  17  24
ATOM     24  C   UNL A   1      32.935  25.949  21.936  1.00  0.00     0.429 C 
ATOM     25  F   UNL A   1      32.970  25.976  20.582  1.00  0.00    -0.167 F 
ATOM     26  F   UNL A   1      33.236  27.201  22.357  1.00  0.00    -0.167 F 
ATOM     27  F   UNL A   1      33.945  25.149  22.348  1.00  0.00    -0.167 F 
ENDBRANCH  17  24
ENDBRANCH   4   7
ENDBRANCH   2   3
ENDBRANCH   1   2
BRANCH   1  28
ATOM     28  C   UNL A   1      34.037  29.413  25.798  1.00  0.00     0.023 C 
BRANCH  28  29
ATOM     29  C   UNL A   1      33.593  29.377  27.259  1.00  0.00     0.116 C 
BRANCH  29  30
ATOM     30  N   UNL A   1      33.639  30.668  27.936  1.00  0.00    -0.352 N 
ATOM     31  C   UNL A   1      34.699  31.214  28.627  1.00  0.00     0.251 C 
ATOM     32  H   UNL A   1      32.819  31.212  27.893  1.00  0.00     0.163 HD
ATOM     33  O   UNL A   1      34.581  32.283  29.217  1.00  0.00    -0.269 OA
BRANCH  31  34
ATOM     34  C   UNL A   1      35.961  30.449  28.693  1.00  0.00     0.039 A 
ATOM     35  C   UNL A   1      36.213  29.620  29.786  1.00  0.00     0.014 A 
ATOM     36  C   UNL A   1      36.944  30.667  27.725  1.00  0.00     0.014 A 
ATOM     37  C   UNL A   1      37.508  29.176  30.016  1.00  0.00     0.010 A 
ATOM     38  C   UNL A   1      38.224  30.139  27.914  1.00  0.00     0.010 A 
ATOM     39  C   UNL A   1      38.535  29.449  29.094  1.00  0.00    -0.014 A 
BRANCH  39  40
ATOM     40  C   UNL A   1      39.922  29.019  29.418  1.00  0.00     0.031 A 
ATOM     41  C   UNL A   1      40.773  29.806  30.379  1.00  0.00     0.074 A 
ATOM     42  C   UNL A   1      40.374  27.851  28.921  1.00  0.00     0.049 A 
ATOM     43  N   UNL A   1      41.950  29.505  30.867  1.00  0.00    -0.248 NA
ATOM     44  C   UNL A   1      40.247  31.097  30.854  1.00  0.00     0.031 C 
ATOM     45  C   UNL A   1      39.631  26.993  27.994  1.00  0.00     0.029 A 
ATOM     46  N   UNL A   1      41.532  27.156  29.165  1.00  0.00    -0.354 N 
ATOM     47  C   UNL A   1      42.314  30.571  31.681  1.00  0.00     0.074 A 
ATOM     48  C   UNL A   1      41.246  31.542  31.606  1.00  0.00     0.031 C 
ATOM     49  C   UNL A   1      40.304  25.847  27.826  1.00  0.00     0.029 A 
ATOM     50  C   UNL A   1      41.555  25.912  28.576  1.00  0.00     0.049 A 
ATOM     51  H   UNL A   1      42.272  27.511  29.708  1.00  0.00     0.167 HD
ATOM     52  C   UNL A   1      43.434  30.723  32.428  1.00  0.00     0.031 A 
ATOM     53  C   UNL A   1      42.469  24.924  28.638  1.00  0.00     0.031 A 
ATOM     54  C   UNL A   1      44.484  29.741  32.521  1.00  0.00     0.049 A 
ATOM     55  C   UNL A   1      43.701  25.114  29.472  1.00  0.00     0.074 A 
ATOM     56  C   UNL A   1      45.642  29.798  33.276  1.00  0.00     0.029 A 
ATOM     57  N   UNL A   1      44.503  28.529  31.848  1.00  0.00    -0.354 N 
ATOM     58  N   UNL A   1      44.024  26.130  30.235  1.00  0.00    -0.248 NA
ATOM     59  C   UNL A   1      44.692  24.030  29.454  1.00  0.00     0.031 C 
ATOM     60  C   UNL A   1      46.388  28.646  33.016  1.00  0.00     0.029 A 
ATOM     61  C   UNL A   1      45.665  27.840  32.152  1.00  0.00     0.049 A 
ATOM     62  H   UNL A   1      43.796  28.207  31.243  1.00  0.00     0.167 HD
ATOM     63  C   UNL A   1      45.253  25.805  30.796  1.00  0.00     0.074 A 
ATOM     64  C   UNL A   1      45.607  24.491  30.298  1.00  0.00     0.031 C 
ATOM     65  C   UNL A   1      46.016  26.536  31.644  1.00  0.00     0.031 A 
BRANCH  52  66
ATOM     66  C   UNL A   1      43.606  32.003  33.206  1.00  0.00    -0.014 A 
ATOM     67  C   UNL A   1      44.302  33.079  32.624  1.00  0.00     0.010 A 
ATOM     68  C   UNL A   1      43.174  32.111  34.540  1.00  0.00     0.010 A 
ATOM     69  C   UNL A   1      44.582  34.231  33.365  1.00  0.00     0.020 A 
ATOM     70  C   UNL A   1      43.430  33.272  35.277  1.00  0.00     0.020 A 
ATOM     71  C   UNL A   1      44.150  34.317  34.691  1.00  0.00     0.054 A 
BRANCH  71  72
ATOM     72  S   UNL A   1      44.520  35.818  35.640  1.00  0.00     0.124 S 
ATOM     73  O   UNL A   1      44.696  35.294  36.989  1.00  0.00    -0.237 OA
ATOM     74  O   UNL A   1      45.731  36.319  34.992  1.00  0.00    -0.237 OA
ATOM     75  O   UNL A   1      43.332  36.647  35.438  1.00  0.00    -0.744 OA
ENDBRANCH  71  72
ENDBRANCH  52  66
BRANCH  53  76
ATOM     76  C   UNL A   1      42.192  23.650  27.920  1.00  0.00    -0.014 A 
ATOM     77  C   UNL A   1      41.520  22.599  28.571  1.00  0.00     0.010 A 
ATOM     78  C   UNL A   1      42.716  23.438  26.634  1.00  0.00     0.010 A 
ATOM     79  C   UNL A   1      41.445  21.335  27.981  1.00  0.00     0.020 A 
ATOM     80  C   UNL A   1      42.616  22.182  26.027  1.00  0.00     0.020 A 
ATOM     81  C   UNL A   1      42.013  21.130  26.722  1.00  0.00     0.054 A 
BRANCH  81  82
ATOM     82  S   UNL A   1      41.988  19.459  26.015  1.00  0.00     0.124 S 
ATOM     83  O   UNL A   1      42.858  19.615  24.852  1.00  0.00    -0.237 OA
ATOM     84  O   UNL A   1      42.528  18.644  27.101  1.00  0.00    -0.237 OA
ATOM     85  O   UNL A   1      40.576  19.237  25.716  1.00  0.00    -0.744 OA
ENDBRANCH  81  82
ENDBRANCH  53  76
BRANCH  65  86
ATOM     86  C   UNL A   1      47.324  25.949  32.104  1.00  0.00    -0.014 A 
ATOM     87  C   UNL A   1      48.430  25.946  31.233  1.00  0.00     0.010 A 
ATOM     88  C   UNL A   1      47.426  25.298  33.346  1.00  0.00     0.010 A 
ATOM     89  C   UNL A   1      49.605  25.277  31.582  1.00  0.00     0.020 A 
ATOM     90  C   UNL A   1      48.610  24.650  33.710  1.00  0.00     0.020 A 
ATOM     91  C   UNL A   1      49.684  24.624  32.815  1.00  0.00     0.054 A 
BRANCH  91  92
ATOM     92  S   UNL A   1      51.210  23.745  33.248  1.00  0.00     0.124 S 
ATOM     93  O   UNL A   1      52.136  24.845  33.502  1.00  0.00    -0.237 OA
ATOM     94  O   UNL A   1      50.816  22.970  34.423  1.00  0.00    -0.237 OA
ATOM     95  O   UNL A   1      51.496  22.950  32.056  1.00  0.00    -0.744 OA
ENDBRANCH  91  92
ENDBRANCH  65  86
ENDBRANCH  39  40
ENDBRANCH  31  34
ENDBRANCH  29  30
ENDBRANCH  28  29
ENDBRANCH   1  28
TORSDOF 18
ENDMDL
MODEL 2
REMARK VINA RESULT:     -11.0      2.912      8.461
REMARK SMILES CC(C)CN(C)c1cc2c(cc1Cl)C=C(C(=O)NCCCCNC(=O)c1ccc(-c3c4nc(c(-c5ccc(S(=O)(=O)[O-])cc5)c5ccc([nH]5)c(-c5ccc(S(=O)(=O)[O-])cc5)c5nc(c(-c6ccc(S(=O)(=O)[O-])cc6)c6ccc3[nH]6)C=C5)C=C4)cc1)[C@@H](C(F)(F)F)O2
REMARK SMILES IDX 20 1 19 2 18 3 16 4 17 5 15 7 7 8 8 9 12 10 9 11 11 12 13 13
REMARK SMILES IDX 10 14 91 15 14 16 86 17 5 18 6 19 4 20 2 21 1 22 3 23 87 24
REMARK SMILES IDX 88 25 89 26 90 27 21 28 22 29 23 30 24 31 25 33 26 34 27 35
REMARK SMILES IDX 85 36 28 37 84 38 29 39 30 40 31 41 78 42 32 43 83 44 77 45
REMARK SMILES IDX 79 46 33 47 82 48 76 49 75 50 34 52 64 53 45 54 63 55 46 56
REMARK SMILES IDX 49 57 62 58 80 59 47 60 48 61 61 63 81 64 50 65 35 66 36 67
REMARK SMILES IDX 44 68 37 69 43 70 38 71 39 72 40 73 41 74 42 75 65 76 66 77
REMARK SMILES IDX 74 78 67 79 73 80 68 81 69 82 70 83 71 84 72 85 51 86 52 87
REMARK SMILES IDX 60 88 53 89 59 90 54 91 55 92 56 93 57 94 58 95
REMARK H PARENT 18 6 23 32 79 51 49 62
REMARK Flexibility Score: inf
ROOT
ATOM      1  C   UNL A   1      32.113  29.553  26.807  1.00  0.00     0.023 C 
ENDROOT
BRANCH   1   2
ATOM      2  C   UNL A   1      32.132  30.092  25.379  1.00  0.00     0.116 C 
BRANCH   2   3
ATOM      3  N   UNL A   1      30.979  29.647  24.616  1.00  0.00    -0.352 N 
ATOM      4  C   UNL A   1      30.581  28.499  24.019  1.00  0.00     0.251 C 
ATOM      5  O   UNL A   1      29.463  28.534  23.493  1.00  0.00    -0.270 OA
ATOM      6  H   UNL A   1      30.317  30.366  24.503  1.00  0.00     0.163 HD
BRANCH   4   7
ATOM      7  C   UNL A   1      31.386  27.249  23.942  1.00  0.00     0.067 C 
ATOM      8  C   UNL A   1      33.257  22.638  24.808  1.00  0.00     0.059 A 
ATOM      9  C   UNL A   1      32.889  23.356  23.660  1.00  0.00     0.074 A 
ATOM     10  C   UNL A   1      33.137  23.291  26.057  1.00  0.00     0.065 A 
ATOM     11  C   UNL A   1      32.377  24.646  23.764  1.00  0.00     0.130 A 
ATOM     12  C   UNL A   1      32.547  24.556  26.161  1.00  0.00     0.034 A 
ATOM     13  Cl  UNL A   1      33.704  22.562  27.522  1.00  0.00    -0.082 Cl
ATOM     14  C   UNL A   1      32.145  25.229  25.011  1.00  0.00     0.019 A 
ATOM     15  O   UNL A   1      32.091  25.302  22.595  1.00  0.00    -0.475 OA
ATOM     16  C   UNL A   1      31.439  26.505  25.064  1.00  0.00     0.025 C 
ATOM     17  C   UNL A   1      32.103  26.757  22.717  1.00  0.00     0.314 C 
BRANCH   8  18
ATOM     18  N   UNL A   1      33.686  21.305  24.698  1.00  0.00    -0.373 N 
ATOM     19  C   UNL A   1      32.884  20.336  25.441  1.00  0.00     0.143 C 
BRANCH  18  20
ATOM     20  C   UNL A   1      35.149  21.100  24.709  1.00  0.00     0.119 C 
BRANCH  20  21
ATOM     21  C   UNL A   1      35.930  22.431  24.661  1.00  0.00     0.002 C 
ATOM     22  C   UNL A   1      36.976  22.533  25.776  1.00  0.00     0.009 C 
ATOM     23  C   UNL A   1      36.638  22.593  23.313  1.00  0.00     0.009 C 
ENDBRANCH  20  21
ENDBRANCH  18  20
ENDBRANCH   8  18
BRANCH  17  24
ATOM     24  C   UNL A   1      33.549  27.301  22.637  1.00  0.00     0.429 C 
ATOM     25  F   UNL A   1      34.024  27.567  23.879  1.00  0.00    -0.167 F 
ATOM     26  F   UNL A   1      34.404  26.410  22.079  1.00  0.00    -0.167 F 
ATOM     27  F   UNL A   1      33.652  28.439  21.915  1.00  0.00    -0.167 F 
ENDBRANCH  17  24
ENDBRANCH   4   7
ENDBRANCH   2   3
ENDBRANCH   1   2
BRANCH   1  28
ATOM     28  C   UNL A   1      33.364  28.768  27.203  1.00  0.00     0.023 C 
BRANCH  28  29
ATOM     29  C   UNL A   1      34.630  29.605  27.377  1.00  0.00     0.116 C 
BRANCH  29  30
ATOM     30  N   UNL A   1      34.580  30.554  28.483  1.00  0.00    -0.352 N 
ATOM     31  C   UNL A   1      35.581  30.840  29.387  1.00  0.00     0.251 C 
ATOM     32  H   UNL A   1      33.735  31.047  28.597  1.00  0.00     0.163 HD
ATOM     33  O   UNL A   1      35.382  31.610  30.321  1.00  0.00    -0.269 OA
BRANCH  31  34
ATOM     34  C   UNL A   1      36.877  30.149  29.239  1.00  0.00     0.039 A 
ATOM     35  C   UNL A   1      37.497  29.591  30.358  1.00  0.00     0.014 A 
ATOM     36  C   UNL A   1      37.530  30.176  28.004  1.00  0.00     0.014 A 
ATOM     37  C   UNL A   1      38.841  29.249  30.288  1.00  0.00     0.010 A 
ATOM     38  C   UNL A   1      38.856  29.743  27.918  1.00  0.00     0.010 A 
ATOM     39  C   UNL A   1      39.544  29.342  29.073  1.00  0.00    -0.014 A 
BRANCH  39  40
ATOM     40  C   UNL A   1      41.000  29.038  29.063  1.00  0.00     0.031 A 
ATOM     41  C   UNL A   1      41.508  27.692  28.619  1.00  0.00     0.074 A 
ATOM     42  C   UNL A   1      41.872  30.022  29.357  1.00  0.00     0.049 A 
ATOM     43  N   UNL A   1      42.745  27.305  28.430  1.00  0.00    -0.248 NA
ATOM     44  C   UNL A   1      40.511  26.641  28.355  1.00  0.00     0.031 C 
ATOM     45  C   UNL A   1      41.496  31.373  29.783  1.00  0.00     0.029 A 
ATOM     46  N   UNL A   1      43.242  30.063  29.288  1.00  0.00    -0.354 N 
ATOM     47  C   UNL A   1      42.676  25.969  28.052  1.00  0.00     0.074 A 
ATOM     48  C   UNL A   1      41.279  25.600  28.059  1.00  0.00     0.031 C 
ATOM     49  C   UNL A   1      42.597  32.134  29.842  1.00  0.00     0.029 A 
ATOM     50  C   UNL A   1      43.763  31.314  29.525  1.00  0.00     0.049 A 
ATOM     51  H   UNL A   1      43.797  29.275  29.089  1.00  0.00     0.167 HD
ATOM     52  C   UNL A   1      43.687  25.129  27.722  1.00  0.00     0.031 A 
ATOM     53  C   UNL A   1      45.032  31.764  29.480  1.00  0.00     0.031 A 
ATOM     54  C   UNL A   1      45.076  25.508  27.689  1.00  0.00     0.049 A 
ATOM     55  C   UNL A   1      46.135  30.816  29.112  1.00  0.00     0.074 A 
ATOM     56  C   UNL A   1      46.166  24.731  27.339  1.00  0.00     0.029 A 
ATOM     57  N   UNL A   1      45.566  26.765  28.010  1.00  0.00    -0.354 N 
ATOM     58  N   UNL A   1      46.047  29.557  28.756  1.00  0.00    -0.248 NA
ATOM     59  C   UNL A   1      47.505  31.345  29.139  1.00  0.00     0.031 C 
ATOM     60  C   UNL A   1      47.320  25.501  27.502  1.00  0.00     0.029 A 
ATOM     61  C   UNL A   1      46.946  26.777  27.889  1.00  0.00     0.049 A 
ATOM     62  H   UNL A   1      45.016  27.533  28.284  1.00  0.00     0.167 HD
ATOM     63  C   UNL A   1      47.350  29.143  28.510  1.00  0.00     0.074 A 
ATOM     64  C   UNL A   1      48.205  30.290  28.738  1.00  0.00     0.031 C 
ATOM     65  C   UNL A   1      47.792  27.920  28.129  1.00  0.00     0.031 A 
BRANCH  52  66
ATOM     66  C   UNL A   1      43.345  23.702  27.376  1.00  0.00    -0.014 A 
ATOM     67  C   UNL A   1      43.336  23.300  26.027  1.00  0.00     0.010 A 
ATOM     68  C   UNL A   1      42.935  22.789  28.364  1.00  0.00     0.010 A 
ATOM     69  C   UNL A   1      42.905  22.019  25.668  1.00  0.00     0.020 A 
ATOM     70  C   UNL A   1      42.528  21.497  28.011  1.00  0.00     0.020 A 
ATOM     71  C   UNL A   1      42.497  21.128  26.663  1.00  0.00     0.054 A 
BRANCH  71  72
ATOM     72  S   UNL A   1      41.941  19.469  26.183  1.00  0.00     0.124 S 
ATOM     73  O   UNL A   1      40.510  19.668  25.985  1.00  0.00    -0.237 OA
ATOM     74  O   UNL A   1      42.717  19.207  24.972  1.00  0.00    -0.237 OA
ATOM     75  O   UNL A   1      42.307  18.643  27.333  1.00  0.00    -0.744 OA
ENDBRANCH  71  72
ENDBRANCH  52  66
BRANCH  53  76
ATOM     76  C   UNL A   1      45.287  33.207  29.742  1.00  0.00    -0.014 A 
ATOM     77  C   UNL A   1      45.303  34.130  28.680  1.00  0.00     0.010 A 
ATOM     78  C   UNL A   1      45.647  33.636  31.031  1.00  0.00     0.010 A 
ATOM     79  C   UNL A   1      45.748  35.438  28.887  1.00  0.00     0.020 A 
ATOM     80  C   UNL A   1      46.064  34.953  31.247  1.00  0.00     0.020 A 
ATOM     81  C   UNL A   1      46.146  35.834  30.166  1.00  0.00     0.054 A 
BRANCH  81  82
ATOM     82  S   UNL A   1      46.810  37.507  30.394  1.00  0.00     0.124 S 
ATOM     83  O   UNL A   1      45.938  38.293  29.525  1.00  0.00    -0.237 OA
ATOM     84  O   UNL A   1      46.635  37.728  31.827  1.00  0.00    -0.237 OA
ATOM     85  O   UNL A   1      48.195  37.388  29.949  1.00  0.00    -0.744 OA
ENDBRANCH  81  82
ENDBRANCH  53  76
BRANCH  65  86
ATOM     86  C   UNL A   1      49.273  27.732  27.932  1.00  0.00    -0.014 A 
ATOM     87  C   UNL A   1      49.835  27.924  26.656  1.00  0.00     0.010 A 
ATOM     88  C   UNL A   1      50.085  27.253  28.975  1.00  0.00     0.010 A 
ATOM     89  C   UNL A   1      51.175  27.612  26.418  1.00  0.00     0.020 A 
ATOM     90  C   UNL A   1      51.434  26.965  28.746  1.00  0.00     0.020 A 
ATOM     91  C   UNL A   1      51.964  27.124  27.463  1.00  0.00     0.054 A 
BRANCH  91  92
ATOM     92  S   UNL A   1      53.698  26.708  27.135  1.00  0.00     0.124 S 
ATOM     93  O   UNL A   1      54.344  27.071  28.393  1.00  0.00    -0.237 OA
ATOM     94  O   UNL A   1      53.639  25.276  26.849  1.00  0.00    -0.237 OA
ATOM     95  O   UNL A   1      54.041  27.548  25.990  1.00  0.00    -0.744 OA
ENDBRANCH  91  92
ENDBRANCH  65  86
ENDBRANCH  39  40
ENDBRANCH  31  34
ENDBRANCH  29  30
ENDBRANCH  28  29
ENDBRANCH   1  28
TORSDOF 18
ENDMDL
MODEL 3
REMARK VINA RESULT:     -10.9      5.046      9.342
REMARK SMILES CC(C)CN(C)c1cc2c(cc1Cl)C=C(C(=O)NCCCCNC(=O)c1ccc(-c3c4nc(c(-c5ccc(S(=O)(=O)[O-])cc5)c5ccc([nH]5)c(-c5ccc(S(=O)(=O)[O-])cc5)c5nc(c(-c6ccc(S(=O)(=O)[O-])cc6)c6ccc3[nH]6)C=C5)C=C4)cc1)[C@@H](C(F)(F)F)O2
REMARK SMILES IDX 20 1 19 2 18 3 16 4 17 5 15 7 7 8 8 9 12 10 9 11 11 12 13 13
REMARK SMILES IDX 10 14 91 15 14 16 86 17 5 18 6 19 4 20 2 21 1 22 3 23 87 24
REMARK SMILES IDX 88 25 89 26 90 27 21 28 22 29 23 30 24 31 25 33 26 34 27 35
REMARK SMILES IDX 85 36 28 37 84 38 29 39 30 40 31 41 78 42 32 43 83 44 77 45
REMARK SMILES IDX 79 46 33 47 82 48 76 49 75 50 34 52 64 53 45 54 63 55 46 56
REMARK SMILES IDX 49 57 62 58 80 59 47 60 48 61 61 63 81 64 50 65 35 66 36 67
REMARK SMILES IDX 44 68 37 69 43 70 38 71 39 72 40 73 41 74 42 75 65 76 66 77
REMARK SMILES IDX 74 78 67 79 73 80 68 81 69 82 70 83 71 84 72 85 51 86 52 87
REMARK SMILES IDX 60 88 53 89 59 90 54 91 55 92 56 93 57 94 58 95
REMARK H PARENT 18 6 23 32 79 51 49 62
REMARK Flexibility Score: inf
ROOT
ATOM      1  C   UNL A   1      34.510  33.935  31.552  1.00  0.00     0.023 C 
ENDROOT
BRANCH   1   2
ATOM      2  C   UNL A   1      35.268  34.945  32.410  1.00  0.00     0.116 C 
BRANCH   2   3
ATOM      3  N   UNL A   1      36.693  34.935  32.128  1.00  0.00    -0.352 N 
ATOM      4  C   UNL A   1      37.817  34.533  32.766  1.00  0.00     0.251 C 
ATOM      5  O   UNL A   1      38.866  34.668  32.129  1.00  0.00    -0.270 OA
ATOM      6  H   UNL A   1      36.892  35.320  31.244  1.00  0.00     0.163 HD
BRANCH   4   7
ATOM      7  C   UNL A   1      37.867  33.978  34.146  1.00  0.00     0.067 C 
ATOM      8  C   UNL A   1      38.332  33.492  39.152  1.00  0.00     0.059 A 
ATOM      9  C   UNL A   1      37.425  33.015  38.193  1.00  0.00     0.074 A 
ATOM     10  C   UNL A   1      39.418  34.276  38.698  1.00  0.00     0.065 A 
ATOM     11  C   UNL A   1      37.572  33.352  36.850  1.00  0.00     0.130 A 
ATOM     12  C   UNL A   1      39.514  34.676  37.359  1.00  0.00     0.034 A 
ATOM     13  Cl  UNL A   1      40.680  34.788  39.767  1.00  0.00    -0.082 Cl
ATOM     14  C   UNL A   1      38.574  34.230  36.434  1.00  0.00     0.019 A 
ATOM     15  O   UNL A   1      36.679  32.804  35.967  1.00  0.00    -0.475 OA
ATOM     16  C   UNL A   1      38.568  34.690  35.050  1.00  0.00     0.025 C 
ATOM     17  C   UNL A   1      37.179  32.720  34.598  1.00  0.00     0.314 C 
BRANCH   8  18
ATOM     18  N   UNL A   1      38.122  33.222  40.515  1.00  0.00    -0.373 N 
ATOM     19  C   UNL A   1      38.804  32.033  41.020  1.00  0.00     0.143 C 
BRANCH  18  20
ATOM     20  C   UNL A   1      36.749  33.458  41.009  1.00  0.00     0.119 C 
BRANCH  20  21
ATOM     21  C   UNL A   1      36.445  32.669  42.301  1.00  0.00     0.002 C 
ATOM     22  C   UNL A   1      36.991  33.366  43.551  1.00  0.00     0.009 C 
ATOM     23  C   UNL A   1      34.935  32.474  42.472  1.00  0.00     0.009 C 
ENDBRANCH  20  21
ENDBRANCH  18  20
ENDBRANCH   8  18
BRANCH  17  24
ATOM     24  C   UNL A   1      38.079  31.474  34.420  1.00  0.00     0.429 C 
ATOM     25  F   UNL A   1      38.003  30.675  35.512  1.00  0.00    -0.167 F 
ATOM     26  F   UNL A   1      37.707  30.718  33.359  1.00  0.00    -0.167 F 
ATOM     27  F   UNL A   1      39.384  31.781  34.236  1.00  0.00    -0.167 F 
ENDBRANCH  17  24
ENDBRANCH   4   7
ENDBRANCH   2   3
ENDBRANCH   1   2
BRANCH   1  28
ATOM     28  C   UNL A   1      35.401  32.918  30.838  1.00  0.00     0.023 C 
BRANCH  28  29
ATOM     29  C   UNL A   1      35.385  32.994  29.313  1.00  0.00     0.116 C 
BRANCH  29  30
ATOM     30  N   UNL A   1      34.316  32.230  28.681  1.00  0.00    -0.352 N 
ATOM     31  C   UNL A   1      34.385  30.944  28.188  1.00  0.00     0.251 C 
ATOM     32  H   UNL A   1      33.446  32.682  28.598  1.00  0.00     0.163 HD
ATOM     33  O   UNL A   1      33.428  30.441  27.610  1.00  0.00    -0.269 OA
BRANCH  31  34
ATOM     34  C   UNL A   1      35.662  30.212  28.316  1.00  0.00     0.039 A 
ATOM     35  C   UNL A   1      35.917  29.458  29.462  1.00  0.00     0.014 A 
ATOM     36  C   UNL A   1      36.652  30.389  27.347  1.00  0.00     0.014 A 
ATOM     37  C   UNL A   1      37.218  29.057  29.734  1.00  0.00     0.010 A 
ATOM     38  C   UNL A   1      37.940  29.901  27.583  1.00  0.00     0.010 A 
ATOM     39  C   UNL A   1      38.250  29.293  28.808  1.00  0.00    -0.014 A 
BRANCH  39  40
ATOM     40  C   UNL A   1      39.641  28.914  29.175  1.00  0.00     0.031 A 
ATOM     41  C   UNL A   1      40.439  29.739  30.150  1.00  0.00     0.074 A 
ATOM     42  C   UNL A   1      40.146  27.757  28.702  1.00  0.00     0.049 A 
ATOM     43  N   UNL A   1      41.612  29.483  30.673  1.00  0.00    -0.248 NA
ATOM     44  C   UNL A   1      39.856  31.016  30.597  1.00  0.00     0.031 C 
ATOM     45  C   UNL A   1      39.458  26.866  27.765  1.00  0.00     0.029 A 
ATOM     46  N   UNL A   1      41.319  27.104  28.985  1.00  0.00    -0.354 N 
ATOM     47  C   UNL A   1      41.917  30.569  31.485  1.00  0.00     0.074 A 
ATOM     48  C   UNL A   1      40.819  31.502  31.371  1.00  0.00     0.031 C 
ATOM     49  C   UNL A   1      40.174  25.741  27.628  1.00  0.00     0.029 A 
ATOM     50  C   UNL A   1      41.401  25.857  28.411  1.00  0.00     0.049 A 
ATOM     51  H   UNL A   1      42.032  27.490  29.545  1.00  0.00     0.167 HD
ATOM     52  C   UNL A   1      43.010  30.766  32.260  1.00  0.00     0.031 A 
ATOM     53  C   UNL A   1      42.346  24.901  28.509  1.00  0.00     0.031 A 
ATOM     54  C   UNL A   1      44.089  29.822  32.392  1.00  0.00     0.049 A 
ATOM     55  C   UNL A   1      43.547  25.141  29.374  1.00  0.00     0.074 A 
ATOM     56  C   UNL A   1      45.224  29.925  33.178  1.00  0.00     0.029 A 
ATOM     57  N   UNL A   1      44.167  28.605  31.733  1.00  0.00    -0.354 N 
ATOM     58  N   UNL A   1      43.814  26.175  30.134  1.00  0.00    -0.248 NA
ATOM     59  C   UNL A   1      44.574  24.091  29.394  1.00  0.00     0.031 C 
ATOM     60  C   UNL A   1      46.015  28.797  32.951  1.00  0.00     0.029 A 
ATOM     61  C   UNL A   1      45.344  27.959  32.076  1.00  0.00     0.049 A 
ATOM     62  H   UNL A   1      43.489  28.253  31.113  1.00  0.00     0.167 HD
ATOM     63  C   UNL A   1      45.038  25.898  30.731  1.00  0.00     0.074 A 
ATOM     64  C   UNL A   1      45.449  24.592  30.258  1.00  0.00     0.031 C 
ATOM     65  C   UNL A   1      45.752  26.662  31.592  1.00  0.00     0.031 A 
BRANCH  52  66
ATOM     66  C   UNL A   1      43.117  32.059  33.029  1.00  0.00    -0.014 A 
ATOM     67  C   UNL A   1      43.835  33.136  32.476  1.00  0.00     0.010 A 
ATOM     68  C   UNL A   1      42.601  32.179  34.332  1.00  0.00     0.010 A 
ATOM     69  C   UNL A   1      44.054  34.301  33.216  1.00  0.00     0.020 A 
ATOM     70  C   UNL A   1      42.796  33.354  35.066  1.00  0.00     0.020 A 
ATOM     71  C   UNL A   1      43.539  34.400  34.511  1.00  0.00     0.054 A 
BRANCH  71  72
ATOM     72  S   UNL A   1      43.830  35.919  35.460  1.00  0.00     0.124 S 
ATOM     73  O   UNL A   1      43.710  36.949  34.435  1.00  0.00    -0.237 OA
ATOM     74  O   UNL A   1      42.760  35.887  36.455  1.00  0.00    -0.237 OA
ATOM     75  O   UNL A   1      45.174  35.726  36.003  1.00  0.00    -0.744 OA
ENDBRANCH  71  72
ENDBRANCH  52  66
BRANCH  53  76
ATOM     76  C   UNL A   1      42.132  23.611  27.797  1.00  0.00    -0.014 A 
ATOM     77  C   UNL A   1      41.303  22.620  28.355  1.00  0.00     0.010 A 
ATOM     78  C   UNL A   1      42.860  23.320  26.631  1.00  0.00     0.010 A 
ATOM     79  C   UNL A   1      41.266  21.337  27.805  1.00  0.00     0.020 A 
ATOM     80  C   UNL A   1      42.801  22.045  26.060  1.00  0.00     0.020 A 
ATOM     81  C   UNL A   1      42.033  21.053  26.673  1.00  0.00     0.054 A 
BRANCH  81  82
ATOM     82  S   UNL A   1      42.044  19.356  26.030  1.00  0.00     0.124 S 
ATOM     83  O   UNL A   1      40.626  19.130  25.765  1.00  0.00    -0.237 OA
ATOM     84  O   UNL A   1      42.895  19.467  24.848  1.00  0.00    -0.237 OA
ATOM     85  O   UNL A   1      42.608  18.578  27.129  1.00  0.00    -0.744 OA
ENDBRANCH  81  82
ENDBRANCH  53  76
BRANCH  65  86
ATOM     86  C   UNL A   1      47.066  26.125  32.094  1.00  0.00    -0.014 A 
ATOM     87  C   UNL A   1      48.184  26.111  31.239  1.00  0.00     0.010 A 
ATOM     88  C   UNL A   1      47.165  25.528  33.363  1.00  0.00     0.010 A 
ATOM     89  C   UNL A   1      49.368  25.484  31.631  1.00  0.00     0.020 A 
ATOM     90  C   UNL A   1      48.357  24.923  33.769  1.00  0.00     0.020 A 
ATOM     91  C   UNL A   1      49.444  24.884  32.891  1.00  0.00     0.054 A 
BRANCH  91  92
ATOM     92  S   UNL A   1      50.983  24.059  33.381  1.00  0.00     0.124 S 
ATOM     93  O   UNL A   1      51.101  23.007  32.375  1.00  0.00    -0.237 OA
ATOM     94  O   UNL A   1      51.971  25.132  33.288  1.00  0.00    -0.237 OA
ATOM     95  O   UNL A   1      50.706  23.597  34.739  1.00  0.00    -0.744 OA
ENDBRANCH  91  92
ENDBRANCH  65  86
ENDBRANCH  39  40
ENDBRANCH  31  34
ENDBRANCH  29  30
ENDBRANCH  28  29
ENDBRANCH   1  28
TORSDOF 18
ENDMDL
