MODEL 1
REMARK VINA RESULT:     -14.8      0.000      0.000
REMARK SMILES Cc1ccccc1[C@@H]1[NH2+][C@@H](C(=O)NCCCCNC(=O)c2ccc(-c3c4nc(c(-c5ccc(S(=O)(=O)[O-])cc5)c5ccc([nH]5)c(-c5ccc(S(=O)(=O)[O-])cc5)c5nc(c(-c6ccc(S(=O)(=O)[O-])cc6)c6ccc3[nH]6)C=C5)C=C4)cc2)CC2=c3ccccc3=N[C@@H]21
REMARK SMILES IDX 16 1 15 2 14 3 13 4 11 5 12 6 10 8 8 9 9 10 90 11 82 14
REMARK SMILES IDX 89 15 81 16 83 17 88 18 84 19 87 20 85 21 86 22 7 23 1 24
REMARK SMILES IDX 2 25 3 26 4 27 6 28 5 29 17 30 18 31 19 32 20 34 21 35 22 36
REMARK SMILES IDX 80 37 23 38 79 39 24 40 25 41 26 42 73 43 27 44 78 45 72 46
REMARK SMILES IDX 74 47 28 48 77 49 71 50 70 51 29 53 59 54 40 55 58 56 41 57
REMARK SMILES IDX 44 58 57 59 75 60 42 61 43 62 56 64 76 65 45 66 30 67 31 68
REMARK SMILES IDX 39 69 32 70 38 71 33 72 34 73 35 74 36 75 37 76 60 77 61 78
REMARK SMILES IDX 69 79 62 80 68 81 63 82 64 83 65 84 66 85 67 86 46 87 47 88
REMARK SMILES IDX 55 89 48 90 54 91 49 92 50 93 51 94 52 95 53 96
REMARK H PARENT 13 7 9 12 9 13 18 33 74 52 44 63
REMARK Flexibility Score: inf
ROOT
ATOM      1  C   UNL A   1      40.261  21.613  26.159  1.00  0.00     0.023 C 
ENDROOT
BRANCH   1   2
ATOM      2  C   UNL A   1      38.549  21.827  25.882  1.00  0.00     0.023 C 
BRANCH   2   3
ATOM      3  C   UNL A   1      37.452  23.037  25.840  1.00  0.00     0.116 C 
BRANCH   3   4
ATOM      4  N   UNL A   1      36.308  23.263  26.808  1.00  0.00    -0.351 N 
ATOM      5  C   UNL A   1      34.934  23.011  26.728  1.00  0.00     0.278 C 
ATOM      6  O   UNL A   1      34.244  22.756  27.708  1.00  0.00    -0.268 OA
ATOM      7  H   UNL A   1      36.585  23.667  27.660  1.00  0.00     0.163 HD
BRANCH   5   8
ATOM      8  C   UNL A   1      34.392  23.380  25.369  1.00  0.00     0.277 C 
ATOM      9  C   UNL A   1      33.208  22.078  23.648  1.00  0.00     0.243 C 
ATOM     10  N   UNL A   1      34.356  22.141  24.593  1.00  0.00    -0.327 N 
ATOM     11  C   UNL A   1      32.574  23.562  23.217  1.00  0.00     0.196 C 
ATOM     12  H   UNL A   1      35.221  22.068  24.059  1.00  0.00     0.347 HD
ATOM     13  H   UNL A   1      34.248  21.372  25.255  1.00  0.00     0.347 HD
ATOM     14  C   UNL A   1      33.344  24.758  23.847  1.00  0.00    -0.024 C 
ATOM     15  N   UNL A   1      31.141  23.864  23.555  1.00  0.00    -0.270 NA
ATOM     16  C   UNL A   1      34.742  24.487  24.396  1.00  0.00     0.109 C 
ATOM     17  C   UNL A   1      32.504  25.619  24.439  1.00  0.00     0.002 A 
ATOM     18  C   UNL A   1      31.183  25.004  24.195  1.00  0.00     0.066 A 
ATOM     19  C   UNL A   1      32.706  26.509  25.561  1.00  0.00     0.010 A 
ATOM     20  C   UNL A   1      30.041  25.683  24.885  1.00  0.00     0.028 A 
ATOM     21  C   UNL A   1      31.647  26.895  26.293  1.00  0.00     0.001 A 
ATOM     22  C   UNL A   1      30.299  26.521  25.909  1.00  0.00     0.002 A 
BRANCH   9  23
ATOM     23  C   UNL A   1      32.597  20.639  23.863  1.00  0.00     0.015 A 
ATOM     24  C   UNL A   1      31.838  20.408  21.428  1.00  0.00     0.045 C 
ATOM     25  C   UNL A   1      32.189  19.835  22.768  1.00  0.00    -0.042 A 
ATOM     26  C   UNL A   1      32.245  18.414  22.843  1.00  0.00     0.004 A 
ATOM     27  C   UNL A   1      32.665  17.750  23.988  1.00  0.00     0.000 A 
ATOM     28  C   UNL A   1      32.920  19.900  25.030  1.00  0.00     0.010 A 
ATOM     29  C   UNL A   1      32.976  18.499  25.098  1.00  0.00     0.001 A 
ENDBRANCH   9  23
ENDBRANCH   5   8
ENDBRANCH   3   4
ENDBRANCH   2   3
ENDBRANCH   1   2
BRANCH   1  30
ATOM     30  C   UNL A   1      41.208  22.315  27.263  1.00  0.00     0.116 C 
BRANCH  30  31
ATOM     31  N   UNL A   1      42.066  23.675  27.313  1.00  0.00    -0.352 N 
ATOM     32  C   UNL A   1      42.002  25.166  26.984  1.00  0.00     0.251 C 
ATOM     33  H   UNL A   1      42.952  23.473  27.692  1.00  0.00     0.163 HD
ATOM     34  O   UNL A   1      43.144  25.675  27.002  1.00  0.00    -0.269 OA
BRANCH  32  35
ATOM     35  C   UNL A   1      40.812  26.344  26.868  1.00  0.00     0.039 A 
ATOM     36  C   UNL A   1      41.052  27.628  26.296  1.00  0.00     0.014 A 
ATOM     37  C   UNL A   1      39.520  26.324  27.352  1.00  0.00     0.014 A 
ATOM     38  C   UNL A   1      40.574  28.814  26.975  1.00  0.00     0.010 A 
ATOM     39  C   UNL A   1      39.022  27.487  28.023  1.00  0.00     0.010 A 
ATOM     40  C   UNL A   1      39.774  28.665  28.099  1.00  0.00    -0.014 A 
BRANCH  40  41
ATOM     41  C   UNL A   1      39.762  29.596  29.320  1.00  0.00     0.031 A 
ATOM     42  C   UNL A   1      38.708  30.587  29.373  1.00  0.00     0.074 A 
ATOM     43  C   UNL A   1      40.461  29.626  30.509  1.00  0.00     0.049 A 
ATOM     44  N   UNL A   1      38.895  31.855  29.248  1.00  0.00    -0.248 NA
ATOM     45  C   UNL A   1      37.340  30.166  29.631  1.00  0.00     0.031 C 
ATOM     46  C   UNL A   1      40.456  30.567  31.658  1.00  0.00     0.029 A 
ATOM     47  N   UNL A   1      41.436  28.765  30.970  1.00  0.00    -0.354 N 
ATOM     48  C   UNL A   1      37.718  32.414  29.681  1.00  0.00     0.074 A 
ATOM     49  C   UNL A   1      36.729  31.349  29.649  1.00  0.00     0.031 C 
ATOM     50  C   UNL A   1      41.635  30.465  32.325  1.00  0.00     0.029 A 
ATOM     51  C   UNL A   1      42.430  29.465  31.644  1.00  0.00     0.049 A 
ATOM     52  H   UNL A   1      41.428  27.789  30.839  1.00  0.00     0.167 HD
ATOM     53  C   UNL A   1      37.698  33.591  30.368  1.00  0.00     0.031 A 
ATOM     54  C   UNL A   1      43.654  29.577  31.037  1.00  0.00     0.031 A 
ATOM     55  C   UNL A   1      39.036  33.974  30.846  1.00  0.00     0.049 A 
ATOM     56  C   UNL A   1      43.885  30.988  30.568  1.00  0.00     0.074 A 
ATOM     57  C   UNL A   1      39.593  33.987  32.119  1.00  0.00     0.029 A 
ATOM     58  N   UNL A   1      40.107  34.081  29.962  1.00  0.00    -0.354 N 
ATOM     59  N   UNL A   1      42.959  31.899  30.603  1.00  0.00    -0.248 NA
ATOM     60  C   UNL A   1      45.135  31.493  30.011  1.00  0.00     0.031 C 
ATOM     61  C   UNL A   1      41.008  34.021  31.986  1.00  0.00     0.029 A 
ATOM     62  C   UNL A   1      41.315  34.065  30.638  1.00  0.00     0.049 A 
ATOM     63  H   UNL A   1      40.016  34.158  28.985  1.00  0.00     0.167 HD
ATOM     64  C   UNL A   1      43.413  33.057  30.056  1.00  0.00     0.074 A 
ATOM     65  C   UNL A   1      44.801  32.769  29.736  1.00  0.00     0.031 C 
ATOM     66  C   UNL A   1      42.582  34.128  29.907  1.00  0.00     0.031 A 
BRANCH  53  67
ATOM     67  C   UNL A   1      36.402  34.164  30.895  1.00  0.00    -0.014 A 
ATOM     68  C   UNL A   1      35.253  34.225  30.089  1.00  0.00     0.010 A 
ATOM     69  C   UNL A   1      36.256  34.615  32.226  1.00  0.00     0.010 A 
ATOM     70  C   UNL A   1      34.054  34.785  30.559  1.00  0.00     0.020 A 
ATOM     71  C   UNL A   1      35.092  35.238  32.687  1.00  0.00     0.020 A 
ATOM     72  C   UNL A   1      33.989  35.308  31.849  1.00  0.00     0.054 A 
BRANCH  72  73
ATOM     73  S   UNL A   1      32.432  36.014  32.445  1.00  0.00     0.124 S 
ATOM     74  O   UNL A   1      31.661  34.827  32.806  1.00  0.00    -0.237 OA
ATOM     75  O   UNL A   1      32.877  36.840  33.564  1.00  0.00    -0.237 OA
ATOM     76  O   UNL A   1      31.920  36.755  31.294  1.00  0.00    -0.744 OA
ENDBRANCH  72  73
ENDBRANCH  53  67
BRANCH  54  77
ATOM     77  C   UNL A   1      44.030  28.342  30.240  1.00  0.00    -0.014 A 
ATOM     78  C   UNL A   1      43.376  28.179  29.019  1.00  0.00     0.010 A 
ATOM     79  C   UNL A   1      45.372  28.058  30.135  1.00  0.00     0.010 A 
ATOM     80  C   UNL A   1      44.059  28.522  27.827  1.00  0.00     0.020 A 
ATOM     81  C   UNL A   1      46.003  28.336  28.890  1.00  0.00     0.020 A 
ATOM     82  C   UNL A   1      45.379  28.921  27.807  1.00  0.00     0.054 A 
BRANCH  82  83
ATOM     83  S   UNL A   1      46.161  30.484  26.527  1.00  0.00     0.124 S 
ATOM     84  O   UNL A   1      47.293  31.044  27.245  1.00  0.00    -0.237 OA
ATOM     85  O   UNL A   1      46.610  29.873  25.288  1.00  0.00    -0.237 OA
ATOM     86  O   UNL A   1      45.125  31.495  26.421  1.00  0.00    -0.744 OA
ENDBRANCH  82  83
ENDBRANCH  54  77
BRANCH  66  87
ATOM     87  C   UNL A   1      42.908  35.375  29.132  1.00  0.00    -0.014 A 
ATOM     88  C   UNL A   1      42.381  35.679  27.869  1.00  0.00     0.010 A 
ATOM     89  C   UNL A   1      43.718  36.358  29.746  1.00  0.00     0.010 A 
ATOM     90  C   UNL A   1      42.716  36.868  27.212  1.00  0.00     0.020 A 
ATOM     91  C   UNL A   1      44.011  37.573  29.126  1.00  0.00     0.020 A 
ATOM     92  C   UNL A   1      43.536  37.804  27.843  1.00  0.00     0.054 A 
BRANCH  92  93
ATOM     93  S   UNL A   1      43.939  39.341  26.986  1.00  0.00     0.124 S 
ATOM     94  O   UNL A   1      45.147  38.967  26.256  1.00  0.00    -0.237 OA
ATOM     95  O   UNL A   1      42.756  39.571  26.160  1.00  0.00    -0.237 OA
ATOM     96  O   UNL A   1      44.132  40.302  28.068  1.00  0.00    -0.744 OA
ENDBRANCH  92  93
ENDBRANCH  66  87
ENDBRANCH  40  41
ENDBRANCH  32  35
ENDBRANCH  30  31
ENDBRANCH   1  30
TORSDOF 15
ENDMDL
MODEL 2
REMARK VINA RESULT:     -14.7      3.640      7.023
REMARK SMILES Cc1ccccc1[C@@H]1[NH2+][C@@H](C(=O)NCCCCNC(=O)c2ccc(-c3c4nc(c(-c5ccc(S(=O)(=O)[O-])cc5)c5ccc([nH]5)c(-c5ccc(S(=O)(=O)[O-])cc5)c5nc(c(-c6ccc(S(=O)(=O)[O-])cc6)c6ccc3[nH]6)C=C5)C=C4)cc2)CC2=c3ccccc3=N[C@@H]21
REMARK SMILES IDX 16 1 15 2 14 3 13 4 11 5 12 6 10 8 8 9 9 10 90 11 82 14
REMARK SMILES IDX 89 15 81 16 83 17 88 18 84 19 87 20 85 21 86 22 7 23 1 24
REMARK SMILES IDX 2 25 3 26 4 27 6 28 5 29 17 30 18 31 19 32 20 34 21 35 22 36
REMARK SMILES IDX 80 37 23 38 79 39 24 40 25 41 26 42 73 43 27 44 78 45 72 46
REMARK SMILES IDX 74 47 28 48 77 49 71 50 70 51 29 53 59 54 40 55 58 56 41 57
REMARK SMILES IDX 44 58 57 59 75 60 42 61 43 62 56 64 76 65 45 66 30 67 31 68
REMARK SMILES IDX 39 69 32 70 38 71 33 72 34 73 35 74 36 75 37 76 60 77 61 78
REMARK SMILES IDX 69 79 62 80 68 81 63 82 64 83 65 84 66 85 67 86 46 87 47 88
REMARK SMILES IDX 55 89 48 90 54 91 49 92 50 93 51 94 52 95 53 96
REMARK H PARENT 13 7 9 12 9 13 18 33 74 52 44 63
REMARK Flexibility Score: inf
ROOT
ATOM      1  C   UNL A   1      31.583  31.453  26.533  1.00  0.00     0.023 C 
ENDROOT
BRANCH   1   2
ATOM      2  C   UNL A   1      32.552  30.181  27.236  1.00  0.00     0.023 C 
BRANCH   2   3
ATOM      3  C   UNL A   1      33.930  29.363  26.913  1.00  0.00     0.116 C 
BRANCH   3   4
ATOM      4  N   UNL A   1      34.429  28.922  25.552  1.00  0.00    -0.351 N 
ATOM      5  C   UNL A   1      33.787  28.366  24.440  1.00  0.00     0.278 C 
ATOM      6  O   UNL A   1      34.172  28.543  23.290  1.00  0.00    -0.268 OA
ATOM      7  H   UNL A   1      35.396  29.053  25.424  1.00  0.00     0.163 HD
BRANCH   5   8
ATOM      8  C   UNL A   1      32.784  27.320  24.860  1.00  0.00     0.277 C 
ATOM      9  C   UNL A   1      30.397  27.012  24.342  1.00  0.00     0.243 C 
ATOM     10  N   UNL A   1      31.469  27.953  24.765  1.00  0.00    -0.327 N 
ATOM     11  C   UNL A   1      30.726  25.401  24.632  1.00  0.00     0.196 C 
ATOM     12  H   UNL A   1      31.226  28.334  25.679  1.00  0.00     0.347 HD
ATOM     13  H   UNL A   1      31.535  28.681  24.053  1.00  0.00     0.347 HD
ATOM     14  C   UNL A   1      32.088  25.179  25.352  1.00  0.00    -0.024 C 
ATOM     15  N   UNL A   1      30.799  24.454  23.468  1.00  0.00    -0.270 NA
ATOM     16  C   UNL A   1      32.724  26.379  26.046  1.00  0.00     0.109 C 
ATOM     17  C   UNL A   1      32.824  24.251  24.724  1.00  0.00     0.002 A 
ATOM     18  C   UNL A   1      31.952  23.851  23.600  1.00  0.00     0.066 A 
ATOM     19  C   UNL A   1      34.258  24.088  24.637  1.00  0.00     0.010 A 
ATOM     20  C   UNL A   1      32.587  22.915  22.620  1.00  0.00     0.028 A 
ATOM     21  C   UNL A   1      34.784  23.431  23.590  1.00  0.00     0.001 A 
ATOM     22  C   UNL A   1      33.929  22.790  22.607  1.00  0.00     0.002 A 
BRANCH   9  23
ATOM     23  C   UNL A   1      29.607  27.791  23.220  1.00  0.00     0.015 A 
ATOM     24  C   UNL A   1      27.318  26.955  24.009  1.00  0.00     0.045 C 
ATOM     25  C   UNL A   1      28.195  27.909  23.253  1.00  0.00    -0.042 A 
ATOM     26  C   UNL A   1      27.541  29.045  22.695  1.00  0.00     0.004 A 
ATOM     27  C   UNL A   1      28.243  30.066  22.067  1.00  0.00     0.000 A 
ATOM     28  C   UNL A   1      30.252  28.816  22.481  1.00  0.00     0.010 A 
ATOM     29  C   UNL A   1      29.605  29.934  21.934  1.00  0.00     0.001 A 
ENDBRANCH   9  23
ENDBRANCH   5   8
ENDBRANCH   3   4
ENDBRANCH   2   3
ENDBRANCH   1   2
BRANCH   1  30
ATOM     30  C   UNL A   1      31.663  33.047  26.778  1.00  0.00     0.116 C 
BRANCH  30  31
ATOM     31  N   UNL A   1      32.535  33.997  27.741  1.00  0.00    -0.352 N 
ATOM     32  C   UNL A   1      33.868  34.083  28.482  1.00  0.00     0.251 C 
ATOM     33  H   UNL A   1      32.025  34.821  27.914  1.00  0.00     0.163 HD
ATOM     34  O   UNL A   1      33.850  35.006  29.325  1.00  0.00    -0.269 OA
BRANCH  32  35
ATOM     35  C   UNL A   1      35.416  33.461  28.293  1.00  0.00     0.039 A 
ATOM     36  C   UNL A   1      35.667  32.078  28.047  1.00  0.00     0.014 A 
ATOM     37  C   UNL A   1      36.632  34.100  28.426  1.00  0.00     0.014 A 
ATOM     38  C   UNL A   1      36.702  31.395  28.793  1.00  0.00     0.010 A 
ATOM     39  C   UNL A   1      37.675  33.443  29.155  1.00  0.00     0.010 A 
ATOM     40  C   UNL A   1      37.521  32.137  29.633  1.00  0.00    -0.014 A 
BRANCH  40  41
ATOM     41  C   UNL A   1      38.115  31.650  30.963  1.00  0.00     0.031 A 
ATOM     42  C   UNL A   1      38.411  32.662  31.954  1.00  0.00     0.074 A 
ATOM     43  C   UNL A   1      38.309  30.406  31.527  1.00  0.00     0.049 A 
ATOM     44  N   UNL A   1      39.601  32.997  32.318  1.00  0.00    -0.248 NA
ATOM     45  C   UNL A   1      37.320  33.335  32.641  1.00  0.00     0.031 C 
ATOM     46  C   UNL A   1      38.925  29.962  32.804  1.00  0.00     0.029 A 
ATOM     47  N   UNL A   1      38.001  29.159  31.019  1.00  0.00    -0.354 N 
ATOM     48  C   UNL A   1      39.410  33.722  33.468  1.00  0.00     0.074 A 
ATOM     49  C   UNL A   1      38.011  34.116  33.470  1.00  0.00     0.031 C 
ATOM     50  C   UNL A   1      39.332  28.672  32.680  1.00  0.00     0.029 A 
ATOM     51  C   UNL A   1      38.994  28.241  31.340  1.00  0.00     0.049 A 
ATOM     52  H   UNL A   1      37.190  28.951  30.501  1.00  0.00     0.167 HD
ATOM     53  C   UNL A   1      40.290  33.657  34.506  1.00  0.00     0.031 A 
ATOM     54  C   UNL A   1      39.804  27.798  30.327  1.00  0.00     0.031 A 
ATOM     55  C   UNL A   1      41.219  32.523  34.373  1.00  0.00     0.049 A 
ATOM     56  C   UNL A   1      41.190  28.364  30.472  1.00  0.00     0.074 A 
ATOM     57  C   UNL A   1      41.314  31.321  35.061  1.00  0.00     0.029 A 
ATOM     58  N   UNL A   1      41.991  32.364  33.224  1.00  0.00    -0.354 N 
ATOM     59  N   UNL A   1      41.488  29.275  31.351  1.00  0.00    -0.248 NA
ATOM     60  C   UNL A   1      42.339  27.991  29.654  1.00  0.00     0.031 C 
ATOM     61  C   UNL A   1      42.081  30.417  34.278  1.00  0.00     0.029 A 
ATOM     62  C   UNL A   1      42.485  31.074  33.129  1.00  0.00     0.049 A 
ATOM     63  H   UNL A   1      42.162  33.076  32.565  1.00  0.00     0.167 HD
ATOM     64  C   UNL A   1      42.785  29.656  31.217  1.00  0.00     0.074 A 
ATOM     65  C   UNL A   1      43.294  28.792  30.166  1.00  0.00     0.031 C 
ATOM     66  C   UNL A   1      43.294  30.666  31.980  1.00  0.00     0.031 A 
BRANCH  53  67
ATOM     67  C   UNL A   1      40.036  34.411  35.792  1.00  0.00    -0.014 A 
ATOM     68  C   UNL A   1      40.574  35.691  36.003  1.00  0.00     0.010 A 
ATOM     69  C   UNL A   1      39.212  33.902  36.821  1.00  0.00     0.010 A 
ATOM     70  C   UNL A   1      40.372  36.385  37.206  1.00  0.00     0.020 A 
ATOM     71  C   UNL A   1      39.057  34.549  38.051  1.00  0.00     0.020 A 
ATOM     72  C   UNL A   1      39.631  35.799  38.231  1.00  0.00     0.054 A 
BRANCH  72  73
ATOM     73  S   UNL A   1      39.366  36.712  39.772  1.00  0.00     0.124 S 
ATOM     74  O   UNL A   1      40.729  36.975  40.227  1.00  0.00    -0.237 OA
ATOM     75  O   UNL A   1      38.619  37.879  39.313  1.00  0.00    -0.237 OA
ATOM     76  O   UNL A   1      38.607  35.780  40.605  1.00  0.00    -0.744 OA
ENDBRANCH  72  73
ENDBRANCH  53  67
BRANCH  54  77
ATOM     77  C   UNL A   1      39.072  27.664  29.004  1.00  0.00    -0.014 A 
ATOM     78  C   UNL A   1      39.023  28.812  28.214  1.00  0.00     0.010 A 
ATOM     79  C   UNL A   1      39.351  26.546  28.253  1.00  0.00     0.010 A 
ATOM     80  C   UNL A   1      39.912  28.926  27.118  1.00  0.00     0.020 A 
ATOM     81  C   UNL A   1      40.178  26.719  27.108  1.00  0.00     0.020 A 
ATOM     82  C   UNL A   1      40.763  27.912  26.735  1.00  0.00     0.054 A 
BRANCH  82  83
ATOM     83  S   UNL A   1      42.794  28.219  26.045  1.00  0.00     0.124 S 
ATOM     84  O   UNL A   1      42.759  27.976  24.613  1.00  0.00    -0.237 OA
ATOM     85  O   UNL A   1      43.158  29.600  26.307  1.00  0.00    -0.237 OA
ATOM     86  O   UNL A   1      43.608  27.196  26.675  1.00  0.00    -0.744 OA
ENDBRANCH  82  83
ENDBRANCH  54  77
BRANCH  66  87
ATOM     87  C   UNL A   1      44.637  31.311  31.776  1.00  0.00    -0.014 A 
ATOM     88  C   UNL A   1      45.844  30.794  32.268  1.00  0.00     0.010 A 
ATOM     89  C   UNL A   1      44.715  32.459  30.954  1.00  0.00     0.010 A 
ATOM     90  C   UNL A   1      47.061  31.441  32.024  1.00  0.00     0.020 A 
ATOM     91  C   UNL A   1      45.929  33.078  30.655  1.00  0.00     0.020 A 
ATOM     92  C   UNL A   1      47.093  32.583  31.224  1.00  0.00     0.054 A 
BRANCH  92  93
ATOM     93  S   UNL A   1      48.677  33.390  30.905  1.00  0.00     0.124 S 
ATOM     94  O   UNL A   1      48.301  34.801  30.918  1.00  0.00    -0.237 OA
ATOM     95  O   UNL A   1      49.496  32.952  32.034  1.00  0.00    -0.237 OA
ATOM     96  O   UNL A   1      49.082  32.860  29.607  1.00  0.00    -0.744 OA
ENDBRANCH  92  93
ENDBRANCH  66  87
ENDBRANCH  40  41
ENDBRANCH  32  35
ENDBRANCH  30  31
ENDBRANCH   1  30
TORSDOF 15
ENDMDL
MODEL 3
REMARK VINA RESULT:     -14.2      4.636      9.223
REMARK SMILES Cc1ccccc1[C@@H]1[NH2+][C@@H](C(=O)NCCCCNC(=O)c2ccc(-c3c4nc(c(-c5ccc(S(=O)(=O)[O-])cc5)c5ccc([nH]5)c(-c5ccc(S(=O)(=O)[O-])cc5)c5nc(c(-c6ccc(S(=O)(=O)[O-])cc6)c6ccc3[nH]6)C=C5)C=C4)cc2)CC2=c3ccccc3=N[C@@H]21
REMARK SMILES IDX 16 1 15 2 14 3 13 4 11 5 12 6 10 8 8 9 9 10 90 11 82 14
REMARK SMILES IDX 89 15 81 16 83 17 88 18 84 19 87 20 85 21 86 22 7 23 1 24
REMARK SMILES IDX 2 25 3 26 4 27 6 28 5 29 17 30 18 31 19 32 20 34 21 35 22 36
REMARK SMILES IDX 80 37 23 38 79 39 24 40 25 41 26 42 73 43 27 44 78 45 72 46
REMARK SMILES IDX 74 47 28 48 77 49 71 50 70 51 29 53 59 54 40 55 58 56 41 57
REMARK SMILES IDX 44 58 57 59 75 60 42 61 43 62 56 64 76 65 45 66 30 67 31 68
REMARK SMILES IDX 39 69 32 70 38 71 33 72 34 73 35 74 36 75 37 76 60 77 61 78
REMARK SMILES IDX 69 79 62 80 68 81 63 82 64 83 65 84 66 85 67 86 46 87 47 88
REMARK SMILES IDX 55 89 48 90 54 91 49 92 50 93 51 94 52 95 53 96
REMARK H PARENT 13 7 9 12 9 13 18 33 74 52 44 63
REMARK Flexibility Score: inf
ROOT
ATOM      1  C   UNL A   1      33.755  28.898  27.334  1.00  0.00     0.023 C 
ENDROOT
BRANCH   1   2
ATOM      2  C   UNL A   1      33.580  27.545  26.242  1.00  0.00     0.023 C 
BRANCH   2   3
ATOM      3  C   UNL A   1      33.278  25.940  26.311  1.00  0.00     0.116 C 
BRANCH   3   4
ATOM      4  N   UNL A   1      31.987  25.275  26.742  1.00  0.00    -0.351 N 
ATOM      5  C   UNL A   1      31.485  23.980  26.573  1.00  0.00     0.278 C 
ATOM      6  O   UNL A   1      30.725  23.449  27.376  1.00  0.00    -0.268 OA
ATOM      7  H   UNL A   1      31.382  25.871  27.239  1.00  0.00     0.163 HD
BRANCH   5   8
ATOM      8  C   UNL A   1      31.755  23.470  25.179  1.00  0.00     0.277 C 
ATOM      9  C   UNL A   1      31.654  24.553  22.971  1.00  0.00     0.243 C 
ATOM     10  N   UNL A   1      30.979  24.318  24.277  1.00  0.00    -0.327 N 
ATOM     11  C   UNL A   1      32.788  23.400  22.553  1.00  0.00     0.196 C 
ATOM     12  H   UNL A   1      30.081  23.869  24.102  1.00  0.00     0.347 HD
ATOM     13  H   UNL A   1      30.871  25.225  24.731  1.00  0.00     0.347 HD
ATOM     14  C   UNL A   1      32.893  22.246  23.592  1.00  0.00    -0.024 C 
ATOM     15  N   UNL A   1      34.218  23.822  22.369  1.00  0.00    -0.270 NA
ATOM     16  C   UNL A   1      31.742  22.078  24.580  1.00  0.00     0.109 C 
ATOM     17  C   UNL A   1      34.168  22.023  23.944  1.00  0.00     0.002 A 
ATOM     18  C   UNL A   1      34.906  23.015  23.135  1.00  0.00     0.066 A 
ATOM     19  C   UNL A   1      34.729  21.513  25.175  1.00  0.00     0.010 A 
ATOM     20  C   UNL A   1      36.369  23.102  23.436  1.00  0.00     0.028 A 
ATOM     21  C   UNL A   1      35.992  21.831  25.504  1.00  0.00     0.001 A 
ATOM     22  C   UNL A   1      36.833  22.585  24.592  1.00  0.00     0.002 A 
BRANCH   9  23
ATOM     23  C   UNL A   1      31.523  26.106  22.731  1.00  0.00     0.015 A 
ATOM     24  C   UNL A   1      29.246  26.268  23.892  1.00  0.00     0.045 C 
ATOM     25  C   UNL A   1      30.514  26.873  23.367  1.00  0.00    -0.042 A 
ATOM     26  C   UNL A   1      30.728  28.244  23.685  1.00  0.00     0.004 A 
ATOM     27  C   UNL A   1      31.907  28.903  23.362  1.00  0.00     0.000 A 
ATOM     28  C   UNL A   1      32.659  26.862  22.342  1.00  0.00     0.010 A 
ATOM     29  C   UNL A   1      32.866  28.213  22.660  1.00  0.00     0.001 A 
ENDBRANCH   9  23
ENDBRANCH   5   8
ENDBRANCH   3   4
ENDBRANCH   2   3
ENDBRANCH   1   2
BRANCH   1  30
ATOM     30  C   UNL A   1      35.054  29.816  27.617  1.00  0.00     0.116 C 
BRANCH  30  31
ATOM     31  N   UNL A   1      36.326  29.698  28.594  1.00  0.00    -0.352 N 
ATOM     32  C   UNL A   1      37.694  29.033  28.736  1.00  0.00     0.251 C 
ATOM     33  H   UNL A   1      36.165  30.259  29.387  1.00  0.00     0.163 HD
ATOM     34  O   UNL A   1      38.116  29.128  29.909  1.00  0.00    -0.269 OA
BRANCH  32  35
ATOM     35  C   UNL A   1      38.885  28.451  27.705  1.00  0.00     0.039 A 
ATOM     36  C   UNL A   1      39.229  27.069  27.627  1.00  0.00     0.014 A 
ATOM     37  C   UNL A   1      39.743  29.155  26.885  1.00  0.00     0.014 A 
ATOM     38  C   UNL A   1      40.623  26.679  27.627  1.00  0.00     0.010 A 
ATOM     39  C   UNL A   1      41.126  28.784  26.862  1.00  0.00     0.010 A 
ATOM     40  C   UNL A   1      41.595  27.668  27.564  1.00  0.00    -0.014 A 
BRANCH  40  41
ATOM     41  C   UNL A   1      42.972  27.614  28.243  1.00  0.00     0.031 A 
ATOM     42  C   UNL A   1      43.677  28.870  28.385  1.00  0.00     0.074 A 
ATOM     43  C   UNL A   1      43.671  26.633  28.914  1.00  0.00     0.049 A 
ATOM     44  N   UNL A   1      44.751  29.177  27.744  1.00  0.00    -0.248 NA
ATOM     45  C   UNL A   1      43.199  29.857  29.341  1.00  0.00     0.031 C 
ATOM     46  C   UNL A   1      45.024  26.598  29.527  1.00  0.00     0.029 A 
ATOM     47  N   UNL A   1      43.305  25.329  29.184  1.00  0.00    -0.354 N 
ATOM     48  C   UNL A   1      45.238  30.275  28.409  1.00  0.00     0.074 A 
ATOM     49  C   UNL A   1      44.131  30.797  29.193  1.00  0.00     0.031 C 
ATOM     50  C   UNL A   1      45.447  25.310  29.607  1.00  0.00     0.029 A 
ATOM     51  C   UNL A   1      44.396  24.477  29.060  1.00  0.00     0.049 A 
ATOM     52  H   UNL A   1      42.395  25.044  29.432  1.00  0.00     0.167 HD
ATOM     53  C   UNL A   1      46.576  30.480  28.562  1.00  0.00     0.031 A 
ATOM     54  C   UNL A   1      44.418  23.621  27.990  1.00  0.00     0.031 A 
ATOM     55  C   UNL A   1      47.360  29.276  28.242  1.00  0.00     0.049 A 
ATOM     56  C   UNL A   1      45.463  24.046  26.994  1.00  0.00     0.074 A 
ATOM     57  C   UNL A   1      48.060  28.389  29.049  1.00  0.00     0.029 A 
ATOM     58  N   UNL A   1      47.222  28.642  27.009  1.00  0.00    -0.354 N 
ATOM     59  N   UNL A   1      46.113  25.168  27.094  1.00  0.00    -0.248 NA
ATOM     60  C   UNL A   1      45.853  23.286  25.811  1.00  0.00     0.031 C 
ATOM     61  C   UNL A   1      48.268  27.188  28.316  1.00  0.00     0.029 A 
ATOM     62  C   UNL A   1      47.729  27.354  27.052  1.00  0.00     0.049 A 
ATOM     63  H   UNL A   1      46.817  29.054  26.213  1.00  0.00     0.167 HD
ATOM     64  C   UNL A   1      46.939  25.332  26.029  1.00  0.00     0.074 A 
ATOM     65  C   UNL A   1      46.776  24.105  25.269  1.00  0.00     0.031 C 
ATOM     66  C   UNL A   1      47.658  26.482  25.879  1.00  0.00     0.031 A 
BRANCH  53  67
ATOM     67  C   UNL A   1      47.099  31.659  29.351  1.00  0.00    -0.014 A 
ATOM     68  C   UNL A   1      47.286  32.914  28.746  1.00  0.00     0.010 A 
ATOM     69  C   UNL A   1      47.377  31.585  30.734  1.00  0.00     0.010 A 
ATOM     70  C   UNL A   1      47.802  34.006  29.462  1.00  0.00     0.020 A 
ATOM     71  C   UNL A   1      47.956  32.641  31.444  1.00  0.00     0.020 A 
ATOM     72  C   UNL A   1      48.154  33.855  30.802  1.00  0.00     0.054 A 
BRANCH  72  73
ATOM     73  S   UNL A   1      48.804  35.276  31.716  1.00  0.00     0.124 S 
ATOM     74  O   UNL A   1      50.192  35.338  31.266  1.00  0.00    -0.237 OA
ATOM     75  O   UNL A   1      47.943  36.360  31.254  1.00  0.00    -0.237 OA
ATOM     76  O   UNL A   1      48.627  34.901  33.119  1.00  0.00    -0.744 OA
ENDBRANCH  72  73
ENDBRANCH  53  67
BRANCH  54  77
ATOM     77  C   UNL A   1      43.038  23.115  27.613  1.00  0.00    -0.014 A 
ATOM     78  C   UNL A   1      42.679  23.258  26.274  1.00  0.00     0.010 A 
ATOM     79  C   UNL A   1      42.676  21.882  28.104  1.00  0.00     0.010 A 
ATOM     80  C   UNL A   1      42.757  22.130  25.421  1.00  0.00     0.020 A 
ATOM     81  C   UNL A   1      42.683  20.790  27.192  1.00  0.00     0.020 A 
ATOM     82  C   UNL A   1      43.082  20.870  25.873  1.00  0.00     0.054 A 
BRANCH  82  83
ATOM     83  S   UNL A   1      44.335  19.472  24.793  1.00  0.00     0.124 S 
ATOM     84  O   UNL A   1      45.628  19.516  25.455  1.00  0.00    -0.237 OA
ATOM     85  O   UNL A   1      43.754  18.147  24.923  1.00  0.00    -0.237 OA
ATOM     86  O   UNL A   1      44.479  19.993  23.446  1.00  0.00    -0.744 OA
ENDBRANCH  82  83
ENDBRANCH  54  77
BRANCH  66  87
ATOM     87  C   UNL A   1      48.433  26.863  24.648  1.00  0.00    -0.014 A 
ATOM     88  C   UNL A   1      49.821  26.720  24.513  1.00  0.00     0.010 A 
ATOM     89  C   UNL A   1      47.717  27.301  23.509  1.00  0.00     0.010 A 
ATOM     90  C   UNL A   1      50.475  27.080  23.329  1.00  0.00     0.020 A 
ATOM     91  C   UNL A   1      48.351  27.606  22.305  1.00  0.00     0.020 A 
ATOM     92  C   UNL A   1      49.735  27.528  22.236  1.00  0.00     0.054 A 
BRANCH  92  93
ATOM     93  S   UNL A   1      50.596  27.968  20.711  1.00  0.00     0.124 S 
ATOM     94  O   UNL A   1      50.596  29.426  20.777  1.00  0.00    -0.237 OA
ATOM     95  O   UNL A   1      51.903  27.335  20.883  1.00  0.00    -0.237 OA
ATOM     96  O   UNL A   1      49.764  27.387  19.661  1.00  0.00    -0.744 OA
ENDBRANCH  92  93
ENDBRANCH  66  87
ENDBRANCH  40  41
ENDBRANCH  32  35
ENDBRANCH  30  31
ENDBRANCH   1  30
TORSDOF 15
ENDMDL
