MODEL 1
REMARK VINA RESULT:     -11.5      0.000      0.000
REMARK SMILES Cc1ccc(NC(=O)c2cccnc2C(=O)NCCCCNC(=O)c2ccc(-c3c4nc(c(-c5ccc(S(=O)(=O)[O-])cc5)c5ccc([nH]5)c(-c5ccc(S(=O)(=O)[O-])cc5)c5nc(c(-c6ccc(S(=O)(=O)[O-])cc6)c6ccc3[nH]6)C=C5)C=C4)cc2)nc1
REMARK SMILES IDX 20 1 19 2 18 3 17 4 15 5 16 6 14 8 9 9 10 10 11 11 13 12
REMARK SMILES IDX 12 13 7 14 6 15 8 17 5 18 1 19 2 20 3 21 86 22 4 23 85 24
REMARK SMILES IDX 21 25 22 26 23 27 24 29 25 30 26 31 84 32 27 33 83 34 28 35
REMARK SMILES IDX 29 36 30 37 77 38 31 39 82 40 76 41 78 42 32 43 81 44 75 45
REMARK SMILES IDX 74 46 33 48 63 49 44 50 62 51 45 52 48 53 61 54 79 55 46 56
REMARK SMILES IDX 47 57 60 59 80 60 49 61 34 62 35 63 43 64 36 65 42 66 37 67
REMARK SMILES IDX 38 68 39 69 40 70 41 71 64 72 65 73 73 74 66 75 72 76 67 77
REMARK SMILES IDX 68 78 69 79 70 80 71 81 50 82 51 83 59 84 52 85 58 86 53 87
REMARK SMILES IDX 54 88 55 89 56 90 57 91
REMARK H PARENT 17 7 6 16 22 28 78 47 48 58
REMARK Flexibility Score: inf
ROOT
ATOM      1  C   UNL A   1      33.674  28.239  25.874  1.00  0.00     0.023 C 
ENDROOT
BRANCH   1   2
ATOM      2  C   UNL A   1      32.808  27.091  25.360  1.00  0.00     0.023 C 
BRANCH   2   3
ATOM      3  C   UNL A   1      33.336  25.685  25.659  1.00  0.00     0.116 C 
BRANCH   3   4
ATOM      4  N   UNL A   1      33.076  24.804  24.540  1.00  0.00    -0.351 N 
ATOM      5  C   UNL A   1      33.774  23.760  23.979  1.00  0.00     0.270 C 
ATOM      6  O   UNL A   1      33.271  23.248  22.974  1.00  0.00    -0.267 OA
ATOM      7  H   UNL A   1      32.222  24.990  24.087  1.00  0.00     0.163 HD
BRANCH   5   8
ATOM      8  C   UNL A   1      35.010  23.135  24.566  1.00  0.00     0.140 A 
ATOM      9  C   UNL A   1      35.121  21.871  25.127  1.00  0.00     0.071 A 
ATOM     10  C   UNL A   1      36.355  21.484  25.689  1.00  0.00     0.018 A 
ATOM     11  C   UNL A   1      37.415  22.376  25.727  1.00  0.00     0.021 A 
ATOM     12  N   UNL A   1      36.076  23.999  24.566  1.00  0.00    -0.250 NA
ATOM     13  C   UNL A   1      37.221  23.622  25.172  1.00  0.00     0.112 A 
BRANCH   9  14
ATOM     14  C   UNL A   1      33.986  21.020  25.490  1.00  0.00     0.259 C 
ATOM     15  N   UNL A   1      33.444  20.297  24.442  1.00  0.00    -0.306 N 
ATOM     16  H   UNL A   1      33.127  20.765  23.636  1.00  0.00     0.171 HD
ATOM     17  O   UNL A   1      33.688  20.925  26.672  1.00  0.00    -0.269 OA
BRANCH  15  18
ATOM     18  C   UNL A   1      33.343  18.901  24.523  1.00  0.00     0.132 A 
ATOM     19  C   UNL A   1      33.096  14.779  25.495  1.00  0.00     0.046 C 
ATOM     20  C   UNL A   1      33.222  16.214  25.099  1.00  0.00    -0.033 A 
ATOM     21  C   UNL A   1      34.402  16.756  24.591  1.00  0.00     0.009 A 
ATOM     22  C   UNL A   1      32.150  17.073  25.275  1.00  0.00     0.117 A 
ATOM     23  C   UNL A   1      34.470  18.122  24.304  1.00  0.00     0.047 A 
ATOM     24  N   UNL A   1      32.195  18.389  25.005  1.00  0.00    -0.239 NA
ENDBRANCH  15  18
ENDBRANCH   9  14
ENDBRANCH   5   8
ENDBRANCH   3   4
ENDBRANCH   2   3
ENDBRANCH   1   2
BRANCH   1  25
ATOM     25  C   UNL A   1      33.474  28.579  27.341  1.00  0.00     0.116 C 
BRANCH  25  26
ATOM     26  N   UNL A   1      33.505  30.006  27.627  1.00  0.00    -0.352 N 
ATOM     27  C   UNL A   1      34.568  30.764  28.081  1.00  0.00     0.251 C 
ATOM     28  H   UNL A   1      32.663  30.494  27.477  1.00  0.00     0.163 HD
ATOM     29  O   UNL A   1      34.431  31.944  28.328  1.00  0.00    -0.269 OA
BRANCH  27  30
ATOM     30  C   UNL A   1      35.857  30.077  28.316  1.00  0.00     0.039 A 
ATOM     31  C   UNL A   1      36.825  30.103  27.310  1.00  0.00     0.014 A 
ATOM     32  C   UNL A   1      36.140  29.516  29.563  1.00  0.00     0.014 A 
ATOM     33  C   UNL A   1      38.112  29.640  27.587  1.00  0.00     0.010 A 
ATOM     34  C   UNL A   1      37.443  29.141  29.863  1.00  0.00     0.010 A 
ATOM     35  C   UNL A   1      38.443  29.201  28.879  1.00  0.00    -0.014 A 
BRANCH  35  36
ATOM     36  C   UNL A   1      39.825  28.793  29.231  1.00  0.00     0.031 A 
ATOM     37  C   UNL A   1      40.722  29.751  29.963  1.00  0.00     0.074 A 
ATOM     38  C   UNL A   1      40.295  27.596  28.827  1.00  0.00     0.049 A 
ATOM     39  N   UNL A   1      41.979  29.616  30.297  1.00  0.00    -0.248 NA
ATOM     40  C   UNL A   1      40.137  31.048  30.341  1.00  0.00     0.031 C 
ATOM     41  C   UNL A   1      39.540  26.594  28.069  1.00  0.00     0.029 A 
ATOM     42  N   UNL A   1      41.529  27.019  28.998  1.00  0.00    -0.354 N 
ATOM     43  C   UNL A   1      42.340  30.814  30.899  1.00  0.00     0.074 A 
ATOM     44  C   UNL A   1      41.187  31.686  30.830  1.00  0.00     0.031 C 
ATOM     45  C   UNL A   1      40.312  25.512  27.879  1.00  0.00     0.029 A 
ATOM     46  C   UNL A   1      41.627  25.756  28.463  1.00  0.00     0.049 A 
ATOM     47  H   UNL A   1      42.274  27.468  29.459  1.00  0.00     0.167 HD
ATOM     48  C   UNL A   1      43.514  31.154  31.480  1.00  0.00     0.031 A 
ATOM     49  C   UNL A   1      42.658  24.890  28.451  1.00  0.00     0.031 A 
ATOM     50  C   UNL A   1      44.652  30.280  31.563  1.00  0.00     0.049 A 
ATOM     51  C   UNL A   1      43.953  25.283  29.106  1.00  0.00     0.074 A 
ATOM     52  C   UNL A   1      45.872  30.507  32.173  1.00  0.00     0.029 A 
ATOM     53  N   UNL A   1      44.706  29.006  31.018  1.00  0.00    -0.354 N 
ATOM     54  N   UNL A   1      44.259  26.403  29.717  1.00  0.00    -0.248 NA
ATOM     55  C   UNL A   1      45.038  24.293  29.076  1.00  0.00     0.031 C 
ATOM     56  C   UNL A   1      46.677  29.381  31.968  1.00  0.00     0.029 A 
ATOM     57  C   UNL A   1      45.943  28.436  31.267  1.00  0.00     0.049 A 
ATOM     58  H   UNL A   1      43.973  28.570  30.525  1.00  0.00     0.167 HD
ATOM     59  C   UNL A   1      45.564  26.243  30.169  1.00  0.00     0.074 A 
ATOM     60  C   UNL A   1      45.985  24.915  29.768  1.00  0.00     0.031 C 
ATOM     61  C   UNL A   1      46.342  27.114  30.857  1.00  0.00     0.031 A 
BRANCH  48  62
ATOM     62  C   UNL A   1      43.608  32.538  32.066  1.00  0.00    -0.014 A 
ATOM     63  C   UNL A   1      43.240  32.783  33.402  1.00  0.00     0.010 A 
ATOM     64  C   UNL A   1      44.040  33.610  31.266  1.00  0.00     0.010 A 
ATOM     65  C   UNL A   1      43.235  34.085  33.907  1.00  0.00     0.020 A 
ATOM     66  C   UNL A   1      44.065  34.912  31.778  1.00  0.00     0.020 A 
ATOM     67  C   UNL A   1      43.634  35.144  33.087  1.00  0.00     0.054 A 
BRANCH  67  68
ATOM     68  S   UNL A   1      43.592  36.829  33.756  1.00  0.00     0.124 S 
ATOM     69  O   UNL A   1      43.774  37.633  32.549  1.00  0.00    -0.237 OA
ATOM     70  O   UNL A   1      42.267  36.904  34.365  1.00  0.00    -0.237 OA
ATOM     71  O   UNL A   1      44.710  36.855  34.696  1.00  0.00    -0.744 OA
ENDBRANCH  67  68
ENDBRANCH  48  62
BRANCH  49  72
ATOM     72  C   UNL A   1      42.486  23.543  27.844  1.00  0.00    -0.014 A 
ATOM     73  C   UNL A   1      42.783  23.341  26.485  1.00  0.00     0.010 A 
ATOM     74  C   UNL A   1      42.060  22.451  28.621  1.00  0.00     0.010 A 
ATOM     75  C   UNL A   1      42.651  22.073  25.910  1.00  0.00     0.020 A 
ATOM     76  C   UNL A   1      41.947  21.176  28.055  1.00  0.00     0.020 A 
ATOM     77  C   UNL A   1      42.237  20.998  26.701  1.00  0.00     0.054 A 
BRANCH  77  78
ATOM     78  S   UNL A   1      42.141  19.349  25.948  1.00  0.00     0.124 S 
ATOM     79  O   UNL A   1      42.969  19.511  24.756  1.00  0.00    -0.237 OA
ATOM     80  O   UNL A   1      42.694  18.492  26.992  1.00  0.00    -0.237 OA
ATOM     81  O   UNL A   1      40.713  19.171  25.699  1.00  0.00    -0.744 OA
ENDBRANCH  77  78
ENDBRANCH  49  72
BRANCH  61  82
ATOM     82  C   UNL A   1      47.718  26.649  31.250  1.00  0.00    -0.014 A 
ATOM     83  C   UNL A   1      47.955  26.059  32.503  1.00  0.00     0.010 A 
ATOM     84  C   UNL A   1      48.774  26.753  30.326  1.00  0.00     0.010 A 
ATOM     85  C   UNL A   1      49.233  25.602  32.836  1.00  0.00     0.020 A 
ATOM     86  C   UNL A   1      50.046  26.277  30.646  1.00  0.00     0.020 A 
ATOM     87  C   UNL A   1      50.271  25.716  31.905  1.00  0.00     0.054 A 
BRANCH  87  88
ATOM     88  S   UNL A   1      51.910  25.068  32.337  1.00  0.00     0.124 S 
ATOM     89  O   UNL A   1      51.712  23.628  32.201  1.00  0.00    -0.237 OA
ATOM     90  O   UNL A   1      52.775  25.683  31.332  1.00  0.00    -0.237 OA
ATOM     91  O   UNL A   1      52.119  25.542  33.703  1.00  0.00    -0.744 OA
ENDBRANCH  87  88
ENDBRANCH  61  82
ENDBRANCH  35  36
ENDBRANCH  27  30
ENDBRANCH  25  26
ENDBRANCH   1  25
TORSDOF 16
ENDMDL
MODEL 2
REMARK VINA RESULT:     -11.3      3.220     10.215
REMARK SMILES Cc1ccc(NC(=O)c2cccnc2C(=O)NCCCCNC(=O)c2ccc(-c3c4nc(c(-c5ccc(S(=O)(=O)[O-])cc5)c5ccc([nH]5)c(-c5ccc(S(=O)(=O)[O-])cc5)c5nc(c(-c6ccc(S(=O)(=O)[O-])cc6)c6ccc3[nH]6)C=C5)C=C4)cc2)nc1
REMARK SMILES IDX 20 1 19 2 18 3 17 4 15 5 16 6 14 8 9 9 10 10 11 11 13 12
REMARK SMILES IDX 12 13 7 14 6 15 8 17 5 18 1 19 2 20 3 21 86 22 4 23 85 24
REMARK SMILES IDX 21 25 22 26 23 27 24 29 25 30 26 31 84 32 27 33 83 34 28 35
REMARK SMILES IDX 29 36 30 37 77 38 31 39 82 40 76 41 78 42 32 43 81 44 75 45
REMARK SMILES IDX 74 46 33 48 63 49 44 50 62 51 45 52 48 53 61 54 79 55 46 56
REMARK SMILES IDX 47 57 60 59 80 60 49 61 34 62 35 63 43 64 36 65 42 66 37 67
REMARK SMILES IDX 38 68 39 69 40 70 41 71 64 72 65 73 73 74 66 75 72 76 67 77
REMARK SMILES IDX 68 78 69 79 70 80 71 81 50 82 51 83 59 84 52 85 58 86 53 87
REMARK SMILES IDX 54 88 55 89 56 90 57 91
REMARK H PARENT 17 7 6 16 22 28 78 47 48 58
REMARK Flexibility Score: inf
ROOT
ATOM      1  C   UNL A   1      35.784  23.010  25.129  1.00  0.00     0.023 C 
ENDROOT
BRANCH   1   2
ATOM      2  C   UNL A   1      34.688  23.819  25.820  1.00  0.00     0.023 C 
BRANCH   2   3
ATOM      3  C   UNL A   1      34.194  25.046  25.050  1.00  0.00     0.116 C 
BRANCH   3   4
ATOM      4  N   UNL A   1      32.755  25.162  25.163  1.00  0.00    -0.351 N 
ATOM      5  C   UNL A   1      31.920  26.173  25.578  1.00  0.00     0.270 C 
ATOM      6  O   UNL A   1      30.714  25.908  25.596  1.00  0.00    -0.267 OA
ATOM      7  H   UNL A   1      32.275  24.350  24.883  1.00  0.00     0.163 HD
BRANCH   5   8
ATOM      8  C   UNL A   1      32.354  27.580  25.882  1.00  0.00     0.140 A 
ATOM      9  C   UNL A   1      32.046  28.724  25.160  1.00  0.00     0.071 A 
ATOM     10  C   UNL A   1      32.604  29.953  25.565  1.00  0.00     0.018 A 
ATOM     11  C   UNL A   1      33.487  30.002  26.632  1.00  0.00     0.021 A 
ATOM     12  N   UNL A   1      33.194  27.640  26.965  1.00  0.00    -0.250 NA
ATOM     13  C   UNL A   1      33.764  28.821  27.285  1.00  0.00     0.112 A 
BRANCH   9  14
ATOM     14  C   UNL A   1      31.462  28.727  23.817  1.00  0.00     0.259 C 
ATOM     15  N   UNL A   1      30.079  28.673  23.785  1.00  0.00    -0.306 N 
ATOM     16  H   UNL A   1      29.607  27.936  24.236  1.00  0.00     0.171 HD
ATOM     17  O   UNL A   1      32.206  28.891  22.861  1.00  0.00    -0.269 OA
BRANCH  15  18
ATOM     18  C   UNL A   1      29.348  29.662  23.113  1.00  0.00     0.132 A 
ATOM     19  C   UNL A   1      27.769  32.807  20.743  1.00  0.00     0.046 C 
ATOM     20  C   UNL A   1      28.287  31.722  21.630  1.00  0.00    -0.033 A 
ATOM     21  C   UNL A   1      28.573  31.923  22.980  1.00  0.00     0.009 A 
ATOM     22  C   UNL A   1      28.544  30.467  21.104  1.00  0.00     0.117 A 
ATOM     23  C   UNL A   1      29.118  30.881  23.736  1.00  0.00     0.047 A 
ATOM     24  N   UNL A   1      29.067  29.452  21.813  1.00  0.00    -0.239 NA
ENDBRANCH  15  18
ENDBRANCH   9  14
ENDBRANCH   5   8
ENDBRANCH   3   4
ENDBRANCH   2   3
ENDBRANCH   1   2
BRANCH   1  25
ATOM     25  C   UNL A   1      37.153  23.667  25.124  1.00  0.00     0.116 C 
BRANCH  25  26
ATOM     26  N   UNL A   1      38.245  22.762  25.453  1.00  0.00    -0.352 N 
ATOM     27  C   UNL A   1      39.357  23.014  26.234  1.00  0.00     0.251 C 
ATOM     28  H   UNL A   1      38.183  21.857  25.073  1.00  0.00     0.163 HD
ATOM     29  O   UNL A   1      40.219  22.173  26.381  1.00  0.00    -0.269 OA
BRANCH  27  30
ATOM     30  C   UNL A   1      39.491  24.361  26.834  1.00  0.00     0.039 A 
ATOM     31  C   UNL A   1      39.005  24.572  28.126  1.00  0.00     0.014 A 
ATOM     32  C   UNL A   1      40.193  25.364  26.164  1.00  0.00     0.014 A 
ATOM     33  C   UNL A   1      39.302  25.768  28.781  1.00  0.00     0.010 A 
ATOM     34  C   UNL A   1      40.563  26.513  26.850  1.00  0.00     0.010 A 
ATOM     35  C   UNL A   1      40.124  26.726  28.166  1.00  0.00    -0.014 A 
BRANCH  35  36
ATOM     36  C   UNL A   1      40.536  27.965  28.871  1.00  0.00     0.031 A 
ATOM     37  C   UNL A   1      41.908  28.056  29.477  1.00  0.00     0.074 A 
ATOM     38  C   UNL A   1      39.653  28.971  29.032  1.00  0.00     0.049 A 
ATOM     39  N   UNL A   1      42.433  29.016  30.194  1.00  0.00    -0.248 NA
ATOM     40  C   UNL A   1      42.797  26.899  29.279  1.00  0.00     0.031 C 
ATOM     41  C   UNL A   1      38.276  28.986  28.532  1.00  0.00     0.029 A 
ATOM     42  N   UNL A   1      39.787  30.180  29.667  1.00  0.00    -0.354 N 
ATOM     43  C   UNL A   1      43.698  28.570  30.552  1.00  0.00     0.074 A 
ATOM     44  C   UNL A   1      43.840  27.230  30.024  1.00  0.00     0.031 C 
ATOM     45  C   UNL A   1      37.708  30.163  28.842  1.00  0.00     0.029 A 
ATOM     46  C   UNL A   1      38.663  30.969  29.596  1.00  0.00     0.049 A 
ATOM     47  H   UNL A   1      40.610  30.457  30.131  1.00  0.00     0.167 HD
ATOM     48  C   UNL A   1      44.669  29.222  31.234  1.00  0.00     0.031 A 
ATOM     49  C   UNL A   1      38.430  32.204  30.078  1.00  0.00     0.031 A 
ATOM     50  C   UNL A   1      44.533  30.559  31.742  1.00  0.00     0.049 A 
ATOM     51  C   UNL A   1      39.522  32.915  30.830  1.00  0.00     0.074 A 
ATOM     52  C   UNL A   1      45.471  31.331  32.404  1.00  0.00     0.029 A 
ATOM     53  N   UNL A   1      43.381  31.326  31.640  1.00  0.00    -0.354 N 
ATOM     54  N   UNL A   1      40.732  32.497  31.114  1.00  0.00    -0.248 NA
ATOM     55  C   UNL A   1      39.217  34.267  31.320  1.00  0.00     0.031 C 
ATOM     56  C   UNL A   1      44.875  32.554  32.732  1.00  0.00     0.029 A 
ATOM     57  C   UNL A   1      43.580  32.560  32.236  1.00  0.00     0.049 A 
ATOM     58  H   UNL A   1      42.546  31.037  31.207  1.00  0.00     0.167 HD
ATOM     59  C   UNL A   1      41.345  33.544  31.792  1.00  0.00     0.074 A 
ATOM     60  C   UNL A   1      40.374  34.618  31.868  1.00  0.00     0.031 C 
ATOM     61  C   UNL A   1      42.599  33.613  32.302  1.00  0.00     0.031 A 
BRANCH  48  62
ATOM     62  C   UNL A   1      45.957  28.477  31.464  1.00  0.00    -0.014 A 
ATOM     63  C   UNL A   1      47.060  28.661  30.609  1.00  0.00     0.010 A 
ATOM     64  C   UNL A   1      46.059  27.562  32.527  1.00  0.00     0.010 A 
ATOM     65  C   UNL A   1      48.215  27.893  30.769  1.00  0.00     0.020 A 
ATOM     66  C   UNL A   1      47.226  26.813  32.709  1.00  0.00     0.020 A 
ATOM     67  C   UNL A   1      48.285  26.964  31.811  1.00  0.00     0.054 A 
BRANCH  67  68
ATOM     68  S   UNL A   1      49.785  25.958  31.982  1.00  0.00     0.124 S 
ATOM     69  O   UNL A   1      49.569  25.320  33.279  1.00  0.00    -0.237 OA
ATOM     70  O   UNL A   1      49.713  25.068  30.826  1.00  0.00    -0.237 OA
ATOM     71  O   UNL A   1      50.866  26.940  31.943  1.00  0.00    -0.744 OA
ENDBRANCH  67  68
ENDBRANCH  48  62
BRANCH  49  72
ATOM     72  C   UNL A   1      37.126  32.869  29.814  1.00  0.00    -0.014 A 
ATOM     73  C   UNL A   1      36.159  32.949  30.832  1.00  0.00     0.010 A 
ATOM     74  C   UNL A   1      36.854  33.452  28.564  1.00  0.00     0.010 A 
ATOM     75  C   UNL A   1      34.940  33.595  30.603  1.00  0.00     0.020 A 
ATOM     76  C   UNL A   1      35.644  34.118  28.338  1.00  0.00     0.020 A 
ATOM     77  C   UNL A   1      34.692  34.179  29.358  1.00  0.00     0.054 A 
BRANCH  77  78
ATOM     78  S   UNL A   1      33.131  35.071  29.110  1.00  0.00     0.124 S 
ATOM     79  O   UNL A   1      33.597  36.366  28.623  1.00  0.00    -0.237 OA
ATOM     80  O   UNL A   1      32.441  34.236  28.131  1.00  0.00    -0.237 OA
ATOM     81  O   UNL A   1      32.530  35.082  30.442  1.00  0.00    -0.744 OA
ENDBRANCH  77  78
ENDBRANCH  49  72
BRANCH  61  82
ATOM     82  C   UNL A   1      43.006  34.903  32.961  1.00  0.00    -0.014 A 
ATOM     83  C   UNL A   1      42.835  35.099  34.342  1.00  0.00     0.010 A 
ATOM     84  C   UNL A   1      43.621  35.909  32.193  1.00  0.00     0.010 A 
ATOM     85  C   UNL A   1      43.251  36.291  34.941  1.00  0.00     0.020 A 
ATOM     86  C   UNL A   1      44.059  37.091  32.792  1.00  0.00     0.020 A 
ATOM     87  C   UNL A   1      43.860  37.280  34.162  1.00  0.00     0.054 A 
BRANCH  87  88
ATOM     88  S   UNL A   1      44.440  38.797  34.969  1.00  0.00     0.124 S 
ATOM     89  O   UNL A   1      45.842  38.839  34.563  1.00  0.00    -0.237 OA
ATOM     90  O   UNL A   1      43.583  39.824  34.380  1.00  0.00    -0.237 OA
ATOM     91  O   UNL A   1      44.209  38.543  36.389  1.00  0.00    -0.744 OA
ENDBRANCH  87  88
ENDBRANCH  61  82
ENDBRANCH  35  36
ENDBRANCH  27  30
ENDBRANCH  25  26
ENDBRANCH   1  25
TORSDOF 16
ENDMDL
MODEL 3
REMARK VINA RESULT:     -11.1      3.432      9.062
REMARK SMILES Cc1ccc(NC(=O)c2cccnc2C(=O)NCCCCNC(=O)c2ccc(-c3c4nc(c(-c5ccc(S(=O)(=O)[O-])cc5)c5ccc([nH]5)c(-c5ccc(S(=O)(=O)[O-])cc5)c5nc(c(-c6ccc(S(=O)(=O)[O-])cc6)c6ccc3[nH]6)C=C5)C=C4)cc2)nc1
REMARK SMILES IDX 20 1 19 2 18 3 17 4 15 5 16 6 14 8 9 9 10 10 11 11 13 12
REMARK SMILES IDX 12 13 7 14 6 15 8 17 5 18 1 19 2 20 3 21 86 22 4 23 85 24
REMARK SMILES IDX 21 25 22 26 23 27 24 29 25 30 26 31 84 32 27 33 83 34 28 35
REMARK SMILES IDX 29 36 30 37 77 38 31 39 82 40 76 41 78 42 32 43 81 44 75 45
REMARK SMILES IDX 74 46 33 48 63 49 44 50 62 51 45 52 48 53 61 54 79 55 46 56
REMARK SMILES IDX 47 57 60 59 80 60 49 61 34 62 35 63 43 64 36 65 42 66 37 67
REMARK SMILES IDX 38 68 39 69 40 70 41 71 64 72 65 73 73 74 66 75 72 76 67 77
REMARK SMILES IDX 68 78 69 79 70 80 71 81 50 82 51 83 59 84 52 85 58 86 53 87
REMARK SMILES IDX 54 88 55 89 56 90 57 91
REMARK H PARENT 17 7 6 16 22 28 78 47 48 58
REMARK Flexibility Score: inf
ROOT
ATOM      1  C   UNL A   1      37.768  20.984  25.460  1.00  0.00     0.023 C 
ENDROOT
BRANCH   1   2
ATOM      2  C   UNL A   1      37.231  22.123  24.596  1.00  0.00     0.023 C 
BRANCH   2   3
ATOM      3  C   UNL A   1      36.342  23.135  25.323  1.00  0.00     0.116 C 
BRANCH   3   4
ATOM      4  N   UNL A   1      35.643  23.967  24.367  1.00  0.00    -0.351 N 
ATOM      5  C   UNL A   1      34.311  24.185  24.101  1.00  0.00     0.270 C 
ATOM      6  O   UNL A   1      34.063  24.940  23.156  1.00  0.00    -0.267 OA
ATOM      7  H   UNL A   1      36.246  24.485  23.786  1.00  0.00     0.163 HD
BRANCH   5   8
ATOM      8  C   UNL A   1      33.171  23.681  24.942  1.00  0.00     0.140 A 
ATOM      9  C   UNL A   1      32.714  22.375  25.034  1.00  0.00     0.071 A 
ATOM     10  C   UNL A   1      31.582  22.106  25.829  1.00  0.00     0.018 A 
ATOM     11  C   UNL A   1      30.909  23.141  26.459  1.00  0.00     0.021 A 
ATOM     12  N   UNL A   1      32.528  24.697  25.603  1.00  0.00    -0.250 NA
ATOM     13  C   UNL A   1      31.408  24.415  26.301  1.00  0.00     0.112 A 
BRANCH   9  14
ATOM     14  C   UNL A   1      33.094  21.295  24.121  1.00  0.00     0.259 C 
ATOM     15  N   UNL A   1      33.989  20.378  24.645  1.00  0.00    -0.306 N 
ATOM     16  H   UNL A   1      34.852  20.686  25.004  1.00  0.00     0.171 HD
ATOM     17  O   UNL A   1      32.523  21.220  23.041  1.00  0.00    -0.269 OA
BRANCH  15  18
ATOM     18  C   UNL A   1      33.671  19.013  24.668  1.00  0.00     0.132 A 
ATOM     19  C   UNL A   1      32.826  14.931  25.457  1.00  0.00     0.046 C 
ATOM     20  C   UNL A   1      33.156  16.349  25.122  1.00  0.00    -0.033 A 
ATOM     21  C   UNL A   1      34.376  16.728  24.562  1.00  0.00     0.009 A 
ATOM     22  C   UNL A   1      32.247  17.354  25.410  1.00  0.00     0.117 A 
ATOM     23  C   UNL A   1      34.644  18.081  24.336  1.00  0.00     0.047 A 
ATOM     24  N   UNL A   1      32.486  18.660  25.200  1.00  0.00    -0.239 NA
ENDBRANCH  15  18
ENDBRANCH   9  14
ENDBRANCH   5   8
ENDBRANCH   3   4
ENDBRANCH   2   3
ENDBRANCH   1   2
BRANCH   1  25
ATOM     25  C   UNL A   1      39.193  21.177  25.953  1.00  0.00     0.116 C 
BRANCH  25  26
ATOM     26  N   UNL A   1      39.992  19.960  25.941  1.00  0.00    -0.352 N 
ATOM     27  C   UNL A   1      41.354  19.831  26.138  1.00  0.00     0.251 C 
ATOM     28  H   UNL A   1      39.501  19.124  25.772  1.00  0.00     0.163 HD
ATOM     29  O   UNL A   1      41.897  18.749  26.047  1.00  0.00    -0.269 OA
BRANCH  27  30
ATOM     30  C   UNL A   1      42.134  21.059  26.403  1.00  0.00     0.039 A 
ATOM     31  C   UNL A   1      42.502  21.866  25.324  1.00  0.00     0.014 A 
ATOM     32  C   UNL A   1      42.394  21.460  27.715  1.00  0.00     0.014 A 
ATOM     33  C   UNL A   1      43.057  23.124  25.569  1.00  0.00     0.010 A 
ATOM     34  C   UNL A   1      42.860  22.746  27.956  1.00  0.00     0.010 A 
ATOM     35  C   UNL A   1      43.195  23.591  26.886  1.00  0.00    -0.014 A 
BRANCH  35  36
ATOM     36  C   UNL A   1      43.692  24.958  27.177  1.00  0.00     0.031 A 
ATOM     37  C   UNL A   1      45.139  25.291  26.943  1.00  0.00     0.074 A 
ATOM     38  C   UNL A   1      42.865  25.872  27.723  1.00  0.00     0.049 A 
ATOM     39  N   UNL A   1      45.785  26.399  27.202  1.00  0.00    -0.248 NA
ATOM     40  C   UNL A   1      45.979  24.225  26.373  1.00  0.00     0.031 C 
ATOM     41  C   UNL A   1      41.451  25.659  28.042  1.00  0.00     0.029 A 
ATOM     42  N   UNL A   1      43.098  27.169  28.107  1.00  0.00    -0.354 N 
ATOM     43  C   UNL A   1      47.106  26.155  26.850  1.00  0.00     0.074 A 
ATOM     44  C   UNL A   1      47.181  24.777  26.417  1.00  0.00     0.031 C 
ATOM     45  C   UNL A   1      40.934  26.797  28.533  1.00  0.00     0.029 A 
ATOM     46  C   UNL A   1      41.985  27.807  28.601  1.00  0.00     0.049 A 
ATOM     47  H   UNL A   1      43.979  27.602  28.036  1.00  0.00     0.167 HD
ATOM     48  C   UNL A   1      48.160  27.005  26.860  1.00  0.00     0.031 A 
ATOM     49  C   UNL A   1      41.827  29.066  29.052  1.00  0.00     0.031 A 
ATOM     50  C   UNL A   1      48.079  28.379  27.273  1.00  0.00     0.049 A 
ATOM     51  C   UNL A   1      43.009  29.998  29.051  1.00  0.00     0.074 A 
ATOM     52  C   UNL A   1      49.074  29.339  27.275  1.00  0.00     0.029 A 
ATOM     53  N   UNL A   1      46.931  28.989  27.757  1.00  0.00    -0.354 N 
ATOM     54  N   UNL A   1      44.240  29.764  28.665  1.00  0.00    -0.248 NA
ATOM     55  C   UNL A   1      42.775  31.364  29.539  1.00  0.00     0.031 C 
ATOM     56  C   UNL A   1      48.535  30.523  27.793  1.00  0.00     0.029 A 
ATOM     57  C   UNL A   1      47.194  30.311  28.072  1.00  0.00     0.049 A 
ATOM     58  H   UNL A   1      46.057  28.546  27.862  1.00  0.00     0.167 HD
ATOM     59  C   UNL A   1      44.924  30.962  28.839  1.00  0.00     0.074 A 
ATOM     60  C   UNL A   1      43.966  31.919  29.356  1.00  0.00     0.031 C 
ATOM     61  C   UNL A   1      46.226  31.245  28.588  1.00  0.00     0.031 A 
BRANCH  48  62
ATOM     62  C   UNL A   1      49.484  26.452  26.407  1.00  0.00    -0.014 A 
ATOM     63  C   UNL A   1      50.298  25.714  27.287  1.00  0.00     0.010 A 
ATOM     64  C   UNL A   1      49.936  26.695  25.098  1.00  0.00     0.010 A 
ATOM     65  C   UNL A   1      51.568  25.290  26.890  1.00  0.00     0.020 A 
ATOM     66  C   UNL A   1      51.196  26.246  24.687  1.00  0.00     0.020 A 
ATOM     67  C   UNL A   1      52.015  25.572  25.596  1.00  0.00     0.054 A 
BRANCH  67  68
ATOM     68  S   UNL A   1      53.678  25.037  25.112  1.00  0.00     0.124 S 
ATOM     69  O   UNL A   1      54.492  25.568  26.204  1.00  0.00    -0.237 OA
ATOM     70  O   UNL A   1      53.554  23.582  25.073  1.00  0.00    -0.237 OA
ATOM     71  O   UNL A   1      53.883  25.676  23.814  1.00  0.00    -0.744 OA
ENDBRANCH  67  68
ENDBRANCH  48  62
BRANCH  49  72
ATOM     72  C   UNL A   1      40.485  29.534  29.489  1.00  0.00    -0.014 A 
ATOM     73  C   UNL A   1      40.184  29.627  30.859  1.00  0.00     0.010 A 
ATOM     74  C   UNL A   1      39.514  29.920  28.548  1.00  0.00     0.010 A 
ATOM     75  C   UNL A   1      38.935  30.092  31.282  1.00  0.00     0.020 A 
ATOM     76  C   UNL A   1      38.271  30.405  28.967  1.00  0.00     0.020 A 
ATOM     77  C   UNL A   1      37.987  30.481  30.333  1.00  0.00     0.054 A 
BRANCH  77  78
ATOM     78  S   UNL A   1      36.399  31.145  30.909  1.00  0.00     0.124 S 
ATOM     79  O   UNL A   1      36.791  32.446  31.443  1.00  0.00    -0.237 OA
ATOM     80  O   UNL A   1      35.606  31.175  29.683  1.00  0.00    -0.237 OA
ATOM     81  O   UNL A   1      35.961  30.166  31.901  1.00  0.00    -0.744 OA
ENDBRANCH  77  78
ENDBRANCH  49  72
BRANCH  61  82
ATOM     82  C   UNL A   1      46.686  32.656  28.839  1.00  0.00    -0.014 A 
ATOM     83  C   UNL A   1      46.585  33.641  27.842  1.00  0.00     0.010 A 
ATOM     84  C   UNL A   1      47.172  33.009  30.111  1.00  0.00     0.010 A 
ATOM     85  C   UNL A   1      46.986  34.954  28.106  1.00  0.00     0.020 A 
ATOM     86  C   UNL A   1      47.552  34.324  30.386  1.00  0.00     0.020 A 
ATOM     87  C   UNL A   1      47.468  35.286  29.377  1.00  0.00     0.054 A 
BRANCH  87  88
ATOM     88  S   UNL A   1      47.933  37.007  29.714  1.00  0.00     0.124 S 
ATOM     89  O   UNL A   1      46.976  37.745  28.895  1.00  0.00    -0.237 OA
ATOM     90  O   UNL A   1      47.742  37.116  31.158  1.00  0.00    -0.237 OA
ATOM     91  O   UNL A   1      49.323  37.083  29.269  1.00  0.00    -0.744 OA
ENDBRANCH  87  88
ENDBRANCH  61  82
ENDBRANCH  35  36
ENDBRANCH  27  30
ENDBRANCH  25  26
ENDBRANCH   1  25
TORSDOF 16
ENDMDL
