MODEL 1
REMARK VINA RESULT:     -12.3      0.000      0.000
REMARK SMILES Cc1cccc(-c2ccccc2C(=O)N2CC[C@H](O)C[C@@H]2C(=O)NCCCCNC(=O)c2ccc(-c3c4nc(c(-c5ccc(S(=O)(=O)[O-])cc5)c5ccc([nH]5)c(-c5ccc(S(=O)(=O)[O-])cc5)c5nc(c(-c6ccc(S(=O)(=O)[O-])cc6)c6ccc3[nH]6)C=C5)C=C4)cc2)c1
REMARK SMILES IDX 26 1 25 2 24 3 22 4 23 5 21 7 15 8 16 9 17 10 20 11 18 12
REMARK SMILES IDX 13 13 14 14 12 15 7 16 8 17 9 18 11 19 10 20 6 21 1 22 2 23
REMARK SMILES IDX 3 24 92 25 4 26 5 27 19 28 27 30 28 31 29 32 30 33 31 35
REMARK SMILES IDX 32 36 33 37 91 38 34 39 90 40 35 41 36 42 37 43 84 44 38 45
REMARK SMILES IDX 89 46 83 47 85 48 39 49 88 50 82 51 81 52 40 54 70 55 51 56
REMARK SMILES IDX 69 57 52 58 55 59 68 60 86 61 53 62 54 63 67 65 87 66 56 67
REMARK SMILES IDX 41 68 42 69 50 70 43 71 49 72 44 73 45 74 46 75 47 76 48 77
REMARK SMILES IDX 71 78 72 79 80 80 73 81 79 82 74 83 75 84 76 85 77 86 78 87
REMARK SMILES IDX 57 88 58 89 66 90 59 91 65 92 60 93 61 94 62 95 63 96 64 97
REMARK H PARENT 24 6 19 29 29 34 85 53 55 64
REMARK Flexibility Score: inf
ROOT
ATOM      1  C   UNL A   1      38.621  20.650  25.211  1.00  0.00     0.023 C 
ENDROOT
BRANCH   1   2
ATOM      2  C   UNL A   1      37.267  21.217  24.796  1.00  0.00     0.116 C 
BRANCH   2   3
ATOM      3  N   UNL A   1      36.296  21.075  25.860  1.00  0.00    -0.354 N 
ATOM      4  C   UNL A   1      35.027  21.551  25.948  1.00  0.00     0.242 C 
ATOM      5  O   UNL A   1      34.467  21.455  27.045  1.00  0.00    -0.273 OA
ATOM      6  H   UNL A   1      36.603  20.555  26.639  1.00  0.00     0.163 HD
BRANCH   4   7
ATOM      7  C   UNL A   1      34.354  22.248  24.745  1.00  0.00     0.177 C 
ATOM      8  N   UNL A   1      33.651  23.478  25.171  1.00  0.00    -0.326 N 
ATOM      9  C   UNL A   1      32.418  23.280  25.925  1.00  0.00     0.123 C 
ATOM     10  C   UNL A   1      31.436  22.421  25.136  1.00  0.00     0.053 C 
ATOM     11  C   UNL A   1      33.412  21.282  24.010  1.00  0.00     0.067 C 
ATOM     12  C   UNL A   1      32.045  21.101  24.675  1.00  0.00     0.118 C 
BRANCH   8  13
ATOM     13  C   UNL A   1      34.164  24.708  24.739  1.00  0.00     0.255 C 
ATOM     14  O   UNL A   1      35.066  25.242  25.387  1.00  0.00    -0.269 OA
BRANCH  13  15
ATOM     15  C   UNL A   1      33.528  25.497  23.611  1.00  0.00     0.047 A 
ATOM     16  C   UNL A   1      32.634  26.565  23.894  1.00  0.00    -0.006 A 
ATOM     17  C   UNL A   1      31.756  26.996  22.873  1.00  0.00     0.009 A 
ATOM     18  C   UNL A   1      31.759  26.416  21.605  1.00  0.00     0.001 A 
ATOM     19  C   UNL A   1      33.563  24.981  22.298  1.00  0.00     0.014 A 
ATOM     20  C   UNL A   1      32.679  25.425  21.310  1.00  0.00     0.001 A 
BRANCH  16  21
ATOM     21  C   UNL A   1      32.574  27.273  25.187  1.00  0.00    -0.017 A 
ATOM     22  C   UNL A   1      34.702  29.737  27.182  1.00  0.00     0.044 C 
ATOM     23  C   UNL A   1      33.565  28.848  26.777  1.00  0.00    -0.051 A 
ATOM     24  C   UNL A   1      32.454  28.699  27.612  1.00  0.00     0.003 A 
ATOM     25  C   UNL A   1      33.611  28.140  25.568  1.00  0.00     0.012 A 
ATOM     26  C   UNL A   1      31.412  27.847  27.251  1.00  0.00     0.001 A 
ATOM     27  C   UNL A   1      31.472  27.139  26.049  1.00  0.00     0.009 A 
ENDBRANCH  16  21
ENDBRANCH  13  15
ENDBRANCH   8  13
BRANCH  12  28
ATOM     28  O   UNL A   1      32.060  20.179  25.761  1.00  0.00    -0.393 OA
ATOM     29  H   UNL A   1      32.747  20.437  26.394  1.00  0.00     0.210 HD
ENDBRANCH  12  28
ENDBRANCH   4   7
ENDBRANCH   2   3
ENDBRANCH   1   2
BRANCH   1  30
ATOM     30  C   UNL A   1      39.446  21.448  26.227  1.00  0.00     0.023 C 
BRANCH  30  31
ATOM     31  C   UNL A   1      40.926  21.169  26.152  1.00  0.00     0.116 C 
BRANCH  31  32
ATOM     32  N   UNL A   1      41.618  22.074  27.021  1.00  0.00    -0.352 N 
ATOM     33  C   UNL A   1      41.381  23.345  27.420  1.00  0.00     0.251 C 
ATOM     34  H   UNL A   1      42.438  21.690  27.407  1.00  0.00     0.163 HD
ATOM     35  O   UNL A   1      42.151  23.716  28.296  1.00  0.00    -0.269 OA
BRANCH  33  36
ATOM     36  C   UNL A   1      40.145  24.111  27.010  1.00  0.00     0.039 A 
ATOM     37  C   UNL A   1      40.512  25.140  26.133  1.00  0.00     0.014 A 
ATOM     38  C   UNL A   1      39.344  24.444  28.100  1.00  0.00     0.014 A 
ATOM     39  C   UNL A   1      40.715  26.394  26.672  1.00  0.00     0.010 A 
ATOM     40  C   UNL A   1      39.630  25.629  28.713  1.00  0.00     0.010 A 
ATOM     41  C   UNL A   1      40.412  26.547  28.013  1.00  0.00    -0.014 A 
BRANCH  41  42
ATOM     42  C   UNL A   1      40.863  27.654  28.810  1.00  0.00     0.031 A 
ATOM     43  C   UNL A   1      40.058  28.864  28.676  1.00  0.00     0.074 A 
ATOM     44  C   UNL A   1      41.827  27.354  29.705  1.00  0.00     0.049 A 
ATOM     45  N   UNL A   1      40.423  30.035  29.035  1.00  0.00    -0.248 NA
ATOM     46  C   UNL A   1      38.747  28.852  28.014  1.00  0.00     0.031 C 
ATOM     47  C   UNL A   1      42.302  28.055  30.888  1.00  0.00     0.029 A 
ATOM     48  N   UNL A   1      42.794  26.365  29.492  1.00  0.00    -0.354 N 
ATOM     49  C   UNL A   1      39.270  30.789  29.065  1.00  0.00     0.074 A 
ATOM     50  C   UNL A   1      38.322  30.093  28.241  1.00  0.00     0.031 C 
ATOM     51  C   UNL A   1      43.580  27.679  31.118  1.00  0.00     0.029 A 
ATOM     52  C   UNL A   1      44.003  26.881  29.966  1.00  0.00     0.049 A 
ATOM     53  H   UNL A   1      42.652  25.479  29.088  1.00  0.00     0.167 HD
ATOM     54  C   UNL A   1      39.186  31.775  29.998  1.00  0.00     0.031 A 
ATOM     55  C   UNL A   1      44.914  27.308  29.034  1.00  0.00     0.031 A 
ATOM     56  C   UNL A   1      40.469  31.902  30.697  1.00  0.00     0.049 A 
ATOM     57  C   UNL A   1      45.092  28.830  29.070  1.00  0.00     0.074 A 
ATOM     58  C   UNL A   1      40.936  31.478  31.931  1.00  0.00     0.029 A 
ATOM     59  N   UNL A   1      41.598  32.141  29.928  1.00  0.00    -0.354 N 
ATOM     60  N   UNL A   1      44.210  29.689  29.518  1.00  0.00    -0.248 NA
ATOM     61  C   UNL A   1      46.310  29.490  28.614  1.00  0.00     0.031 C 
ATOM     62  C   UNL A   1      42.366  31.437  31.870  1.00  0.00     0.029 A 
ATOM     63  C   UNL A   1      42.760  31.839  30.605  1.00  0.00     0.049 A 
ATOM     64  H   UNL A   1      41.572  32.484  29.005  1.00  0.00     0.167 HD
ATOM     65  C   UNL A   1      44.715  30.966  29.463  1.00  0.00     0.074 A 
ATOM     66  C   UNL A   1      46.019  30.784  28.839  1.00  0.00     0.031 C 
ATOM     67  C   UNL A   1      44.031  32.066  29.922  1.00  0.00     0.031 A 
BRANCH  54  68
ATOM     68  C   UNL A   1      37.886  32.383  30.461  1.00  0.00    -0.014 A 
ATOM     69  C   UNL A   1      37.149  33.178  29.563  1.00  0.00     0.010 A 
ATOM     70  C   UNL A   1      37.345  32.249  31.757  1.00  0.00     0.010 A 
ATOM     71  C   UNL A   1      35.969  33.834  29.944  1.00  0.00     0.020 A 
ATOM     72  C   UNL A   1      36.180  32.919  32.161  1.00  0.00     0.020 A 
ATOM     73  C   UNL A   1      35.495  33.706  31.247  1.00  0.00     0.054 A 
BRANCH  73  74
ATOM     74  S   UNL A   1      33.960  34.546  31.711  1.00  0.00     0.124 S 
ATOM     75  O   UNL A   1      33.270  34.670  30.430  1.00  0.00    -0.237 OA
ATOM     76  O   UNL A   1      33.367  33.606  32.658  1.00  0.00    -0.237 OA
ATOM     77  O   UNL A   1      34.414  35.808  32.292  1.00  0.00    -0.744 OA
ENDBRANCH  73  74
ENDBRANCH  54  68
BRANCH  55  78
ATOM     78  C   UNL A   1      44.973  26.449  27.782  1.00  0.00    -0.014 A 
ATOM     79  C   UNL A   1      45.781  25.280  27.769  1.00  0.00     0.010 A 
ATOM     80  C   UNL A   1      44.053  26.594  26.732  1.00  0.00     0.010 A 
ATOM     81  C   UNL A   1      45.602  24.256  26.813  1.00  0.00     0.020 A 
ATOM     82  C   UNL A   1      43.870  25.568  25.772  1.00  0.00     0.020 A 
ATOM     83  C   UNL A   1      44.608  24.380  25.844  1.00  0.00     0.054 A 
BRANCH  83  84
ATOM     84  S   UNL A   1      44.280  22.995  24.683  1.00  0.00     0.124 S 
ATOM     85  O   UNL A   1      45.303  23.187  23.658  1.00  0.00    -0.237 OA
ATOM     86  O   UNL A   1      44.427  21.779  25.477  1.00  0.00    -0.237 OA
ATOM     87  O   UNL A   1      42.909  23.250  24.241  1.00  0.00    -0.744 OA
ENDBRANCH  83  84
ENDBRANCH  55  78
BRANCH  67  88
ATOM     88  C   UNL A   1      44.433  33.520  29.710  1.00  0.00    -0.014 A 
ATOM     89  C   UNL A   1      44.582  34.470  30.723  1.00  0.00     0.010 A 
ATOM     90  C   UNL A   1      44.660  33.984  28.385  1.00  0.00     0.010 A 
ATOM     91  C   UNL A   1      45.062  35.762  30.444  1.00  0.00     0.020 A 
ATOM     92  C   UNL A   1      45.126  35.262  28.089  1.00  0.00     0.020 A 
ATOM     93  C   UNL A   1      45.354  36.140  29.131  1.00  0.00     0.054 A 
BRANCH  93  94
ATOM     94  S   UNL A   1      46.000  37.792  28.797  1.00  0.00     0.124 S 
ATOM     95  O   UNL A   1      47.218  37.503  28.044  1.00  0.00    -0.237 OA
ATOM     96  O   UNL A   1      44.914  38.395  28.030  1.00  0.00    -0.237 OA
ATOM     97  O   UNL A   1      46.214  38.362  30.126  1.00  0.00    -0.744 OA
ENDBRANCH  93  94
ENDBRANCH  67  88
ENDBRANCH  41  42
ENDBRANCH  33  36
ENDBRANCH  31  32
ENDBRANCH  30  31
ENDBRANCH   1  30
TORSDOF 18
ENDMDL
MODEL 2
REMARK VINA RESULT:     -11.9      3.600      9.582
REMARK SMILES Cc1cccc(-c2ccccc2C(=O)N2CC[C@H](O)C[C@@H]2C(=O)NCCCCNC(=O)c2ccc(-c3c4nc(c(-c5ccc(S(=O)(=O)[O-])cc5)c5ccc([nH]5)c(-c5ccc(S(=O)(=O)[O-])cc5)c5nc(c(-c6ccc(S(=O)(=O)[O-])cc6)c6ccc3[nH]6)C=C5)C=C4)cc2)c1
REMARK SMILES IDX 26 1 25 2 24 3 22 4 23 5 21 7 15 8 16 9 17 10 20 11 18 12
REMARK SMILES IDX 13 13 14 14 12 15 7 16 8 17 9 18 11 19 10 20 6 21 1 22 2 23
REMARK SMILES IDX 3 24 92 25 4 26 5 27 19 28 27 30 28 31 29 32 30 33 31 35
REMARK SMILES IDX 32 36 33 37 91 38 34 39 90 40 35 41 36 42 37 43 84 44 38 45
REMARK SMILES IDX 89 46 83 47 85 48 39 49 88 50 82 51 81 52 40 54 70 55 51 56
REMARK SMILES IDX 69 57 52 58 55 59 68 60 86 61 53 62 54 63 67 65 87 66 56 67
REMARK SMILES IDX 41 68 42 69 50 70 43 71 49 72 44 73 45 74 46 75 47 76 48 77
REMARK SMILES IDX 71 78 72 79 80 80 73 81 79 82 74 83 75 84 76 85 77 86 78 87
REMARK SMILES IDX 57 88 58 89 66 90 59 91 65 92 60 93 61 94 62 95 63 96 64 97
REMARK H PARENT 24 6 19 29 29 34 85 53 55 64
REMARK Flexibility Score: inf
ROOT
ATOM      1  C   UNL A   1      34.851  29.309  27.571  1.00  0.00     0.023 C 
ENDROOT
BRANCH   1   2
ATOM      2  C   UNL A   1      33.626  29.015  26.710  1.00  0.00     0.116 C 
BRANCH   2   3
ATOM      3  N   UNL A   1      33.990  28.886  25.315  1.00  0.00    -0.354 N 
ATOM      4  C   UNL A   1      33.645  27.933  24.411  1.00  0.00     0.242 C 
ATOM      5  O   UNL A   1      34.241  27.943  23.330  1.00  0.00    -0.273 OA
ATOM      6  H   UNL A   1      34.578  29.596  24.969  1.00  0.00     0.163 HD
BRANCH   4   7
ATOM      7  C   UNL A   1      32.606  26.844  24.761  1.00  0.00     0.177 C 
ATOM      8  N   UNL A   1      32.972  25.546  24.153  1.00  0.00    -0.326 N 
ATOM      9  C   UNL A   1      32.797  25.447  22.708  1.00  0.00     0.123 C 
ATOM     10  C   UNL A   1      31.358  25.765  22.316  1.00  0.00     0.053 C 
ATOM     11  C   UNL A   1      31.192  27.284  24.350  1.00  0.00     0.067 C 
ATOM     12  C   UNL A   1      30.881  27.107  22.861  1.00  0.00     0.118 C 
BRANCH   8  13
ATOM     13  C   UNL A   1      33.357  24.508  25.010  1.00  0.00     0.255 C 
ATOM     14  O   UNL A   1      32.603  24.173  25.924  1.00  0.00    -0.269 OA
BRANCH  13  15
ATOM     15  C   UNL A   1      34.748  23.903  24.971  1.00  0.00     0.047 A 
ATOM     16  C   UNL A   1      34.923  22.516  24.717  1.00  0.00    -0.006 A 
ATOM     17  C   UNL A   1      36.147  21.913  25.090  1.00  0.00     0.009 A 
ATOM     18  C   UNL A   1      37.178  22.642  25.678  1.00  0.00     0.001 A 
ATOM     19  C   UNL A   1      35.837  24.633  25.494  1.00  0.00     0.014 A 
ATOM     20  C   UNL A   1      37.033  24.008  25.858  1.00  0.00     0.001 A 
BRANCH  16  21
ATOM     21  C   UNL A   1      33.912  21.659  24.067  1.00  0.00    -0.017 A 
ATOM     22  C   UNL A   1      32.447  18.160  24.498  1.00  0.00     0.044 C 
ATOM     23  C   UNL A   1      32.678  19.548  23.981  1.00  0.00    -0.051 A 
ATOM     24  C   UNL A   1      31.937  20.029  22.898  1.00  0.00     0.003 A 
ATOM     25  C   UNL A   1      33.654  20.370  24.561  1.00  0.00     0.012 A 
ATOM     26  C   UNL A   1      32.174  21.308  22.395  1.00  0.00     0.001 A 
ATOM     27  C   UNL A   1      33.156  22.115  22.974  1.00  0.00     0.009 A 
ENDBRANCH  16  21
ENDBRANCH  13  15
ENDBRANCH   8  13
BRANCH  12  28
ATOM     28  O   UNL A   1      31.391  28.159  22.046  1.00  0.00    -0.393 OA
ATOM     29  H   UNL A   1      30.855  28.957  22.177  1.00  0.00     0.210 HD
ENDBRANCH  12  28
ENDBRANCH   4   7
ENDBRANCH   2   3
ENDBRANCH   1   2
BRANCH   1  30
ATOM     30  C   UNL A   1      35.240  30.777  27.779  1.00  0.00     0.023 C 
BRANCH  30  31
ATOM     31  C   UNL A   1      35.717  31.081  29.176  1.00  0.00     0.116 C 
BRANCH  31  32
ATOM     32  N   UNL A   1      37.140  31.239  29.162  1.00  0.00    -0.352 N 
ATOM     33  C   UNL A   1      38.174  30.368  29.210  1.00  0.00     0.251 C 
ATOM     34  H   UNL A   1      37.426  32.180  29.105  1.00  0.00     0.163 HD
ATOM     35  O   UNL A   1      39.257  30.909  29.026  1.00  0.00    -0.269 OA
BRANCH  33  36
ATOM     36  C   UNL A   1      37.977  28.870  29.229  1.00  0.00     0.039 A 
ATOM     37  C   UNL A   1      38.600  28.339  30.366  1.00  0.00     0.014 A 
ATOM     38  C   UNL A   1      38.266  28.284  27.999  1.00  0.00     0.014 A 
ATOM     39  C   UNL A   1      39.880  27.842  30.218  1.00  0.00     0.010 A 
ATOM     40  C   UNL A   1      39.564  27.909  27.805  1.00  0.00     0.010 A 
ATOM     41  C   UNL A   1      40.381  27.800  28.929  1.00  0.00    -0.014 A 
BRANCH  41  42
ATOM     42  C   UNL A   1      41.775  27.636  28.622  1.00  0.00     0.031 A 
ATOM     43  C   UNL A   1      42.241  26.253  28.640  1.00  0.00     0.074 A 
ATOM     44  C   UNL A   1      42.390  28.749  28.170  1.00  0.00     0.049 A 
ATOM     45  N   UNL A   1      43.464  25.889  28.698  1.00  0.00    -0.248 NA
ATOM     46  C   UNL A   1      41.304  25.122  28.680  1.00  0.00     0.031 C 
ATOM     47  C   UNL A   1      43.641  28.938  27.451  1.00  0.00     0.029 A 
ATOM     48  N   UNL A   1      42.035  30.042  28.571  1.00  0.00    -0.354 N 
ATOM     49  C   UNL A   1      43.472  24.559  28.336  1.00  0.00     0.074 A 
ATOM     50  C   UNL A   1      42.131  24.087  28.540  1.00  0.00     0.031 C 
ATOM     51  C   UNL A   1      44.090  30.188  27.706  1.00  0.00     0.029 A 
ATOM     52  C   UNL A   1      43.230  30.744  28.752  1.00  0.00     0.049 A 
ATOM     53  H   UNL A   1      41.124  30.389  28.700  1.00  0.00     0.167 HD
ATOM     54  C   UNL A   1      44.559  24.096  27.663  1.00  0.00     0.031 A 
ATOM     55  C   UNL A   1      43.640  30.965  30.042  1.00  0.00     0.031 A 
ATOM     56  C   UNL A   1      45.583  25.144  27.600  1.00  0.00     0.049 A 
ATOM     57  C   UNL A   1      44.908  30.172  30.377  1.00  0.00     0.074 A 
ATOM     58  C   UNL A   1      45.990  26.031  26.616  1.00  0.00     0.029 A 
ATOM     59  N   UNL A   1      46.025  25.681  28.799  1.00  0.00    -0.354 N 
ATOM     60  N   UNL A   1      45.301  29.076  29.778  1.00  0.00    -0.248 NA
ATOM     61  C   UNL A   1      45.843  30.588  31.417  1.00  0.00     0.031 C 
ATOM     62  C   UNL A   1      46.655  27.125  27.257  1.00  0.00     0.029 A 
ATOM     63  C   UNL A   1      46.652  26.897  28.622  1.00  0.00     0.049 A 
ATOM     64  H   UNL A   1      45.904  25.246  29.674  1.00  0.00     0.167 HD
ATOM     65  C   UNL A   1      46.510  28.661  30.283  1.00  0.00     0.074 A 
ATOM     66  C   UNL A   1      46.777  29.622  31.344  1.00  0.00     0.031 C 
ATOM     67  C   UNL A   1      47.191  27.568  29.802  1.00  0.00     0.031 A 
BRANCH  54  68
ATOM     68  C   UNL A   1      44.554  22.840  26.827  1.00  0.00    -0.014 A 
ATOM     69  C   UNL A   1      45.732  22.470  26.150  1.00  0.00     0.010 A 
ATOM     70  C   UNL A   1      43.438  22.001  26.632  1.00  0.00     0.010 A 
ATOM     71  C   UNL A   1      45.783  21.357  25.299  1.00  0.00     0.020 A 
ATOM     72  C   UNL A   1      43.465  20.899  25.763  1.00  0.00     0.020 A 
ATOM     73  C   UNL A   1      44.644  20.580  25.104  1.00  0.00     0.054 A 
BRANCH  73  74
ATOM     74  S   UNL A   1      44.739  19.137  24.016  1.00  0.00     0.124 S 
ATOM     75  O   UNL A   1      43.715  18.256  24.572  1.00  0.00    -0.237 OA
ATOM     76  O   UNL A   1      44.434  19.713  22.709  1.00  0.00    -0.237 OA
ATOM     77  O   UNL A   1      46.113  18.666  24.180  1.00  0.00    -0.744 OA
ENDBRANCH  73  74
ENDBRANCH  54  68
BRANCH  55  78
ATOM     78  C   UNL A   1      42.511  31.262  31.013  1.00  0.00    -0.014 A 
ATOM     79  C   UNL A   1      41.757  32.457  30.870  1.00  0.00     0.010 A 
ATOM     80  C   UNL A   1      41.989  30.283  31.874  1.00  0.00     0.010 A 
ATOM     81  C   UNL A   1      40.490  32.620  31.474  1.00  0.00     0.020 A 
ATOM     82  C   UNL A   1      40.719  30.442  32.481  1.00  0.00     0.020 A 
ATOM     83  C   UNL A   1      39.949  31.587  32.239  1.00  0.00     0.054 A 
BRANCH  83  84
ATOM     84  S   UNL A   1      38.248  31.740  32.915  1.00  0.00     0.124 S 
ATOM     85  O   UNL A   1      37.586  32.591  31.930  1.00  0.00    -0.237 OA
ATOM     86  O   UNL A   1      37.735  30.375  32.989  1.00  0.00    -0.237 OA
ATOM     87  O   UNL A   1      38.465  32.361  34.221  1.00  0.00    -0.744 OA
ENDBRANCH  83  84
ENDBRANCH  55  78
BRANCH  67  88
ATOM     88  C   UNL A   1      48.420  26.932  30.438  1.00  0.00    -0.014 A 
ATOM     89  C   UNL A   1      49.711  26.965  29.905  1.00  0.00     0.010 A 
ATOM     90  C   UNL A   1      48.272  26.220  31.661  1.00  0.00     0.010 A 
ATOM     91  C   UNL A   1      50.806  26.443  30.617  1.00  0.00     0.020 A 
ATOM     92  C   UNL A   1      49.342  25.688  32.374  1.00  0.00     0.020 A 
ATOM     93  C   UNL A   1      50.615  25.830  31.858  1.00  0.00     0.054 A 
BRANCH  93  94
ATOM     94  S   UNL A   1      52.037  25.195  32.771  1.00  0.00     0.124 S 
ATOM     95  O   UNL A   1      51.682  25.505  34.153  1.00  0.00    -0.237 OA
ATOM     96  O   UNL A   1      52.016  23.777  32.419  1.00  0.00    -0.237 OA
ATOM     97  O   UNL A   1      53.167  25.952  32.236  1.00  0.00    -0.744 OA
ENDBRANCH  93  94
ENDBRANCH  67  88
ENDBRANCH  41  42
ENDBRANCH  33  36
ENDBRANCH  31  32
ENDBRANCH  30  31
ENDBRANCH   1  30
TORSDOF 18
ENDMDL
MODEL 3
REMARK VINA RESULT:     -11.5      3.529      9.368
REMARK SMILES Cc1cccc(-c2ccccc2C(=O)N2CC[C@H](O)C[C@@H]2C(=O)NCCCCNC(=O)c2ccc(-c3c4nc(c(-c5ccc(S(=O)(=O)[O-])cc5)c5ccc([nH]5)c(-c5ccc(S(=O)(=O)[O-])cc5)c5nc(c(-c6ccc(S(=O)(=O)[O-])cc6)c6ccc3[nH]6)C=C5)C=C4)cc2)c1
REMARK SMILES IDX 26 1 25 2 24 3 22 4 23 5 21 7 15 8 16 9 17 10 20 11 18 12
REMARK SMILES IDX 13 13 14 14 12 15 7 16 8 17 9 18 11 19 10 20 6 21 1 22 2 23
REMARK SMILES IDX 3 24 92 25 4 26 5 27 19 28 27 30 28 31 29 32 30 33 31 35
REMARK SMILES IDX 32 36 33 37 91 38 34 39 90 40 35 41 36 42 37 43 84 44 38 45
REMARK SMILES IDX 89 46 83 47 85 48 39 49 88 50 82 51 81 52 40 54 70 55 51 56
REMARK SMILES IDX 69 57 52 58 55 59 68 60 86 61 53 62 54 63 67 65 87 66 56 67
REMARK SMILES IDX 41 68 42 69 50 70 43 71 49 72 44 73 45 74 46 75 47 76 48 77
REMARK SMILES IDX 71 78 72 79 80 80 73 81 79 82 74 83 75 84 76 85 77 86 78 87
REMARK SMILES IDX 57 88 58 89 66 90 59 91 65 92 60 93 61 94 62 95 63 96 64 97
REMARK H PARENT 24 6 19 29 29 34 85 53 55 64
REMARK Flexibility Score: inf
ROOT
ATOM      1  C   UNL A   1      34.896  28.900  26.945  1.00  0.00     0.023 C 
ENDROOT
BRANCH   1   2
ATOM      2  C   UNL A   1      33.618  28.296  26.369  1.00  0.00     0.116 C 
BRANCH   2   3
ATOM      3  N   UNL A   1      33.681  28.228  24.925  1.00  0.00    -0.354 N 
ATOM      4  C   UNL A   1      33.577  27.153  24.100  1.00  0.00     0.242 C 
ATOM      5  O   UNL A   1      33.857  27.331  22.910  1.00  0.00    -0.273 OA
ATOM      6  H   UNL A   1      33.822  29.091  24.471  1.00  0.00     0.163 HD
BRANCH   4   7
ATOM      7  C   UNL A   1      33.201  25.761  24.653  1.00  0.00     0.177 C 
ATOM      8  N   UNL A   1      33.072  24.773  23.558  1.00  0.00    -0.326 N 
ATOM      9  C   UNL A   1      31.892  24.911  22.712  1.00  0.00     0.123 C 
ATOM     10  C   UNL A   1      30.618  24.861  23.549  1.00  0.00     0.053 C 
ATOM     11  C   UNL A   1      31.923  25.836  25.503  1.00  0.00     0.067 C 
ATOM     12  C   UNL A   1      30.624  25.870  24.692  1.00  0.00     0.118 C 
BRANCH   8  13
ATOM     13  C   UNL A   1      34.023  23.748  23.487  1.00  0.00     0.255 C 
ATOM     14  O   UNL A   1      35.015  23.899  22.772  1.00  0.00    -0.269 OA
BRANCH  13  15
ATOM     15  C   UNL A   1      33.788  22.385  24.109  1.00  0.00     0.047 A 
ATOM     16  C   UNL A   1      34.829  21.729  24.819  1.00  0.00    -0.006 A 
ATOM     17  C   UNL A   1      34.731  20.333  25.020  1.00  0.00     0.009 A 
ATOM     18  C   UNL A   1      33.642  19.596  24.557  1.00  0.00     0.001 A 
ATOM     19  C   UNL A   1      32.661  21.629  23.720  1.00  0.00     0.014 A 
ATOM     20  C   UNL A   1      32.595  20.248  23.928  1.00  0.00     0.001 A 
BRANCH  16  21
ATOM     21  C   UNL A   1      36.006  22.417  25.385  1.00  0.00    -0.017 A 
ATOM     22  C   UNL A   1      39.680  21.653  26.092  1.00  0.00     0.044 C 
ATOM     23  C   UNL A   1      38.382  22.393  25.973  1.00  0.00    -0.051 A 
ATOM     24  C   UNL A   1      38.289  23.725  26.386  1.00  0.00     0.003 A 
ATOM     25  C   UNL A   1      37.241  21.753  25.469  1.00  0.00     0.012 A 
ATOM     26  C   UNL A   1      37.074  24.404  26.307  1.00  0.00     0.001 A 
ATOM     27  C   UNL A   1      35.941  23.754  25.812  1.00  0.00     0.009 A 
ENDBRANCH  16  21
ENDBRANCH  13  15
ENDBRANCH   8  13
BRANCH  12  28
ATOM     28  O   UNL A   1      30.304  27.163  24.188  1.00  0.00    -0.393 OA
ATOM     29  H   UNL A   1      30.802  27.834  24.679  1.00  0.00     0.210 HD
ENDBRANCH  12  28
ENDBRANCH   4   7
ENDBRANCH   2   3
ENDBRANCH   1   2
BRANCH   1  30
ATOM     30  C   UNL A   1      34.867  30.378  27.347  1.00  0.00     0.023 C 
BRANCH  30  31
ATOM     31  C   UNL A   1      35.345  30.629  28.755  1.00  0.00     0.116 C 
BRANCH  31  32
ATOM     32  N   UNL A   1      36.754  30.888  28.732  1.00  0.00    -0.352 N 
ATOM     33  C   UNL A   1      37.846  30.110  28.915  1.00  0.00     0.251 C 
ATOM     34  H   UNL A   1      36.972  31.830  28.545  1.00  0.00     0.163 HD
ATOM     35  O   UNL A   1      38.891  30.698  28.667  1.00  0.00    -0.269 OA
BRANCH  33  36
ATOM     36  C   UNL A   1      37.756  28.620  29.145  1.00  0.00     0.039 A 
ATOM     37  C   UNL A   1      38.417  28.299  30.338  1.00  0.00     0.014 A 
ATOM     38  C   UNL A   1      38.084  27.889  28.006  1.00  0.00     0.014 A 
ATOM     39  C   UNL A   1      39.728  27.877  30.246  1.00  0.00     0.010 A 
ATOM     40  C   UNL A   1      39.405  27.582  27.851  1.00  0.00     0.010 A 
ATOM     41  C   UNL A   1      40.230  27.690  28.971  1.00  0.00    -0.014 A 
BRANCH  41  42
ATOM     42  C   UNL A   1      41.631  27.583  28.674  1.00  0.00     0.031 A 
ATOM     43  C   UNL A   1      42.148  26.219  28.676  1.00  0.00     0.074 A 
ATOM     44  C   UNL A   1      42.207  28.724  28.242  1.00  0.00     0.049 A 
ATOM     45  N   UNL A   1      43.384  25.900  28.739  1.00  0.00    -0.248 NA
ATOM     46  C   UNL A   1      41.255  25.053  28.692  1.00  0.00     0.031 C 
ATOM     47  C   UNL A   1      43.456  28.971  27.536  1.00  0.00     0.029 A 
ATOM     48  N   UNL A   1      41.801  29.997  28.658  1.00  0.00    -0.354 N 
ATOM     49  C   UNL A   1      43.445  24.576  28.359  1.00  0.00     0.074 A 
ATOM     50  C   UNL A   1      42.121  24.052  28.545  1.00  0.00     0.031 C 
ATOM     51  C   UNL A   1      43.855  30.233  27.813  1.00  0.00     0.029 A 
ATOM     52  C   UNL A   1      42.967  30.741  28.859  1.00  0.00     0.049 A 
ATOM     53  H   UNL A   1      40.876  30.308  28.784  1.00  0.00     0.167 HD
ATOM     54  C   UNL A   1      44.554  24.164  27.689  1.00  0.00     0.031 A 
ATOM     55  C   UNL A   1      43.358  30.959  30.155  1.00  0.00     0.031 A 
ATOM     56  C   UNL A   1      45.538  25.250  27.649  1.00  0.00     0.049 A 
ATOM     57  C   UNL A   1      44.652  30.210  30.491  1.00  0.00     0.074 A 
ATOM     58  C   UNL A   1      45.919  26.166  26.682  1.00  0.00     0.029 A 
ATOM     59  N   UNL A   1      45.950  25.787  28.860  1.00  0.00    -0.354 N 
ATOM     60  N   UNL A   1      45.091  29.137  29.880  1.00  0.00    -0.248 NA
ATOM     61  C   UNL A   1      45.563  30.646  31.544  1.00  0.00     0.031 C 
ATOM     62  C   UNL A   1      46.537  27.275  27.344  1.00  0.00     0.029 A 
ATOM     63  C   UNL A   1      46.532  27.027  28.706  1.00  0.00     0.049 A 
ATOM     64  H   UNL A   1      45.838  25.335  29.728  1.00  0.00     0.167 HD
ATOM     65  C   UNL A   1      46.311  28.761  30.389  1.00  0.00     0.074 A 
ATOM     66  C   UNL A   1      46.533  29.716  31.466  1.00  0.00     0.031 C 
ATOM     67  C   UNL A   1      47.036  27.701  29.899  1.00  0.00     0.031 A 
BRANCH  54  68
ATOM     68  C   UNL A   1      44.604  22.921  26.836  1.00  0.00    -0.014 A 
ATOM     69  C   UNL A   1      45.826  22.553  26.242  1.00  0.00     0.010 A 
ATOM     70  C   UNL A   1      43.500  22.092  26.547  1.00  0.00     0.010 A 
ATOM     71  C   UNL A   1      45.933  21.452  25.379  1.00  0.00     0.020 A 
ATOM     72  C   UNL A   1      43.584  21.003  25.665  1.00  0.00     0.020 A 
ATOM     73  C   UNL A   1      44.806  20.687  25.089  1.00  0.00     0.054 A 
BRANCH  73  74
ATOM     74  S   UNL A   1      44.972  19.259  23.989  1.00  0.00     0.124 S 
ATOM     75  O   UNL A   1      44.466  19.778  22.721  1.00  0.00    -0.237 OA
ATOM     76  O   UNL A   1      46.408  18.997  24.035  1.00  0.00    -0.237 OA
ATOM     77  O   UNL A   1      44.135  18.237  24.615  1.00  0.00    -0.744 OA
ENDBRANCH  73  74
ENDBRANCH  54  68
BRANCH  55  78
ATOM     78  C   UNL A   1      42.210  31.199  31.121  1.00  0.00    -0.014 A 
ATOM     79  C   UNL A   1      41.268  32.228  30.851  1.00  0.00     0.010 A 
ATOM     80  C   UNL A   1      41.869  30.275  32.121  1.00  0.00     0.010 A 
ATOM     81  C   UNL A   1      40.001  32.266  31.475  1.00  0.00     0.020 A 
ATOM     82  C   UNL A   1      40.600  30.309  32.748  1.00  0.00     0.020 A 
ATOM     83  C   UNL A   1      39.649  31.272  32.388  1.00  0.00     0.054 A 
BRANCH  83  84
ATOM     84  S   UNL A   1      37.956  31.240  33.101  1.00  0.00     0.124 S 
ATOM     85  O   UNL A   1      37.115  31.547  31.947  1.00  0.00    -0.237 OA
ATOM     86  O   UNL A   1      37.788  29.894  33.641  1.00  0.00    -0.237 OA
ATOM     87  O   UNL A   1      38.007  32.285  34.123  1.00  0.00    -0.744 OA
ENDBRANCH  83  84
ENDBRANCH  55  78
BRANCH  67  88
ATOM     88  C   UNL A   1      48.283  27.103  30.537  1.00  0.00    -0.014 A 
ATOM     89  C   UNL A   1      48.306  25.964  31.346  1.00  0.00     0.010 A 
ATOM     90  C   UNL A   1      49.537  27.742  30.329  1.00  0.00     0.010 A 
ATOM     91  C   UNL A   1      49.520  25.421  31.803  1.00  0.00     0.020 A 
ATOM     92  C   UNL A   1      50.747  27.224  30.782  1.00  0.00     0.020 A 
ATOM     93  C   UNL A   1      50.733  26.042  31.496  1.00  0.00     0.054 A 
BRANCH  93  94
ATOM     94  S   UNL A   1      52.283  25.310  32.064  1.00  0.00     0.124 S 
ATOM     95  O   UNL A   1      51.926  23.901  32.209  1.00  0.00    -0.237 OA
ATOM     96  O   UNL A   1      53.188  25.619  30.961  1.00  0.00    -0.237 OA
ATOM     97  O   UNL A   1      52.566  26.010  33.315  1.00  0.00    -0.744 OA
ENDBRANCH  93  94
ENDBRANCH  67  88
ENDBRANCH  41  42
ENDBRANCH  33  36
ENDBRANCH  31  32
ENDBRANCH  30  31
ENDBRANCH   1  30
TORSDOF 18
ENDMDL
