MODEL 1
REMARK VINA RESULT:     -10.4      0.000      0.000
REMARK SMILES COC(=O)C[C@H](NC(=O)N1CC[N@@H+]2CCC[C@@H]2C1)C(=O)NCCCCNC(=O)c1ccc(-c2c3nc(c(-c4ccc(S(=O)(=O)[O-])cc4)c4ccc([nH]4)c(-c4ccc(S(=O)(=O)[O-])cc4)c4nc(c(-c5ccc(S(=O)(=O)[O-])cc5)c5ccc2[nH]5)C=C4)C=C3)cc1
REMARK SMILES IDX 23 1 22 2 21 3 19 4 20 5 6 7 5 8 3 9 4 10 2 11 1 12 7 13
REMARK SMILES IDX 8 14 9 16 10 17 11 18 18 19 12 20 17 21 13 22 16 23 14 24
REMARK SMILES IDX 15 26 24 27 25 28 26 29 27 30 28 32 29 33 30 34 88 35 31 36
REMARK SMILES IDX 87 37 32 38 33 39 34 40 81 41 35 42 86 43 80 44 82 45 36 46
REMARK SMILES IDX 85 47 79 48 78 49 37 51 67 52 48 53 66 54 49 55 52 56 65 57
REMARK SMILES IDX 83 58 50 59 51 60 64 62 84 63 53 64 38 65 39 66 47 67 40 68
REMARK SMILES IDX 46 69 41 70 42 71 43 72 44 73 45 74 68 75 69 76 77 77 70 78
REMARK SMILES IDX 76 79 71 80 72 81 73 82 74 83 75 84 54 85 55 86 63 87 56 88
REMARK SMILES IDX 62 89 57 90 58 91 59 92 60 93 61 94
REMARK H PARENT 21 6 7 15 13 25 26 31 82 50 52 61
REMARK Flexibility Score: inf
ROOT
ATOM      1  C   UNL A   1      37.123  22.114  24.074  1.00  0.00     0.023 C 
ENDROOT
BRANCH   1   2
ATOM      2  C   UNL A   1      35.854  22.859  24.471  1.00  0.00     0.116 C 
BRANCH   2   3
ATOM      3  N   UNL A   1      34.746  22.596  23.570  1.00  0.00    -0.354 N 
ATOM      4  C   UNL A   1      33.581  21.919  23.784  1.00  0.00     0.243 C 
ATOM      5  O   UNL A   1      32.716  21.966  22.904  1.00  0.00    -0.273 OA
ATOM      6  H   UNL A   1      34.852  22.965  22.663  1.00  0.00     0.163 HD
BRANCH   4   7
ATOM      7  C   UNL A   1      33.276  21.260  25.140  1.00  0.00     0.184 C 
BRANCH   7   8
ATOM      8  C   UNL A   1      33.808  19.828  25.066  1.00  0.00     0.157 C 
BRANCH   8   9
ATOM      9  C   UNL A   1      32.740  18.837  24.731  1.00  0.00     0.308 C 
ATOM     10  O   UNL A   1      32.268  18.711  23.607  1.00  0.00    -0.252 OA
BRANCH   9  11
ATOM     11  O   UNL A   1      32.396  18.100  25.818  1.00  0.00    -0.469 OA
ATOM     12  C   UNL A   1      32.528  16.693  25.616  1.00  0.00     0.282 C 
ENDBRANCH   9  11
ENDBRANCH   8   9
ENDBRANCH   7   8
BRANCH   7  13
ATOM     13  N   UNL A   1      31.857  21.372  25.485  1.00  0.00    -0.326 N 
ATOM     14  C   UNL A   1      31.083  22.415  25.854  1.00  0.00     0.318 C 
ATOM     15  H   UNL A   1      31.371  20.517  25.440  1.00  0.00     0.166 HD
ATOM     16  O   UNL A   1      30.001  22.111  26.362  1.00  0.00    -0.249 OA
BRANCH  14  17
ATOM     17  N   UNL A   1      31.493  23.713  25.729  1.00  0.00    -0.313 N 
ATOM     18  C   UNL A   1      32.593  24.354  26.458  1.00  0.00     0.183 C 
ATOM     19  C   UNL A   1      30.932  24.509  24.633  1.00  0.00     0.186 C 
ATOM     20  C   UNL A   1      33.011  25.744  25.931  1.00  0.00     0.284 C 
ATOM     21  C   UNL A   1      32.009  25.173  23.754  1.00  0.00     0.204 C 
ATOM     22  N   UNL A   1      33.112  25.847  24.473  1.00  0.00    -0.330 N 
ATOM     23  C   UNL A   1      31.411  26.233  22.827  1.00  0.00     0.073 C 
ATOM     24  C   UNL A   1      33.192  27.239  24.018  1.00  0.00     0.262 C 
ATOM     25  H   UNL A   1      33.981  25.364  24.246  1.00  0.00     0.348 HD
ATOM     26  C   UNL A   1      32.535  27.234  22.651  1.00  0.00     0.068 C 
ENDBRANCH  14  17
ENDBRANCH   7  13
ENDBRANCH   4   7
ENDBRANCH   2   3
ENDBRANCH   1   2
BRANCH   1  27
ATOM     27  C   UNL A   1      37.584  21.061  25.081  1.00  0.00     0.023 C 
BRANCH  27  28
ATOM     28  C   UNL A   1      38.915  21.351  25.768  1.00  0.00     0.116 C 
BRANCH  28  29
ATOM     29  N   UNL A   1      39.805  20.202  25.805  1.00  0.00    -0.352 N 
ATOM     30  C   UNL A   1      41.156  20.156  26.049  1.00  0.00     0.251 C 
ATOM     31  H   UNL A   1      39.378  19.333  25.628  1.00  0.00     0.163 HD
ATOM     32  O   UNL A   1      41.762  19.098  25.911  1.00  0.00    -0.269 OA
BRANCH  30  33
ATOM     33  C   UNL A   1      41.880  21.384  26.442  1.00  0.00     0.039 A 
ATOM     34  C   UNL A   1      42.242  22.294  25.447  1.00  0.00     0.014 A 
ATOM     35  C   UNL A   1      42.195  21.647  27.778  1.00  0.00     0.014 A 
ATOM     36  C   UNL A   1      42.865  23.492  25.799  1.00  0.00     0.010 A 
ATOM     37  C   UNL A   1      42.740  22.879  28.135  1.00  0.00     0.010 A 
ATOM     38  C   UNL A   1      43.086  23.813  27.150  1.00  0.00    -0.014 A 
BRANCH  38  39
ATOM     39  C   UNL A   1      43.671  25.127  27.527  1.00  0.00     0.031 A 
ATOM     40  C   UNL A   1      45.141  25.395  27.339  1.00  0.00     0.074 A 
ATOM     41  C   UNL A   1      42.877  26.077  28.061  1.00  0.00     0.049 A 
ATOM     42  N   UNL A   1      45.816  26.490  27.586  1.00  0.00    -0.248 NA
ATOM     43  C   UNL A   1      45.966  24.289  26.827  1.00  0.00     0.031 C 
ATOM     44  C   UNL A   1      41.448  25.920  28.351  1.00  0.00     0.029 A 
ATOM     45  N   UNL A   1      43.152  27.364  28.450  1.00  0.00    -0.354 N 
ATOM     46  C   UNL A   1      47.135  26.207  27.255  1.00  0.00     0.074 A 
ATOM     47  C   UNL A   1      47.180  24.816  26.857  1.00  0.00     0.031 C 
ATOM     48  C   UNL A   1      40.967  27.078  28.832  1.00  0.00     0.029 A 
ATOM     49  C   UNL A   1      42.055  28.045  28.924  1.00  0.00     0.049 A 
ATOM     50  H   UNL A   1      44.050  27.762  28.394  1.00  0.00     0.167 HD
ATOM     51  C   UNL A   1      48.209  27.034  27.249  1.00  0.00     0.031 A 
ATOM     52  C   UNL A   1      41.935  29.306  29.382  1.00  0.00     0.031 A 
ATOM     53  C   UNL A   1      48.164  28.416  27.650  1.00  0.00     0.049 A 
ATOM     54  C   UNL A   1      43.144  30.201  29.379  1.00  0.00     0.074 A 
ATOM     55  C   UNL A   1      49.189  29.346  27.652  1.00  0.00     0.029 A 
ATOM     56  N   UNL A   1      47.034  29.069  28.121  1.00  0.00    -0.354 N 
ATOM     57  N   UNL A   1      44.370  29.931  28.995  1.00  0.00    -0.248 NA
ATOM     58  C   UNL A   1      42.949  31.579  29.850  1.00  0.00     0.031 C 
ATOM     59  C   UNL A   1      48.692  30.545  28.175  1.00  0.00     0.029 A 
ATOM     60  C   UNL A   1      47.341  30.382  28.434  1.00  0.00     0.049 A 
ATOM     61  H   UNL A   1      46.144  28.657  28.219  1.00  0.00     0.167 HD
ATOM     62  C   UNL A   1      45.086  31.114  29.157  1.00  0.00     0.074 A 
ATOM     63  C   UNL A   1      44.148  32.105  29.644  1.00  0.00     0.031 C 
ATOM     64  C   UNL A   1      46.400  31.357  28.927  1.00  0.00     0.031 A 
BRANCH  51  65
ATOM     65  C   UNL A   1      49.524  26.466  26.779  1.00  0.00    -0.014 A 
ATOM     66  C   UNL A   1      49.861  26.463  25.412  1.00  0.00     0.010 A 
ATOM     67  C   UNL A   1      50.456  25.976  27.711  1.00  0.00     0.010 A 
ATOM     68  C   UNL A   1      51.088  25.948  24.984  1.00  0.00     0.020 A 
ATOM     69  C   UNL A   1      51.698  25.489  27.291  1.00  0.00     0.020 A 
ATOM     70  C   UNL A   1      51.999  25.466  25.927  1.00  0.00     0.054 A 
BRANCH  70  71
ATOM     71  S   UNL A   1      53.597  24.837  25.343  1.00  0.00     0.124 S 
ATOM     72  O   UNL A   1      53.258  23.471  24.950  1.00  0.00    -0.237 OA
ATOM     73  O   UNL A   1      53.915  25.746  24.244  1.00  0.00    -0.237 OA
ATOM     74  O   UNL A   1      54.465  24.950  26.512  1.00  0.00    -0.744 OA
ENDBRANCH  70  71
ENDBRANCH  51  65
BRANCH  52  75
ATOM     75  C   UNL A   1      40.619  29.798  29.880  1.00  0.00    -0.014 A 
ATOM     76  C   UNL A   1      40.363  29.908  31.259  1.00  0.00     0.010 A 
ATOM     77  C   UNL A   1      39.608  30.153  28.968  1.00  0.00     0.010 A 
ATOM     78  C   UNL A   1      39.109  30.330  31.715  1.00  0.00     0.020 A 
ATOM     79  C   UNL A   1      38.367  30.609  29.420  1.00  0.00     0.020 A 
ATOM     80  C   UNL A   1      38.119  30.678  30.791  1.00  0.00     0.054 A 
BRANCH  80  81
ATOM     81  S   UNL A   1      36.510  31.250  31.403  1.00  0.00     0.124 S 
ATOM     82  O   UNL A   1      35.749  31.390  30.166  1.00  0.00    -0.237 OA
ATOM     83  O   UNL A   1      36.099  30.156  32.279  1.00  0.00    -0.237 OA
ATOM     84  O   UNL A   1      36.829  32.500  32.089  1.00  0.00    -0.744 OA
ENDBRANCH  80  81
ENDBRANCH  52  75
BRANCH  64  85
ATOM     85  C   UNL A   1      46.893  32.760  29.169  1.00  0.00    -0.014 A 
ATOM     86  C   UNL A   1      47.533  33.114  30.371  1.00  0.00     0.010 A 
ATOM     87  C   UNL A   1      46.732  33.735  28.168  1.00  0.00     0.010 A 
ATOM     88  C   UNL A   1      47.952  34.430  30.588  1.00  0.00     0.020 A 
ATOM     89  C   UNL A   1      47.180  35.043  28.366  1.00  0.00     0.020 A 
ATOM     90  C   UNL A   1      47.768  35.387  29.585  1.00  0.00     0.054 A 
BRANCH  90  91
ATOM     91  S   UNL A   1      48.330  37.084  29.887  1.00  0.00     0.124 S 
ATOM     92  O   UNL A   1      49.027  36.951  31.163  1.00  0.00    -0.237 OA
ATOM     93  O   UNL A   1      49.181  37.352  28.730  1.00  0.00    -0.237 OA
ATOM     94  O   UNL A   1      47.091  37.857  29.934  1.00  0.00    -0.744 OA
ENDBRANCH  90  91
ENDBRANCH  64  85
ENDBRANCH  38  39
ENDBRANCH  30  33
ENDBRANCH  28  29
ENDBRANCH  27  28
ENDBRANCH   1  27
TORSDOF 19
ENDMDL
MODEL 2
REMARK VINA RESULT:     -10.4      5.061     10.243
REMARK SMILES COC(=O)C[C@H](NC(=O)N1CC[N@@H+]2CCC[C@@H]2C1)C(=O)NCCCCNC(=O)c1ccc(-c2c3nc(c(-c4ccc(S(=O)(=O)[O-])cc4)c4ccc([nH]4)c(-c4ccc(S(=O)(=O)[O-])cc4)c4nc(c(-c5ccc(S(=O)(=O)[O-])cc5)c5ccc2[nH]5)C=C4)C=C3)cc1
REMARK SMILES IDX 23 1 22 2 21 3 19 4 20 5 6 7 5 8 3 9 4 10 2 11 1 12 7 13
REMARK SMILES IDX 8 14 9 16 10 17 11 18 18 19 12 20 17 21 13 22 16 23 14 24
REMARK SMILES IDX 15 26 24 27 25 28 26 29 27 30 28 32 29 33 30 34 88 35 31 36
REMARK SMILES IDX 87 37 32 38 33 39 34 40 81 41 35 42 86 43 80 44 82 45 36 46
REMARK SMILES IDX 85 47 79 48 78 49 37 51 67 52 48 53 66 54 49 55 52 56 65 57
REMARK SMILES IDX 83 58 50 59 51 60 64 62 84 63 53 64 38 65 39 66 47 67 40 68
REMARK SMILES IDX 46 69 41 70 42 71 43 72 44 73 45 74 68 75 69 76 77 77 70 78
REMARK SMILES IDX 76 79 71 80 72 81 73 82 74 83 75 84 54 85 55 86 63 87 56 88
REMARK SMILES IDX 62 89 57 90 58 91 59 92 60 93 61 94
REMARK H PARENT 21 6 7 15 13 25 26 31 82 50 52 61
REMARK Flexibility Score: inf
ROOT
ATOM      1  C   UNL A   1      31.778  27.903  26.536  1.00  0.00     0.023 C 
ENDROOT
BRANCH   1   2
ATOM      2  C   UNL A   1      31.430  28.243  25.092  1.00  0.00     0.116 C 
BRANCH   2   3
ATOM      3  N   UNL A   1      30.224  27.576  24.635  1.00  0.00    -0.354 N 
ATOM      4  C   UNL A   1      30.075  26.497  23.813  1.00  0.00     0.243 C 
ATOM      5  O   UNL A   1      28.945  26.011  23.697  1.00  0.00    -0.273 OA
ATOM      6  H   UNL A   1      29.383  27.961  24.973  1.00  0.00     0.163 HD
BRANCH   4   7
ATOM      7  C   UNL A   1      31.290  25.797  23.182  1.00  0.00     0.184 C 
BRANCH   7   8
ATOM      8  C   UNL A   1      31.616  26.552  21.892  1.00  0.00     0.157 C 
BRANCH   8   9
ATOM      9  C   UNL A   1      33.029  26.346  21.449  1.00  0.00     0.308 C 
ATOM     10  O   UNL A   1      33.956  27.068  21.801  1.00  0.00    -0.252 OA
BRANCH   9  11
ATOM     11  O   UNL A   1      33.137  25.261  20.641  1.00  0.00    -0.469 OA
ATOM     12  C   UNL A   1      32.427  25.397  19.410  1.00  0.00     0.282 C 
ENDBRANCH   9  11
ENDBRANCH   8   9
ENDBRANCH   7   8
BRANCH   7  13
ATOM     13  N   UNL A   1      31.056  24.362  23.012  1.00  0.00    -0.326 N 
ATOM     14  C   UNL A   1      31.792  23.271  23.317  1.00  0.00     0.318 C 
ATOM     15  H   UNL A   1      30.192  24.149  22.591  1.00  0.00     0.166 HD
ATOM     16  O   UNL A   1      31.433  22.226  22.768  1.00  0.00    -0.249 OA
BRANCH  14  17
ATOM     17  N   UNL A   1      32.890  23.330  24.129  1.00  0.00    -0.313 N 
ATOM     18  C   UNL A   1      32.914  23.119  25.581  1.00  0.00     0.183 C 
ATOM     19  C   UNL A   1      34.209  23.416  23.496  1.00  0.00     0.186 C 
ATOM     20  C   UNL A   1      34.320  22.979  26.203  1.00  0.00     0.284 C 
ATOM     21  C   UNL A   1      35.189  22.335  23.991  1.00  0.00     0.204 C 
ATOM     22  N   UNL A   1      35.246  22.127  25.454  1.00  0.00    -0.330 N 
ATOM     23  C   UNL A   1      36.627  22.632  23.560  1.00  0.00     0.073 C 
ATOM     24  C   UNL A   1      36.634  22.285  25.901  1.00  0.00     0.262 C 
ATOM     25  H   UNL A   1      34.930  21.177  25.651  1.00  0.00     0.348 HD
ATOM     26  C   UNL A   1      37.468  22.020  24.663  1.00  0.00     0.068 C 
ENDBRANCH  14  17
ENDBRANCH   7  13
ENDBRANCH   4   7
ENDBRANCH   2   3
ENDBRANCH   1   2
BRANCH   1  27
ATOM     27  C   UNL A   1      33.264  28.008  26.874  1.00  0.00     0.023 C 
BRANCH  27  28
ATOM     28  C   UNL A   1      34.014  29.144  26.182  1.00  0.00     0.116 C 
BRANCH  28  29
ATOM     29  N   UNL A   1      33.700  30.454  26.727  1.00  0.00    -0.352 N 
ATOM     30  C   UNL A   1      34.349  31.167  27.706  1.00  0.00     0.251 C 
ATOM     31  H   UNL A   1      32.909  30.894  26.340  1.00  0.00     0.163 HD
ATOM     32  O   UNL A   1      33.857  32.211  28.124  1.00  0.00    -0.269 OA
BRANCH  30  33
ATOM     33  C   UNL A   1      35.616  30.659  28.277  1.00  0.00     0.039 A 
ATOM     34  C   UNL A   1      36.819  31.178  27.796  1.00  0.00     0.014 A 
ATOM     35  C   UNL A   1      35.623  29.689  29.282  1.00  0.00     0.014 A 
ATOM     36  C   UNL A   1      38.025  30.766  28.365  1.00  0.00     0.010 A 
ATOM     37  C   UNL A   1      36.820  29.343  29.906  1.00  0.00     0.010 A 
ATOM     38  C   UNL A   1      38.035  29.873  29.451  1.00  0.00    -0.014 A 
BRANCH  38  39
ATOM     39  C   UNL A   1      39.315  29.503  30.112  1.00  0.00     0.031 A 
ATOM     40  C   UNL A   1      39.790  30.244  31.335  1.00  0.00     0.074 A 
ATOM     41  C   UNL A   1      40.062  28.506  29.597  1.00  0.00     0.049 A 
ATOM     42  N   UNL A   1      40.864  30.038  32.056  1.00  0.00    -0.248 NA
ATOM     43  C   UNL A   1      38.967  31.373  31.798  1.00  0.00     0.031 C 
ATOM     44  C   UNL A   1      39.743  27.750  28.382  1.00  0.00     0.029 A 
ATOM     45  N   UNL A   1      41.240  27.950  30.030  1.00  0.00    -0.354 N 
ATOM     46  C   UNL A   1      40.840  31.003  33.055  1.00  0.00     0.074 A 
ATOM     47  C   UNL A   1      39.686  31.839  32.807  1.00  0.00     0.031 C 
ATOM     48  C   UNL A   1      40.679  26.806  28.192  1.00  0.00     0.029 A 
ATOM     49  C   UNL A   1      41.683  26.912  29.244  1.00  0.00     0.049 A 
ATOM     50  H   UNL A   1      41.721  28.264  30.829  1.00  0.00     0.167 HD
ATOM     51  C   UNL A   1      41.683  31.162  34.105  1.00  0.00     0.031 A 
ATOM     52  C   UNL A   1      42.776  26.132  29.354  1.00  0.00     0.031 A 
ATOM     53  C   UNL A   1      42.834  30.333  34.348  1.00  0.00     0.049 A 
ATOM     54  C   UNL A   1      43.704  26.337  30.520  1.00  0.00     0.074 A 
ATOM     55  C   UNL A   1      43.733  30.394  35.399  1.00  0.00     0.029 A 
ATOM     56  N   UNL A   1      43.248  29.291  33.530  1.00  0.00    -0.354 N 
ATOM     57  N   UNL A   1      43.625  27.214  31.494  1.00  0.00    -0.248 NA
ATOM     58  C   UNL A   1      44.858  25.433  30.615  1.00  0.00     0.031 C 
ATOM     59  C   UNL A   1      44.720  29.424  35.188  1.00  0.00     0.029 A 
ATOM     60  C   UNL A   1      44.398  28.715  34.043  1.00  0.00     0.049 A 
ATOM     61  H   UNL A   1      42.791  29.005  32.706  1.00  0.00     0.167 HD
ATOM     62  C   UNL A   1      44.706  26.950  32.329  1.00  0.00     0.074 A 
ATOM     63  C   UNL A   1      45.404  25.814  31.762  1.00  0.00     0.031 C 
ATOM     64  C   UNL A   1      45.088  27.590  33.462  1.00  0.00     0.031 A 
BRANCH  51  65
ATOM     65  C   UNL A   1      41.379  32.271  35.080  1.00  0.00    -0.014 A 
ATOM     66  C   UNL A   1      40.556  32.042  36.199  1.00  0.00     0.010 A 
ATOM     67  C   UNL A   1      41.958  33.541  34.910  1.00  0.00     0.010 A 
ATOM     68  C   UNL A   1      40.290  33.070  37.108  1.00  0.00     0.020 A 
ATOM     69  C   UNL A   1      41.721  34.564  35.834  1.00  0.00     0.020 A 
ATOM     70  C   UNL A   1      40.875  34.324  36.919  1.00  0.00     0.054 A 
BRANCH  70  71
ATOM     71  S   UNL A   1      40.538  35.627  38.135  1.00  0.00     0.124 S 
ATOM     72  O   UNL A   1      39.721  34.920  39.118  1.00  0.00    -0.237 OA
ATOM     73  O   UNL A   1      41.878  36.000  38.584  1.00  0.00    -0.237 OA
ATOM     74  O   UNL A   1      39.836  36.651  37.364  1.00  0.00    -0.744 OA
ENDBRANCH  70  71
ENDBRANCH  51  65
BRANCH  52  75
ATOM     75  C   UNL A   1      43.052  25.083  28.332  1.00  0.00    -0.014 A 
ATOM     76  C   UNL A   1      42.509  23.792  28.455  1.00  0.00     0.010 A 
ATOM     77  C   UNL A   1      43.873  25.375  27.227  1.00  0.00     0.010 A 
ATOM     78  C   UNL A   1      42.810  22.803  27.512  1.00  0.00     0.020 A 
ATOM     79  C   UNL A   1      44.148  24.400  26.264  1.00  0.00     0.020 A 
ATOM     80  C   UNL A   1      43.628  23.115  26.422  1.00  0.00     0.054 A 
BRANCH  80  81
ATOM     81  S   UNL A   1      43.983  21.827  25.195  1.00  0.00     0.124 S 
ATOM     82  O   UNL A   1      43.770  22.538  23.939  1.00  0.00    -0.237 OA
ATOM     83  O   UNL A   1      45.369  21.478  25.497  1.00  0.00    -0.237 OA
ATOM     84  O   UNL A   1      43.006  20.784  25.499  1.00  0.00    -0.744 OA
ENDBRANCH  80  81
ENDBRANCH  52  75
BRANCH  64  85
ATOM     85  C   UNL A   1      46.301  27.055  34.179  1.00  0.00    -0.014 A 
ATOM     86  C   UNL A   1      46.187  26.058  35.166  1.00  0.00     0.010 A 
ATOM     87  C   UNL A   1      47.577  27.544  33.846  1.00  0.00     0.010 A 
ATOM     88  C   UNL A   1      47.322  25.601  35.843  1.00  0.00     0.020 A 
ATOM     89  C   UNL A   1      48.718  27.065  34.495  1.00  0.00     0.020 A 
ATOM     90  C   UNL A   1      48.579  26.112  35.506  1.00  0.00     0.054 A 
BRANCH  90  91
ATOM     91  S   UNL A   1      50.035  25.494  36.393  1.00  0.00     0.124 S 
ATOM     92  O   UNL A   1      51.067  26.443  35.982  1.00  0.00    -0.237 OA
ATOM     93  O   UNL A   1      49.621  25.582  37.791  1.00  0.00    -0.237 OA
ATOM     94  O   UNL A   1      50.202  24.135  35.883  1.00  0.00    -0.744 OA
ENDBRANCH  90  91
ENDBRANCH  64  85
ENDBRANCH  38  39
ENDBRANCH  30  33
ENDBRANCH  28  29
ENDBRANCH  27  28
ENDBRANCH   1  27
TORSDOF 19
ENDMDL
MODEL 3
REMARK VINA RESULT:     -10.4      4.991     10.160
REMARK SMILES COC(=O)C[C@H](NC(=O)N1CC[N@@H+]2CCC[C@@H]2C1)C(=O)NCCCCNC(=O)c1ccc(-c2c3nc(c(-c4ccc(S(=O)(=O)[O-])cc4)c4ccc([nH]4)c(-c4ccc(S(=O)(=O)[O-])cc4)c4nc(c(-c5ccc(S(=O)(=O)[O-])cc5)c5ccc2[nH]5)C=C4)C=C3)cc1
REMARK SMILES IDX 23 1 22 2 21 3 19 4 20 5 6 7 5 8 3 9 4 10 2 11 1 12 7 13
REMARK SMILES IDX 8 14 9 16 10 17 11 18 18 19 12 20 17 21 13 22 16 23 14 24
REMARK SMILES IDX 15 26 24 27 25 28 26 29 27 30 28 32 29 33 30 34 88 35 31 36
REMARK SMILES IDX 87 37 32 38 33 39 34 40 81 41 35 42 86 43 80 44 82 45 36 46
REMARK SMILES IDX 85 47 79 48 78 49 37 51 67 52 48 53 66 54 49 55 52 56 65 57
REMARK SMILES IDX 83 58 50 59 51 60 64 62 84 63 53 64 38 65 39 66 47 67 40 68
REMARK SMILES IDX 46 69 41 70 42 71 43 72 44 73 45 74 68 75 69 76 77 77 70 78
REMARK SMILES IDX 76 79 71 80 72 81 73 82 74 83 75 84 54 85 55 86 63 87 56 88
REMARK SMILES IDX 62 89 57 90 58 91 59 92 60 93 61 94
REMARK H PARENT 21 6 7 15 13 25 26 31 82 50 52 61
REMARK Flexibility Score: inf
ROOT
ATOM      1  C   UNL A   1      32.814  26.747  25.201  1.00  0.00     0.023 C 
ENDROOT
BRANCH   1   2
ATOM      2  C   UNL A   1      31.862  25.606  25.534  1.00  0.00     0.116 C 
BRANCH   2   3
ATOM      3  N   UNL A   1      32.410  24.691  26.521  1.00  0.00    -0.354 N 
ATOM      4  C   UNL A   1      32.714  23.364  26.415  1.00  0.00     0.243 C 
ATOM      5  O   UNL A   1      33.322  22.835  27.350  1.00  0.00    -0.273 OA
ATOM      6  H   UNL A   1      32.591  25.090  27.402  1.00  0.00     0.163 HD
BRANCH   4   7
ATOM      7  C   UNL A   1      32.465  22.588  25.111  1.00  0.00     0.184 C 
BRANCH   7   8
ATOM      8  C   UNL A   1      32.766  21.117  25.407  1.00  0.00     0.157 C 
BRANCH   8   9
ATOM      9  C   UNL A   1      32.715  20.264  24.180  1.00  0.00     0.308 C 
ATOM     10  O   UNL A   1      32.163  20.611  23.142  1.00  0.00    -0.252 OA
BRANCH   9  11
ATOM     11  O   UNL A   1      33.369  19.090  24.372  1.00  0.00    -0.469 OA
ATOM     12  C   UNL A   1      32.531  18.048  24.873  1.00  0.00     0.282 C 
ENDBRANCH   9  11
ENDBRANCH   8   9
ENDBRANCH   7   8
BRANCH   7  13
ATOM     13  N   UNL A   1      33.221  23.156  23.993  1.00  0.00    -0.326 N 
ATOM     14  C   UNL A   1      34.539  23.374  23.795  1.00  0.00     0.318 C 
ATOM     15  H   UNL A   1      32.657  23.437  23.237  1.00  0.00     0.166 HD
ATOM     16  O   UNL A   1      34.810  24.143  22.869  1.00  0.00    -0.249 OA
BRANCH  14  17
ATOM     17  N   UNL A   1      35.502  22.829  24.598  1.00  0.00    -0.313 N 
ATOM     18  C   UNL A   1      36.118  21.506  24.446  1.00  0.00     0.183 C 
ATOM     19  C   UNL A   1      36.139  23.697  25.593  1.00  0.00     0.186 C 
ATOM     20  C   UNL A   1      37.361  21.254  25.326  1.00  0.00     0.284 C 
ATOM     21  C   UNL A   1      37.677  23.690  25.505  1.00  0.00     0.204 C 
ATOM     22  N   UNL A   1      38.317  22.362  25.378  1.00  0.00    -0.330 N 
ATOM     23  C   UNL A   1      38.319  24.342  26.731  1.00  0.00     0.073 C 
ATOM     24  C   UNL A   1      39.295  22.203  26.459  1.00  0.00     0.262 C 
ATOM     25  H   UNL A   1      38.795  22.325  24.478  1.00  0.00     0.348 HD
ATOM     26  C   UNL A   1      39.644  23.620  26.872  1.00  0.00     0.068 C 
ENDBRANCH  14  17
ENDBRANCH   7  13
ENDBRANCH   4   7
ENDBRANCH   2   3
ENDBRANCH   1   2
BRANCH   1  27
ATOM     27  C   UNL A   1      32.903  27.834  26.271  1.00  0.00     0.023 C 
BRANCH  27  28
ATOM     28  C   UNL A   1      34.068  28.808  26.118  1.00  0.00     0.116 C 
BRANCH  28  29
ATOM     29  N   UNL A   1      33.758  30.151  26.582  1.00  0.00    -0.352 N 
ATOM     30  C   UNL A   1      34.401  30.915  27.524  1.00  0.00     0.251 C 
ATOM     31  H   UNL A   1      32.974  30.572  26.160  1.00  0.00     0.163 HD
ATOM     32  O   UNL A   1      33.912  31.986  27.875  1.00  0.00    -0.269 OA
BRANCH  30  33
ATOM     33  C   UNL A   1      35.658  30.434  28.138  1.00  0.00     0.039 A 
ATOM     34  C   UNL A   1      36.863  31.008  27.730  1.00  0.00     0.014 A 
ATOM     35  C   UNL A   1      35.653  29.434  29.114  1.00  0.00     0.014 A 
ATOM     36  C   UNL A   1      38.056  30.620  28.343  1.00  0.00     0.010 A 
ATOM     37  C   UNL A   1      36.833  29.110  29.783  1.00  0.00     0.010 A 
ATOM     38  C   UNL A   1      38.048  29.695  29.401  1.00  0.00    -0.014 A 
BRANCH  38  39
ATOM     39  C   UNL A   1      39.308  29.348  30.110  1.00  0.00     0.031 A 
ATOM     40  C   UNL A   1      39.718  30.091  31.355  1.00  0.00     0.074 A 
ATOM     41  C   UNL A   1      40.096  28.370  29.620  1.00  0.00     0.049 A 
ATOM     42  N   UNL A   1      40.767  29.904  32.116  1.00  0.00    -0.248 NA
ATOM     43  C   UNL A   1      38.853  31.199  31.791  1.00  0.00     0.031 C 
ATOM     44  C   UNL A   1      39.841  27.615  28.389  1.00  0.00     0.029 A 
ATOM     45  N   UNL A   1      41.268  27.837  30.096  1.00  0.00    -0.354 N 
ATOM     46  C   UNL A   1      40.683  30.862  33.120  1.00  0.00     0.074 A 
ATOM     47  C   UNL A   1      39.522  31.674  32.831  1.00  0.00     0.031 C 
ATOM     48  C   UNL A   1      40.805  26.693  28.231  1.00  0.00     0.029 A 
ATOM     49  C   UNL A   1      41.765  26.814  29.322  1.00  0.00     0.049 A 
ATOM     50  H   UNL A   1      41.710  28.156  30.915  1.00  0.00     0.167 HD
ATOM     51  C   UNL A   1      41.480  31.032  34.202  1.00  0.00     0.031 A 
ATOM     52  C   UNL A   1      42.869  26.057  29.471  1.00  0.00     0.031 A 
ATOM     53  C   UNL A   1      42.638  30.227  34.486  1.00  0.00     0.049 A 
ATOM     54  C   UNL A   1      43.746  26.275  30.674  1.00  0.00     0.074 A 
ATOM     55  C   UNL A   1      43.494  30.300  35.572  1.00  0.00     0.029 A 
ATOM     56  N   UNL A   1      43.107  29.199  33.680  1.00  0.00    -0.354 N 
ATOM     57  N   UNL A   1      43.609  27.143  31.649  1.00  0.00    -0.248 NA
ATOM     58  C   UNL A   1      44.914  25.395  30.809  1.00  0.00     0.031 C 
ATOM     59  C   UNL A   1      44.509  29.353  35.395  1.00  0.00     0.029 A 
ATOM     60  C   UNL A   1      44.248  28.645  34.234  1.00  0.00     0.049 A 
ATOM     61  H   UNL A   1      42.689  28.908  32.837  1.00  0.00     0.167 HD
ATOM     62  C   UNL A   1      44.662  26.897  32.525  1.00  0.00     0.074 A 
ATOM     63  C   UNL A   1      45.406  25.781  31.979  1.00  0.00     0.031 C 
ATOM     64  C   UNL A   1      44.985  27.538  33.675  1.00  0.00     0.031 A 
BRANCH  51  65
ATOM     65  C   UNL A   1      41.114  32.128  35.171  1.00  0.00    -0.014 A 
ATOM     66  C   UNL A   1      40.211  31.888  36.225  1.00  0.00     0.010 A 
ATOM     67  C   UNL A   1      41.712  33.396  35.063  1.00  0.00     0.010 A 
ATOM     68  C   UNL A   1      39.887  32.903  37.128  1.00  0.00     0.020 A 
ATOM     69  C   UNL A   1      41.415  34.407  35.984  1.00  0.00     0.020 A 
ATOM     70  C   UNL A   1      40.492  34.156  37.002  1.00  0.00     0.054 A 
BRANCH  70  71
ATOM     71  S   UNL A   1      40.077  35.443  38.211  1.00  0.00     0.124 S 
ATOM     72  O   UNL A   1      39.029  34.794  38.995  1.00  0.00    -0.237 OA
ATOM     73  O   UNL A   1      41.345  35.648  38.907  1.00  0.00    -0.237 OA
ATOM     74  O   UNL A   1      39.633  36.565  37.388  1.00  0.00    -0.744 OA
ENDBRANCH  70  71
ENDBRANCH  51  65
BRANCH  52  75
ATOM     75  C   UNL A   1      43.208  25.021  28.455  1.00  0.00    -0.014 A 
ATOM     76  C   UNL A   1      43.920  25.355  27.290  1.00  0.00     0.010 A 
ATOM     77  C   UNL A   1      42.807  23.686  28.648  1.00  0.00     0.010 A 
ATOM     78  C   UNL A   1      44.195  24.382  26.322  1.00  0.00     0.020 A 
ATOM     79  C   UNL A   1      43.109  22.704  27.701  1.00  0.00     0.020 A 
ATOM     80  C   UNL A   1      43.787  23.063  26.535  1.00  0.00     0.054 A 
BRANCH  80  81
ATOM     81  S   UNL A   1      44.177  21.811  25.282  1.00  0.00     0.124 S 
ATOM     82  O   UNL A   1      43.816  22.497  24.046  1.00  0.00    -0.237 OA
ATOM     83  O   UNL A   1      45.605  21.590  25.490  1.00  0.00    -0.237 OA
ATOM     84  O   UNL A   1      43.321  20.683  25.646  1.00  0.00    -0.744 OA
ENDBRANCH  80  81
ENDBRANCH  52  75
BRANCH  64  85
ATOM     85  C   UNL A   1      46.180  27.025  34.437  1.00  0.00    -0.014 A 
ATOM     86  C   UNL A   1      47.478  27.493  34.165  1.00  0.00     0.010 A 
ATOM     87  C   UNL A   1      45.997  26.072  35.456  1.00  0.00     0.010 A 
ATOM     88  C   UNL A   1      48.576  26.978  34.861  1.00  0.00     0.020 A 
ATOM     89  C   UNL A   1      47.086  25.580  36.178  1.00  0.00     0.020 A 
ATOM     90  C   UNL A   1      48.372  26.020  35.860  1.00  0.00     0.054 A 
BRANCH  90  91
ATOM     91  S   UNL A   1      49.811  25.376  36.754  1.00  0.00     0.124 S 
ATOM     92  O   UNL A   1      50.486  24.594  35.722  1.00  0.00    -0.237 OA
ATOM     93  O   UNL A   1      50.501  26.594  37.173  1.00  0.00    -0.237 OA
ATOM     94  O   UNL A   1      49.224  24.595  37.841  1.00  0.00    -0.744 OA
ENDBRANCH  90  91
ENDBRANCH  64  85
ENDBRANCH  38  39
ENDBRANCH  30  33
ENDBRANCH  28  29
ENDBRANCH  27  28
ENDBRANCH   1  27
TORSDOF 19
ENDMDL
