MODEL 1
REMARK VINA RESULT:     -12.8      0.000      0.000
REMARK SMILES CC1(C)S[C@@H](c2cccc3c2sc2ccccc23)[NH2+][C@@H]1C(=O)NCCCCNC(=O)c1ccc(-c2c3nc(c(-c4ccc(S(=O)(=O)[O-])cc4)c4ccc([nH]4)c(-c4ccc(S(=O)(=O)[O-])cc4)c4nc(c(-c5ccc(S(=O)(=O)[O-])cc5)c5ccc2[nH]5)C=C4)C=C3)cc1
REMARK SMILES IDX 26 1 25 2 24 3 23 4 21 5 22 6 20 8 1 9 2 10 3 11 4 12 5 13
REMARK SMILES IDX 19 14 6 17 7 18 11 19 8 20 10 21 12 22 9 23 18 24 13 25
REMARK SMILES IDX 17 26 14 27 16 28 15 29 27 30 28 31 29 32 30 34 31 35 32 36
REMARK SMILES IDX 90 37 33 38 89 39 34 40 35 41 36 42 83 43 37 44 88 45 82 46
REMARK SMILES IDX 84 47 38 48 87 49 81 50 80 51 39 53 69 54 50 55 68 56 51 57
REMARK SMILES IDX 54 58 67 59 85 60 52 61 53 62 66 64 86 65 55 66 40 67 41 68
REMARK SMILES IDX 49 69 42 70 48 71 43 72 44 73 45 74 46 75 47 76 70 77 71 78
REMARK SMILES IDX 79 79 72 80 78 81 73 82 74 83 75 84 76 85 77 86 56 87 57 88
REMARK SMILES IDX 65 89 58 90 64 91 59 92 60 93 61 94 62 95 63 96
REMARK H PARENT 23 7 19 15 19 16 28 33 84 52 54 63
REMARK Flexibility Score: inf
ROOT
ATOM      1  C   UNL A   1      33.995  29.693  26.696  1.00  0.00     0.023 C 
ENDROOT
BRANCH   1   2
ATOM      2  C   UNL A   1      32.583  29.402  27.199  1.00  0.00     0.023 C 
BRANCH   2   3
ATOM      3  C   UNL A   1      32.314  27.966  27.637  1.00  0.00     0.116 C 
BRANCH   3   4
ATOM      4  N   UNL A   1      31.254  27.336  26.871  1.00  0.00    -0.351 N 
ATOM      5  C   UNL A   1      31.273  26.701  25.662  1.00  0.00     0.279 C 
ATOM      6  O   UNL A   1      30.182  26.280  25.271  1.00  0.00    -0.268 OA
ATOM      7  H   UNL A   1      30.367  27.374  27.297  1.00  0.00     0.163 HD
BRANCH   5   8
ATOM      8  C   UNL A   1      32.555  26.647  24.779  1.00  0.00     0.289 C 
ATOM      9  C   UNL A   1      33.584  26.885  22.457  1.00  0.00     0.030 C 
ATOM     10  C   UNL A   1      32.363  26.379  23.255  1.00  0.00     0.077 C 
ATOM     11  C   UNL A   1      31.105  26.940  22.593  1.00  0.00     0.030 C 
ATOM     12  S   UNL A   1      32.366  24.547  23.135  1.00  0.00    -0.081 SA
ATOM     13  C   UNL A   1      33.019  24.314  24.813  1.00  0.00     0.276 C 
ATOM     14  N   UNL A   1      33.517  25.617  25.262  1.00  0.00    -0.320 N 
ATOM     15  H   UNL A   1      34.442  25.792  24.871  1.00  0.00     0.348 HD
ATOM     16  H   UNL A   1      33.595  25.643  26.280  1.00  0.00     0.348 HD
BRANCH  13  17
ATOM     17  C   UNL A   1      34.108  23.260  24.912  1.00  0.00     0.038 A 
ATOM     18  C   UNL A   1      35.435  23.637  25.234  1.00  0.00     0.012 A 
ATOM     19  C   UNL A   1      33.864  21.865  24.750  1.00  0.00     0.046 A 
ATOM     20  C   UNL A   1      36.454  22.709  25.372  1.00  0.00     0.001 A 
ATOM     21  C   UNL A   1      34.880  20.909  24.865  1.00  0.00     0.001 A 
ATOM     22  S   UNL A   1      32.357  21.092  24.414  1.00  0.00    -0.135 S 
ATOM     23  C   UNL A   1      36.188  21.358  25.183  1.00  0.00     0.010 A 
ATOM     24  C   UNL A   1      34.406  19.557  24.620  1.00  0.00     0.000 A 
ATOM     25  C   UNL A   1      33.037  19.523  24.370  1.00  0.00     0.036 A 
ATOM     26  C   UNL A   1      35.113  18.325  24.603  1.00  0.00     0.010 A 
ATOM     27  C   UNL A   1      32.361  18.312  24.118  1.00  0.00     0.019 A 
ATOM     28  C   UNL A   1      34.451  17.122  24.343  1.00  0.00     0.001 A 
ATOM     29  C   UNL A   1      33.084  17.118  24.106  1.00  0.00     0.002 A 
ENDBRANCH  13  17
ENDBRANCH   5   8
ENDBRANCH   3   4
ENDBRANCH   2   3
ENDBRANCH   1   2
BRANCH   1  30
ATOM     30  C   UNL A   1      35.122  29.287  27.635  1.00  0.00     0.116 C 
BRANCH  30  31
ATOM     31  N   UNL A   1      35.185  30.108  28.835  1.00  0.00    -0.352 N 
ATOM     32  C   UNL A   1      36.246  30.341  29.678  1.00  0.00     0.251 C 
ATOM     33  H   UNL A   1      34.346  30.563  29.079  1.00  0.00     0.163 HD
ATOM     34  O   UNL A   1      36.070  30.948  30.732  1.00  0.00    -0.269 OA
BRANCH  32  35
ATOM     35  C   UNL A   1      37.592  29.836  29.329  1.00  0.00     0.039 A 
ATOM     36  C   UNL A   1      37.991  29.836  27.991  1.00  0.00     0.014 A 
ATOM     37  C   UNL A   1      38.461  29.370  30.320  1.00  0.00     0.014 A 
ATOM     38  C   UNL A   1      39.285  29.429  27.653  1.00  0.00     0.010 A 
ATOM     39  C   UNL A   1      39.774  29.046  29.992  1.00  0.00     0.010 A 
ATOM     40  C   UNL A   1      40.198  29.062  28.655  1.00  0.00    -0.014 A 
BRANCH  40  41
ATOM     41  C   UNL A   1      41.593  28.669  28.326  1.00  0.00     0.031 A 
ATOM     42  C   UNL A   1      42.680  29.711  28.292  1.00  0.00     0.074 A 
ATOM     43  C   UNL A   1      41.874  27.391  28.000  1.00  0.00     0.049 A 
ATOM     44  N   UNL A   1      43.940  29.581  27.964  1.00  0.00    -0.248 NA
ATOM     45  C   UNL A   1      42.292  31.087  28.645  1.00  0.00     0.031 C 
ATOM     46  C   UNL A   1      40.906  26.293  27.956  1.00  0.00     0.029 A 
ATOM     47  N   UNL A   1      43.060  26.801  27.637  1.00  0.00    -0.354 N 
ATOM     48  C   UNL A   1      44.487  30.857  28.050  1.00  0.00     0.074 A 
ATOM     49  C   UNL A   1      43.411  31.755  28.408  1.00  0.00     0.031 C 
ATOM     50  C   UNL A   1      41.541  25.160  27.613  1.00  0.00     0.029 A 
ATOM     51  C   UNL A   1      42.950  25.455  27.376  1.00  0.00     0.049 A 
ATOM     52  H   UNL A   1      43.909  27.295  27.569  1.00  0.00     0.167 HD
ATOM     53  C   UNL A   1      45.772  31.245  27.871  1.00  0.00     0.031 A 
ATOM     54  C   UNL A   1      43.878  24.559  26.985  1.00  0.00     0.031 A 
ATOM     55  C   UNL A   1      46.845  30.347  27.532  1.00  0.00     0.049 A 
ATOM     56  C   UNL A   1      45.301  25.013  26.796  1.00  0.00     0.074 A 
ATOM     57  C   UNL A   1      48.190  30.633  27.378  1.00  0.00     0.029 A 
ATOM     58  N   UNL A   1      46.695  28.989  27.299  1.00  0.00    -0.354 N 
ATOM     59  N   UNL A   1      45.809  26.214  26.937  1.00  0.00    -0.248 NA
ATOM     60  C   UNL A   1      46.279  23.985  26.412  1.00  0.00     0.031 C 
ATOM     61  C   UNL A   1      48.846  29.456  27.005  1.00  0.00     0.029 A 
ATOM     62  C   UNL A   1      47.920  28.425  26.988  1.00  0.00     0.049 A 
ATOM     63  H   UNL A   1      45.843  28.498  27.347  1.00  0.00     0.167 HD
ATOM     64  C   UNL A   1      47.172  26.079  26.693  1.00  0.00     0.074 A 
ATOM     65  C   UNL A   1      47.408  24.678  26.407  1.00  0.00     0.031 C 
ATOM     66  C   UNL A   1      48.141  27.028  26.710  1.00  0.00     0.031 A 
BRANCH  53  67
ATOM     67  C   UNL A   1      46.085  32.710  28.037  1.00  0.00    -0.014 A 
ATOM     68  C   UNL A   1      46.011  33.597  26.947  1.00  0.00     0.010 A 
ATOM     69  C   UNL A   1      46.431  33.213  29.304  1.00  0.00     0.010 A 
ATOM     70  C   UNL A   1      46.323  34.949  27.110  1.00  0.00     0.020 A 
ATOM     71  C   UNL A   1      46.715  34.571  29.478  1.00  0.00     0.020 A 
ATOM     72  C   UNL A   1      46.677  35.427  28.375  1.00  0.00     0.054 A 
BRANCH  72  73
ATOM     73  S   UNL A   1      47.061  37.189  28.562  1.00  0.00     0.124 S 
ATOM     74  O   UNL A   1      48.114  37.374  27.565  1.00  0.00    -0.237 OA
ATOM     75  O   UNL A   1      45.785  37.830  28.252  1.00  0.00    -0.237 OA
ATOM     76  O   UNL A   1      47.493  37.305  29.952  1.00  0.00    -0.744 OA
ENDBRANCH  72  73
ENDBRANCH  53  67
BRANCH  54  77
ATOM     77  C   UNL A   1      43.497  23.136  26.774  1.00  0.00    -0.014 A 
ATOM     78  C   UNL A   1      42.996  22.365  27.839  1.00  0.00     0.010 A 
ATOM     79  C   UNL A   1      43.625  22.543  25.504  1.00  0.00     0.010 A 
ATOM     80  C   UNL A   1      42.651  21.024  27.644  1.00  0.00     0.020 A 
ATOM     81  C   UNL A   1      43.255  21.210  25.299  1.00  0.00     0.020 A 
ATOM     82  C   UNL A   1      42.782  20.455  26.374  1.00  0.00     0.054 A 
BRANCH  82  83
ATOM     83  S   UNL A   1      42.283  18.728  26.134  1.00  0.00     0.124 S 
ATOM     84  O   UNL A   1      42.507  18.159  27.460  1.00  0.00    -0.237 OA
ATOM     85  O   UNL A   1      40.886  18.856  25.729  1.00  0.00    -0.237 OA
ATOM     86  O   UNL A   1      43.186  18.253  25.087  1.00  0.00    -0.744 OA
ENDBRANCH  82  83
ENDBRANCH  54  77
BRANCH  66  87
ATOM     87  C   UNL A   1      49.557  26.578  26.462  1.00  0.00    -0.014 A 
ATOM     88  C   UNL A   1      50.357  26.065  27.499  1.00  0.00     0.010 A 
ATOM     89  C   UNL A   1      50.077  26.629  25.156  1.00  0.00     0.010 A 
ATOM     90  C   UNL A   1      51.666  25.650  27.239  1.00  0.00     0.020 A 
ATOM     91  C   UNL A   1      51.375  26.188  24.888  1.00  0.00     0.020 A 
ATOM     92  C   UNL A   1      52.168  25.716  25.935  1.00  0.00     0.054 A 
BRANCH  92  93
ATOM     93  S   UNL A   1      53.859  25.144  25.618  1.00  0.00     0.124 S 
ATOM     94  O   UNL A   1      54.190  25.846  24.381  1.00  0.00    -0.237 OA
ATOM     95  O   UNL A   1      54.579  25.592  26.807  1.00  0.00    -0.237 OA
ATOM     96  O   UNL A   1      53.716  23.695  25.492  1.00  0.00    -0.744 OA
ENDBRANCH  92  93
ENDBRANCH  66  87
ENDBRANCH  40  41
ENDBRANCH  32  35
ENDBRANCH  30  31
ENDBRANCH   1  30
TORSDOF 15
ENDMDL
MODEL 2
REMARK VINA RESULT:     -12.7      2.752      3.345
REMARK SMILES CC1(C)S[C@@H](c2cccc3c2sc2ccccc23)[NH2+][C@@H]1C(=O)NCCCCNC(=O)c1ccc(-c2c3nc(c(-c4ccc(S(=O)(=O)[O-])cc4)c4ccc([nH]4)c(-c4ccc(S(=O)(=O)[O-])cc4)c4nc(c(-c5ccc(S(=O)(=O)[O-])cc5)c5ccc2[nH]5)C=C4)C=C3)cc1
REMARK SMILES IDX 26 1 25 2 24 3 23 4 21 5 22 6 20 8 1 9 2 10 3 11 4 12 5 13
REMARK SMILES IDX 19 14 6 17 7 18 11 19 8 20 10 21 12 22 9 23 18 24 13 25
REMARK SMILES IDX 17 26 14 27 16 28 15 29 27 30 28 31 29 32 30 34 31 35 32 36
REMARK SMILES IDX 90 37 33 38 89 39 34 40 35 41 36 42 83 43 37 44 88 45 82 46
REMARK SMILES IDX 84 47 38 48 87 49 81 50 80 51 39 53 69 54 50 55 68 56 51 57
REMARK SMILES IDX 54 58 67 59 85 60 52 61 53 62 66 64 86 65 55 66 40 67 41 68
REMARK SMILES IDX 49 69 42 70 48 71 43 72 44 73 45 74 46 75 47 76 70 77 71 78
REMARK SMILES IDX 79 79 72 80 78 81 73 82 74 83 75 84 76 85 77 86 56 87 57 88
REMARK SMILES IDX 65 89 58 90 64 91 59 92 60 93 61 94 62 95 63 96
REMARK H PARENT 23 7 19 15 19 16 28 33 84 52 54 63
REMARK Flexibility Score: inf
ROOT
ATOM      1  C   UNL A   1      33.055  28.703  25.124  1.00  0.00     0.023 C 
ENDROOT
BRANCH   1   2
ATOM      2  C   UNL A   1      31.637  28.465  25.637  1.00  0.00     0.023 C 
BRANCH   2   3
ATOM      3  C   UNL A   1      31.514  27.564  26.861  1.00  0.00     0.116 C 
BRANCH   3   4
ATOM      4  N   UNL A   1      30.893  26.287  26.556  1.00  0.00    -0.351 N 
ATOM      5  C   UNL A   1      31.323  25.238  25.794  1.00  0.00     0.279 C 
ATOM      6  O   UNL A   1      30.543  24.286  25.722  1.00  0.00    -0.268 OA
ATOM      7  H   UNL A   1      30.010  26.154  26.971  1.00  0.00     0.163 HD
BRANCH   5   8
ATOM      8  C   UNL A   1      32.636  25.309  24.959  1.00  0.00     0.289 C 
ATOM      9  C   UNL A   1      33.743  25.849  22.726  1.00  0.00     0.030 C 
ATOM     10  C   UNL A   1      32.502  25.235  23.408  1.00  0.00     0.077 C 
ATOM     11  C   UNL A   1      31.260  25.867  22.777  1.00  0.00     0.030 C 
ATOM     12  S   UNL A   1      32.532  23.434  23.056  1.00  0.00    -0.081 SA
ATOM     13  C   UNL A   1      33.128  22.994  24.713  1.00  0.00     0.276 C 
ATOM     14  N   UNL A   1      33.593  24.232  25.343  1.00  0.00    -0.320 N 
ATOM     15  H   UNL A   1      34.529  24.463  25.011  1.00  0.00     0.348 HD
ATOM     16  H   UNL A   1      33.634  24.130  26.357  1.00  0.00     0.348 HD
BRANCH  13  17
ATOM     17  C   UNL A   1      34.226  21.945  24.717  1.00  0.00     0.038 A 
ATOM     18  C   UNL A   1      35.587  22.339  24.693  1.00  0.00     0.012 A 
ATOM     19  C   UNL A   1      33.971  20.545  24.801  1.00  0.00     0.046 A 
ATOM     20  C   UNL A   1      36.623  21.421  24.733  1.00  0.00     0.001 A 
ATOM     21  C   UNL A   1      35.001  19.596  24.823  1.00  0.00     0.001 A 
ATOM     22  S   UNL A   1      32.437  19.759  24.903  1.00  0.00    -0.135 S 
ATOM     23  C   UNL A   1      36.340  20.062  24.789  1.00  0.00     0.010 A 
ATOM     24  C   UNL A   1      34.502  18.232  24.870  1.00  0.00     0.000 A 
ATOM     25  C   UNL A   1      33.112  18.187  24.926  1.00  0.00     0.036 A 
ATOM     26  C   UNL A   1      35.204  16.997  24.868  1.00  0.00     0.010 A 
ATOM     27  C   UNL A   1      32.412  16.965  24.991  1.00  0.00     0.019 A 
ATOM     28  C   UNL A   1      34.517  15.781  24.921  1.00  0.00     0.001 A 
ATOM     29  C   UNL A   1      33.132  15.768  24.985  1.00  0.00     0.002 A 
ENDBRANCH  13  17
ENDBRANCH   5   8
ENDBRANCH   3   4
ENDBRANCH   2   3
ENDBRANCH   1   2
BRANCH   1  30
ATOM     30  C   UNL A   1      34.110  28.932  26.197  1.00  0.00     0.116 C 
BRANCH  30  31
ATOM     31  N   UNL A   1      33.842  30.104  27.017  1.00  0.00    -0.352 N 
ATOM     32  C   UNL A   1      34.607  30.665  28.013  1.00  0.00     0.251 C 
ATOM     33  H   UNL A   1      32.991  30.563  26.831  1.00  0.00     0.163 HD
ATOM     34  O   UNL A   1      34.147  31.573  28.701  1.00  0.00    -0.269 OA
BRANCH  32  35
ATOM     35  C   UNL A   1      35.971  30.156  28.273  1.00  0.00     0.039 A 
ATOM     36  C   UNL A   1      36.940  30.270  27.274  1.00  0.00     0.014 A 
ATOM     37  C   UNL A   1      36.296  29.573  29.501  1.00  0.00     0.014 A 
ATOM     38  C   UNL A   1      38.252  29.858  27.530  1.00  0.00     0.010 A 
ATOM     39  C   UNL A   1      37.618  29.242  29.783  1.00  0.00     0.010 A 
ATOM     40  C   UNL A   1      38.609  29.372  28.798  1.00  0.00    -0.014 A 
BRANCH  40  41
ATOM     41  C   UNL A   1      40.005  28.970  29.109  1.00  0.00     0.031 A 
ATOM     42  C   UNL A   1      40.947  29.958  29.748  1.00  0.00     0.074 A 
ATOM     43  C   UNL A   1      40.446  27.743  28.766  1.00  0.00     0.049 A 
ATOM     44  N   UNL A   1      42.216  29.822  30.036  1.00  0.00    -0.248 NA
ATOM     45  C   UNL A   1      40.396  31.283  30.079  1.00  0.00     0.031 C 
ATOM     46  C   UNL A   1      39.648  26.707  28.106  1.00  0.00     0.029 A 
ATOM     47  N   UNL A   1      41.681  27.162  28.919  1.00  0.00    -0.354 N 
ATOM     48  C   UNL A   1      42.618  31.046  30.560  1.00  0.00     0.074 A 
ATOM     49  C   UNL A   1      41.474  31.928  30.499  1.00  0.00     0.031 C 
ATOM     50  C   UNL A   1      40.404  25.610  27.937  1.00  0.00     0.029 A 
ATOM     51  C   UNL A   1      41.749  25.875  28.438  1.00  0.00     0.049 A 
ATOM     52  H   UNL A   1      42.446  27.622  29.334  1.00  0.00     0.167 HD
ATOM     53  C   UNL A   1      43.823  31.399  31.067  1.00  0.00     0.031 A 
ATOM     54  C   UNL A   1      42.779  25.007  28.401  1.00  0.00     0.031 A 
ATOM     55  C   UNL A   1      44.956  30.515  31.142  1.00  0.00     0.049 A 
ATOM     56  C   UNL A   1      44.108  25.420  28.974  1.00  0.00     0.074 A 
ATOM     57  C   UNL A   1      46.205  30.761  31.684  1.00  0.00     0.029 A 
ATOM     58  N   UNL A   1      44.976  29.214  30.665  1.00  0.00    -0.354 N 
ATOM     59  N   UNL A   1      44.452  26.564  29.516  1.00  0.00    -0.248 NA
ATOM     60  C   UNL A   1      45.183  24.418  28.945  1.00  0.00     0.031 C 
ATOM     61  C   UNL A   1      46.996  29.624  31.492  1.00  0.00     0.029 A 
ATOM     62  C   UNL A   1      46.220  28.648  30.886  1.00  0.00     0.049 A 
ATOM     63  H   UNL A   1      44.218  28.759  30.232  1.00  0.00     0.167 HD
ATOM     64  C   UNL A   1      45.773  26.406  29.925  1.00  0.00     0.074 A 
ATOM     65  C   UNL A   1      46.158  25.054  29.577  1.00  0.00     0.031 C 
ATOM     66  C   UNL A   1      46.589  27.299  30.538  1.00  0.00     0.031 A 
BRANCH  53  67
ATOM     67  C   UNL A   1      43.975  32.809  31.578  1.00  0.00    -0.014 A 
ATOM     68  C   UNL A   1      43.741  33.120  32.931  1.00  0.00     0.010 A 
ATOM     69  C   UNL A   1      44.384  33.832  30.703  1.00  0.00     0.010 A 
ATOM     70  C   UNL A   1      43.865  34.435  33.388  1.00  0.00     0.020 A 
ATOM     71  C   UNL A   1      44.540  35.142  31.163  1.00  0.00     0.020 A 
ATOM     72  C   UNL A   1      44.260  35.439  32.499  1.00  0.00     0.054 A 
BRANCH  72  73
ATOM     73  S   UNL A   1      44.431  37.133  33.123  1.00  0.00     0.124 S 
ATOM     74  O   UNL A   1      45.547  36.999  34.056  1.00  0.00    -0.237 OA
ATOM     75  O   UNL A   1      44.716  37.895  31.910  1.00  0.00    -0.237 OA
ATOM     76  O   UNL A   1      43.135  37.409  33.738  1.00  0.00    -0.744 OA
ENDBRANCH  72  73
ENDBRANCH  53  67
BRANCH  54  77
ATOM     77  C   UNL A   1      42.587  23.648  27.824  1.00  0.00    -0.014 A 
ATOM     78  C   UNL A   1      41.953  22.637  28.571  1.00  0.00     0.010 A 
ATOM     79  C   UNL A   1      43.029  23.356  26.520  1.00  0.00     0.010 A 
ATOM     80  C   UNL A   1      41.785  21.358  28.034  1.00  0.00     0.020 A 
ATOM     81  C   UNL A   1      42.837  22.085  25.970  1.00  0.00     0.020 A 
ATOM     82  C   UNL A   1      42.228  21.089  26.736  1.00  0.00     0.054 A 
BRANCH  82  83
ATOM     83  S   UNL A   1      41.955  19.435  26.043  1.00  0.00     0.124 S 
ATOM     84  O   UNL A   1      42.461  18.573  27.108  1.00  0.00    -0.237 OA
ATOM     85  O   UNL A   1      40.509  19.411  25.842  1.00  0.00    -0.237 OA
ATOM     86  O   UNL A   1      42.747  19.444  24.814  1.00  0.00    -0.744 OA
ENDBRANCH  82  83
ENDBRANCH  54  77
BRANCH  66  87
ATOM     87  C   UNL A   1      47.967  26.828  30.922  1.00  0.00    -0.014 A 
ATOM     88  C   UNL A   1      49.078  27.048  30.087  1.00  0.00     0.010 A 
ATOM     89  C   UNL A   1      48.157  26.193  32.162  1.00  0.00     0.010 A 
ATOM     90  C   UNL A   1      50.346  26.605  30.471  1.00  0.00     0.020 A 
ATOM     91  C   UNL A   1      49.429  25.774  32.561  1.00  0.00     0.020 A 
ATOM     92  C   UNL A   1      50.513  25.968  31.704  1.00  0.00     0.054 A 
BRANCH  92  93
ATOM     93  S   UNL A   1      52.174  25.427  32.193  1.00  0.00     0.124 S 
ATOM     94  O   UNL A   1      52.393  26.190  33.419  1.00  0.00    -0.237 OA
ATOM     95  O   UNL A   1      52.005  23.987  32.370  1.00  0.00    -0.237 OA
ATOM     96  O   UNL A   1      53.012  25.816  31.060  1.00  0.00    -0.744 OA
ENDBRANCH  92  93
ENDBRANCH  66  87
ENDBRANCH  40  41
ENDBRANCH  32  35
ENDBRANCH  30  31
ENDBRANCH   1  30
TORSDOF 15
ENDMDL
MODEL 3
REMARK VINA RESULT:     -12.7      6.387     12.250
REMARK SMILES CC1(C)S[C@@H](c2cccc3c2sc2ccccc23)[NH2+][C@@H]1C(=O)NCCCCNC(=O)c1ccc(-c2c3nc(c(-c4ccc(S(=O)(=O)[O-])cc4)c4ccc([nH]4)c(-c4ccc(S(=O)(=O)[O-])cc4)c4nc(c(-c5ccc(S(=O)(=O)[O-])cc5)c5ccc2[nH]5)C=C4)C=C3)cc1
REMARK SMILES IDX 26 1 25 2 24 3 23 4 21 5 22 6 20 8 1 9 2 10 3 11 4 12 5 13
REMARK SMILES IDX 19 14 6 17 7 18 11 19 8 20 10 21 12 22 9 23 18 24 13 25
REMARK SMILES IDX 17 26 14 27 16 28 15 29 27 30 28 31 29 32 30 34 31 35 32 36
REMARK SMILES IDX 90 37 33 38 89 39 34 40 35 41 36 42 83 43 37 44 88 45 82 46
REMARK SMILES IDX 84 47 38 48 87 49 81 50 80 51 39 53 69 54 50 55 68 56 51 57
REMARK SMILES IDX 54 58 67 59 85 60 52 61 53 62 66 64 86 65 55 66 40 67 41 68
REMARK SMILES IDX 49 69 42 70 48 71 43 72 44 73 45 74 46 75 47 76 70 77 71 78
REMARK SMILES IDX 79 79 72 80 78 81 73 82 74 83 75 84 76 85 77 86 56 87 57 88
REMARK SMILES IDX 65 89 58 90 64 91 59 92 60 93 61 94 62 95 63 96
REMARK H PARENT 23 7 19 15 19 16 28 33 84 52 54 63
REMARK Flexibility Score: inf
ROOT
ATOM      1  C   UNL A   1      37.695  23.897  25.976  1.00  0.00     0.023 C 
ENDROOT
BRANCH   1   2
ATOM      2  C   UNL A   1      37.524  22.845  24.883  1.00  0.00     0.023 C 
BRANCH   2   3
ATOM      3  C   UNL A   1      36.206  22.077  24.897  1.00  0.00     0.116 C 
BRANCH   3   4
ATOM      4  N   UNL A   1      35.291  22.517  23.859  1.00  0.00    -0.351 N 
ATOM      5  C   UNL A   1      34.171  23.296  23.919  1.00  0.00     0.279 C 
ATOM      6  O   UNL A   1      33.597  23.478  22.843  1.00  0.00    -0.268 OA
ATOM      7  H   UNL A   1      35.517  22.199  22.955  1.00  0.00     0.163 HD
BRANCH   5   8
ATOM      8  C   UNL A   1      33.582  23.792  25.273  1.00  0.00     0.289 C 
ATOM      9  C   UNL A   1      31.861  23.460  27.125  1.00  0.00     0.030 C 
ATOM     10  C   UNL A   1      32.113  23.392  25.604  1.00  0.00     0.077 C 
ATOM     11  C   UNL A   1      31.624  22.031  25.108  1.00  0.00     0.030 C 
ATOM     12  S   UNL A   1      31.117  24.729  24.835  1.00  0.00    -0.081 SA
ATOM     13  C   UNL A   1      32.546  25.821  24.588  1.00  0.00     0.276 C 
ATOM     14  N   UNL A   1      33.643  25.277  25.392  1.00  0.00    -0.320 N 
ATOM     15  H   UNL A   1      33.534  25.554  26.367  1.00  0.00     0.348 HD
ATOM     16  H   UNL A   1      34.543  25.630  25.063  1.00  0.00     0.348 HD
BRANCH  13  17
ATOM     17  C   UNL A   1      32.284  27.273  24.952  1.00  0.00     0.038 A 
ATOM     18  C   UNL A   1      33.089  27.920  25.921  1.00  0.00     0.012 A 
ATOM     19  C   UNL A   1      31.284  28.069  24.321  1.00  0.00     0.046 A 
ATOM     20  C   UNL A   1      32.914  29.252  26.259  1.00  0.00     0.001 A 
ATOM     21  C   UNL A   1      31.074  29.412  24.658  1.00  0.00     0.001 A 
ATOM     22  S   UNL A   1      30.191  27.592  23.072  1.00  0.00    -0.135 S 
ATOM     23  C   UNL A   1      31.912  29.994  25.643  1.00  0.00     0.010 A 
ATOM     24  C   UNL A   1      29.976  30.009  23.916  1.00  0.00     0.000 A 
ATOM     25  C   UNL A   1      29.415  29.115  23.007  1.00  0.00     0.036 A 
ATOM     26  C   UNL A   1      29.424  31.316  23.984  1.00  0.00     0.010 A 
ATOM     27  C   UNL A   1      28.344  29.486  22.170  1.00  0.00     0.019 A 
ATOM     28  C   UNL A   1      28.354  31.687  23.166  1.00  0.00     0.001 A 
ATOM     29  C   UNL A   1      27.821  30.778  22.264  1.00  0.00     0.002 A 
ENDBRANCH  13  17
ENDBRANCH   5   8
ENDBRANCH   3   4
ENDBRANCH   2   3
ENDBRANCH   1   2
BRANCH   1  30
ATOM     30  C   UNL A   1      38.886  23.693  26.902  1.00  0.00     0.116 C 
BRANCH  30  31
ATOM     31  N   UNL A   1      40.164  23.901  26.239  1.00  0.00    -0.352 N 
ATOM     32  C   UNL A   1      41.059  24.936  26.375  1.00  0.00     0.251 C 
ATOM     33  H   UNL A   1      40.427  23.198  25.600  1.00  0.00     0.163 HD
ATOM     34  O   UNL A   1      42.023  25.016  25.617  1.00  0.00    -0.269 OA
BRANCH  32  35
ATOM     35  C   UNL A   1      40.845  25.966  27.415  1.00  0.00     0.039 A 
ATOM     36  C   UNL A   1      39.914  25.725  28.427  1.00  0.00     0.014 A 
ATOM     37  C   UNL A   1      41.565  27.164  27.395  1.00  0.00     0.014 A 
ATOM     38  C   UNL A   1      39.752  26.658  29.456  1.00  0.00     0.010 A 
ATOM     39  C   UNL A   1      41.464  28.050  28.463  1.00  0.00     0.010 A 
ATOM     40  C   UNL A   1      40.550  27.812  29.501  1.00  0.00    -0.014 A 
BRANCH  40  41
ATOM     41  C   UNL A   1      40.429  28.797  30.607  1.00  0.00     0.031 A 
ATOM     42  C   UNL A   1      41.306  28.669  31.825  1.00  0.00     0.074 A 
ATOM     43  C   UNL A   1      39.494  29.767  30.548  1.00  0.00     0.049 A 
ATOM     44  N   UNL A   1      41.307  29.385  32.921  1.00  0.00    -0.248 NA
ATOM     45  C   UNL A   1      42.291  27.575  31.823  1.00  0.00     0.031 C 
ATOM     46  C   UNL A   1      38.555  29.975  29.442  1.00  0.00     0.029 A 
ATOM     47  N   UNL A   1      39.175  30.758  31.443  1.00  0.00    -0.354 N 
ATOM     48  C   UNL A   1      42.273  28.816  33.744  1.00  0.00     0.074 A 
ATOM     49  C   UNL A   1      42.799  27.665  33.044  1.00  0.00     0.031 C 
ATOM     50  C   UNL A   1      37.787  31.043  29.714  1.00  0.00     0.029 A 
ATOM     51  C   UNL A   1      38.148  31.571  31.025  1.00  0.00     0.049 A 
ATOM     52  H   UNL A   1      39.639  30.875  32.304  1.00  0.00     0.167 HD
ATOM     53  C   UNL A   1      42.702  29.225  34.961  1.00  0.00     0.031 A 
ATOM     54  C   UNL A   1      37.560  32.621  31.631  1.00  0.00     0.031 A 
ATOM     55  C   UNL A   1      42.190  30.381  35.649  1.00  0.00     0.049 A 
ATOM     56  C   UNL A   1      38.056  33.061  32.982  1.00  0.00     0.074 A 
ATOM     57  C   UNL A   1      42.592  30.908  36.863  1.00  0.00     0.029 A 
ATOM     58  N   UNL A   1      41.165  31.189  35.181  1.00  0.00    -0.354 N 
ATOM     59  N   UNL A   1      39.010  32.543  33.719  1.00  0.00    -0.248 NA
ATOM     60  C   UNL A   1      37.407  34.238  33.576  1.00  0.00     0.031 C 
ATOM     61  C   UNL A   1      41.780  32.010  37.152  1.00  0.00     0.029 A 
ATOM     62  C   UNL A   1      40.912  32.204  36.088  1.00  0.00     0.049 A 
ATOM     63  H   UNL A   1      40.688  31.061  34.329  1.00  0.00     0.167 HD
ATOM     64  C   UNL A   1      39.098  33.352  34.848  1.00  0.00     0.074 A 
ATOM     65  C   UNL A   1      38.110  34.400  34.688  1.00  0.00     0.031 C 
ATOM     66  C   UNL A   1      39.928  33.242  35.915  1.00  0.00     0.031 A 
BRANCH  53  67
ATOM     67  C   UNL A   1      43.780  28.410  35.628  1.00  0.00    -0.014 A 
ATOM     68  C   UNL A   1      45.142  28.688  35.407  1.00  0.00     0.010 A 
ATOM     69  C   UNL A   1      43.430  27.371  36.508  1.00  0.00     0.010 A 
ATOM     70  C   UNL A   1      46.132  27.912  36.015  1.00  0.00     0.020 A 
ATOM     71  C   UNL A   1      44.418  26.611  37.143  1.00  0.00     0.020 A 
ATOM     72  C   UNL A   1      45.763  26.875  36.877  1.00  0.00     0.054 A 
BRANCH  72  73
ATOM     73  S   UNL A   1      47.069  25.895  37.666  1.00  0.00     0.124 S 
ATOM     74  O   UNL A   1      46.709  25.997  39.078  1.00  0.00    -0.237 OA
ATOM     75  O   UNL A   1      46.886  24.575  37.067  1.00  0.00    -0.237 OA
ATOM     76  O   UNL A   1      48.299  26.585  37.285  1.00  0.00    -0.744 OA
ENDBRANCH  72  73
ENDBRANCH  53  67
BRANCH  54  77
ATOM     77  C   UNL A   1      36.453  33.350  30.951  1.00  0.00    -0.014 A 
ATOM     78  C   UNL A   1      35.197  33.480  31.571  1.00  0.00     0.010 A 
ATOM     79  C   UNL A   1      36.651  33.925  29.682  1.00  0.00     0.010 A 
ATOM     80  C   UNL A   1      34.154  34.152  30.926  1.00  0.00     0.020 A 
ATOM     81  C   UNL A   1      35.618  34.622  29.047  1.00  0.00     0.020 A 
ATOM     82  C   UNL A   1      34.372  34.720  29.669  1.00  0.00     0.054 A 
BRANCH  82  83
ATOM     83  S   UNL A   1      33.018  35.628  28.873  1.00  0.00     0.124 S 
ATOM     84  O   UNL A   1      32.386  34.588  28.066  1.00  0.00    -0.237 OA
ATOM     85  O   UNL A   1      32.241  36.102  30.015  1.00  0.00    -0.237 OA
ATOM     86  O   UNL A   1      33.705  36.675  28.120  1.00  0.00    -0.744 OA
ENDBRANCH  82  83
ENDBRANCH  54  77
BRANCH  66  87
ATOM     87  C   UNL A   1      39.840  34.310  36.974  1.00  0.00    -0.014 A 
ATOM     88  C   UNL A   1      40.538  35.524  36.853  1.00  0.00     0.010 A 
ATOM     89  C   UNL A   1      39.007  34.105  38.089  1.00  0.00     0.010 A 
ATOM     90  C   UNL A   1      40.434  36.499  37.848  1.00  0.00     0.020 A 
ATOM     91  C   UNL A   1      38.878  35.090  39.072  1.00  0.00     0.020 A 
ATOM     92  C   UNL A   1      39.606  36.274  38.953  1.00  0.00     0.054 A 
BRANCH  92  93
ATOM     93  S   UNL A   1      39.465  37.566  40.218  1.00  0.00     0.124 S 
ATOM     94  O   UNL A   1      38.958  36.816  41.364  1.00  0.00    -0.237 OA
ATOM     95  O   UNL A   1      40.838  38.049  40.340  1.00  0.00    -0.237 OA
ATOM     96  O   UNL A   1      38.525  38.521  39.634  1.00  0.00    -0.744 OA
ENDBRANCH  92  93
ENDBRANCH  66  87
ENDBRANCH  40  41
ENDBRANCH  32  35
ENDBRANCH  30  31
ENDBRANCH   1  30
TORSDOF 15
ENDMDL
