MODEL 1
REMARK VINA RESULT:     -12.6      0.000      0.000
REMARK SMILES Cc1cc2[nH]c(=O)[nH]c2cc1S(=O)(=O)NCCC(=O)NCCCCNC(=O)c1ccc(-c2c3nc(c(-c4ccc(S(=O)(=O)[O-])cc4)c4ccc([nH]4)c(-c4ccc(S(=O)(=O)[O-])cc4)c4nc(c(-c5ccc(S(=O)(=O)[O-])cc5)c5ccc2[nH]5)C=C4)C=C3)cc1
REMARK SMILES IDX 22 1 21 2 20 3 18 4 19 5 17 7 16 8 15 9 12 11 13 12 14 13
REMARK SMILES IDX 11 14 1 15 2 16 3 17 4 18 10 19 5 20 9 21 6 22 8 24 7 25
REMARK SMILES IDX 23 27 24 28 25 29 26 30 27 32 28 33 29 34 87 35 30 36 86 37
REMARK SMILES IDX 31 38 32 39 33 40 80 41 34 42 85 43 79 44 81 45 35 46 84 47
REMARK SMILES IDX 78 48 77 49 36 51 66 52 47 53 65 54 48 55 51 56 64 57 82 58
REMARK SMILES IDX 49 59 50 60 63 62 83 63 52 64 37 65 38 66 46 67 39 68 45 69
REMARK SMILES IDX 40 70 41 71 42 72 43 73 44 74 67 75 68 76 76 77 69 78 75 79
REMARK SMILES IDX 70 80 71 81 72 82 73 83 74 84 53 85 54 86 62 87 55 88 61 89
REMARK SMILES IDX 56 90 57 91 58 92 59 93 60 94
REMARK H PARENT 20 6 15 10 5 23 8 26 25 31 81 50 51 61
REMARK Flexibility Score: inf
ROOT
ATOM      1  C   UNL A   1      39.601  21.607  25.893  1.00  0.00     0.023 C 
ENDROOT
BRANCH   1   2
ATOM      2  C   UNL A   1      38.187  22.185  25.933  1.00  0.00     0.116 C 
BRANCH   2   3
ATOM      3  N   UNL A   1      37.653  22.392  24.606  1.00  0.00    -0.356 N 
ATOM      4  C   UNL A   1      36.568  23.124  24.230  1.00  0.00     0.221 C 
ATOM      5  O   UNL A   1      36.306  23.218  23.030  1.00  0.00    -0.275 OA
ATOM      6  H   UNL A   1      38.138  21.944  23.875  1.00  0.00     0.163 HD
BRANCH   4   7
ATOM      7  C   UNL A   1      35.725  23.841  25.266  1.00  0.00     0.116 C 
BRANCH   7   8
ATOM      8  C   UNL A   1      34.298  24.138  24.827  1.00  0.00     0.109 C 
BRANCH   8   9
ATOM      9  N   UNL A   1      33.531  22.991  24.337  1.00  0.00    -0.211 NA
ATOM     10  H   UNL A   1      32.920  23.364  23.610  1.00  0.00     0.141 HD
BRANCH   9  11
ATOM     11  S   UNL A   1      32.558  22.012  25.271  1.00  0.00     0.240 S 
ATOM     12  O   UNL A   1      31.192  22.443  25.079  1.00  0.00    -0.207 OA
ATOM     13  O   UNL A   1      33.155  21.988  26.589  1.00  0.00    -0.207 OA
BRANCH  11  14
ATOM     14  C   UNL A   1      32.645  20.353  24.657  1.00  0.00     0.087 A 
ATOM     15  C   UNL A   1      32.051  20.931  22.215  1.00  0.00     0.046 C 
ATOM     16  C   UNL A   1      32.342  19.961  23.325  1.00  0.00    -0.029 A 
ATOM     17  C   UNL A   1      32.323  18.583  23.012  1.00  0.00     0.033 A 
ATOM     18  C   UNL A   1      32.678  17.691  23.998  1.00  0.00     0.067 A 
ATOM     19  C   UNL A   1      33.041  19.417  25.636  1.00  0.00     0.050 A 
ATOM     20  N   UNL A   1      32.759  16.304  23.962  1.00  0.00    -0.306 N 
ATOM     21  C   UNL A   1      33.051  18.102  25.269  1.00  0.00     0.068 A 
ATOM     22  C   UNL A   1      33.203  15.844  25.212  1.00  0.00     0.323 A 
ATOM     23  H   UNL A   1      32.540  15.737  23.188  1.00  0.00     0.171 HD
ATOM     24  N   UNL A   1      33.387  16.979  26.013  1.00  0.00    -0.306 N 
ATOM     25  O   UNL A   1      33.386  14.686  25.539  1.00  0.00    -0.248 OA
ATOM     26  H   UNL A   1      33.701  16.980  26.946  1.00  0.00     0.171 HD
ENDBRANCH  11  14
ENDBRANCH   9  11
ENDBRANCH   8   9
ENDBRANCH   7   8
ENDBRANCH   4   7
ENDBRANCH   2   3
ENDBRANCH   1   2
BRANCH   1  27
ATOM     27  C   UNL A   1      40.336  21.694  27.231  1.00  0.00     0.023 C 
BRANCH  27  28
ATOM     28  C   UNL A   1      41.861  21.630  27.097  1.00  0.00     0.116 C 
BRANCH  28  29
ATOM     29  N   UNL A   1      42.349  22.091  25.815  1.00  0.00    -0.352 N 
ATOM     30  C   UNL A   1      42.895  23.270  25.392  1.00  0.00     0.251 C 
ATOM     31  H   UNL A   1      42.273  21.416  25.102  1.00  0.00     0.163 HD
ATOM     32  O   UNL A   1      43.511  23.236  24.324  1.00  0.00    -0.269 OA
BRANCH  30  33
ATOM     33  C   UNL A   1      42.719  24.578  26.082  1.00  0.00     0.039 A 
ATOM     34  C   UNL A   1      43.370  24.973  27.249  1.00  0.00     0.014 A 
ATOM     35  C   UNL A   1      41.722  25.420  25.549  1.00  0.00     0.014 A 
ATOM     36  C   UNL A   1      42.967  26.118  27.924  1.00  0.00     0.010 A 
ATOM     37  C   UNL A   1      41.320  26.571  26.214  1.00  0.00     0.010 A 
ATOM     38  C   UNL A   1      41.913  26.890  27.429  1.00  0.00    -0.014 A 
BRANCH  38  39
ATOM     39  C   UNL A   1      41.584  28.119  28.142  1.00  0.00     0.031 A 
ATOM     40  C   UNL A   1      42.639  29.161  28.022  1.00  0.00     0.074 A 
ATOM     41  C   UNL A   1      40.425  28.332  28.800  1.00  0.00     0.049 A 
ATOM     42  N   UNL A   1      43.401  29.613  28.960  1.00  0.00    -0.248 NA
ATOM     43  C   UNL A   1      43.015  29.618  26.673  1.00  0.00     0.031 C 
ATOM     44  C   UNL A   1      39.222  27.495  28.809  1.00  0.00     0.029 A 
ATOM     45  N   UNL A   1      40.045  29.409  29.547  1.00  0.00    -0.354 N 
ATOM     46  C   UNL A   1      44.222  30.566  28.364  1.00  0.00     0.074 A 
ATOM     47  C   UNL A   1      44.052  30.412  26.943  1.00  0.00     0.031 C 
ATOM     48  C   UNL A   1      38.184  28.203  29.315  1.00  0.00     0.029 A 
ATOM     49  C   UNL A   1      38.680  29.475  29.811  1.00  0.00     0.049 A 
ATOM     50  H   UNL A   1      40.683  30.084  29.872  1.00  0.00     0.167 HD
ATOM     51  C   UNL A   1      44.815  31.545  29.100  1.00  0.00     0.031 A 
ATOM     52  C   UNL A   1      38.001  30.513  30.371  1.00  0.00     0.031 A 
ATOM     53  C   UNL A   1      44.804  31.224  30.501  1.00  0.00     0.049 A 
ATOM     54  C   UNL A   1      38.990  31.310  31.129  1.00  0.00     0.074 A 
ATOM     55  C   UNL A   1      45.400  30.260  31.286  1.00  0.00     0.029 A 
ATOM     56  N   UNL A   1      43.760  31.739  31.230  1.00  0.00    -0.354 N 
ATOM     57  N   UNL A   1      39.608  30.871  32.189  1.00  0.00    -0.248 NA
ATOM     58  C   UNL A   1      39.609  32.444  30.465  1.00  0.00     0.031 C 
ATOM     59  C   UNL A   1      44.432  29.945  32.281  1.00  0.00     0.029 A 
ATOM     60  C   UNL A   1      43.328  30.787  32.114  1.00  0.00     0.049 A 
ATOM     61  H   UNL A   1      43.385  32.644  31.133  1.00  0.00     0.167 HD
ATOM     62  C   UNL A   1      40.899  31.360  32.065  1.00  0.00     0.074 A 
ATOM     63  C   UNL A   1      40.808  32.411  31.052  1.00  0.00     0.031 C 
ATOM     64  C   UNL A   1      41.960  30.679  32.590  1.00  0.00     0.031 A 
BRANCH  51  65
ATOM     65  C   UNL A   1      45.049  32.950  28.600  1.00  0.00    -0.014 A 
ATOM     66  C   UNL A   1      44.031  33.771  28.078  1.00  0.00     0.010 A 
ATOM     67  C   UNL A   1      46.281  33.577  28.891  1.00  0.00     0.010 A 
ATOM     68  C   UNL A   1      44.223  35.135  27.844  1.00  0.00     0.020 A 
ATOM     69  C   UNL A   1      46.473  34.952  28.698  1.00  0.00     0.020 A 
ATOM     70  C   UNL A   1      45.442  35.719  28.163  1.00  0.00     0.054 A 
BRANCH  70  71
ATOM     71  S   UNL A   1      45.631  37.499  27.900  1.00  0.00     0.124 S 
ATOM     72  O   UNL A   1      46.300  37.538  26.602  1.00  0.00    -0.237 OA
ATOM     73  O   UNL A   1      44.247  37.965  27.910  1.00  0.00    -0.237 OA
ATOM     74  O   UNL A   1      46.444  37.930  29.034  1.00  0.00    -0.744 OA
ENDBRANCH  70  71
ENDBRANCH  51  65
BRANCH  52  75
ATOM     75  C   UNL A   1      36.703  31.100  29.937  1.00  0.00    -0.014 A 
ATOM     76  C   UNL A   1      36.502  31.428  28.582  1.00  0.00     0.010 A 
ATOM     77  C   UNL A   1      35.808  31.651  30.881  1.00  0.00     0.010 A 
ATOM     78  C   UNL A   1      35.515  32.342  28.191  1.00  0.00     0.020 A 
ATOM     79  C   UNL A   1      34.814  32.570  30.496  1.00  0.00     0.020 A 
ATOM     80  C   UNL A   1      34.703  32.939  29.154  1.00  0.00     0.054 A 
BRANCH  80  81
ATOM     81  S   UNL A   1      33.578  34.268  28.629  1.00  0.00     0.124 S 
ATOM     82  O   UNL A   1      34.495  35.206  27.988  1.00  0.00    -0.237 OA
ATOM     83  O   UNL A   1      32.666  33.570  27.726  1.00  0.00    -0.237 OA
ATOM     84  O   UNL A   1      32.979  34.732  29.877  1.00  0.00    -0.744 OA
ENDBRANCH  80  81
ENDBRANCH  52  75
BRANCH  64  85
ATOM     85  C   UNL A   1      41.700  29.574  33.595  1.00  0.00    -0.014 A 
ATOM     86  C   UNL A   1      41.732  29.939  34.954  1.00  0.00     0.010 A 
ATOM     87  C   UNL A   1      41.631  28.204  33.272  1.00  0.00     0.010 A 
ATOM     88  C   UNL A   1      41.755  28.975  35.961  1.00  0.00     0.020 A 
ATOM     89  C   UNL A   1      41.619  27.227  34.285  1.00  0.00     0.020 A 
ATOM     90  C   UNL A   1      41.713  27.623  35.622  1.00  0.00     0.054 A 
BRANCH  90  91
ATOM     91  S   UNL A   1      41.816  26.409  36.967  1.00  0.00     0.124 S 
ATOM     92  O   UNL A   1      43.006  26.850  37.692  1.00  0.00    -0.237 OA
ATOM     93  O   UNL A   1      40.550  26.600  37.672  1.00  0.00    -0.237 OA
ATOM     94  O   UNL A   1      41.952  25.126  36.280  1.00  0.00    -0.744 OA
ENDBRANCH  90  91
ENDBRANCH  64  85
ENDBRANCH  38  39
ENDBRANCH  30  33
ENDBRANCH  28  29
ENDBRANCH  27  28
ENDBRANCH   1  27
TORSDOF 18
ENDMDL
MODEL 2
REMARK VINA RESULT:     -11.8      2.190      2.855
REMARK SMILES Cc1cc2[nH]c(=O)[nH]c2cc1S(=O)(=O)NCCC(=O)NCCCCNC(=O)c1ccc(-c2c3nc(c(-c4ccc(S(=O)(=O)[O-])cc4)c4ccc([nH]4)c(-c4ccc(S(=O)(=O)[O-])cc4)c4nc(c(-c5ccc(S(=O)(=O)[O-])cc5)c5ccc2[nH]5)C=C4)C=C3)cc1
REMARK SMILES IDX 22 1 21 2 20 3 18 4 19 5 17 7 16 8 15 9 12 11 13 12 14 13
REMARK SMILES IDX 11 14 1 15 2 16 3 17 4 18 10 19 5 20 9 21 6 22 8 24 7 25
REMARK SMILES IDX 23 27 24 28 25 29 26 30 27 32 28 33 29 34 87 35 30 36 86 37
REMARK SMILES IDX 31 38 32 39 33 40 80 41 34 42 85 43 79 44 81 45 35 46 84 47
REMARK SMILES IDX 78 48 77 49 36 51 66 52 47 53 65 54 48 55 51 56 64 57 82 58
REMARK SMILES IDX 49 59 50 60 63 62 83 63 52 64 37 65 38 66 46 67 39 68 45 69
REMARK SMILES IDX 40 70 41 71 42 72 43 73 44 74 67 75 68 76 76 77 69 78 75 79
REMARK SMILES IDX 70 80 71 81 72 82 73 83 74 84 53 85 54 86 62 87 55 88 61 89
REMARK SMILES IDX 56 90 57 91 58 92 59 93 60 94
REMARK H PARENT 20 6 15 10 5 23 8 26 25 31 81 50 51 61
REMARK Flexibility Score: inf
ROOT
ATOM      1  C   UNL A   1      39.441  23.037  26.921  1.00  0.00     0.023 C 
ENDROOT
BRANCH   1   2
ATOM      2  C   UNL A   1      38.281  23.500  26.041  1.00  0.00     0.116 C 
BRANCH   2   3
ATOM      3  N   UNL A   1      37.063  22.780  26.335  1.00  0.00    -0.356 N 
ATOM      4  C   UNL A   1      36.133  22.292  25.468  1.00  0.00     0.221 C 
ATOM      5  O   UNL A   1      35.180  21.656  25.921  1.00  0.00    -0.275 OA
ATOM      6  H   UNL A   1      36.881  22.619  27.289  1.00  0.00     0.163 HD
BRANCH   4   7
ATOM      7  C   UNL A   1      36.288  22.496  23.974  1.00  0.00     0.116 C 
BRANCH   7   8
ATOM      8  C   UNL A   1      35.693  23.794  23.447  1.00  0.00     0.109 C 
BRANCH   8   9
ATOM      9  N   UNL A   1      34.592  23.647  22.493  1.00  0.00    -0.211 NA
ATOM     10  H   UNL A   1      35.026  23.338  21.623  1.00  0.00     0.141 HD
BRANCH   9  11
ATOM     11  S   UNL A   1      33.533  24.856  22.050  1.00  0.00     0.240 S 
ATOM     12  O   UNL A   1      32.922  24.466  20.800  1.00  0.00    -0.207 OA
ATOM     13  O   UNL A   1      34.266  26.098  22.168  1.00  0.00    -0.207 OA
BRANCH  11  14
ATOM     14  C   UNL A   1      32.221  24.940  23.237  1.00  0.00     0.087 A 
ATOM     15  C   UNL A   1      31.216  27.155  22.379  1.00  0.00     0.046 C 
ATOM     16  C   UNL A   1      31.297  26.013  23.353  1.00  0.00    -0.029 A 
ATOM     17  C   UNL A   1      30.387  26.011  24.434  1.00  0.00     0.033 A 
ATOM     18  C   UNL A   1      30.390  24.924  25.279  1.00  0.00     0.067 A 
ATOM     19  C   UNL A   1      32.175  23.823  24.097  1.00  0.00     0.050 A 
ATOM     20  N   UNL A   1      29.607  24.657  26.396  1.00  0.00    -0.306 N 
ATOM     21  C   UNL A   1      31.247  23.848  25.098  1.00  0.00     0.068 A 
ATOM     22  C   UNL A   1      29.962  23.398  26.906  1.00  0.00     0.323 A 
ATOM     23  H   UNL A   1      28.918  25.252  26.768  1.00  0.00     0.171 HD
ATOM     24  N   UNL A   1      30.980  22.904  26.081  1.00  0.00    -0.306 N 
ATOM     25  O   UNL A   1      29.482  22.846  27.880  1.00  0.00    -0.248 OA
ATOM     26  H   UNL A   1      31.432  22.036  26.182  1.00  0.00     0.171 HD
ENDBRANCH  11  14
ENDBRANCH   9  11
ENDBRANCH   8   9
ENDBRANCH   7   8
ENDBRANCH   4   7
ENDBRANCH   2   3
ENDBRANCH   1   2
BRANCH   1  27
ATOM     27  C   UNL A   1      40.154  21.793  26.390  1.00  0.00     0.023 C 
BRANCH  27  28
ATOM     28  C   UNL A   1      41.678  21.850  26.539  1.00  0.00     0.116 C 
BRANCH  28  29
ATOM     29  N   UNL A   1      42.358  22.337  25.358  1.00  0.00    -0.352 N 
ATOM     30  C   UNL A   1      43.035  23.491  25.078  1.00  0.00     0.251 C 
ATOM     31  H   UNL A   1      42.325  21.709  24.601  1.00  0.00     0.163 HD
ATOM     32  O   UNL A   1      43.779  23.465  24.095  1.00  0.00    -0.269 OA
BRANCH  30  33
ATOM     33  C   UNL A   1      42.865  24.771  25.820  1.00  0.00     0.039 A 
ATOM     34  C   UNL A   1      43.460  25.086  27.041  1.00  0.00     0.014 A 
ATOM     35  C   UNL A   1      41.931  25.675  25.273  1.00  0.00     0.014 A 
ATOM     36  C   UNL A   1      43.059  26.213  27.747  1.00  0.00     0.010 A 
ATOM     37  C   UNL A   1      41.531  26.807  25.971  1.00  0.00     0.010 A 
ATOM     38  C   UNL A   1      42.063  27.046  27.231  1.00  0.00    -0.014 A 
BRANCH  38  39
ATOM     39  C   UNL A   1      41.736  28.252  27.984  1.00  0.00     0.031 A 
ATOM     40  C   UNL A   1      42.796  29.292  27.905  1.00  0.00     0.074 A 
ATOM     41  C   UNL A   1      40.574  28.449  28.642  1.00  0.00     0.049 A 
ATOM     42  N   UNL A   1      43.556  29.709  28.862  1.00  0.00    -0.248 NA
ATOM     43  C   UNL A   1      43.183  29.793  26.574  1.00  0.00     0.031 C 
ATOM     44  C   UNL A   1      39.368  27.618  28.616  1.00  0.00     0.029 A 
ATOM     45  N   UNL A   1      40.195  29.502  29.423  1.00  0.00    -0.354 N 
ATOM     46  C   UNL A   1      44.384  30.677  28.303  1.00  0.00     0.074 A 
ATOM     47  C   UNL A   1      44.221  30.572  26.876  1.00  0.00     0.031 C 
ATOM     48  C   UNL A   1      38.330  28.313  29.140  1.00  0.00     0.029 A 
ATOM     49  C   UNL A   1      38.829  29.566  29.682  1.00  0.00     0.049 A 
ATOM     50  H   UNL A   1      40.835  30.162  29.774  1.00  0.00     0.167 HD
ATOM     51  C   UNL A   1      44.978  31.627  29.074  1.00  0.00     0.031 A 
ATOM     52  C   UNL A   1      38.153  30.587  30.273  1.00  0.00     0.031 A 
ATOM     53  C   UNL A   1      44.958  31.259  30.464  1.00  0.00     0.049 A 
ATOM     54  C   UNL A   1      39.141  31.353  31.063  1.00  0.00     0.074 A 
ATOM     55  C   UNL A   1      45.545  30.266  31.218  1.00  0.00     0.029 A 
ATOM     56  N   UNL A   1      43.913  31.754  31.204  1.00  0.00    -0.354 N 
ATOM     57  N   UNL A   1      39.752  30.876  32.111  1.00  0.00    -0.248 NA
ATOM     58  C   UNL A   1      39.770  32.506  30.441  1.00  0.00     0.031 C 
ATOM     59  C   UNL A   1      44.569  29.923  32.198  1.00  0.00     0.029 A 
ATOM     60  C   UNL A   1      43.471  30.776  32.053  1.00  0.00     0.049 A 
ATOM     61  H   UNL A   1      43.542  32.664  31.135  1.00  0.00     0.167 HD
ATOM     62  C   UNL A   1      41.045  31.362  32.010  1.00  0.00     0.074 A 
ATOM     63  C   UNL A   1      40.965  32.447  31.033  1.00  0.00     0.031 C 
ATOM     64  C   UNL A   1      42.100  30.659  32.518  1.00  0.00     0.031 A 
BRANCH  51  65
ATOM     65  C   UNL A   1      45.222  33.047  28.624  1.00  0.00    -0.014 A 
ATOM     66  C   UNL A   1      44.191  33.971  28.368  1.00  0.00     0.010 A 
ATOM     67  C   UNL A   1      46.533  33.566  28.698  1.00  0.00     0.010 A 
ATOM     68  C   UNL A   1      44.442  35.333  28.183  1.00  0.00     0.020 A 
ATOM     69  C   UNL A   1      46.794  34.936  28.554  1.00  0.00     0.020 A 
ATOM     70  C   UNL A   1      45.743  35.809  28.285  1.00  0.00     0.054 A 
BRANCH  70  71
ATOM     71  S   UNL A   1      46.019  37.587  28.097  1.00  0.00     0.124 S 
ATOM     72  O   UNL A   1      47.331  37.618  27.457  1.00  0.00    -0.237 OA
ATOM     73  O   UNL A   1      44.897  37.991  27.255  1.00  0.00    -0.237 OA
ATOM     74  O   UNL A   1      45.982  38.087  29.469  1.00  0.00    -0.744 OA
ENDBRANCH  70  71
ENDBRANCH  51  65
BRANCH  52  75
ATOM     75  C   UNL A   1      36.860  31.195  29.852  1.00  0.00    -0.014 A 
ATOM     76  C   UNL A   1      36.736  31.756  28.565  1.00  0.00     0.010 A 
ATOM     77  C   UNL A   1      35.876  31.534  30.808  1.00  0.00     0.010 A 
ATOM     78  C   UNL A   1      35.734  32.688  28.269  1.00  0.00     0.020 A 
ATOM     79  C   UNL A   1      34.866  32.470  30.517  1.00  0.00     0.020 A 
ATOM     80  C   UNL A   1      34.829  33.071  29.258  1.00  0.00     0.054 A 
BRANCH  80  81
ATOM     81  S   UNL A   1      33.679  34.432  28.892  1.00  0.00     0.124 S 
ATOM     82  O   UNL A   1      34.552  35.399  28.233  1.00  0.00    -0.237 OA
ATOM     83  O   UNL A   1      32.693  33.787  28.027  1.00  0.00    -0.237 OA
ATOM     84  O   UNL A   1      33.181  34.831  30.206  1.00  0.00    -0.744 OA
ENDBRANCH  80  81
ENDBRANCH  52  75
BRANCH  64  85
ATOM     85  C   UNL A   1      41.829  29.521  33.483  1.00  0.00    -0.014 A 
ATOM     86  C   UNL A   1      41.500  29.882  34.804  1.00  0.00     0.010 A 
ATOM     87  C   UNL A   1      42.076  28.162  33.203  1.00  0.00     0.010 A 
ATOM     88  C   UNL A   1      41.475  28.935  35.826  1.00  0.00     0.020 A 
ATOM     89  C   UNL A   1      42.018  27.196  34.224  1.00  0.00     0.020 A 
ATOM     90  C   UNL A   1      41.748  27.598  35.535  1.00  0.00     0.054 A 
BRANCH  90  91
ATOM     91  S   UNL A   1      41.771  26.419  36.914  1.00  0.00     0.124 S 
ATOM     92  O   UNL A   1      41.880  25.136  36.222  1.00  0.00    -0.237 OA
ATOM     93  O   UNL A   1      42.957  26.824  37.666  1.00  0.00    -0.237 OA
ATOM     94  O   UNL A   1      40.499  26.645  37.598  1.00  0.00    -0.744 OA
ENDBRANCH  90  91
ENDBRANCH  64  85
ENDBRANCH  38  39
ENDBRANCH  30  33
ENDBRANCH  28  29
ENDBRANCH  27  28
ENDBRANCH   1  27
TORSDOF 18
ENDMDL
MODEL 3
REMARK VINA RESULT:     -11.8      3.298      5.187
REMARK SMILES Cc1cc2[nH]c(=O)[nH]c2cc1S(=O)(=O)NCCC(=O)NCCCCNC(=O)c1ccc(-c2c3nc(c(-c4ccc(S(=O)(=O)[O-])cc4)c4ccc([nH]4)c(-c4ccc(S(=O)(=O)[O-])cc4)c4nc(c(-c5ccc(S(=O)(=O)[O-])cc5)c5ccc2[nH]5)C=C4)C=C3)cc1
REMARK SMILES IDX 22 1 21 2 20 3 18 4 19 5 17 7 16 8 15 9 12 11 13 12 14 13
REMARK SMILES IDX 11 14 1 15 2 16 3 17 4 18 10 19 5 20 9 21 6 22 8 24 7 25
REMARK SMILES IDX 23 27 24 28 25 29 26 30 27 32 28 33 29 34 87 35 30 36 86 37
REMARK SMILES IDX 31 38 32 39 33 40 80 41 34 42 85 43 79 44 81 45 35 46 84 47
REMARK SMILES IDX 78 48 77 49 36 51 66 52 47 53 65 54 48 55 51 56 64 57 82 58
REMARK SMILES IDX 49 59 50 60 63 62 83 63 52 64 37 65 38 66 46 67 39 68 45 69
REMARK SMILES IDX 40 70 41 71 42 72 43 73 44 74 67 75 68 76 76 77 69 78 75 79
REMARK SMILES IDX 70 80 71 81 72 82 73 83 74 84 53 85 54 86 62 87 55 88 61 89
REMARK SMILES IDX 56 90 57 91 58 92 59 93 60 94
REMARK H PARENT 20 6 15 10 5 23 8 26 25 31 81 50 51 61
REMARK Flexibility Score: inf
ROOT
ATOM      1  C   UNL A   1      35.681  20.772  25.277  1.00  0.00     0.023 C 
ENDROOT
BRANCH   1   2
ATOM      2  C   UNL A   1      34.382  20.949  24.493  1.00  0.00     0.116 C 
BRANCH   2   3
ATOM      3  N   UNL A   1      33.474  21.857  25.155  1.00  0.00    -0.356 N 
ATOM      4  C   UNL A   1      33.291  23.189  24.933  1.00  0.00     0.221 C 
ATOM      5  O   UNL A   1      32.422  23.780  25.576  1.00  0.00    -0.275 OA
ATOM      6  H   UNL A   1      32.913  21.462  25.861  1.00  0.00     0.163 HD
BRANCH   4   7
ATOM      7  C   UNL A   1      34.113  23.917  23.889  1.00  0.00     0.116 C 
BRANCH   7   8
ATOM      8  C   UNL A   1      33.311  24.453  22.712  1.00  0.00     0.109 C 
BRANCH   8   9
ATOM      9  N   UNL A   1      32.230  25.380  23.047  1.00  0.00    -0.211 NA
ATOM     10  H   UNL A   1      31.587  25.346  22.255  1.00  0.00     0.141 HD
BRANCH   9  11
ATOM     11  S   UNL A   1      32.420  27.001  23.388  1.00  0.00     0.240 S 
ATOM     12  O   UNL A   1      33.342  27.547  22.419  1.00  0.00    -0.207 OA
ATOM     13  O   UNL A   1      32.691  27.086  24.807  1.00  0.00    -0.207 OA
BRANCH  11  14
ATOM     14  C   UNL A   1      30.879  27.833  23.128  1.00  0.00     0.087 A 
ATOM     15  C   UNL A   1      29.444  26.191  24.506  1.00  0.00     0.046 C 
ATOM     16  C   UNL A   1      29.617  27.374  23.594  1.00  0.00    -0.029 A 
ATOM     17  C   UNL A   1      28.453  28.068  23.196  1.00  0.00     0.033 A 
ATOM     18  C   UNL A   1      28.607  29.206  22.438  1.00  0.00     0.067 A 
ATOM     19  C   UNL A   1      31.006  29.023  22.382  1.00  0.00     0.050 A 
ATOM     20  N   UNL A   1      27.651  30.077  21.927  1.00  0.00    -0.306 N 
ATOM     21  C   UNL A   1      29.854  29.683  22.063  1.00  0.00     0.068 A 
ATOM     22  C   UNL A   1      28.304  31.116  21.244  1.00  0.00     0.323 A 
ATOM     23  H   UNL A   1      26.677  29.981  22.028  1.00  0.00     0.171 HD
ATOM     24  N   UNL A   1      29.678  30.858  21.345  1.00  0.00    -0.306 N 
ATOM     25  O   UNL A   1      27.780  32.053  20.671  1.00  0.00    -0.248 OA
ATOM     26  H   UNL A   1      30.397  31.416  20.968  1.00  0.00     0.171 HD
ENDBRANCH  11  14
ENDBRANCH   9  11
ENDBRANCH   8   9
ENDBRANCH   7   8
ENDBRANCH   4   7
ENDBRANCH   2   3
ENDBRANCH   1   2
BRANCH   1  27
ATOM     27  C   UNL A   1      36.872  21.508  24.661  1.00  0.00     0.023 C 
BRANCH  27  28
ATOM     28  C   UNL A   1      37.759  22.211  25.695  1.00  0.00     0.116 C 
BRANCH  28  29
ATOM     29  N   UNL A   1      39.174  21.979  25.497  1.00  0.00    -0.352 N 
ATOM     30  C   UNL A   1      40.296  22.482  26.094  1.00  0.00     0.251 C 
ATOM     31  H   UNL A   1      39.367  21.324  24.788  1.00  0.00     0.163 HD
ATOM     32  O   UNL A   1      41.337  21.843  25.929  1.00  0.00    -0.269 OA
BRANCH  30  33
ATOM     33  C   UNL A   1      40.351  23.772  26.837  1.00  0.00     0.039 A 
ATOM     34  C   UNL A   1      39.516  24.868  26.621  1.00  0.00     0.014 A 
ATOM     35  C   UNL A   1      41.416  23.906  27.749  1.00  0.00     0.014 A 
ATOM     36  C   UNL A   1      39.798  26.092  27.215  1.00  0.00     0.010 A 
ATOM     37  C   UNL A   1      41.699  25.125  28.352  1.00  0.00     0.010 A 
ATOM     38  C   UNL A   1      40.915  26.229  28.043  1.00  0.00    -0.014 A 
BRANCH  38  39
ATOM     39  C   UNL A   1      41.117  27.518  28.694  1.00  0.00     0.031 A 
ATOM     40  C   UNL A   1      42.437  28.128  28.378  1.00  0.00     0.074 A 
ATOM     41  C   UNL A   1      40.195  28.140  29.458  1.00  0.00     0.049 A 
ATOM     42  N   UNL A   1      43.423  28.321  29.188  1.00  0.00    -0.248 NA
ATOM     43  C   UNL A   1      42.766  28.382  26.964  1.00  0.00     0.031 C 
ATOM     44  C   UNL A   1      38.792  27.771  29.664  1.00  0.00     0.029 A 
ATOM     45  N   UNL A   1      40.303  29.306  30.159  1.00  0.00    -0.354 N 
ATOM     46  C   UNL A   1      44.432  28.912  28.434  1.00  0.00     0.074 A 
ATOM     47  C   UNL A   1      44.036  28.779  27.056  1.00  0.00     0.031 C 
ATOM     48  C   UNL A   1      38.130  28.809  30.228  1.00  0.00     0.029 A 
ATOM     49  C   UNL A   1      39.087  29.848  30.568  1.00  0.00     0.049 A 
ATOM     50  H   UNL A   1      41.169  29.730  30.358  1.00  0.00     0.167 HD
ATOM     51  C   UNL A   1      45.412  29.649  29.021  1.00  0.00     0.031 A 
ATOM     52  C   UNL A   1      38.879  31.074  31.119  1.00  0.00     0.031 A 
ATOM     53  C   UNL A   1      45.476  29.399  30.436  1.00  0.00     0.049 A 
ATOM     54  C   UNL A   1      40.169  31.506  31.700  1.00  0.00     0.074 A 
ATOM     55  C   UNL A   1      45.809  28.315  31.220  1.00  0.00     0.029 A 
ATOM     56  N   UNL A   1      44.773  30.266  31.236  1.00  0.00    -0.354 N 
ATOM     57  N   UNL A   1      40.736  30.916  32.714  1.00  0.00    -0.248 NA
ATOM     58  C   UNL A   1      41.043  32.333  30.886  1.00  0.00     0.031 C 
ATOM     59  C   UNL A   1      44.930  28.387  32.338  1.00  0.00     0.029 A 
ATOM     60  C   UNL A   1      44.165  29.552  32.232  1.00  0.00     0.049 A 
ATOM     61  H   UNL A   1      44.717  31.241  31.112  1.00  0.00     0.167 HD
ATOM     62  C   UNL A   1      42.088  30.925  32.411  1.00  0.00     0.074 A 
ATOM     63  C   UNL A   1      42.226  31.909  31.337  1.00  0.00     0.031 C 
ATOM     64  C   UNL A   1      42.915  29.938  32.864  1.00  0.00     0.031 A 
BRANCH  51  65
ATOM     65  C   UNL A   1      46.040  30.870  28.394  1.00  0.00    -0.014 A 
ATOM     66  C   UNL A   1      47.189  30.825  27.581  1.00  0.00     0.010 A 
ATOM     67  C   UNL A   1      45.319  32.084  28.404  1.00  0.00     0.010 A 
ATOM     68  C   UNL A   1      47.610  31.923  26.827  1.00  0.00     0.020 A 
ATOM     69  C   UNL A   1      45.709  33.180  27.621  1.00  0.00     0.020 A 
ATOM     70  C   UNL A   1      46.862  33.093  26.846  1.00  0.00     0.054 A 
BRANCH  70  71
ATOM     71  S   UNL A   1      47.408  34.472  25.811  1.00  0.00     0.124 S 
ATOM     72  O   UNL A   1      48.692  33.983  25.317  1.00  0.00    -0.237 OA
ATOM     73  O   UNL A   1      46.342  34.560  24.817  1.00  0.00    -0.237 OA
ATOM     74  O   UNL A   1      47.484  35.593  26.744  1.00  0.00    -0.744 OA
ENDBRANCH  70  71
ENDBRANCH  51  65
BRANCH  52  75
ATOM     75  C   UNL A   1      37.811  32.058  30.789  1.00  0.00    -0.014 A 
ATOM     76  C   UNL A   1      36.516  31.887  31.317  1.00  0.00     0.010 A 
ATOM     77  C   UNL A   1      37.961  32.950  29.704  1.00  0.00     0.010 A 
ATOM     78  C   UNL A   1      35.402  32.501  30.729  1.00  0.00     0.020 A 
ATOM     79  C   UNL A   1      36.846  33.570  29.109  1.00  0.00     0.020 A 
ATOM     80  C   UNL A   1      35.568  33.307  29.604  1.00  0.00     0.054 A 
BRANCH  80  81
ATOM     81  S   UNL A   1      34.080  33.915  28.753  1.00  0.00     0.124 S 
ATOM     82  O   UNL A   1      33.628  32.722  28.042  1.00  0.00    -0.237 OA
ATOM     83  O   UNL A   1      33.232  34.338  29.865  1.00  0.00    -0.237 OA
ATOM     84  O   UNL A   1      34.578  34.996  27.908  1.00  0.00    -0.744 OA
ENDBRANCH  80  81
ENDBRANCH  52  75
BRANCH  64  85
ATOM     85  C   UNL A   1      42.431  29.024  33.973  1.00  0.00    -0.014 A 
ATOM     86  C   UNL A   1      42.993  29.229  35.247  1.00  0.00     0.010 A 
ATOM     87  C   UNL A   1      41.627  27.884  33.772  1.00  0.00     0.010 A 
ATOM     88  C   UNL A   1      42.813  28.302  36.273  1.00  0.00     0.020 A 
ATOM     89  C   UNL A   1      41.414  26.963  34.813  1.00  0.00     0.020 A 
ATOM     90  C   UNL A   1      42.036  27.166  36.048  1.00  0.00     0.054 A 
BRANCH  90  91
ATOM     91  S   UNL A   1      41.892  25.958  37.394  1.00  0.00     0.124 S 
ATOM     92  O   UNL A   1      40.502  26.126  37.814  1.00  0.00    -0.237 OA
ATOM     93  O   UNL A   1      42.192  24.693  36.727  1.00  0.00    -0.237 OA
ATOM     94  O   UNL A   1      42.890  26.392  38.371  1.00  0.00    -0.744 OA
ENDBRANCH  90  91
ENDBRANCH  64  85
ENDBRANCH  38  39
ENDBRANCH  30  33
ENDBRANCH  28  29
ENDBRANCH  27  28
ENDBRANCH   1  27
TORSDOF 18
ENDMDL
