MODEL 1
REMARK VINA RESULT:     -11.8      0.000      0.000
REMARK SMILES O=C(NCCCCNC(=O)c1ccc(-c2c3nc(c(-c4ccc(S(=O)(=O)[O-])cc4)c4ccc([nH]4)c(-c4ccc(S(=O)(=O)[O-])cc4)c4nc(c(-c5ccc(S(=O)(=O)[O-])cc5)c5ccc2[nH]5)C=C4)C=C3)cc1)C1=NN(c2ccc([N+](=O)[O-])cc2)[C@H](c2ccccc2)C1
REMARK SMILES IDX 6 1 5 2 4 3 3 4 1 5 2 6 71 8 72 9 90 10 73 11 83 12 74 13
REMARK SMILES IDX 75 14 82 15 76 16 81 17 77 18 78 19 79 20 80 21 84 22 85 23
REMARK SMILES IDX 89 24 86 25 88 26 87 27 7 28 8 29 9 30 10 32 11 33 12 34
REMARK SMILES IDX 70 35 13 36 69 37 14 38 15 39 16 40 63 41 17 42 68 43 62 44
REMARK SMILES IDX 64 45 18 46 67 47 61 48 60 49 19 51 49 52 30 53 48 54 31 55
REMARK SMILES IDX 34 56 47 57 65 58 32 59 33 60 46 62 66 63 35 64 20 65 21 66
REMARK SMILES IDX 29 67 22 68 28 69 23 70 24 71 25 72 26 73 27 74 50 75 51 76
REMARK SMILES IDX 59 77 52 78 58 79 53 80 54 81 55 82 56 83 57 84 36 85 37 86
REMARK SMILES IDX 45 87 38 88 44 89 39 90 40 91 41 92 42 93 43 94
REMARK H PARENT 3 7 8 31 64 50 34 61
REMARK Flexibility Score: inf
ROOT
ATOM      1  C   UNL A   1      33.419  28.002  25.816  1.00  0.00     0.023 C 
ENDROOT
BRANCH   1   2
ATOM      2  C   UNL A   1      33.329  26.514  25.487  1.00  0.00     0.023 C 
BRANCH   2   3
ATOM      3  C   UNL A   1      32.085  25.808  26.018  1.00  0.00     0.116 C 
BRANCH   3   4
ATOM      4  N   UNL A   1      30.968  25.856  25.084  1.00  0.00    -0.351 N 
ATOM      5  O   UNL A   1      29.717  25.116  23.321  1.00  0.00    -0.268 OA
ATOM      6  C   UNL A   1      30.690  24.987  24.055  1.00  0.00     0.267 C 
ATOM      7  H   UNL A   1      30.334  26.600  25.204  1.00  0.00     0.163 HD
BRANCH   6   8
ATOM      8  C   UNL A   1      31.652  23.868  23.779  1.00  0.00     0.128 C 
ATOM      9  N   UNL A   1      31.446  22.653  24.174  1.00  0.00    -0.171 NA
ATOM     10  C   UNL A   1      32.892  24.111  22.989  1.00  0.00     0.096 C 
ATOM     11  N   UNL A   1      32.608  21.990  23.960  1.00  0.00    -0.257 N 
ATOM     12  C   UNL A   1      33.628  22.784  23.252  1.00  0.00     0.144 C 
BRANCH  11  13
ATOM     13  C   UNL A   1      32.620  20.625  24.182  1.00  0.00     0.061 A 
ATOM     14  C   UNL A   1      32.875  20.112  25.463  1.00  0.00     0.035 A 
ATOM     15  C   UNL A   1      32.482  19.719  23.122  1.00  0.00     0.035 A 
ATOM     16  C   UNL A   1      32.940  18.735  25.694  1.00  0.00     0.088 A 
ATOM     17  C   UNL A   1      32.543  18.339  23.332  1.00  0.00     0.088 A 
ATOM     18  C   UNL A   1      32.764  17.852  24.624  1.00  0.00     0.269 A 
BRANCH  18  19
ATOM     19  N   UNL A   1      32.815  16.404  24.855  1.00  0.00     0.062 N 
ATOM     20  O   UNL A   1      32.091  15.934  25.744  1.00  0.00    -0.258 OA
ATOM     21  O   UNL A   1      33.565  15.731  24.133  1.00  0.00    -0.258 OA
ENDBRANCH  18  19
ENDBRANCH  11  13
BRANCH  12  22
ATOM     22  C   UNL A   1      34.950  22.880  24.004  1.00  0.00    -0.023 A 
ATOM     23  C   UNL A   1      36.200  22.576  23.442  1.00  0.00     0.006 A 
ATOM     24  C   UNL A   1      34.927  23.297  25.350  1.00  0.00     0.006 A 
ATOM     25  C   UNL A   1      37.373  22.671  24.198  1.00  0.00     0.000 A 
ATOM     26  C   UNL A   1      36.101  23.432  26.093  1.00  0.00     0.000 A 
ATOM     27  C   UNL A   1      37.326  23.107  25.519  1.00  0.00     0.000 A 
ENDBRANCH  12  22
ENDBRANCH   6   8
ENDBRANCH   3   4
ENDBRANCH   2   3
ENDBRANCH   1   2
BRANCH   1  28
ATOM     28  C   UNL A   1      33.419  28.346  27.302  1.00  0.00     0.116 C 
BRANCH  28  29
ATOM     29  N   UNL A   1      33.310  29.773  27.563  1.00  0.00    -0.352 N 
ATOM     30  C   UNL A   1      34.249  30.640  28.068  1.00  0.00     0.251 C 
ATOM     31  H   UNL A   1      32.439  30.175  27.345  1.00  0.00     0.163 HD
ATOM     32  O   UNL A   1      33.927  31.796  28.330  1.00  0.00    -0.269 OA
BRANCH  30  33
ATOM     33  C   UNL A   1      35.633  30.179  28.326  1.00  0.00     0.039 A 
ATOM     34  C   UNL A   1      36.564  30.234  27.285  1.00  0.00     0.014 A 
ATOM     35  C   UNL A   1      36.015  29.687  29.577  1.00  0.00     0.014 A 
ATOM     36  C   UNL A   1      37.888  29.851  27.514  1.00  0.00     0.010 A 
ATOM     37  C   UNL A   1      37.351  29.376  29.825  1.00  0.00     0.010 A 
ATOM     38  C   UNL A   1      38.300  29.446  28.794  1.00  0.00    -0.014 A 
BRANCH  38  39
ATOM     39  C   UNL A   1      39.713  29.067  29.061  1.00  0.00     0.031 A 
ATOM     40  C   UNL A   1      40.662  30.069  29.663  1.00  0.00     0.074 A 
ATOM     41  C   UNL A   1      40.155  27.838  28.727  1.00  0.00     0.049 A 
ATOM     42  N   UNL A   1      41.938  29.943  29.926  1.00  0.00    -0.248 NA
ATOM     43  C   UNL A   1      40.111  31.395  29.990  1.00  0.00     0.031 C 
ATOM     44  C   UNL A   1      39.351  26.788  28.096  1.00  0.00     0.029 A 
ATOM     45  N   UNL A   1      41.394  27.265  28.868  1.00  0.00    -0.354 N 
ATOM     46  C   UNL A   1      42.342  31.169  30.441  1.00  0.00     0.074 A 
ATOM     47  C   UNL A   1      41.192  32.046  30.397  1.00  0.00     0.031 C 
ATOM     48  C   UNL A   1      40.112  25.694  27.925  1.00  0.00     0.029 A 
ATOM     49  C   UNL A   1      41.462  25.971  28.406  1.00  0.00     0.049 A 
ATOM     50  H   UNL A   1      42.162  27.736  29.263  1.00  0.00     0.167 HD
ATOM     51  C   UNL A   1      43.552  31.531  30.932  1.00  0.00     0.031 A 
ATOM     52  C   UNL A   1      42.492  25.105  28.373  1.00  0.00     0.031 A 
ATOM     53  C   UNL A   1      44.696  30.660  30.987  1.00  0.00     0.049 A 
ATOM     54  C   UNL A   1      43.822  25.524  28.941  1.00  0.00     0.074 A 
ATOM     55  C   UNL A   1      45.961  30.927  31.481  1.00  0.00     0.029 A 
ATOM     56  N   UNL A   1      44.709  29.346  30.546  1.00  0.00    -0.354 N 
ATOM     57  N   UNL A   1      44.172  26.679  29.454  1.00  0.00    -0.248 NA
ATOM     58  C   UNL A   1      44.888  24.514  28.945  1.00  0.00     0.031 C 
ATOM     59  C   UNL A   1      46.748  29.782  31.315  1.00  0.00     0.029 A 
ATOM     60  C   UNL A   1      45.958  28.787  30.762  1.00  0.00     0.049 A 
ATOM     61  H   UNL A   1      43.943  28.878  30.141  1.00  0.00     0.167 HD
ATOM     62  C   UNL A   1      45.489  26.522  29.873  1.00  0.00     0.074 A 
ATOM     63  C   UNL A   1      45.866  25.157  29.568  1.00  0.00     0.031 C 
ATOM     64  C   UNL A   1      46.313  27.425  30.461  1.00  0.00     0.031 A 
BRANCH  51  65
ATOM     65  C   UNL A   1      43.690  32.932  31.467  1.00  0.00    -0.014 A 
ATOM     66  C   UNL A   1      43.983  34.004  30.604  1.00  0.00     0.010 A 
ATOM     67  C   UNL A   1      43.494  33.189  32.836  1.00  0.00     0.010 A 
ATOM     68  C   UNL A   1      44.117  35.301  31.105  1.00  0.00     0.020 A 
ATOM     69  C   UNL A   1      43.600  34.490  33.336  1.00  0.00     0.020 A 
ATOM     70  C   UNL A   1      43.929  35.535  32.470  1.00  0.00     0.054 A 
BRANCH  70  71
ATOM     71  S   UNL A   1      44.085  37.232  33.090  1.00  0.00     0.124 S 
ATOM     72  O   UNL A   1      44.106  38.004  31.850  1.00  0.00    -0.237 OA
ATOM     73  O   UNL A   1      42.884  37.388  33.906  1.00  0.00    -0.237 OA
ATOM     74  O   UNL A   1      45.342  37.215  33.834  1.00  0.00    -0.744 OA
ENDBRANCH  70  71
ENDBRANCH  51  65
BRANCH  52  75
ATOM     75  C   UNL A   1      42.309  23.744  27.801  1.00  0.00    -0.014 A 
ATOM     76  C   UNL A   1      41.799  22.697  28.589  1.00  0.00     0.010 A 
ATOM     77  C   UNL A   1      42.663  23.482  26.464  1.00  0.00     0.010 A 
ATOM     78  C   UNL A   1      41.680  21.407  28.065  1.00  0.00     0.020 A 
ATOM     79  C   UNL A   1      42.519  22.200  25.928  1.00  0.00     0.020 A 
ATOM     80  C   UNL A   1      42.046  21.166  26.738  1.00  0.00     0.054 A 
BRANCH  80  81
ATOM     81  S   UNL A   1      41.864  19.490  26.066  1.00  0.00     0.124 S 
ATOM     82  O   UNL A   1      42.774  19.521  24.926  1.00  0.00    -0.237 OA
ATOM     83  O   UNL A   1      42.279  18.650  27.187  1.00  0.00    -0.237 OA
ATOM     84  O   UNL A   1      40.443  19.412  25.732  1.00  0.00    -0.744 OA
ENDBRANCH  80  81
ENDBRANCH  52  75
BRANCH  64  85
ATOM     85  C   UNL A   1      47.683  26.947  30.862  1.00  0.00    -0.014 A 
ATOM     86  C   UNL A   1      48.804  27.164  30.042  1.00  0.00     0.010 A 
ATOM     87  C   UNL A   1      47.850  26.287  32.093  1.00  0.00     0.010 A 
ATOM     88  C   UNL A   1      50.060  26.685  30.424  1.00  0.00     0.020 A 
ATOM     89  C   UNL A   1      49.109  25.830  32.490  1.00  0.00     0.020 A 
ATOM     90  C   UNL A   1      50.203  26.014  31.642  1.00  0.00     0.054 A 
BRANCH  90  91
ATOM     91  S   UNL A   1      51.844  25.410  32.125  1.00  0.00     0.124 S 
ATOM     92  O   UNL A   1      52.652  25.772  30.963  1.00  0.00    -0.237 OA
ATOM     93  O   UNL A   1      52.121  26.166  33.343  1.00  0.00    -0.237 OA
ATOM     94  O   UNL A   1      51.641  23.977  32.322  1.00  0.00    -0.744 OA
ENDBRANCH  90  91
ENDBRANCH  64  85
ENDBRANCH  38  39
ENDBRANCH  30  33
ENDBRANCH  28  29
ENDBRANCH   1  28
TORSDOF 17
ENDMDL
MODEL 2
REMARK VINA RESULT:     -11.7      2.942      3.996
REMARK SMILES O=C(NCCCCNC(=O)c1ccc(-c2c3nc(c(-c4ccc(S(=O)(=O)[O-])cc4)c4ccc([nH]4)c(-c4ccc(S(=O)(=O)[O-])cc4)c4nc(c(-c5ccc(S(=O)(=O)[O-])cc5)c5ccc2[nH]5)C=C4)C=C3)cc1)C1=NN(c2ccc([N+](=O)[O-])cc2)[C@H](c2ccccc2)C1
REMARK SMILES IDX 6 1 5 2 4 3 3 4 1 5 2 6 71 8 72 9 90 10 73 11 83 12 74 13
REMARK SMILES IDX 75 14 82 15 76 16 81 17 77 18 78 19 79 20 80 21 84 22 85 23
REMARK SMILES IDX 89 24 86 25 88 26 87 27 7 28 8 29 9 30 10 32 11 33 12 34
REMARK SMILES IDX 70 35 13 36 69 37 14 38 15 39 16 40 63 41 17 42 68 43 62 44
REMARK SMILES IDX 64 45 18 46 67 47 61 48 60 49 19 51 49 52 30 53 48 54 31 55
REMARK SMILES IDX 34 56 47 57 65 58 32 59 33 60 46 62 66 63 35 64 20 65 21 66
REMARK SMILES IDX 29 67 22 68 28 69 23 70 24 71 25 72 26 73 27 74 50 75 51 76
REMARK SMILES IDX 59 77 52 78 58 79 53 80 54 81 55 82 56 83 57 84 36 85 37 86
REMARK SMILES IDX 45 87 38 88 44 89 39 90 40 91 41 92 42 93 43 94
REMARK H PARENT 3 7 8 31 64 50 34 61
REMARK Flexibility Score: inf
ROOT
ATOM      1  C   UNL A   1      32.919  27.907  25.124  1.00  0.00     0.023 C 
ENDROOT
BRANCH   1   2
ATOM      2  C   UNL A   1      32.902  28.181  23.622  1.00  0.00     0.023 C 
BRANCH   2   3
ATOM      3  C   UNL A   1      31.724  27.576  22.867  1.00  0.00     0.116 C 
BRANCH   3   4
ATOM      4  N   UNL A   1      32.097  27.066  21.554  1.00  0.00    -0.351 N 
ATOM      5  O   UNL A   1      32.940  25.514  20.105  1.00  0.00    -0.268 OA
ATOM      6  C   UNL A   1      32.662  25.850  21.250  1.00  0.00     0.267 C 
ATOM      7  H   UNL A   1      31.923  27.664  20.792  1.00  0.00     0.163 HD
BRANCH   6   8
ATOM      8  C   UNL A   1      33.011  24.918  22.374  1.00  0.00     0.128 C 
ATOM      9  N   UNL A   1      34.226  24.733  22.781  1.00  0.00    -0.171 NA
ATOM     10  C   UNL A   1      31.944  24.179  23.106  1.00  0.00     0.096 C 
ATOM     11  N   UNL A   1      34.180  23.673  23.622  1.00  0.00    -0.257 N 
ATOM     12  C   UNL A   1      32.816  23.190  23.901  1.00  0.00     0.144 C 
BRANCH  11  13
ATOM     13  C   UNL A   1      35.338  23.341  24.303  1.00  0.00     0.061 A 
ATOM     14  C   UNL A   1      35.719  24.051  25.451  1.00  0.00     0.035 A 
ATOM     15  C   UNL A   1      36.210  22.362  23.810  1.00  0.00     0.035 A 
ATOM     16  C   UNL A   1      36.911  23.761  26.122  1.00  0.00     0.088 A 
ATOM     17  C   UNL A   1      37.405  22.056  24.466  1.00  0.00     0.088 A 
ATOM     18  C   UNL A   1      37.747  22.754  25.628  1.00  0.00     0.269 A 
BRANCH  18  19
ATOM     19  N   UNL A   1      38.993  22.429  26.330  1.00  0.00     0.062 N 
ATOM     20  O   UNL A   1      39.420  23.246  27.159  1.00  0.00    -0.258 OA
ATOM     21  O   UNL A   1      39.537  21.347  26.068  1.00  0.00    -0.258 OA
ENDBRANCH  18  19
ENDBRANCH  11  13
BRANCH  12  22
ATOM     22  C   UNL A   1      32.622  21.711  23.586  1.00  0.00    -0.023 A 
ATOM     23  C   UNL A   1      32.178  21.223  22.346  1.00  0.00     0.006 A 
ATOM     24  C   UNL A   1      32.898  20.768  24.594  1.00  0.00     0.006 A 
ATOM     25  C   UNL A   1      32.005  19.851  22.131  1.00  0.00     0.000 A 
ATOM     26  C   UNL A   1      32.766  19.396  24.368  1.00  0.00     0.000 A 
ATOM     27  C   UNL A   1      32.308  18.938  23.137  1.00  0.00     0.000 A 
ENDBRANCH  12  22
ENDBRANCH   6   8
ENDBRANCH   3   4
ENDBRANCH   2   3
ENDBRANCH   1   2
BRANCH   1  28
ATOM     28  C   UNL A   1      34.044  28.582  25.902  1.00  0.00     0.116 C 
BRANCH  28  29
ATOM     29  N   UNL A   1      33.712  29.927  26.343  1.00  0.00    -0.352 N 
ATOM     30  C   UNL A   1      34.329  30.710  27.289  1.00  0.00     0.251 C 
ATOM     31  H   UNL A   1      32.935  30.336  25.899  1.00  0.00     0.163 HD
ATOM     32  O   UNL A   1      33.824  31.783  27.611  1.00  0.00    -0.269 OA
BRANCH  30  33
ATOM     33  C   UNL A   1      35.577  30.252  27.944  1.00  0.00     0.039 A 
ATOM     34  C   UNL A   1      36.791  30.439  27.278  1.00  0.00     0.014 A 
ATOM     35  C   UNL A   1      35.557  29.635  29.197  1.00  0.00     0.014 A 
ATOM     36  C   UNL A   1      37.987  30.060  27.893  1.00  0.00     0.010 A 
ATOM     37  C   UNL A   1      36.754  29.326  29.841  1.00  0.00     0.010 A 
ATOM     38  C   UNL A   1      37.982  29.527  29.192  1.00  0.00    -0.014 A 
BRANCH  38  39
ATOM     39  C   UNL A   1      39.249  29.150  29.873  1.00  0.00     0.031 A 
ATOM     40  C   UNL A   1      39.705  29.907  31.092  1.00  0.00     0.074 A 
ATOM     41  C   UNL A   1      40.011  28.157  29.373  1.00  0.00     0.049 A 
ATOM     42  N   UNL A   1      40.799  29.759  31.794  1.00  0.00    -0.248 NA
ATOM     43  C   UNL A   1      38.827  30.988  31.572  1.00  0.00     0.031 C 
ATOM     44  C   UNL A   1      39.708  27.375  28.172  1.00  0.00     0.029 A 
ATOM     45  N   UNL A   1      41.203  27.638  29.813  1.00  0.00    -0.354 N 
ATOM     46  C   UNL A   1      40.745  30.728  32.790  1.00  0.00     0.074 A 
ATOM     47  C   UNL A   1      39.540  31.497  32.566  1.00  0.00     0.031 C 
ATOM     48  C   UNL A   1      40.677  26.462  27.985  1.00  0.00     0.029 A 
ATOM     49  C   UNL A   1      41.683  26.612  29.032  1.00  0.00     0.049 A 
ATOM     50  H   UNL A   1      41.671  27.969  30.613  1.00  0.00     0.167 HD
ATOM     51  C   UNL A   1      41.603  30.945  33.816  1.00  0.00     0.031 A 
ATOM     52  C   UNL A   1      42.804  25.875  29.145  1.00  0.00     0.031 A 
ATOM     53  C   UNL A   1      42.797  30.176  34.049  1.00  0.00     0.049 A 
ATOM     54  C   UNL A   1      43.732  26.123  30.303  1.00  0.00     0.074 A 
ATOM     55  C   UNL A   1      43.723  30.307  35.069  1.00  0.00     0.029 A 
ATOM     56  N   UNL A   1      43.222  29.120  33.257  1.00  0.00    -0.354 N 
ATOM     57  N   UNL A   1      43.643  27.023  31.253  1.00  0.00    -0.248 NA
ATOM     58  C   UNL A   1      44.900  25.239  30.416  1.00  0.00     0.031 C 
ATOM     59  C   UNL A   1      44.723  29.347  34.880  1.00  0.00     0.029 A 
ATOM     60  C   UNL A   1      44.394  28.588  33.769  1.00  0.00     0.049 A 
ATOM     61  H   UNL A   1      42.760  28.796  32.451  1.00  0.00     0.167 HD
ATOM     62  C   UNL A   1      44.725  26.790  32.096  1.00  0.00     0.074 A 
ATOM     63  C   UNL A   1      45.444  25.657  31.552  1.00  0.00     0.031 C 
ATOM     64  C   UNL A   1      45.091  27.453  33.221  1.00  0.00     0.031 A 
BRANCH  51  65
ATOM     65  C   UNL A   1      41.265  32.053  34.777  1.00  0.00    -0.014 A 
ATOM     66  C   UNL A   1      41.779  33.349  34.587  1.00  0.00     0.010 A 
ATOM     67  C   UNL A   1      40.400  31.811  35.860  1.00  0.00     0.010 A 
ATOM     68  C   UNL A   1      41.468  34.373  35.485  1.00  0.00     0.020 A 
ATOM     69  C   UNL A   1      40.065  32.841  36.744  1.00  0.00     0.020 A 
ATOM     70  C   UNL A   1      40.616  34.111  36.561  1.00  0.00     0.054 A 
BRANCH  70  71
ATOM     71  S   UNL A   1      40.210  35.466  37.697  1.00  0.00     0.124 S 
ATOM     72  O   UNL A   1      41.479  35.663  38.394  1.00  0.00    -0.237 OA
ATOM     73  O   UNL A   1      39.820  36.541  36.789  1.00  0.00    -0.237 OA
ATOM     74  O   UNL A   1      39.129  34.921  38.513  1.00  0.00    -0.744 OA
ENDBRANCH  70  71
ENDBRANCH  51  65
BRANCH  52  75
ATOM     75  C   UNL A   1      43.107  24.814  28.146  1.00  0.00    -0.014 A 
ATOM     76  C   UNL A   1      42.636  23.501  28.329  1.00  0.00     0.010 A 
ATOM     77  C   UNL A   1      43.886  25.108  27.012  1.00  0.00     0.010 A 
ATOM     78  C   UNL A   1      42.969  22.495  27.418  1.00  0.00     0.020 A 
ATOM     79  C   UNL A   1      44.197  24.111  26.084  1.00  0.00     0.020 A 
ATOM     80  C   UNL A   1      43.752  22.806  26.303  1.00  0.00     0.054 A 
BRANCH  80  81
ATOM     81  S   UNL A   1      44.155  21.493  25.117  1.00  0.00     0.124 S 
ATOM     82  O   UNL A   1      45.512  21.132  25.516  1.00  0.00    -0.237 OA
ATOM     83  O   UNL A   1      43.127  20.491  25.389  1.00  0.00    -0.237 OA
ATOM     84  O   UNL A   1      44.037  22.159  23.821  1.00  0.00    -0.744 OA
ENDBRANCH  80  81
ENDBRANCH  52  75
BRANCH  64  85
ATOM     85  C   UNL A   1      46.290  26.933  33.967  1.00  0.00    -0.014 A 
ATOM     86  C   UNL A   1      46.161  25.965  34.979  1.00  0.00     0.010 A 
ATOM     87  C   UNL A   1      47.570  27.411  33.634  1.00  0.00     0.010 A 
ATOM     88  C   UNL A   1      47.287  25.521  35.677  1.00  0.00     0.020 A 
ATOM     89  C   UNL A   1      48.701  26.950  34.311  1.00  0.00     0.020 A 
ATOM     90  C   UNL A   1      48.550  26.023  35.344  1.00  0.00     0.054 A 
BRANCH  90  91
ATOM     91  S   UNL A   1      50.000  25.424  36.254  1.00  0.00     0.124 S 
ATOM     92  O   UNL A   1      51.010  25.355  35.201  1.00  0.00    -0.237 OA
ATOM     93  O   UNL A   1      50.206  26.466  37.256  1.00  0.00    -0.237 OA
ATOM     94  O   UNL A   1      49.565  24.135  36.786  1.00  0.00    -0.744 OA
ENDBRANCH  90  91
ENDBRANCH  64  85
ENDBRANCH  38  39
ENDBRANCH  30  33
ENDBRANCH  28  29
ENDBRANCH   1  28
TORSDOF 17
ENDMDL
MODEL 3
REMARK VINA RESULT:     -11.2      3.134      8.616
REMARK SMILES O=C(NCCCCNC(=O)c1ccc(-c2c3nc(c(-c4ccc(S(=O)(=O)[O-])cc4)c4ccc([nH]4)c(-c4ccc(S(=O)(=O)[O-])cc4)c4nc(c(-c5ccc(S(=O)(=O)[O-])cc5)c5ccc2[nH]5)C=C4)C=C3)cc1)C1=NN(c2ccc([N+](=O)[O-])cc2)[C@H](c2ccccc2)C1
REMARK SMILES IDX 6 1 5 2 4 3 3 4 1 5 2 6 71 8 72 9 90 10 73 11 83 12 74 13
REMARK SMILES IDX 75 14 82 15 76 16 81 17 77 18 78 19 79 20 80 21 84 22 85 23
REMARK SMILES IDX 89 24 86 25 88 26 87 27 7 28 8 29 9 30 10 32 11 33 12 34
REMARK SMILES IDX 70 35 13 36 69 37 14 38 15 39 16 40 63 41 17 42 68 43 62 44
REMARK SMILES IDX 64 45 18 46 67 47 61 48 60 49 19 51 49 52 30 53 48 54 31 55
REMARK SMILES IDX 34 56 47 57 65 58 32 59 33 60 46 62 66 63 35 64 20 65 21 66
REMARK SMILES IDX 29 67 22 68 28 69 23 70 24 71 25 72 26 73 27 74 50 75 51 76
REMARK SMILES IDX 59 77 52 78 58 79 53 80 54 81 55 82 56 83 57 84 36 85 37 86
REMARK SMILES IDX 45 87 38 88 44 89 39 90 40 91 41 92 42 93 43 94
REMARK H PARENT 3 7 8 31 64 50 34 61
REMARK Flexibility Score: inf
ROOT
ATOM      1  C   UNL A   1      33.169  27.982  25.154  1.00  0.00     0.023 C 
ENDROOT
BRANCH   1   2
ATOM      2  C   UNL A   1      33.088  28.270  23.656  1.00  0.00     0.023 C 
BRANCH   2   3
ATOM      3  C   UNL A   1      31.866  27.694  22.951  1.00  0.00     0.116 C 
BRANCH   3   4
ATOM      4  N   UNL A   1      32.175  27.158  21.633  1.00  0.00    -0.351 N 
ATOM      5  O   UNL A   1      32.934  25.571  20.174  1.00  0.00    -0.268 OA
ATOM      6  C   UNL A   1      32.710  25.929  21.325  1.00  0.00     0.267 C 
ATOM      7  H   UNL A   1      31.976  27.746  20.868  1.00  0.00     0.163 HD
BRANCH   6   8
ATOM      8  C   UNL A   1      33.096  25.011  22.448  1.00  0.00     0.128 C 
ATOM      9  N   UNL A   1      34.326  24.805  22.794  1.00  0.00    -0.171 NA
ATOM     10  C   UNL A   1      32.052  24.312  23.249  1.00  0.00     0.096 C 
ATOM     11  N   UNL A   1      34.299  23.763  23.659  1.00  0.00    -0.257 N 
ATOM     12  C   UNL A   1      32.941  23.317  24.018  1.00  0.00     0.144 C 
BRANCH  11  13
ATOM     13  C   UNL A   1      35.483  23.416  24.285  1.00  0.00     0.061 A 
ATOM     14  C   UNL A   1      36.168  22.248  23.920  1.00  0.00     0.035 A 
ATOM     15  C   UNL A   1      35.974  24.161  25.366  1.00  0.00     0.035 A 
ATOM     16  C   UNL A   1      37.339  21.857  24.577  1.00  0.00     0.088 A 
ATOM     17  C   UNL A   1      37.143  23.788  26.035  1.00  0.00     0.088 A 
ATOM     18  C   UNL A   1      37.827  22.638  25.630  1.00  0.00     0.269 A 
BRANCH  18  19
ATOM     19  N   UNL A   1      39.062  22.248  26.318  1.00  0.00     0.062 N 
ATOM     20  O   UNL A   1      39.520  21.119  26.089  1.00  0.00    -0.258 OA
ATOM     21  O   UNL A   1      39.587  23.077  27.074  1.00  0.00    -0.258 OA
ENDBRANCH  18  19
ENDBRANCH  11  13
BRANCH  12  22
ATOM     22  C   UNL A   1      32.697  21.839  23.743  1.00  0.00    -0.023 A 
ATOM     23  C   UNL A   1      32.883  20.820  24.692  1.00  0.00     0.006 A 
ATOM     24  C   UNL A   1      32.260  21.458  22.459  1.00  0.00     0.006 A 
ATOM     25  C   UNL A   1      32.655  19.479  24.364  1.00  0.00     0.000 A 
ATOM     26  C   UNL A   1      31.992  20.125  22.144  1.00  0.00     0.000 A 
ATOM     27  C   UNL A   1      32.201  19.132  23.096  1.00  0.00     0.000 A 
ENDBRANCH  12  22
ENDBRANCH   6   8
ENDBRANCH   3   4
ENDBRANCH   2   3
ENDBRANCH   1   2
BRANCH   1  28
ATOM     28  C   UNL A   1      34.208  28.792  25.922  1.00  0.00     0.116 C 
BRANCH  28  29
ATOM     29  N   UNL A   1      33.705  30.071  26.398  1.00  0.00    -0.352 N 
ATOM     30  C   UNL A   1      34.188  30.880  27.398  1.00  0.00     0.251 C 
ATOM     31  H   UNL A   1      32.903  30.405  25.936  1.00  0.00     0.163 HD
ATOM     32  O   UNL A   1      33.549  31.873  27.736  1.00  0.00    -0.269 OA
BRANCH  30  33
ATOM     33  C   UNL A   1      35.454  30.542  28.089  1.00  0.00     0.039 A 
ATOM     34  C   UNL A   1      36.592  31.306  27.817  1.00  0.00     0.014 A 
ATOM     35  C   UNL A   1      35.530  29.476  28.990  1.00  0.00     0.014 A 
ATOM     36  C   UNL A   1      37.787  31.040  28.490  1.00  0.00     0.010 A 
ATOM     37  C   UNL A   1      36.700  29.259  29.716  1.00  0.00     0.010 A 
ATOM     38  C   UNL A   1      37.844  30.033  29.467  1.00  0.00    -0.014 A 
BRANCH  38  39
ATOM     39  C   UNL A   1      39.099  29.760  30.215  1.00  0.00     0.031 A 
ATOM     40  C   UNL A   1      40.034  28.673  29.752  1.00  0.00     0.074 A 
ATOM     41  C   UNL A   1      39.380  30.457  31.334  1.00  0.00     0.049 A 
ATOM     42  N   UNL A   1      41.149  28.256  30.295  1.00  0.00    -0.248 NA
ATOM     43  C   UNL A   1      39.654  27.945  28.530  1.00  0.00     0.031 C 
ATOM     44  C   UNL A   1      38.538  31.504  31.917  1.00  0.00     0.029 A 
ATOM     45  N   UNL A   1      40.456  30.387  32.184  1.00  0.00    -0.354 N 
ATOM     46  C   UNL A   1      41.598  27.216  29.489  1.00  0.00     0.074 A 
ATOM     47  C   UNL A   1      40.605  27.026  28.454  1.00  0.00     0.031 C 
ATOM     48  C   UNL A   1      39.139  31.991  33.016  1.00  0.00     0.029 A 
ATOM     49  C   UNL A   1      40.392  31.275  33.233  1.00  0.00     0.049 A 
ATOM     50  H   UNL A   1      41.203  29.759  32.056  1.00  0.00     0.167 HD
ATOM     51  C   UNL A   1      42.744  26.500  29.582  1.00  0.00     0.031 A 
ATOM     52  C   UNL A   1      41.244  31.489  34.253  1.00  0.00     0.031 A 
ATOM     53  C   UNL A   1      43.739  26.693  30.603  1.00  0.00     0.049 A 
ATOM     54  C   UNL A   1      42.520  30.693  34.324  1.00  0.00     0.074 A 
ATOM     55  C   UNL A   1      44.941  26.029  30.774  1.00  0.00     0.029 A 
ATOM     56  N   UNL A   1      43.653  27.631  31.621  1.00  0.00    -0.354 N 
ATOM     57  N   UNL A   1      42.940  29.737  33.530  1.00  0.00    -0.248 NA
ATOM     58  C   UNL A   1      43.445  31.022  35.416  1.00  0.00     0.031 C 
ATOM     59  C   UNL A   1      45.571  26.547  31.911  1.00  0.00     0.029 A 
ATOM     60  C   UNL A   1      44.783  27.566  32.419  1.00  0.00     0.049 A 
ATOM     61  H   UNL A   1      42.901  28.251  31.756  1.00  0.00     0.167 HD
ATOM     62  C   UNL A   1      44.195  29.375  34.008  1.00  0.00     0.074 A 
ATOM     63  C   UNL A   1      44.470  30.224  35.148  1.00  0.00     0.031 C 
ATOM     64  C   UNL A   1      45.046  28.426  33.544  1.00  0.00     0.031 A 
BRANCH  51  65
ATOM     65  C   UNL A   1      42.989  25.449  28.531  1.00  0.00    -0.014 A 
ATOM     66  C   UNL A   1      42.795  24.086  28.821  1.00  0.00     0.010 A 
ATOM     67  C   UNL A   1      43.384  25.824  27.234  1.00  0.00     0.010 A 
ATOM     68  C   UNL A   1      43.029  23.114  27.846  1.00  0.00     0.020 A 
ATOM     69  C   UNL A   1      43.593  24.855  26.248  1.00  0.00     0.020 A 
ATOM     70  C   UNL A   1      43.431  23.505  26.566  1.00  0.00     0.054 A 
BRANCH  70  71
ATOM     71  S   UNL A   1      43.706  22.223  25.312  1.00  0.00     0.124 S 
ATOM     72  O   UNL A   1      44.992  21.669  25.726  1.00  0.00    -0.237 OA
ATOM     73  O   UNL A   1      42.555  21.343  25.496  1.00  0.00    -0.237 OA
ATOM     74  O   UNL A   1      43.723  22.966  24.055  1.00  0.00    -0.744 OA
ENDBRANCH  70  71
ENDBRANCH  51  65
BRANCH  52  75
ATOM     75  C   UNL A   1      40.936  32.517  35.284  1.00  0.00    -0.014 A 
ATOM     76  C   UNL A   1      41.231  33.874  35.055  1.00  0.00     0.010 A 
ATOM     77  C   UNL A   1      40.359  32.141  36.511  1.00  0.00     0.010 A 
ATOM     78  C   UNL A   1      40.992  34.828  36.047  1.00  0.00     0.020 A 
ATOM     79  C   UNL A   1      40.092  33.097  37.494  1.00  0.00     0.020 A 
ATOM     80  C   UNL A   1      40.427  34.433  37.263  1.00  0.00     0.054 A 
BRANCH  80  81
ATOM     81  S   UNL A   1      40.100  35.689  38.531  1.00  0.00     0.124 S 
ATOM     82  O   UNL A   1      41.321  35.637  39.329  1.00  0.00    -0.237 OA
ATOM     83  O   UNL A   1      39.912  36.902  37.738  1.00  0.00    -0.237 OA
ATOM     84  O   UNL A   1      38.895  35.196  39.194  1.00  0.00    -0.744 OA
ENDBRANCH  80  81
ENDBRANCH  52  75
BRANCH  64  85
ATOM     85  C   UNL A   1      46.376  28.296  34.236  1.00  0.00    -0.014 A 
ATOM     86  C   UNL A   1      47.501  29.023  33.805  1.00  0.00     0.010 A 
ATOM     87  C   UNL A   1      46.494  27.445  35.350  1.00  0.00     0.010 A 
ATOM     88  C   UNL A   1      48.732  28.862  34.447  1.00  0.00     0.020 A 
ATOM     89  C   UNL A   1      47.717  27.302  36.010  1.00  0.00     0.020 A 
ATOM     90  C   UNL A   1      48.833  27.996  35.540  1.00  0.00     0.054 A 
BRANCH  90  91
ATOM     91  S   UNL A   1      50.438  27.811  36.366  1.00  0.00     0.124 S 
ATOM     92  O   UNL A   1      50.041  27.624  37.759  1.00  0.00    -0.237 OA
ATOM     93  O   UNL A   1      51.005  26.634  35.711  1.00  0.00    -0.237 OA
ATOM     94  O   UNL A   1      51.122  29.068  36.076  1.00  0.00    -0.744 OA
ENDBRANCH  90  91
ENDBRANCH  64  85
ENDBRANCH  38  39
ENDBRANCH  30  33
ENDBRANCH  28  29
ENDBRANCH   1  28
TORSDOF 17
ENDMDL
