MODEL 1
REMARK VINA RESULT:      -9.8      0.000      0.000
REMARK SMILES CC(=O)c1ccc(N2CCN(c3ccc(C(=O)NCCCCNC(=O)c4ccc(-c5c6nc(c(-c7ccc(S(=O)(=O)[O-])cc7)c7ccc([nH]7)c(-c7ccc(S(=O)(=O)[O-])cc7)c7nc(c(-c8ccc(S(=O)(=O)[O-])cc8)c8ccc5[nH]8)C=C7)C=C6)cc4)cc3NS(=O)(=O)c3ccc(C)cc3)CC2)cc1
REMARK SMILES IDX 20 1 19 2 18 3 16 4 17 5 15 7 12 8 13 9 87 10 14 11 86 12
REMARK SMILES IDX 11 13 8 14 9 15 100 16 10 17 99 18 7 19 4 20 5 21 102 22
REMARK SMILES IDX 6 23 101 24 2 25 1 26 3 27 88 28 89 30 90 31 91 32 92 33
REMARK SMILES IDX 93 34 98 35 94 36 97 37 95 38 96 39 21 40 22 41 23 42 24 43
REMARK SMILES IDX 25 45 26 46 27 47 85 48 28 49 84 50 29 51 30 52 31 53 78 54
REMARK SMILES IDX 32 55 83 56 77 57 79 58 33 59 82 60 76 61 75 62 34 64 64 65
REMARK SMILES IDX 45 66 63 67 46 68 49 69 62 70 80 71 47 72 48 73 61 75 81 76
REMARK SMILES IDX 50 77 35 78 36 79 44 80 37 81 43 82 38 83 39 84 40 85 41 86
REMARK SMILES IDX 42 87 65 88 66 89 74 90 67 91 73 92 68 93 69 94 70 95 71 96
REMARK SMILES IDX 72 97 51 98 52 99 60 100 53 101 59 102 54 103 55 104 56 105
REMARK SMILES IDX 57 106 58 107
REMARK H PARENT 18 6 88 29 23 44 79 63 49 74
REMARK Flexibility Score: inf
ROOT
ATOM      1  C   UNL A   1      43.176  23.889  24.985  1.00  0.00     0.023 C 
ENDROOT
BRANCH   1   2
ATOM      2  C   UNL A   1      44.150  25.694  25.759  1.00  0.00     0.116 C 
BRANCH   2   3
ATOM      3  N   UNL A   1      45.715  26.119  26.033  1.00  0.00    -0.352 N 
ATOM      4  C   UNL A   1      46.259  27.162  26.791  1.00  0.00     0.251 C 
ATOM      5  O   UNL A   1      47.343  27.027  27.351  1.00  0.00    -0.269 OA
ATOM      6  H   UNL A   1      46.380  25.543  25.592  1.00  0.00     0.163 HD
BRANCH   4   7
ATOM      7  C   UNL A   1      45.558  28.467  26.878  1.00  0.00     0.042 A 
ATOM      8  C   UNL A   1      44.615  31.128  26.910  1.00  0.00     0.061 A 
ATOM      9  C   UNL A   1      43.726  30.027  26.872  1.00  0.00     0.029 A 
ATOM     10  C   UNL A   1      45.981  30.844  26.963  1.00  0.00     0.073 A 
ATOM     11  C   UNL A   1      44.194  28.697  26.798  1.00  0.00     0.016 A 
ATOM     12  C   UNL A   1      46.353  29.545  27.163  1.00  0.00     0.042 A 
BRANCH   8  13
ATOM     13  N   UNL A   1      44.121  32.407  27.011  1.00  0.00    -0.366 N 
ATOM     14  N   UNL A   1      44.590  35.171  27.408  1.00  0.00    -0.368 N 
ATOM     15  C   UNL A   1      44.695  34.255  28.560  1.00  0.00     0.138 C 
ATOM     16  C   UNL A   1      44.821  34.589  26.070  1.00  0.00     0.138 C 
ATOM     17  C   UNL A   1      43.837  32.991  28.330  1.00  0.00     0.138 C 
ATOM     18  C   UNL A   1      44.016  33.288  25.847  1.00  0.00     0.138 C 
BRANCH  14  19
ATOM     19  C   UNL A   1      43.908  36.359  27.579  1.00  0.00     0.037 A 
ATOM     20  C   UNL A   1      42.518  38.778  28.004  1.00  0.00     0.017 A 
ATOM     21  C   UNL A   1      43.518  38.378  28.892  1.00  0.00     0.014 A 
ATOM     22  C   UNL A   1      42.221  37.984  26.895  1.00  0.00     0.014 A 
ATOM     23  C   UNL A   1      44.189  37.171  28.686  1.00  0.00     0.026 A 
ATOM     24  C   UNL A   1      42.923  36.790  26.683  1.00  0.00     0.026 A 
BRANCH  20  25
ATOM     25  C   UNL A   1      41.798  40.048  28.276  1.00  0.00     0.159 C 
ATOM     26  C   UNL A   1      41.943  40.668  29.640  1.00  0.00     0.093 C 
ATOM     27  O   UNL A   1      41.152  40.590  27.382  1.00  0.00    -0.295 OA
ENDBRANCH  20  25
ENDBRANCH  14  19
ENDBRANCH   8  13
BRANCH  10  28
ATOM     28  N   UNL A   1      47.051  31.805  26.938  1.00  0.00    -0.277 N 
ATOM     29  H   UNL A   1      47.310  32.257  26.102  1.00  0.00     0.180 HD
BRANCH  28  30
ATOM     30  S   UNL A   1      47.867  32.142  28.422  1.00  0.00     0.261 S 
ATOM     31  O   UNL A   1      48.299  33.524  28.345  1.00  0.00    -0.201 OA
ATOM     32  O   UNL A   1      46.978  31.710  29.479  1.00  0.00    -0.201 OA
BRANCH  30  33
ATOM     33  C   UNL A   1      49.354  31.150  28.577  1.00  0.00     0.087 A 
ATOM     34  C   UNL A   1      49.634  29.873  27.331  1.00  0.00     0.022 A 
ATOM     35  C   UNL A   1      50.390  31.208  30.052  1.00  0.00     0.022 A 
ATOM     36  C   UNL A   1      50.984  28.682  27.527  1.00  0.00     0.005 A 
ATOM     37  C   UNL A   1      51.705  30.003  30.283  1.00  0.00     0.005 A 
ATOM     38  C   UNL A   1      51.970  28.700  29.043  1.00  0.00    -0.051 A 
ATOM     39  C   UNL A   1      52.930  27.586  29.344  1.00  0.00     0.044 C 
ENDBRANCH  30  33
ENDBRANCH  28  30
ENDBRANCH  10  28
ENDBRANCH   4   7
ENDBRANCH   2   3
ENDBRANCH   1   2
BRANCH   1  40
ATOM     40  C   UNL A   1      42.654  22.373  25.655  1.00  0.00     0.023 C 
BRANCH  40  41
ATOM     41  C   UNL A   1      41.504  22.440  26.660  1.00  0.00     0.116 C 
BRANCH  41  42
ATOM     42  N   UNL A   1      40.188  22.199  26.094  1.00  0.00    -0.352 N 
ATOM     43  C   UNL A   1      39.125  23.073  26.148  1.00  0.00     0.251 C 
ATOM     44  H   UNL A   1      40.044  21.342  25.634  1.00  0.00     0.163 HD
ATOM     45  O   UNL A   1      38.019  22.783  25.712  1.00  0.00    -0.269 OA
BRANCH  43  46
ATOM     46  C   UNL A   1      39.367  24.373  26.801  1.00  0.00     0.039 A 
ATOM     47  C   UNL A   1      39.000  24.539  28.137  1.00  0.00     0.014 A 
ATOM     48  C   UNL A   1      40.094  25.354  26.122  1.00  0.00     0.014 A 
ATOM     49  C   UNL A   1      39.397  25.692  28.815  1.00  0.00     0.010 A 
ATOM     50  C   UNL A   1      40.533  26.476  26.816  1.00  0.00     0.010 A 
ATOM     51  C   UNL A   1      40.182  26.658  28.165  1.00  0.00    -0.014 A 
BRANCH  51  52
ATOM     52  C   UNL A   1      40.593  27.904  28.854  1.00  0.00     0.031 A 
ATOM     53  C   UNL A   1      41.960  27.967  29.477  1.00  0.00     0.074 A 
ATOM     54  C   UNL A   1      39.740  28.940  28.968  1.00  0.00     0.049 A 
ATOM     55  N   UNL A   1      42.490  28.908  30.213  1.00  0.00    -0.248 NA
ATOM     56  C   UNL A   1      42.835  26.801  29.264  1.00  0.00     0.031 C 
ATOM     57  C   UNL A   1      38.386  28.991  28.413  1.00  0.00     0.029 A 
ATOM     58  N   UNL A   1      39.884  30.150  29.599  1.00  0.00    -0.354 N 
ATOM     59  C   UNL A   1      43.747  28.438  30.570  1.00  0.00     0.074 A 
ATOM     60  C   UNL A   1      43.884  27.113  30.009  1.00  0.00     0.031 C 
ATOM     61  C   UNL A   1      37.829  30.176  28.718  1.00  0.00     0.029 A 
ATOM     62  C   UNL A   1      38.772  30.954  29.519  1.00  0.00     0.049 A 
ATOM     63  H   UNL A   1      40.708  30.417  30.067  1.00  0.00     0.167 HD
ATOM     64  C   UNL A   1      44.712  29.063  31.287  1.00  0.00     0.031 A 
ATOM     65  C   UNL A   1      38.538  32.176  30.038  1.00  0.00     0.031 A 
ATOM     66  C   UNL A   1      44.576  30.387  31.826  1.00  0.00     0.049 A 
ATOM     67  C   UNL A   1      39.622  32.850  30.838  1.00  0.00     0.074 A 
ATOM     68  C   UNL A   1      45.501  31.124  32.542  1.00  0.00     0.029 A 
ATOM     69  N   UNL A   1      43.442  31.175  31.700  1.00  0.00    -0.354 N 
ATOM     70  N   UNL A   1      40.819  32.404  31.139  1.00  0.00    -0.248 NA
ATOM     71  C   UNL A   1      39.331  34.192  31.360  1.00  0.00     0.031 C 
ATOM     72  C   UNL A   1      44.913  32.347  32.880  1.00  0.00     0.029 A 
ATOM     73  C   UNL A   1      43.641  32.390  32.329  1.00  0.00     0.049 A 
ATOM     74  H   UNL A   1      42.618  30.909  31.232  1.00  0.00     0.167 HD
ATOM     75  C   UNL A   1      41.437  33.428  31.850  1.00  0.00     0.074 A 
ATOM     76  C   UNL A   1      40.483  34.513  31.936  1.00  0.00     0.031 C 
ATOM     77  C   UNL A   1      42.685  33.466  32.378  1.00  0.00     0.031 A 
BRANCH  64  78
ATOM     78  C   UNL A   1      45.990  28.307  31.530  1.00  0.00    -0.014 A 
ATOM     79  C   UNL A   1      46.130  27.461  32.645  1.00  0.00     0.010 A 
ATOM     80  C   UNL A   1      47.060  28.435  30.628  1.00  0.00     0.010 A 
ATOM     81  C   UNL A   1      47.336  26.795  32.880  1.00  0.00     0.020 A 
ATOM     82  C   UNL A   1      48.258  27.749  30.844  1.00  0.00     0.020 A 
ATOM     83  C   UNL A   1      48.395  26.948  31.981  1.00  0.00     0.054 A 
BRANCH  83  84
ATOM     84  S   UNL A   1      49.946  26.067  32.305  1.00  0.00     0.124 S 
ATOM     85  O   UNL A   1      49.738  25.587  33.669  1.00  0.00    -0.237 OA
ATOM     86  O   UNL A   1      49.953  25.036  31.271  1.00  0.00    -0.237 OA
ATOM     87  O   UNL A   1      50.968  27.100  32.158  1.00  0.00    -0.744 OA
ENDBRANCH  83  84
ENDBRANCH  64  78
BRANCH  65  88
ATOM     88  C   UNL A   1      37.232  32.852  29.804  1.00  0.00    -0.014 A 
ATOM     89  C   UNL A   1      36.194  32.745  30.748  1.00  0.00     0.010 A 
ATOM     90  C   UNL A   1      37.018  33.611  28.639  1.00  0.00     0.010 A 
ATOM     91  C   UNL A   1      34.962  33.368  30.523  1.00  0.00     0.020 A 
ATOM     92  C   UNL A   1      35.796  34.257  28.422  1.00  0.00     0.020 A 
ATOM     93  C   UNL A   1      34.772  34.121  29.361  1.00  0.00     0.054 A 
BRANCH  93  94
ATOM     94  S   UNL A   1      33.182  34.961  29.112  1.00  0.00     0.124 S 
ATOM     95  O   UNL A   1      33.605  36.287  28.673  1.00  0.00    -0.237 OA
ATOM     96  O   UNL A   1      32.541  34.131  28.095  1.00  0.00    -0.237 OA
ATOM     97  O   UNL A   1      32.557  34.906  30.432  1.00  0.00    -0.744 OA
ENDBRANCH  93  94
ENDBRANCH  65  88
BRANCH  77  98
ATOM     98  C   UNL A   1      43.126  34.740  33.045  1.00  0.00    -0.014 A 
ATOM     99  C   UNL A   1      43.000  34.920  34.433  1.00  0.00     0.010 A 
ATOM    100  C   UNL A   1      43.778  35.724  32.279  1.00  0.00     0.010 A 
ATOM    101  C   UNL A   1      43.516  36.066  35.043  1.00  0.00     0.020 A 
ATOM    102  C   UNL A   1      44.315  36.859  32.888  1.00  0.00     0.020 A 
ATOM    103  C   UNL A   1      44.176  37.025  34.267  1.00  0.00     0.054 A 
BRANCH 103 104
ATOM    104  S   UNL A   1      44.915  38.461  35.094  1.00  0.00     0.124 S 
ATOM    105  O   UNL A   1      43.985  39.529  34.738  1.00  0.00    -0.237 OA
ATOM    106  O   UNL A   1      44.905  38.062  36.499  1.00  0.00    -0.237 OA
ATOM    107  O   UNL A   1      46.242  38.562  34.492  1.00  0.00    -0.744 OA
ENDBRANCH 103 104
ENDBRANCH  77  98
ENDBRANCH  51  52
ENDBRANCH  43  46
ENDBRANCH  41  42
ENDBRANCH  40  41
ENDBRANCH   1  40
TORSDOF 20
ENDMDL
MODEL 2
REMARK VINA RESULT:      -9.5      1.136      2.266
REMARK SMILES CC(=O)c1ccc(N2CCN(c3ccc(C(=O)NCCCCNC(=O)c4ccc(-c5c6nc(c(-c7ccc(S(=O)(=O)[O-])cc7)c7ccc([nH]7)c(-c7ccc(S(=O)(=O)[O-])cc7)c7nc(c(-c8ccc(S(=O)(=O)[O-])cc8)c8ccc5[nH]8)C=C7)C=C6)cc4)cc3NS(=O)(=O)c3ccc(C)cc3)CC2)cc1
REMARK SMILES IDX 20 1 19 2 18 3 16 4 17 5 15 7 12 8 13 9 87 10 14 11 86 12
REMARK SMILES IDX 11 13 8 14 9 15 100 16 10 17 99 18 7 19 4 20 5 21 102 22
REMARK SMILES IDX 6 23 101 24 2 25 1 26 3 27 88 28 89 30 90 31 91 32 92 33
REMARK SMILES IDX 93 34 98 35 94 36 97 37 95 38 96 39 21 40 22 41 23 42 24 43
REMARK SMILES IDX 25 45 26 46 27 47 85 48 28 49 84 50 29 51 30 52 31 53 78 54
REMARK SMILES IDX 32 55 83 56 77 57 79 58 33 59 82 60 76 61 75 62 34 64 64 65
REMARK SMILES IDX 45 66 63 67 46 68 49 69 62 70 80 71 47 72 48 73 61 75 81 76
REMARK SMILES IDX 50 77 35 78 36 79 44 80 37 81 43 82 38 83 39 84 40 85 41 86
REMARK SMILES IDX 42 87 65 88 66 89 74 90 67 91 73 92 68 93 69 94 70 95 71 96
REMARK SMILES IDX 72 97 51 98 52 99 60 100 53 101 59 102 54 103 55 104 56 105
REMARK SMILES IDX 57 106 58 107
REMARK H PARENT 18 6 88 29 23 44 79 63 49 74
REMARK Flexibility Score: inf
ROOT
ATOM      1  C   UNL A   1      43.371  23.935  24.757  1.00  0.00     0.023 C 
ENDROOT
BRANCH   1   2
ATOM      2  C   UNL A   1      44.320  25.792  25.433  1.00  0.00     0.116 C 
BRANCH   2   3
ATOM      3  N   UNL A   1      45.838  26.183  25.932  1.00  0.00    -0.352 N 
ATOM      4  C   UNL A   1      46.281  27.160  26.830  1.00  0.00     0.251 C 
ATOM      5  O   UNL A   1      47.287  26.974  27.507  1.00  0.00    -0.269 OA
ATOM      6  H   UNL A   1      46.553  25.639  25.532  1.00  0.00     0.163 HD
BRANCH   4   7
ATOM      7  C   UNL A   1      45.570  28.459  26.932  1.00  0.00     0.042 A 
ATOM      8  C   UNL A   1      44.613  31.114  27.012  1.00  0.00     0.061 A 
ATOM      9  C   UNL A   1      43.732  30.011  26.910  1.00  0.00     0.029 A 
ATOM     10  C   UNL A   1      45.978  30.834  27.105  1.00  0.00     0.073 A 
ATOM     11  C   UNL A   1      44.209  28.685  26.812  1.00  0.00     0.016 A 
ATOM     12  C   UNL A   1      46.350  29.531  27.277  1.00  0.00     0.042 A 
BRANCH   8  13
ATOM     13  N   UNL A   1      44.109  32.387  27.135  1.00  0.00    -0.366 N 
ATOM     14  N   UNL A   1      44.553  35.143  27.606  1.00  0.00    -0.368 N 
ATOM     15  C   UNL A   1      44.643  34.200  28.738  1.00  0.00     0.138 C 
ATOM     16  C   UNL A   1      44.812  34.596  26.260  1.00  0.00     0.138 C 
ATOM     17  C   UNL A   1      43.798  32.937  28.462  1.00  0.00     0.138 C 
ATOM     18  C   UNL A   1      44.020  33.295  25.990  1.00  0.00     0.138 C 
BRANCH  14  19
ATOM     19  C   UNL A   1      43.861  36.323  27.793  1.00  0.00     0.037 A 
ATOM     20  C   UNL A   1      42.478  38.762  28.114  1.00  0.00     0.017 A 
ATOM     21  C   UNL A   1      42.758  38.278  26.836  1.00  0.00     0.014 A 
ATOM     22  C   UNL A   1      42.871  38.026  29.234  1.00  0.00     0.014 A 
ATOM     23  C   UNL A   1      43.458  37.079  26.684  1.00  0.00     0.026 A 
ATOM     24  C   UNL A   1      43.546  36.809  29.067  1.00  0.00     0.026 A 
BRANCH  20  25
ATOM     25  C   UNL A   1      41.767  40.060  28.239  1.00  0.00     0.159 C 
ATOM     26  C   UNL A   1      41.947  40.849  29.508  1.00  0.00     0.093 C 
ATOM     27  O   UNL A   1      41.102  40.487  27.298  1.00  0.00    -0.295 OA
ENDBRANCH  20  25
ENDBRANCH  14  19
ENDBRANCH   8  13
BRANCH  10  28
ATOM     28  N   UNL A   1      47.043  31.800  27.146  1.00  0.00    -0.277 N 
ATOM     29  H   UNL A   1      47.328  32.279  26.334  1.00  0.00     0.180 HD
BRANCH  28  30
ATOM     30  S   UNL A   1      47.806  32.094  28.667  1.00  0.00     0.261 S 
ATOM     31  O   UNL A   1      46.942  31.512  29.675  1.00  0.00    -0.201 OA
ATOM     32  O   UNL A   1      49.175  31.644  28.526  1.00  0.00    -0.201 OA
BRANCH  30  33
ATOM     33  C   UNL A   1      47.886  33.852  29.016  1.00  0.00     0.087 A 
ATOM     34  C   UNL A   1      47.548  34.378  30.711  1.00  0.00     0.022 A 
ATOM     35  C   UNL A   1      48.011  35.081  27.702  1.00  0.00     0.022 A 
ATOM     36  C   UNL A   1      47.388  36.138  31.109  1.00  0.00     0.005 A 
ATOM     37  C   UNL A   1      47.808  36.829  28.075  1.00  0.00     0.005 A 
ATOM     38  C   UNL A   1      47.441  37.358  29.775  1.00  0.00    -0.051 A 
ATOM     39  C   UNL A   1      47.073  38.790  30.034  1.00  0.00     0.044 C 
ENDBRANCH  30  33
ENDBRANCH  28  30
ENDBRANCH  10  28
ENDBRANCH   4   7
ENDBRANCH   2   3
ENDBRANCH   1   2
BRANCH   1  40
ATOM     40  C   UNL A   1      42.812  22.475  25.517  1.00  0.00     0.023 C 
BRANCH  40  41
ATOM     41  C   UNL A   1      41.696  22.637  26.550  1.00  0.00     0.116 C 
BRANCH  41  42
ATOM     42  N   UNL A   1      40.363  22.343  26.055  1.00  0.00    -0.352 N 
ATOM     43  C   UNL A   1      39.265  23.162  26.189  1.00  0.00     0.251 C 
ATOM     44  H   UNL A   1      40.233  21.488  25.585  1.00  0.00     0.163 HD
ATOM     45  O   UNL A   1      38.151  22.826  25.810  1.00  0.00    -0.269 OA
BRANCH  43  46
ATOM     46  C   UNL A   1      39.482  24.460  26.854  1.00  0.00     0.039 A 
ATOM     47  C   UNL A   1      39.105  24.607  28.190  1.00  0.00     0.014 A 
ATOM     48  C   UNL A   1      40.195  25.459  26.188  1.00  0.00     0.014 A 
ATOM     49  C   UNL A   1      39.480  25.760  28.881  1.00  0.00     0.010 A 
ATOM     50  C   UNL A   1      40.611  26.583  26.895  1.00  0.00     0.010 A 
ATOM     51  C   UNL A   1      40.251  26.745  28.244  1.00  0.00    -0.014 A 
BRANCH  51  52
ATOM     52  C   UNL A   1      40.638  27.992  28.946  1.00  0.00     0.031 A 
ATOM     53  C   UNL A   1      41.991  28.063  29.597  1.00  0.00     0.074 A 
ATOM     54  C   UNL A   1      39.774  29.020  29.047  1.00  0.00     0.049 A 
ATOM     55  N   UNL A   1      42.498  29.005  30.348  1.00  0.00    -0.248 NA
ATOM     56  C   UNL A   1      42.880  26.906  29.397  1.00  0.00     0.031 C 
ATOM     57  C   UNL A   1      38.431  29.062  28.465  1.00  0.00     0.029 A 
ATOM     58  N   UNL A   1      39.895  30.229  29.687  1.00  0.00    -0.354 N 
ATOM     59  C   UNL A   1      43.752  28.544  30.728  1.00  0.00     0.074 A 
ATOM     60  C   UNL A   1      43.911  27.222  30.164  1.00  0.00     0.031 C 
ATOM     61  C   UNL A   1      37.859  30.241  28.764  1.00  0.00     0.029 A 
ATOM     62  C   UNL A   1      38.778  31.024  29.587  1.00  0.00     0.049 A 
ATOM     63  H   UNL A   1      40.708  30.501  30.172  1.00  0.00     0.167 HD
ATOM     64  C   UNL A   1      44.697  29.173  31.468  1.00  0.00     0.031 A 
ATOM     65  C   UNL A   1      38.524  32.241  30.106  1.00  0.00     0.031 A 
ATOM     66  C   UNL A   1      44.539  30.494  32.009  1.00  0.00     0.049 A 
ATOM     67  C   UNL A   1      39.586  32.921  30.932  1.00  0.00     0.074 A 
ATOM     68  C   UNL A   1      45.443  31.235  32.747  1.00  0.00     0.029 A 
ATOM     69  N   UNL A   1      43.401  31.273  31.863  1.00  0.00    -0.354 N 
ATOM     70  N   UNL A   1      40.780  32.484  31.255  1.00  0.00    -0.248 NA
ATOM     71  C   UNL A   1      39.273  34.258  31.453  1.00  0.00     0.031 C 
ATOM     72  C   UNL A   1      44.839  32.452  33.078  1.00  0.00     0.029 A 
ATOM     73  C   UNL A   1      43.578  32.487  32.502  1.00  0.00     0.049 A 
ATOM     74  H   UNL A   1      42.589  31.003  31.378  1.00  0.00     0.167 HD
ATOM     75  C   UNL A   1      41.375  33.509  31.982  1.00  0.00     0.074 A 
ATOM     76  C   UNL A   1      40.411  34.586  32.054  1.00  0.00     0.031 C 
ATOM     77  C   UNL A   1      42.611  33.555  32.536  1.00  0.00     0.031 A 
BRANCH  64  78
ATOM     78  C   UNL A   1      45.976  28.427  31.733  1.00  0.00    -0.014 A 
ATOM     79  C   UNL A   1      46.134  27.653  32.897  1.00  0.00     0.010 A 
ATOM     80  C   UNL A   1      47.028  28.491  30.803  1.00  0.00     0.010 A 
ATOM     81  C   UNL A   1      47.342  26.996  33.150  1.00  0.00     0.020 A 
ATOM     82  C   UNL A   1      48.227  27.812  31.039  1.00  0.00     0.020 A 
ATOM     83  C   UNL A   1      48.383  27.086  32.222  1.00  0.00     0.054 A 
BRANCH  83  84
ATOM     84  S   UNL A   1      49.936  26.218  32.571  1.00  0.00     0.124 S 
ATOM     85  O   UNL A   1      49.510  24.821  32.548  1.00  0.00    -0.237 OA
ATOM     86  O   UNL A   1      50.793  26.631  31.463  1.00  0.00    -0.237 OA
ATOM     87  O   UNL A   1      50.330  26.727  33.882  1.00  0.00    -0.744 OA
ENDBRANCH  83  84
ENDBRANCH  64  78
BRANCH  65  88
ATOM     88  C   UNL A   1      37.217  32.908  29.849  1.00  0.00    -0.014 A 
ATOM     89  C   UNL A   1      36.180  32.835  30.797  1.00  0.00     0.010 A 
ATOM     90  C   UNL A   1      37.002  33.624  28.658  1.00  0.00     0.010 A 
ATOM     91  C   UNL A   1      34.948  33.449  30.550  1.00  0.00     0.020 A 
ATOM     92  C   UNL A   1      35.780  34.260  28.418  1.00  0.00     0.020 A 
ATOM     93  C   UNL A   1      34.756  34.159  29.362  1.00  0.00     0.054 A 
BRANCH  93  94
ATOM     94  S   UNL A   1      33.165  34.988  29.084  1.00  0.00     0.124 S 
ATOM     95  O   UNL A   1      33.587  36.331  28.701  1.00  0.00    -0.237 OA
ATOM     96  O   UNL A   1      32.571  34.183  28.019  1.00  0.00    -0.237 OA
ATOM     97  O   UNL A   1      32.496  34.885  30.379  1.00  0.00    -0.744 OA
ENDBRANCH  93  94
ENDBRANCH  65  88
BRANCH  77  98
ATOM     98  C   UNL A   1      43.029  34.830  33.218  1.00  0.00    -0.014 A 
ATOM     99  C   UNL A   1      42.798  35.034  34.588  1.00  0.00     0.010 A 
ATOM    100  C   UNL A   1      43.762  35.786  32.491  1.00  0.00     0.010 A 
ATOM    101  C   UNL A   1      43.291  36.179  35.220  1.00  0.00     0.020 A 
ATOM    102  C   UNL A   1      44.276  36.919  33.124  1.00  0.00     0.020 A 
ATOM    103  C   UNL A   1      44.032  37.110  34.485  1.00  0.00     0.054 A 
BRANCH 103 104
ATOM    104  S   UNL A   1      44.737  38.543  35.347  1.00  0.00     0.124 S 
ATOM    105  O   UNL A   1      44.119  39.659  34.638  1.00  0.00    -0.237 OA
ATOM    106  O   UNL A   1      44.286  38.344  36.722  1.00  0.00    -0.237 OA
ATOM    107  O   UNL A   1      46.177  38.394  35.144  1.00  0.00    -0.744 OA
ENDBRANCH 103 104
ENDBRANCH  77  98
ENDBRANCH  51  52
ENDBRANCH  43  46
ENDBRANCH  41  42
ENDBRANCH  40  41
ENDBRANCH   1  40
TORSDOF 20
ENDMDL
MODEL 3
REMARK VINA RESULT:      -9.3      5.264     12.001
REMARK SMILES CC(=O)c1ccc(N2CCN(c3ccc(C(=O)NCCCCNC(=O)c4ccc(-c5c6nc(c(-c7ccc(S(=O)(=O)[O-])cc7)c7ccc([nH]7)c(-c7ccc(S(=O)(=O)[O-])cc7)c7nc(c(-c8ccc(S(=O)(=O)[O-])cc8)c8ccc5[nH]8)C=C7)C=C6)cc4)cc3NS(=O)(=O)c3ccc(C)cc3)CC2)cc1
REMARK SMILES IDX 20 1 19 2 18 3 16 4 17 5 15 7 12 8 13 9 87 10 14 11 86 12
REMARK SMILES IDX 11 13 8 14 9 15 100 16 10 17 99 18 7 19 4 20 5 21 102 22
REMARK SMILES IDX 6 23 101 24 2 25 1 26 3 27 88 28 89 30 90 31 91 32 92 33
REMARK SMILES IDX 93 34 98 35 94 36 97 37 95 38 96 39 21 40 22 41 23 42 24 43
REMARK SMILES IDX 25 45 26 46 27 47 85 48 28 49 84 50 29 51 30 52 31 53 78 54
REMARK SMILES IDX 32 55 83 56 77 57 79 58 33 59 82 60 76 61 75 62 34 64 64 65
REMARK SMILES IDX 45 66 63 67 46 68 49 69 62 70 80 71 47 72 48 73 61 75 81 76
REMARK SMILES IDX 50 77 35 78 36 79 44 80 37 81 43 82 38 83 39 84 40 85 41 86
REMARK SMILES IDX 42 87 65 88 66 89 74 90 67 91 73 92 68 93 69 94 70 95 71 96
REMARK SMILES IDX 72 97 51 98 52 99 60 100 53 101 59 102 54 103 55 104 56 105
REMARK SMILES IDX 57 106 58 107
REMARK H PARENT 18 6 88 29 23 44 79 63 49 74
REMARK Flexibility Score: inf
ROOT
ATOM      1  C   UNL A   1      38.862  24.706  26.871  1.00  0.00     0.023 C 
ENDROOT
BRANCH   1   2
ATOM      2  C   UNL A   1      39.529  22.681  26.361  1.00  0.00     0.116 C 
BRANCH   2   3
ATOM      3  N   UNL A   1      38.750  21.288  25.963  1.00  0.00    -0.352 N 
ATOM      4  C   UNL A   1      37.767  21.034  25.000  1.00  0.00     0.251 C 
ATOM      5  O   UNL A   1      37.703  19.941  24.447  1.00  0.00    -0.269 OA
ATOM      6  H   UNL A   1      39.020  20.502  26.489  1.00  0.00     0.163 HD
BRANCH   4   7
ATOM      7  C   UNL A   1      36.751  22.068  24.679  1.00  0.00     0.042 A 
ATOM      8  C   UNL A   1      34.775  24.078  24.514  1.00  0.00     0.061 A 
ATOM      9  C   UNL A   1      35.619  23.776  23.418  1.00  0.00     0.029 A 
ATOM     10  C   UNL A   1      34.938  23.317  25.674  1.00  0.00     0.073 A 
ATOM     11  C   UNL A   1      36.646  22.811  23.515  1.00  0.00     0.016 A 
ATOM     12  C   UNL A   1      35.758  22.226  25.609  1.00  0.00     0.042 A 
BRANCH   8  13
ATOM     13  N   UNL A   1      33.767  25.002  24.372  1.00  0.00    -0.366 N 
ATOM     14  N   UNL A   1      32.851  27.456  23.298  1.00  0.00    -0.368 N 
ATOM     15  C   UNL A   1      33.813  27.479  24.416  1.00  0.00     0.138 C 
ATOM     16  C   UNL A   1      32.856  26.255  22.439  1.00  0.00     0.138 C 
ATOM     17  C   UNL A   1      33.713  26.181  25.247  1.00  0.00     0.138 C 
ATOM     18  C   UNL A   1      32.819  24.944  23.258  1.00  0.00     0.138 C 
BRANCH  14  19
ATOM     19  C   UNL A   1      31.768  28.310  23.351  1.00  0.00     0.037 A 
ATOM     20  C   UNL A   1      29.552  30.057  23.385  1.00  0.00     0.017 A 
ATOM     21  C   UNL A   1      29.658  29.079  22.396  1.00  0.00     0.014 A 
ATOM     22  C   UNL A   1      30.539  30.157  24.368  1.00  0.00     0.014 A 
ATOM     23  C   UNL A   1      30.767  28.230  22.374  1.00  0.00     0.026 A 
ATOM     24  C   UNL A   1      31.630  29.278  24.352  1.00  0.00     0.026 A 
BRANCH  20  25
ATOM     25  C   UNL A   1      28.380  30.969  23.354  1.00  0.00     0.159 C 
ATOM     26  C   UNL A   1      28.611  32.408  22.978  1.00  0.00     0.093 C 
ATOM     27  O   UNL A   1      27.255  30.529  23.576  1.00  0.00    -0.295 OA
ENDBRANCH  20  25
ENDBRANCH  14  19
ENDBRANCH   8  13
BRANCH  10  28
ATOM     28  N   UNL A   1      34.239  23.502  26.917  1.00  0.00    -0.277 N 
ATOM     29  H   UNL A   1      34.636  24.024  27.652  1.00  0.00     0.180 HD
BRANCH  28  30
ATOM     30  S   UNL A   1      32.679  22.779  27.080  1.00  0.00     0.261 S 
ATOM     31  O   UNL A   1      32.650  22.165  28.393  1.00  0.00    -0.201 OA
ATOM     32  O   UNL A   1      31.720  23.803  26.728  1.00  0.00    -0.201 OA
BRANCH  30  33
ATOM     33  C   UNL A   1      32.460  21.452  25.891  1.00  0.00     0.087 A 
ATOM     34  C   UNL A   1      32.996  19.799  26.384  1.00  0.00     0.022 A 
ATOM     35  C   UNL A   1      31.997  21.773  24.178  1.00  0.00     0.022 A 
ATOM     36  C   UNL A   1      33.020  18.447  25.180  1.00  0.00     0.005 A 
ATOM     37  C   UNL A   1      32.060  20.451  22.960  1.00  0.00     0.005 A 
ATOM     38  C   UNL A   1      32.625  18.794  23.448  1.00  0.00    -0.051 A 
ATOM     39  C   UNL A   1      32.868  17.759  22.388  1.00  0.00     0.044 C 
ENDBRANCH  30  33
ENDBRANCH  28  30
ENDBRANCH  10  28
ENDBRANCH   4   7
ENDBRANCH   2   3
ENDBRANCH   1   2
BRANCH   1  40
ATOM     40  C   UNL A   1      39.591  26.112  27.588  1.00  0.00     0.023 C 
BRANCH  40  41
ATOM     41  C   UNL A   1      40.451  25.868  28.828  1.00  0.00     0.116 C 
BRANCH  41  42
ATOM     42  N   UNL A   1      41.695  25.161  28.575  1.00  0.00    -0.352 N 
ATOM     43  C   UNL A   1      42.956  25.667  28.793  1.00  0.00     0.251 C 
ATOM     44  H   UNL A   1      41.630  24.246  28.219  1.00  0.00     0.163 HD
ATOM     45  O   UNL A   1      43.968  25.047  28.494  1.00  0.00    -0.269 OA
BRANCH  43  46
ATOM     46  C   UNL A   1      43.038  27.021  29.370  1.00  0.00     0.039 A 
ATOM     47  C   UNL A   1      43.884  27.244  30.458  1.00  0.00     0.014 A 
ATOM     48  C   UNL A   1      42.393  28.079  28.725  1.00  0.00     0.014 A 
ATOM     49  C   UNL A   1      44.115  28.552  30.885  1.00  0.00     0.010 A 
ATOM     50  C   UNL A   1      42.667  29.384  29.121  1.00  0.00     0.010 A 
ATOM     51  C   UNL A   1      43.523  29.631  30.208  1.00  0.00    -0.014 A 
BRANCH  51  52
ATOM     52  C   UNL A   1      43.730  31.028  30.659  1.00  0.00     0.031 A 
ATOM     53  C   UNL A   1      42.918  31.540  31.815  1.00  0.00     0.074 A 
ATOM     54  C   UNL A   1      44.586  31.840  30.009  1.00  0.00     0.049 A 
ATOM     55  N   UNL A   1      42.856  32.748  32.311  1.00  0.00    -0.248 NA
ATOM     56  C   UNL A   1      42.039  30.566  32.486  1.00  0.00     0.031 C 
ATOM     57  C   UNL A   1      45.420  31.457  28.868  1.00  0.00     0.029 A 
ATOM     58  N   UNL A   1      44.891  33.163  30.214  1.00  0.00    -0.354 N 
ATOM     59  C   UNL A   1      41.917  32.684  33.332  1.00  0.00     0.074 A 
ATOM     60  C   UNL A   1      41.402  31.333  33.357  1.00  0.00     0.031 C 
ATOM     61  C   UNL A   1      46.150  32.519  28.482  1.00  0.00     0.029 A 
ATOM     62  C   UNL A   1      45.811  33.664  29.324  1.00  0.00     0.049 A 
ATOM     63  H   UNL A   1      44.486  33.702  30.931  1.00  0.00     0.167 HD
ATOM     64  C   UNL A   1      41.529  33.660  34.188  1.00  0.00     0.031 A 
ATOM     65  C   UNL A   1      46.317  34.906  29.198  1.00  0.00     0.031 A 
ATOM     66  C   UNL A   1      42.058  34.995  34.169  1.00  0.00     0.049 A 
ATOM     67  C   UNL A   1      45.866  35.980  30.156  1.00  0.00     0.074 A 
ATOM     68  C   UNL A   1      41.756  36.052  35.007  1.00  0.00     0.029 A 
ATOM     69  N   UNL A   1      43.007  35.453  33.267  1.00  0.00    -0.354 N 
ATOM     70  N   UNL A   1      45.001  35.894  31.138  1.00  0.00    -0.248 NA
ATOM     71  C   UNL A   1      46.466  37.311  29.997  1.00  0.00     0.031 C 
ATOM     72  C   UNL A   1      42.498  37.162  34.591  1.00  0.00     0.029 A 
ATOM     73  C   UNL A   1      43.299  36.780  33.525  1.00  0.00     0.049 A 
ATOM     74  H   UNL A   1      43.412  34.915  32.550  1.00  0.00     0.167 HD
ATOM     75  C   UNL A   1      44.983  37.148  31.738  1.00  0.00     0.074 A 
ATOM     76  C   UNL A   1      45.922  37.975  31.009  1.00  0.00     0.031 C 
ATOM     77  C   UNL A   1      44.258  37.574  32.801  1.00  0.00     0.031 A 
BRANCH  64  78
ATOM     78  C   UNL A   1      40.476  33.310  35.204  1.00  0.00    -0.014 A 
ATOM     79  C   UNL A   1      39.109  33.359  34.876  1.00  0.00     0.010 A 
ATOM     80  C   UNL A   1      40.858  32.915  36.498  1.00  0.00     0.010 A 
ATOM     81  C   UNL A   1      38.141  33.068  35.841  1.00  0.00     0.020 A 
ATOM     82  C   UNL A   1      39.893  32.596  37.457  1.00  0.00     0.020 A 
ATOM     83  C   UNL A   1      38.539  32.695  37.127  1.00  0.00     0.054 A 
BRANCH  83  84
ATOM     84  S   UNL A   1      37.263  32.316  38.358  1.00  0.00     0.124 S 
ATOM     85  O   UNL A   1      37.127  30.869  38.213  1.00  0.00    -0.237 OA
ATOM     86  O   UNL A   1      37.873  32.767  39.605  1.00  0.00    -0.237 OA
ATOM     87  O   UNL A   1      36.111  33.096  37.914  1.00  0.00    -0.744 OA
ENDBRANCH  83  84
ENDBRANCH  64  78
BRANCH  65  88
ATOM     88  C   UNL A   1      47.320  35.204  28.138  1.00  0.00    -0.014 A 
ATOM     89  C   UNL A   1      48.697  35.120  28.416  1.00  0.00     0.010 A 
ATOM     90  C   UNL A   1      46.907  35.568  26.845  1.00  0.00     0.010 A 
ATOM     91  C   UNL A   1      49.640  35.413  27.425  1.00  0.00     0.020 A 
ATOM     92  C   UNL A   1      47.847  35.837  25.844  1.00  0.00     0.020 A 
ATOM     93  C   UNL A   1      49.209  35.769  26.145  1.00  0.00     0.054 A 
BRANCH  93  94
ATOM     94  S   UNL A   1      50.450  36.097  24.862  1.00  0.00     0.124 S 
ATOM     95  O   UNL A   1      49.705  36.935  23.928  1.00  0.00    -0.237 OA
ATOM     96  O   UNL A   1      51.509  36.769  25.611  1.00  0.00    -0.237 OA
ATOM     97  O   UNL A   1      50.794  34.764  24.371  1.00  0.00    -0.744 OA
ENDBRANCH  93  94
ENDBRANCH  65  88
BRANCH  77  98
ATOM     98  C   UNL A   1      44.488  38.978  33.291  1.00  0.00    -0.014 A 
ATOM     99  C   UNL A   1      43.711  40.051  32.824  1.00  0.00     0.010 A 
ATOM    100  C   UNL A   1      45.425  39.200  34.318  1.00  0.00     0.010 A 
ATOM    101  C   UNL A   1      43.871  41.326  33.373  1.00  0.00     0.020 A 
ATOM    102  C   UNL A   1      45.570  40.467  34.885  1.00  0.00     0.020 A 
ATOM    103  C   UNL A   1      44.795  41.524  34.405  1.00  0.00     0.054 A 
BRANCH 103 104
ATOM    104  S   UNL A   1      44.921  43.167  35.162  1.00  0.00     0.124 S 
ATOM    105  O   UNL A   1      43.762  43.852  34.596  1.00  0.00    -0.237 OA
ATOM    106  O   UNL A   1      44.839  42.870  36.590  1.00  0.00    -0.237 OA
ATOM    107  O   UNL A   1      46.220  43.659  34.709  1.00  0.00    -0.744 OA
ENDBRANCH 103 104
ENDBRANCH  77  98
ENDBRANCH  51  52
ENDBRANCH  43  46
ENDBRANCH  41  42
ENDBRANCH  40  41
ENDBRANCH   1  40
TORSDOF 20
ENDMDL
