MODEL 1
REMARK VINA RESULT:     -11.0      0.000      0.000
REMARK SMILES O=C(NCCCCNC(=O)[C@@H]1C[NH2+]CCN1C(=O)N[C@@H]1CCOC1)c1ccc(-c2c3nc(c(-c4ccc(S(=O)(=O)[O-])cc4)c4ccc([nH]4)c(-c4ccc(S(=O)(=O)[O-])cc4)c4nc(c(-c5ccc(S(=O)(=O)[O-])cc5)c5ccc2[nH]5)C=C4)C=C3)cc1
REMARK SMILES IDX 5 1 4 2 3 3 1 4 2 5 25 7 26 8 84 9 27 10 83 11 28 12 29 13
REMARK SMILES IDX 30 14 77 15 31 16 82 17 76 18 78 19 32 20 81 21 75 22 74 23
REMARK SMILES IDX 33 25 63 26 44 27 62 28 45 29 48 30 61 31 79 32 46 33 47 34
REMARK SMILES IDX 60 36 80 37 49 38 34 39 35 40 43 41 36 42 42 43 37 44 38 45
REMARK SMILES IDX 39 46 40 47 41 48 64 49 65 50 73 51 66 52 72 53 67 54 68 55
REMARK SMILES IDX 69 56 70 57 71 58 50 59 51 60 59 61 52 62 58 63 53 64 54 65
REMARK SMILES IDX 55 66 56 67 57 68 6 69 7 70 8 71 9 72 10 74 11 75 12 76
REMARK SMILES IDX 16 77 13 78 15 79 14 80 17 83 18 84 19 85 20 87 21 88 24 89
REMARK SMILES IDX 22 90 23 91
REMARK H PARENT 3 6 78 24 48 35 8 73 13 81 13 82 19 86
REMARK Flexibility Score: inf
ROOT
ATOM      1  C   UNL A   1      38.166  20.225  24.802  1.00  0.00     0.023 C 
ENDROOT
BRANCH   1   2
ATOM      2  C   UNL A   1      39.214  20.602  25.843  1.00  0.00     0.116 C 
BRANCH   2   3
ATOM      3  N   UNL A   1      40.175  19.526  26.062  1.00  0.00    -0.352 N 
ATOM      4  O   UNL A   1      42.211  18.557  26.124  1.00  0.00    -0.269 OA
ATOM      5  C   UNL A   1      41.538  19.587  26.207  1.00  0.00     0.251 C 
ATOM      6  H   UNL A   1      39.787  18.623  26.114  1.00  0.00     0.163 HD
BRANCH   5   7
ATOM      7  C   UNL A   1      42.196  20.886  26.450  1.00  0.00     0.039 A 
ATOM      8  C   UNL A   1      42.485  21.287  27.755  1.00  0.00     0.014 A 
ATOM      9  C   UNL A   1      42.532  21.711  25.372  1.00  0.00     0.014 A 
ATOM     10  C   UNL A   1      42.941  22.576  27.995  1.00  0.00     0.010 A 
ATOM     11  C   UNL A   1      43.089  22.972  25.613  1.00  0.00     0.010 A 
ATOM     12  C   UNL A   1      43.257  23.433  26.928  1.00  0.00    -0.014 A 
BRANCH  12  13
ATOM     13  C   UNL A   1      43.790  24.790  27.223  1.00  0.00     0.031 A 
ATOM     14  C   UNL A   1      45.236  25.131  26.973  1.00  0.00     0.074 A 
ATOM     15  C   UNL A   1      42.943  25.736  27.678  1.00  0.00     0.049 A 
ATOM     16  N   UNL A   1      45.848  26.278  27.126  1.00  0.00    -0.248 NA
ATOM     17  C   UNL A   1      46.111  24.048  26.498  1.00  0.00     0.031 C 
ATOM     18  C   UNL A   1      41.518  25.528  27.957  1.00  0.00     0.029 A 
ATOM     19  N   UNL A   1      43.143  27.064  27.958  1.00  0.00    -0.354 N 
ATOM     20  C   UNL A   1      47.180  26.050  26.796  1.00  0.00     0.074 A 
ATOM     21  C   UNL A   1      47.292  24.648  26.458  1.00  0.00     0.031 C 
ATOM     22  C   UNL A   1      40.962  26.696  28.304  1.00  0.00     0.029 A 
ATOM     23  C   UNL A   1      41.999  27.721  28.347  1.00  0.00     0.049 A 
ATOM     24  H   UNL A   1      44.020  27.503  27.887  1.00  0.00     0.167 HD
ATOM     25  C   UNL A   1      48.212  26.928  26.777  1.00  0.00     0.031 A 
ATOM     26  C   UNL A   1      41.802  29.001  28.710  1.00  0.00     0.031 A 
ATOM     27  C   UNL A   1      48.091  28.325  27.113  1.00  0.00     0.049 A 
ATOM     28  C   UNL A   1      42.969  29.946  28.707  1.00  0.00     0.074 A 
ATOM     29  C   UNL A   1      49.070  29.304  27.087  1.00  0.00     0.029 A 
ATOM     30  N   UNL A   1      46.925  28.940  27.545  1.00  0.00    -0.354 N 
ATOM     31  N   UNL A   1      44.213  29.716  28.359  1.00  0.00    -0.248 NA
ATOM     32  C   UNL A   1      42.705  31.323  29.138  1.00  0.00     0.031 C 
ATOM     33  C   UNL A   1      48.512  30.494  27.564  1.00  0.00     0.029 A 
ATOM     34  C   UNL A   1      47.167  30.278  27.814  1.00  0.00     0.049 A 
ATOM     35  H   UNL A   1      46.054  28.492  27.645  1.00  0.00     0.167 HD
ATOM     36  C   UNL A   1      44.873  30.932  28.496  1.00  0.00     0.074 A 
ATOM     37  C   UNL A   1      43.885  31.893  28.946  1.00  0.00     0.031 C 
ATOM     38  C   UNL A   1      46.176  31.225  28.263  1.00  0.00     0.031 A 
BRANCH  25  39
ATOM     39  C   UNL A   1      49.580  26.399  26.419  1.00  0.00    -0.014 A 
ATOM     40  C   UNL A   1      50.379  25.718  27.357  1.00  0.00     0.010 A 
ATOM     41  C   UNL A   1      50.058  26.551  25.103  1.00  0.00     0.010 A 
ATOM     42  C   UNL A   1      51.643  25.243  26.998  1.00  0.00     0.020 A 
ATOM     43  C   UNL A   1      51.309  26.050  24.733  1.00  0.00     0.020 A 
ATOM     44  C   UNL A   1      52.103  25.415  25.688  1.00  0.00     0.054 A 
BRANCH  44  45
ATOM     45  S   UNL A   1      53.745  24.781  25.249  1.00  0.00     0.124 S 
ATOM     46  O   UNL A   1      53.465  23.368  25.005  1.00  0.00    -0.237 OA
ATOM     47  O   UNL A   1      54.084  25.567  24.066  1.00  0.00    -0.237 OA
ATOM     48  O   UNL A   1      54.553  25.060  26.432  1.00  0.00    -0.744 OA
ENDBRANCH  44  45
ENDBRANCH  25  39
BRANCH  26  49
ATOM     49  C   UNL A   1      40.441  29.460  29.103  1.00  0.00    -0.014 A 
ATOM     50  C   UNL A   1      40.109  29.634  30.459  1.00  0.00     0.010 A 
ATOM     51  C   UNL A   1      39.477  29.747  28.120  1.00  0.00     0.010 A 
ATOM     52  C   UNL A   1      38.832  30.068  30.823  1.00  0.00     0.020 A 
ATOM     53  C   UNL A   1      38.210  30.214  28.480  1.00  0.00     0.020 A 
ATOM     54  C   UNL A   1      37.892  30.359  29.830  1.00  0.00     0.054 A 
BRANCH  54  55
ATOM     55  S   UNL A   1      36.257  30.968  30.327  1.00  0.00     0.124 S 
ATOM     56  O   UNL A   1      35.486  30.805  29.098  1.00  0.00    -0.237 OA
ATOM     57  O   UNL A   1      35.905  30.066  31.421  1.00  0.00    -0.237 OA
ATOM     58  O   UNL A   1      36.515  32.349  30.728  1.00  0.00    -0.744 OA
ENDBRANCH  54  55
ENDBRANCH  26  49
BRANCH  38  59
ATOM     59  C   UNL A   1      46.599  32.662  28.435  1.00  0.00    -0.014 A 
ATOM     60  C   UNL A   1      47.020  33.166  29.678  1.00  0.00     0.010 A 
ATOM     61  C   UNL A   1      46.597  33.515  27.315  1.00  0.00     0.010 A 
ATOM     62  C   UNL A   1      47.385  34.509  29.808  1.00  0.00     0.020 A 
ATOM     63  C   UNL A   1      46.994  34.848  27.434  1.00  0.00     0.020 A 
ATOM     64  C   UNL A   1      47.366  35.342  28.684  1.00  0.00     0.054 A 
BRANCH  64  65
ATOM     65  S   UNL A   1      47.864  37.076  28.874  1.00  0.00     0.124 S 
ATOM     66  O   UNL A   1      49.196  37.076  28.272  1.00  0.00    -0.237 OA
ATOM     67  O   UNL A   1      46.835  37.789  28.123  1.00  0.00    -0.237 OA
ATOM     68  O   UNL A   1      47.835  37.289  30.319  1.00  0.00    -0.744 OA
ENDBRANCH  64  65
ENDBRANCH  38  59
ENDBRANCH  12  13
ENDBRANCH   5   7
ENDBRANCH   2   3
ENDBRANCH   1   2
BRANCH   1  69
ATOM     69  C   UNL A   1      36.757  20.759  25.101  1.00  0.00     0.023 C 
BRANCH  69  70
ATOM     70  C   UNL A   1      36.668  22.284  25.249  1.00  0.00     0.116 C 
BRANCH  70  71
ATOM     71  N   UNL A   1      36.116  22.871  24.043  1.00  0.00    -0.354 N 
ATOM     72  C   UNL A   1      34.835  23.073  23.621  1.00  0.00     0.248 C 
ATOM     73  H   UNL A   1      36.798  23.184  23.404  1.00  0.00     0.163 HD
ATOM     74  O   UNL A   1      34.718  23.329  22.415  1.00  0.00    -0.272 OA
BRANCH  72  75
ATOM     75  C   UNL A   1      33.592  22.773  24.508  1.00  0.00     0.231 C 
ATOM     76  C   UNL A   1      33.560  23.876  25.623  1.00  0.00     0.296 C 
ATOM     77  N   UNL A   1      32.900  21.517  25.024  1.00  0.00    -0.302 N 
ATOM     78  N   UNL A   1      32.192  24.204  26.099  1.00  0.00    -0.343 N 
ATOM     79  C   UNL A   1      31.503  21.897  25.367  1.00  0.00     0.183 C 
ATOM     80  C   UNL A   1      31.498  22.968  26.496  1.00  0.00     0.282 C 
ATOM     81  H   UNL A   1      31.672  24.659  25.349  1.00  0.00     0.346 HD
ATOM     82  H   UNL A   1      32.253  24.831  26.900  1.00  0.00     0.346 HD
BRANCH  77  83
ATOM     83  C   UNL A   1      33.319  20.541  25.894  1.00  0.00     0.318 C 
ATOM     84  O   UNL A   1      33.890  20.837  26.960  1.00  0.00    -0.249 OA
ATOM     85  N   UNL A   1      33.090  19.237  25.866  1.00  0.00    -0.333 N 
ATOM     86  H   UNL A   1      33.491  18.859  26.682  1.00  0.00     0.165 HD
BRANCH  85  87
ATOM     87  C   UNL A   1      32.494  18.119  25.133  1.00  0.00     0.112 C 
ATOM     88  C   UNL A   1      33.186  16.837  25.562  1.00  0.00     0.056 C 
ATOM     89  C   UNL A   1      32.737  18.077  23.660  1.00  0.00     0.185 C 
ATOM     90  C   UNL A   1      34.453  16.933  24.746  1.00  0.00     0.162 C 
ATOM     91  O   UNL A   1      34.027  17.475  23.488  1.00  0.00    -0.379 OA
ENDBRANCH  85  87
ENDBRANCH  77  83
ENDBRANCH  72  75
ENDBRANCH  70  71
ENDBRANCH  69  70
ENDBRANCH   1  69
TORSDOF 16
ENDMDL
MODEL 2
REMARK VINA RESULT:     -10.9      5.357     10.525
REMARK SMILES O=C(NCCCCNC(=O)[C@@H]1C[NH2+]CCN1C(=O)N[C@@H]1CCOC1)c1ccc(-c2c3nc(c(-c4ccc(S(=O)(=O)[O-])cc4)c4ccc([nH]4)c(-c4ccc(S(=O)(=O)[O-])cc4)c4nc(c(-c5ccc(S(=O)(=O)[O-])cc5)c5ccc2[nH]5)C=C4)C=C3)cc1
REMARK SMILES IDX 5 1 4 2 3 3 1 4 2 5 25 7 26 8 84 9 27 10 83 11 28 12 29 13
REMARK SMILES IDX 30 14 77 15 31 16 82 17 76 18 78 19 32 20 81 21 75 22 74 23
REMARK SMILES IDX 33 25 63 26 44 27 62 28 45 29 48 30 61 31 79 32 46 33 47 34
REMARK SMILES IDX 60 36 80 37 49 38 34 39 35 40 43 41 36 42 42 43 37 44 38 45
REMARK SMILES IDX 39 46 40 47 41 48 64 49 65 50 73 51 66 52 72 53 67 54 68 55
REMARK SMILES IDX 69 56 70 57 71 58 50 59 51 60 59 61 52 62 58 63 53 64 54 65
REMARK SMILES IDX 55 66 56 67 57 68 6 69 7 70 8 71 9 72 10 74 11 75 12 76
REMARK SMILES IDX 16 77 13 78 15 79 14 80 17 83 18 84 19 85 20 87 21 88 24 89
REMARK SMILES IDX 22 90 23 91
REMARK H PARENT 3 6 78 24 48 35 8 73 13 81 13 82 19 86
REMARK Flexibility Score: inf
ROOT
ATOM      1  C   UNL A   1      33.273  27.732  26.805  1.00  0.00     0.023 C 
ENDROOT
BRANCH   1   2
ATOM      2  C   UNL A   1      34.087  28.807  26.092  1.00  0.00     0.116 C 
BRANCH   2   3
ATOM      3  N   UNL A   1      33.765  30.144  26.576  1.00  0.00    -0.352 N 
ATOM      4  O   UNL A   1      33.773  31.874  28.024  1.00  0.00    -0.269 OA
ATOM      5  C   UNL A   1      34.343  30.872  27.586  1.00  0.00     0.251 C 
ATOM      6  H   UNL A   1      33.022  30.591  26.108  1.00  0.00     0.163 HD
BRANCH   5   7
ATOM      7  C   UNL A   1      35.638  30.448  28.151  1.00  0.00     0.039 A 
ATOM      8  C   UNL A   1      35.672  29.538  29.209  1.00  0.00     0.014 A 
ATOM      9  C   UNL A   1      36.830  30.956  27.625  1.00  0.00     0.014 A 
ATOM     10  C   UNL A   1      36.874  29.275  29.854  1.00  0.00     0.010 A 
ATOM     11  C   UNL A   1      38.051  30.608  28.213  1.00  0.00     0.010 A 
ATOM     12  C   UNL A   1      38.079  29.799  29.361  1.00  0.00    -0.014 A 
BRANCH  12  13
ATOM     13  C   UNL A   1      39.353  29.455  30.048  1.00  0.00     0.031 A 
ATOM     14  C   UNL A   1      39.762  30.145  31.323  1.00  0.00     0.074 A 
ATOM     15  C   UNL A   1      40.124  28.475  29.535  1.00  0.00     0.049 A 
ATOM     16  N   UNL A   1      40.811  29.929  32.075  1.00  0.00    -0.248 NA
ATOM     17  C   UNL A   1      38.887  31.221  31.816  1.00  0.00     0.031 C 
ATOM     18  C   UNL A   1      39.833  27.730  28.306  1.00  0.00     0.029 A 
ATOM     19  N   UNL A   1      41.289  27.914  29.992  1.00  0.00    -0.354 N 
ATOM     20  C   UNL A   1      40.741  30.856  33.110  1.00  0.00     0.074 A 
ATOM     21  C   UNL A   1      39.557  31.654  32.876  1.00  0.00     0.031 C 
ATOM     22  C   UNL A   1      40.755  26.771  28.143  1.00  0.00     0.029 A 
ATOM     23  C   UNL A   1      41.744  26.879  29.209  1.00  0.00     0.049 A 
ATOM     24  H   UNL A   1      41.755  28.223  30.802  1.00  0.00     0.167 HD
ATOM     25  C   UNL A   1      41.585  31.024  34.158  1.00  0.00     0.031 A 
ATOM     26  C   UNL A   1      42.839  26.106  29.324  1.00  0.00     0.031 A 
ATOM     27  C   UNL A   1      42.761  30.222  34.385  1.00  0.00     0.049 A 
ATOM     28  C   UNL A   1      43.771  26.333  30.479  1.00  0.00     0.074 A 
ATOM     29  C   UNL A   1      43.658  30.290  35.437  1.00  0.00     0.029 A 
ATOM     30  N   UNL A   1      43.210  29.214  33.544  1.00  0.00    -0.354 N 
ATOM     31  N   UNL A   1      43.667  27.193  31.464  1.00  0.00    -0.248 NA
ATOM     32  C   UNL A   1      44.965  25.482  30.541  1.00  0.00     0.031 C 
ATOM     33  C   UNL A   1      44.682  29.368  35.200  1.00  0.00     0.029 A 
ATOM     34  C   UNL A   1      44.384  28.672  34.040  1.00  0.00     0.049 A 
ATOM     35  H   UNL A   1      42.760  28.926  32.717  1.00  0.00     0.167 HD
ATOM     36  C   UNL A   1      44.765  26.961  32.284  1.00  0.00     0.074 A 
ATOM     37  C   UNL A   1      45.511  25.872  31.684  1.00  0.00     0.031 C 
ATOM     38  C   UNL A   1      45.119  27.589  33.433  1.00  0.00     0.031 A 
BRANCH  25  39
ATOM     39  C   UNL A   1      41.292  32.148  35.122  1.00  0.00    -0.014 A 
ATOM     40  C   UNL A   1      41.858  33.426  34.962  1.00  0.00     0.010 A 
ATOM     41  C   UNL A   1      40.400  31.929  36.189  1.00  0.00     0.010 A 
ATOM     42  C   UNL A   1      41.573  34.447  35.874  1.00  0.00     0.020 A 
ATOM     43  C   UNL A   1      40.089  32.956  37.085  1.00  0.00     0.020 A 
ATOM     44  C   UNL A   1      40.692  34.204  36.933  1.00  0.00     0.054 A 
BRANCH  44  45
ATOM     45  S   UNL A   1      40.335  35.549  38.097  1.00  0.00     0.124 S 
ATOM     46  O   UNL A   1      39.308  34.948  38.944  1.00  0.00    -0.237 OA
ATOM     47  O   UNL A   1      41.629  35.769  38.738  1.00  0.00    -0.237 OA
ATOM     48  O   UNL A   1      39.875  36.638  37.239  1.00  0.00    -0.744 OA
ENDBRANCH  44  45
ENDBRANCH  25  39
BRANCH  26  49
ATOM     49  C   UNL A   1      43.107  25.044  28.316  1.00  0.00    -0.014 A 
ATOM     50  C   UNL A   1      43.834  25.334  27.147  1.00  0.00     0.010 A 
ATOM     51  C   UNL A   1      42.655  23.729  28.531  1.00  0.00     0.010 A 
ATOM     52  C   UNL A   1      44.086  24.333  26.205  1.00  0.00     0.020 A 
ATOM     53  C   UNL A   1      42.934  22.719  27.608  1.00  0.00     0.020 A 
ATOM     54  C   UNL A   1      43.638  23.031  26.444  1.00  0.00     0.054 A 
BRANCH  54  55
ATOM     55  S   UNL A   1      44.020  21.739  25.229  1.00  0.00     0.124 S 
ATOM     56  O   UNL A   1      42.994  20.741  25.514  1.00  0.00    -0.237 OA
ATOM     57  O   UNL A   1      43.881  22.450  23.961  1.00  0.00    -0.237 OA
ATOM     58  O   UNL A   1      45.387  21.346  25.568  1.00  0.00    -0.744 OA
ENDBRANCH  54  55
ENDBRANCH  26  49
BRANCH  38  59
ATOM     59  C   UNL A   1      46.339  27.073  34.151  1.00  0.00    -0.014 A 
ATOM     60  C   UNL A   1      47.618  27.611  33.920  1.00  0.00     0.010 A 
ATOM     61  C   UNL A   1      46.193  26.042  35.098  1.00  0.00     0.010 A 
ATOM     62  C   UNL A   1      48.732  27.095  34.587  1.00  0.00     0.020 A 
ATOM     63  C   UNL A   1      47.299  25.547  35.791  1.00  0.00     0.020 A 
ATOM     64  C   UNL A   1      48.565  26.063  35.516  1.00  0.00     0.054 A 
BRANCH  64  65
ATOM     65  S   UNL A   1      50.024  25.424  36.384  1.00  0.00     0.124 S 
ATOM     66  O   UNL A   1      49.494  25.172  37.722  1.00  0.00    -0.237 OA
ATOM     67  O   UNL A   1      50.363  24.235  35.608  1.00  0.00    -0.237 OA
ATOM     68  O   UNL A   1      50.988  26.518  36.293  1.00  0.00    -0.744 OA
ENDBRANCH  64  65
ENDBRANCH  38  59
ENDBRANCH  12  13
ENDBRANCH   5   7
ENDBRANCH   2   3
ENDBRANCH   1   2
BRANCH   1  69
ATOM     69  C   UNL A   1      31.757  27.834  26.581  1.00  0.00     0.023 C 
BRANCH  69  70
ATOM     70  C   UNL A   1      31.156  26.700  25.740  1.00  0.00     0.116 C 
BRANCH  70  71
ATOM     71  N   UNL A   1      30.741  25.608  26.599  1.00  0.00    -0.354 N 
ATOM     72  C   UNL A   1      31.071  24.285  26.630  1.00  0.00     0.248 C 
ATOM     73  H   UNL A   1      30.096  25.872  27.295  1.00  0.00     0.163 HD
ATOM     74  O   UNL A   1      30.312  23.575  27.303  1.00  0.00    -0.272 OA
BRANCH  72  75
ATOM     75  C   UNL A   1      32.160  23.660  25.710  1.00  0.00     0.231 C 
ATOM     76  C   UNL A   1      31.649  22.229  25.320  1.00  0.00     0.296 C 
ATOM     77  N   UNL A   1      33.682  23.684  25.653  1.00  0.00    -0.302 N 
ATOM     78  N   UNL A   1      32.120  21.771  23.987  1.00  0.00    -0.343 N 
ATOM     79  C   UNL A   1      34.074  23.332  24.262  1.00  0.00     0.183 C 
ATOM     80  C   UNL A   1      33.585  21.897  23.911  1.00  0.00     0.282 C 
ATOM     81  H   UNL A   1      31.691  22.343  23.261  1.00  0.00     0.346 HD
ATOM     82  H   UNL A   1      31.857  20.795  23.852  1.00  0.00     0.346 HD
BRANCH  77  83
ATOM     83  C   UNL A   1      34.631  23.195  26.517  1.00  0.00     0.318 C 
ATOM     84  O   UNL A   1      34.305  22.498  27.497  1.00  0.00    -0.249 OA
ATOM     85  N   UNL A   1      35.951  23.221  26.417  1.00  0.00    -0.333 N 
ATOM     86  H   UNL A   1      36.306  22.721  27.187  1.00  0.00     0.165 HD
BRANCH  85  87
ATOM     87  C   UNL A   1      37.106  23.681  25.644  1.00  0.00     0.112 C 
ATOM     88  C   UNL A   1      37.497  22.589  24.665  1.00  0.00     0.056 C 
ATOM     89  C   UNL A   1      38.389  23.846  26.392  1.00  0.00     0.185 C 
ATOM     90  C   UNL A   1      38.253  21.662  25.588  1.00  0.00     0.162 C 
ATOM     91  O   UNL A   1      38.979  22.540  26.460  1.00  0.00    -0.379 OA
ENDBRANCH  85  87
ENDBRANCH  77  83
ENDBRANCH  72  75
ENDBRANCH  70  71
ENDBRANCH  69  70
ENDBRANCH   1  69
TORSDOF 16
ENDMDL
MODEL 3
REMARK VINA RESULT:     -10.8      6.294      8.362
REMARK SMILES O=C(NCCCCNC(=O)[C@@H]1C[NH2+]CCN1C(=O)N[C@@H]1CCOC1)c1ccc(-c2c3nc(c(-c4ccc(S(=O)(=O)[O-])cc4)c4ccc([nH]4)c(-c4ccc(S(=O)(=O)[O-])cc4)c4nc(c(-c5ccc(S(=O)(=O)[O-])cc5)c5ccc2[nH]5)C=C4)C=C3)cc1
REMARK SMILES IDX 5 1 4 2 3 3 1 4 2 5 25 7 26 8 84 9 27 10 83 11 28 12 29 13
REMARK SMILES IDX 30 14 77 15 31 16 82 17 76 18 78 19 32 20 81 21 75 22 74 23
REMARK SMILES IDX 33 25 63 26 44 27 62 28 45 29 48 30 61 31 79 32 46 33 47 34
REMARK SMILES IDX 60 36 80 37 49 38 34 39 35 40 43 41 36 42 42 43 37 44 38 45
REMARK SMILES IDX 39 46 40 47 41 48 64 49 65 50 73 51 66 52 72 53 67 54 68 55
REMARK SMILES IDX 69 56 70 57 71 58 50 59 51 60 59 61 52 62 58 63 53 64 54 65
REMARK SMILES IDX 55 66 56 67 57 68 6 69 7 70 8 71 9 72 10 74 11 75 12 76
REMARK SMILES IDX 16 77 13 78 15 79 14 80 17 83 18 84 19 85 20 87 21 88 24 89
REMARK SMILES IDX 22 90 23 91
REMARK H PARENT 3 6 78 24 48 35 8 73 13 81 13 82 19 86
REMARK Flexibility Score: inf
ROOT
ATOM      1  C   UNL A   1      38.065  22.732  25.959  1.00  0.00     0.023 C 
ENDROOT
BRANCH   1   2
ATOM      2  C   UNL A   1      38.908  23.677  26.809  1.00  0.00     0.116 C 
BRANCH   2   3
ATOM      3  N   UNL A   1      40.178  23.998  26.168  1.00  0.00    -0.352 N 
ATOM      4  O   UNL A   1      41.865  25.329  25.479  1.00  0.00    -0.269 OA
ATOM      5  C   UNL A   1      40.961  25.119  26.291  1.00  0.00     0.251 C 
ATOM      6  H   UNL A   1      40.526  23.309  25.557  1.00  0.00     0.163 HD
BRANCH   5   7
ATOM      7  C   UNL A   1      40.713  26.076  27.387  1.00  0.00     0.039 A 
ATOM      8  C   UNL A   1      41.432  27.270  27.446  1.00  0.00     0.014 A 
ATOM      9  C   UNL A   1      39.754  25.785  28.363  1.00  0.00     0.014 A 
ATOM     10  C   UNL A   1      41.326  28.085  28.566  1.00  0.00     0.010 A 
ATOM     11  C   UNL A   1      39.574  26.661  29.439  1.00  0.00     0.010 A 
ATOM     12  C   UNL A   1      40.391  27.796  29.573  1.00  0.00    -0.014 A 
BRANCH  12  13
ATOM     13  C   UNL A   1      40.269  28.718  30.734  1.00  0.00     0.031 A 
ATOM     14  C   UNL A   1      41.206  28.619  31.910  1.00  0.00     0.074 A 
ATOM     15  C   UNL A   1      39.329  29.685  30.700  1.00  0.00     0.049 A 
ATOM     16  N   UNL A   1      41.270  29.376  32.976  1.00  0.00    -0.248 NA
ATOM     17  C   UNL A   1      42.193  27.528  31.894  1.00  0.00     0.031 C 
ATOM     18  C   UNL A   1      38.364  29.884  29.615  1.00  0.00     0.029 A 
ATOM     19  N   UNL A   1      39.047  30.697  31.582  1.00  0.00    -0.354 N 
ATOM     20  C   UNL A   1      42.279  28.839  33.768  1.00  0.00     0.074 A 
ATOM     21  C   UNL A   1      42.784  27.677  33.072  1.00  0.00     0.031 C 
ATOM     22  C   UNL A   1      37.643  30.986  29.863  1.00  0.00     0.029 A 
ATOM     23  C   UNL A   1      38.039  31.530  31.157  1.00  0.00     0.049 A 
ATOM     24  H   UNL A   1      39.521  30.815  32.436  1.00  0.00     0.167 HD
ATOM     25  C   UNL A   1      42.741  29.276  34.966  1.00  0.00     0.031 A 
ATOM     26  C   UNL A   1      37.482  32.605  31.743  1.00  0.00     0.031 A 
ATOM     27  C   UNL A   1      42.234  30.438  35.652  1.00  0.00     0.049 A 
ATOM     28  C   UNL A   1      37.994  33.050  33.082  1.00  0.00     0.074 A 
ATOM     29  C   UNL A   1      42.661  30.984  36.851  1.00  0.00     0.029 A 
ATOM     30  N   UNL A   1      41.182  31.227  35.209  1.00  0.00    -0.354 N 
ATOM     31  N   UNL A   1      38.972  32.548  33.798  1.00  0.00    -0.248 NA
ATOM     32  C   UNL A   1      37.333  34.211  33.690  1.00  0.00     0.031 C 
ATOM     33  C   UNL A   1      41.828  32.062  37.163  1.00  0.00     0.029 A 
ATOM     34  C   UNL A   1      40.930  32.237  36.123  1.00  0.00     0.049 A 
ATOM     35  H   UNL A   1      40.688  31.089  34.369  1.00  0.00     0.167 HD
ATOM     36  C   UNL A   1      39.067  33.355  34.926  1.00  0.00     0.074 A 
ATOM     37  C   UNL A   1      38.055  34.383  34.787  1.00  0.00     0.031 C 
ATOM     38  C   UNL A   1      39.919  33.255  35.976  1.00  0.00     0.031 A 
BRANCH  25  39
ATOM     39  C   UNL A   1      43.827  28.471  35.637  1.00  0.00    -0.014 A 
ATOM     40  C   UNL A   1      45.191  28.734  35.410  1.00  0.00     0.010 A 
ATOM     41  C   UNL A   1      43.474  27.455  36.545  1.00  0.00     0.010 A 
ATOM     42  C   UNL A   1      46.175  27.969  36.041  1.00  0.00     0.020 A 
ATOM     43  C   UNL A   1      44.456  26.708  37.202  1.00  0.00     0.020 A 
ATOM     44  C   UNL A   1      45.801  26.957  36.931  1.00  0.00     0.054 A 
BRANCH  44  45
ATOM     45  S   UNL A   1      47.101  25.985  37.743  1.00  0.00     0.124 S 
ATOM     46  O   UNL A   1      47.624  25.195  36.631  1.00  0.00    -0.237 OA
ATOM     47  O   UNL A   1      47.997  27.017  38.257  1.00  0.00    -0.237 OA
ATOM     48  O   UNL A   1      46.381  25.224  38.761  1.00  0.00    -0.744 OA
ENDBRANCH  44  45
ENDBRANCH  25  39
BRANCH  26  49
ATOM     49  C   UNL A   1      36.378  33.334  31.060  1.00  0.00    -0.014 A 
ATOM     50  C   UNL A   1      35.129  33.492  31.688  1.00  0.00     0.010 A 
ATOM     51  C   UNL A   1      36.578  33.894  29.785  1.00  0.00     0.010 A 
ATOM     52  C   UNL A   1      34.097  34.180  31.045  1.00  0.00     0.020 A 
ATOM     53  C   UNL A   1      35.559  34.611  29.154  1.00  0.00     0.020 A 
ATOM     54  C   UNL A   1      34.320  34.738  29.783  1.00  0.00     0.054 A 
BRANCH  54  55
ATOM     55  S   UNL A   1      32.980  35.668  28.990  1.00  0.00     0.124 S 
ATOM     56  O   UNL A   1      32.368  34.653  28.139  1.00  0.00    -0.237 OA
ATOM     57  O   UNL A   1      32.181  36.103  30.133  1.00  0.00    -0.237 OA
ATOM     58  O   UNL A   1      33.679  36.740  28.285  1.00  0.00    -0.744 OA
ENDBRANCH  54  55
ENDBRANCH  26  49
BRANCH  38  59
ATOM     59  C   UNL A   1      39.833  34.325  37.034  1.00  0.00    -0.014 A 
ATOM     60  C   UNL A   1      40.458  35.575  36.877  1.00  0.00     0.010 A 
ATOM     61  C   UNL A   1      39.087  34.075  38.201  1.00  0.00     0.010 A 
ATOM     62  C   UNL A   1      40.377  36.536  37.888  1.00  0.00     0.020 A 
ATOM     63  C   UNL A   1      38.975  35.046  39.198  1.00  0.00     0.020 A 
ATOM     64  C   UNL A   1      39.639  36.263  39.044  1.00  0.00     0.054 A 
BRANCH  64  65
ATOM     65  S   UNL A   1      39.531  37.535  40.333  1.00  0.00     0.124 S 
ATOM     66  O   UNL A   1      40.936  37.881  40.535  1.00  0.00    -0.237 OA
ATOM     67  O   UNL A   1      38.716  38.567  39.698  1.00  0.00    -0.237 OA
ATOM     68  O   UNL A   1      38.893  36.843  41.451  1.00  0.00    -0.744 OA
ENDBRANCH  64  65
ENDBRANCH  38  59
ENDBRANCH  12  13
ENDBRANCH   5   7
ENDBRANCH   2   3
ENDBRANCH   1   2
BRANCH   1  69
ATOM     69  C   UNL A   1      37.044  23.435  25.054  1.00  0.00     0.023 C 
BRANCH  69  70
ATOM     70  C   UNL A   1      36.578  22.606  23.850  1.00  0.00     0.116 C 
BRANCH  70  71
ATOM     71  N   UNL A   1      35.683  23.391  23.021  1.00  0.00    -0.354 N 
ATOM     72  C   UNL A   1      34.332  23.578  23.045  1.00  0.00     0.248 C 
ATOM     73  H   UNL A   1      36.138  23.884  22.300  1.00  0.00     0.163 HD
ATOM     74  O   UNL A   1      33.856  24.074  22.015  1.00  0.00    -0.272 OA
BRANCH  72  75
ATOM     75  C   UNL A   1      33.416  23.001  24.163  1.00  0.00     0.231 C 
ATOM     76  C   UNL A   1      33.403  24.059  25.321  1.00  0.00     0.296 C 
ATOM     77  N   UNL A   1      33.142  21.618  24.742  1.00  0.00    -0.302 N 
ATOM     78  N   UNL A   1      32.140  24.071  26.104  1.00  0.00    -0.343 N 
ATOM     79  C   UNL A   1      31.811  21.676  25.404  1.00  0.00     0.183 C 
ATOM     80  C   UNL A   1      31.834  22.707  26.569  1.00  0.00     0.282 C 
ATOM     81  H   UNL A   1      31.378  24.407  25.514  1.00  0.00     0.346 HD
ATOM     82  H   UNL A   1      32.245  24.687  26.909  1.00  0.00     0.346 HD
BRANCH  77  83
ATOM     83  C   UNL A   1      33.946  20.750  25.439  1.00  0.00     0.318 C 
ATOM     84  O   UNL A   1      34.432  21.073  26.539  1.00  0.00    -0.249 OA
ATOM     85  N   UNL A   1      34.216  19.477  25.197  1.00  0.00    -0.333 N 
ATOM     86  H   UNL A   1      34.777  19.157  25.940  1.00  0.00     0.165 HD
BRANCH  85  87
ATOM     87  C   UNL A   1      34.031  18.342  24.290  1.00  0.00     0.112 C 
ATOM     88  C   UNL A   1      32.563  17.958  24.291  1.00  0.00     0.056 C 
ATOM     89  C   UNL A   1      34.650  17.047  24.704  1.00  0.00     0.185 C 
ATOM     90  C   UNL A   1      32.493  17.173  25.579  1.00  0.00     0.162 C 
ATOM     91  O   UNL A   1      33.726  16.440  25.618  1.00  0.00    -0.379 OA
ENDBRANCH  85  87
ENDBRANCH  77  83
ENDBRANCH  72  75
ENDBRANCH  70  71
ENDBRANCH  69  70
ENDBRANCH   1  69
TORSDOF 16
ENDMDL
