MODEL 1
REMARK VINA RESULT:     -13.8      0.000      0.000
REMARK SMILES COc1cccc([C@@H]2CC(c3cccc(C)c3)=NN2C(=O)CCC(=O)NCCCCNC(=O)c2ccc(-c3c4nc(c(-c5ccc(S(=O)(=O)[O-])cc5)c5ccc([nH]5)c(-c5ccc(S(=O)(=O)[O-])cc5)c5nc(c(-c6ccc(S(=O)(=O)[O-])cc6)c6ccc3[nH]6)C=C5)C=C4)cc2)c1
REMARK SMILES IDX 27 1 26 2 24 3 25 4 23 6 22 7 20 8 21 9 19 10 8 11 9 12
REMARK SMILES IDX 10 13 18 14 7 15 3 16 4 17 94 18 5 19 6 20 2 21 1 22 11 23
REMARK SMILES IDX 12 24 17 25 13 26 15 27 14 28 16 29 28 30 29 31 30 32 31 33
REMARK SMILES IDX 32 34 33 36 34 37 35 38 93 39 36 40 92 41 37 42 38 43 39 44
REMARK SMILES IDX 86 45 40 46 91 47 85 48 87 49 41 50 90 51 84 52 83 53 42 55
REMARK SMILES IDX 72 56 53 57 71 58 54 59 57 60 70 61 88 62 55 63 56 64 69 66
REMARK SMILES IDX 89 67 58 68 43 69 44 70 52 71 45 72 51 73 46 74 47 75 48 76
REMARK SMILES IDX 49 77 50 78 73 79 74 80 82 81 75 82 81 83 76 84 77 85 78 86
REMARK SMILES IDX 79 87 80 88 59 89 60 90 68 91 61 92 67 93 62 94 63 95 64 96
REMARK SMILES IDX 65 97 66 98
REMARK H PARENT 26 5 31 35 87 54 57 65
REMARK Flexibility Score: inf
ROOT
ATOM      1  C   UNL A   1      34.636  22.345  26.863  1.00  0.00     0.116 C 
ENDROOT
BRANCH   1   2
ATOM      2  N   UNL A   1      33.218  23.080  26.947  1.00  0.00    -0.356 N 
ATOM      3  C   UNL A   1      32.642  24.118  26.291  1.00  0.00     0.220 C 
ATOM      4  O   UNL A   1      31.534  24.479  26.697  1.00  0.00    -0.275 OA
ATOM      5  H   UNL A   1      32.628  22.688  27.631  1.00  0.00     0.163 HD
BRANCH   3   6
ATOM      6  C   UNL A   1      33.310  24.799  25.119  1.00  0.00     0.110 C 
BRANCH   6   7
ATOM      7  C   UNL A   1      32.490  25.143  23.873  1.00  0.00     0.112 C 
BRANCH   7   8
ATOM      8  C   UNL A   1      32.801  26.528  23.296  1.00  0.00     0.243 C 
ATOM      9  O   UNL A   1      33.346  26.646  22.201  1.00  0.00    -0.273 OA
BRANCH   8  10
ATOM     10  N   UNL A   1      32.578  27.585  24.209  1.00  0.00    -0.225 N 
ATOM     11  C   UNL A   1      30.950  27.719  25.121  1.00  0.00     0.147 C 
ATOM     12  C   UNL A   1      31.587  28.103  27.032  1.00  0.00     0.091 C 
ATOM     13  C   UNL A   1      33.660  28.494  26.689  1.00  0.00     0.071 C 
ATOM     14  N   UNL A   1      34.020  28.113  25.216  1.00  0.00    -0.174 NA
BRANCH  11  15
ATOM     15  C   UNL A   1      30.098  28.579  24.048  1.00  0.00    -0.019 A 
ATOM     16  C   UNL A   1      29.187  30.707  23.294  1.00  0.00     0.119 A 
ATOM     17  C   UNL A   1      28.195  30.048  22.558  1.00  0.00     0.046 A 
ATOM     18  C   UNL A   1      30.151  29.980  24.023  1.00  0.00     0.052 A 
ATOM     19  C   UNL A   1      28.150  28.669  22.527  1.00  0.00     0.004 A 
ATOM     20  C   UNL A   1      29.083  27.950  23.265  1.00  0.00     0.006 A 
BRANCH  16  21
ATOM     21  O   UNL A   1      29.054  32.068  23.256  1.00  0.00    -0.497 OA
ATOM     22  C   UNL A   1      28.319  32.611  22.176  1.00  0.00     0.278 C 
ENDBRANCH  16  21
ENDBRANCH  11  15
BRANCH  13  23
ATOM     23  C   UNL A   1      34.795  29.673  27.292  1.00  0.00    -0.002 A 
ATOM     24  C   UNL A   1      36.048  29.215  27.640  1.00  0.00     0.010 A 
ATOM     25  C   UNL A   1      34.710  31.147  27.332  1.00  0.00     0.013 A 
ATOM     26  C   UNL A   1      37.040  30.163  27.927  1.00  0.00     0.001 A 
ATOM     27  C   UNL A   1      35.355  32.139  28.206  1.00  0.00    -0.050 A 
ATOM     28  C   UNL A   1      36.730  31.553  28.158  1.00  0.00     0.003 A 
ATOM     29  C   UNL A   1      34.406  33.396  29.656  1.00  0.00     0.044 C 
ENDBRANCH  13  23
ENDBRANCH   8  10
ENDBRANCH   7   8
ENDBRANCH   6   7
ENDBRANCH   3   6
ENDBRANCH   1   2
BRANCH   1  30
ATOM     30  C   UNL A   1      36.009  22.149  25.118  1.00  0.00     0.023 C 
BRANCH  30  31
ATOM     31  C   UNL A   1      37.866  22.374  25.533  1.00  0.00     0.023 C 
BRANCH  31  32
ATOM     32  C   UNL A   1      38.418  23.846  26.463  1.00  0.00     0.116 C 
BRANCH  32  33
ATOM     33  N   UNL A   1      39.732  24.736  26.056  1.00  0.00    -0.352 N 
ATOM     34  C   UNL A   1      40.360  25.991  26.388  1.00  0.00     0.251 C 
ATOM     35  H   UNL A   1      40.259  24.266  25.368  1.00  0.00     0.163 HD
ATOM     36  O   UNL A   1      41.228  26.466  25.663  1.00  0.00    -0.269 OA
BRANCH  34  37
ATOM     37  C   UNL A   1      39.939  26.719  27.619  1.00  0.00     0.039 A 
ATOM     38  C   UNL A   1      38.875  26.259  29.073  1.00  0.00     0.014 A 
ATOM     39  C   UNL A   1      41.139  28.053  27.792  1.00  0.00     0.014 A 
ATOM     40  C   UNL A   1      39.099  27.182  30.688  1.00  0.00     0.010 A 
ATOM     41  C   UNL A   1      41.468  28.801  29.369  1.00  0.00     0.010 A 
ATOM     42  C   UNL A   1      40.449  28.447  30.806  1.00  0.00    -0.014 A 
BRANCH  42  43
ATOM     43  C   UNL A   1      40.743  29.640  31.723  1.00  0.00     0.031 A 
ATOM     44  C   UNL A   1      41.708  29.445  32.924  1.00  0.00     0.074 A 
ATOM     45  C   UNL A   1      39.738  30.529  31.934  1.00  0.00     0.049 A 
ATOM     46  N   UNL A   1      41.709  30.010  34.116  1.00  0.00    -0.248 NA
ATOM     47  C   UNL A   1      42.735  28.402  32.799  1.00  0.00     0.031 C 
ATOM     48  C   UNL A   1      38.565  30.702  31.078  1.00  0.00     0.029 A 
ATOM     49  N   UNL A   1      39.491  31.385  32.996  1.00  0.00    -0.354 N 
ATOM     50  C   UNL A   1      42.709  29.369  34.858  1.00  0.00     0.074 A 
ATOM     51  C   UNL A   1      43.209  28.302  34.031  1.00  0.00     0.031 C 
ATOM     52  C   UNL A   1      37.729  31.596  31.641  1.00  0.00     0.029 A 
ATOM     53  C   UNL A   1      38.282  32.049  32.918  1.00  0.00     0.049 A 
ATOM     54  H   UNL A   1      40.121  31.507  33.743  1.00  0.00     0.167 HD
ATOM     55  C   UNL A   1      43.239  29.648  36.079  1.00  0.00     0.031 A 
ATOM     56  C   UNL A   1      37.674  32.917  33.761  1.00  0.00     0.031 A 
ATOM     57  C   UNL A   1      42.800  30.711  36.939  1.00  0.00     0.049 A 
ATOM     58  C   UNL A   1      38.310  33.300  35.080  1.00  0.00     0.074 A 
ATOM     59  C   UNL A   1      43.353  31.141  38.134  1.00  0.00     0.029 A 
ATOM     60  N   UNL A   1      41.705  31.513  36.692  1.00  0.00    -0.354 N 
ATOM     61  N   UNL A   1      39.379  32.809  35.655  1.00  0.00    -0.248 NA
ATOM     62  C   UNL A   1      37.663  34.377  35.855  1.00  0.00     0.031 C 
ATOM     63  C   UNL A   1      42.572  32.192  38.625  1.00  0.00     0.029 A 
ATOM     64  C   UNL A   1      41.566  32.439  37.708  1.00  0.00     0.049 A 
ATOM     65  H   UNL A   1      41.111  31.436  35.910  1.00  0.00     0.167 HD
ATOM     66  C   UNL A   1      39.563  33.556  36.819  1.00  0.00     0.074 A 
ATOM     67  C   UNL A   1      38.494  34.524  36.878  1.00  0.00     0.031 C 
ATOM     68  C   UNL A   1      40.543  33.447  37.747  1.00  0.00     0.031 A 
BRANCH  55  69
ATOM     69  C   UNL A   1      44.445  28.847  36.529  1.00  0.00    -0.014 A 
ATOM     70  C   UNL A   1      45.741  29.357  36.315  1.00  0.00     0.010 A 
ATOM     71  C   UNL A   1      44.302  27.639  37.236  1.00  0.00     0.010 A 
ATOM     72  C   UNL A   1      46.866  28.653  36.745  1.00  0.00     0.020 A 
ATOM     73  C   UNL A   1      45.428  26.944  37.699  1.00  0.00     0.020 A 
ATOM     74  C   UNL A   1      46.704  27.449  37.432  1.00  0.00     0.054 A 
BRANCH  74  75
ATOM     75  S   UNL A   1      48.191  26.576  38.000  1.00  0.00     0.124 S 
ATOM     76  O   UNL A   1      48.285  27.019  39.389  1.00  0.00    -0.237 OA
ATOM     77  O   UNL A   1      47.831  25.173  37.813  1.00  0.00    -0.237 OA
ATOM     78  O   UNL A   1      49.243  27.071  37.116  1.00  0.00    -0.744 OA
ENDBRANCH  74  75
ENDBRANCH  55  69
BRANCH  56  79
ATOM     79  C   UNL A   1      36.400  33.589  33.362  1.00  0.00    -0.014 A 
ATOM     80  C   UNL A   1      36.454  34.846  32.726  1.00  0.00     0.010 A 
ATOM     81  C   UNL A   1      35.144  33.027  33.649  1.00  0.00     0.010 A 
ATOM     82  C   UNL A   1      35.284  35.545  32.422  1.00  0.00     0.020 A 
ATOM     83  C   UNL A   1      33.967  33.713  33.319  1.00  0.00     0.020 A 
ATOM     84  C   UNL A   1      34.046  34.976  32.724  1.00  0.00     0.054 A 
BRANCH  84  85
ATOM     85  S   UNL A   1      32.537  35.892  32.298  1.00  0.00     0.124 S 
ATOM     86  O   UNL A   1      32.716  36.120  30.867  1.00  0.00    -0.237 OA
ATOM     87  O   UNL A   1      31.480  34.951  32.661  1.00  0.00    -0.237 OA
ATOM     88  O   UNL A   1      32.616  37.085  33.138  1.00  0.00    -0.744 OA
ENDBRANCH  84  85
ENDBRANCH  56  79
BRANCH  68  89
ATOM     89  C   UNL A   1      40.604  34.446  38.871  1.00  0.00    -0.014 A 
ATOM     90  C   UNL A   1      41.218  35.699  38.713  1.00  0.00     0.010 A 
ATOM     91  C   UNL A   1      39.907  34.170  40.063  1.00  0.00     0.010 A 
ATOM     92  C   UNL A   1      41.131  36.660  39.726  1.00  0.00     0.020 A 
ATOM     93  C   UNL A   1      39.801  35.133  41.069  1.00  0.00     0.020 A 
ATOM     94  C   UNL A   1      40.416  36.374  40.895  1.00  0.00     0.054 A 
BRANCH  94  95
ATOM     95  S   UNL A   1      40.229  37.672  42.150  1.00  0.00     0.124 S 
ATOM     96  O   UNL A   1      39.428  38.667  41.444  1.00  0.00    -0.237 OA
ATOM     97  O   UNL A   1      39.547  36.973  43.237  1.00  0.00    -0.237 OA
ATOM     98  O   UNL A   1      41.603  38.072  42.443  1.00  0.00    -0.744 OA
ENDBRANCH  94  95
ENDBRANCH  68  89
ENDBRANCH  42  43
ENDBRANCH  34  37
ENDBRANCH  32  33
ENDBRANCH  31  32
ENDBRANCH  30  31
ENDBRANCH   1  30
TORSDOF 20
ENDMDL
MODEL 2
REMARK VINA RESULT:     -12.5      6.220      8.351
REMARK SMILES COc1cccc([C@@H]2CC(c3cccc(C)c3)=NN2C(=O)CCC(=O)NCCCCNC(=O)c2ccc(-c3c4nc(c(-c5ccc(S(=O)(=O)[O-])cc5)c5ccc([nH]5)c(-c5ccc(S(=O)(=O)[O-])cc5)c5nc(c(-c6ccc(S(=O)(=O)[O-])cc6)c6ccc3[nH]6)C=C5)C=C4)cc2)c1
REMARK SMILES IDX 27 1 26 2 24 3 25 4 23 6 22 7 20 8 21 9 19 10 8 11 9 12
REMARK SMILES IDX 10 13 18 14 7 15 3 16 4 17 94 18 5 19 6 20 2 21 1 22 11 23
REMARK SMILES IDX 12 24 17 25 13 26 15 27 14 28 16 29 28 30 29 31 30 32 31 33
REMARK SMILES IDX 32 34 33 36 34 37 35 38 93 39 36 40 92 41 37 42 38 43 39 44
REMARK SMILES IDX 86 45 40 46 91 47 85 48 87 49 41 50 90 51 84 52 83 53 42 55
REMARK SMILES IDX 72 56 53 57 71 58 54 59 57 60 70 61 88 62 55 63 56 64 69 66
REMARK SMILES IDX 89 67 58 68 43 69 44 70 52 71 45 72 51 73 46 74 47 75 48 76
REMARK SMILES IDX 49 77 50 78 73 79 74 80 82 81 75 82 81 83 76 84 77 85 78 86
REMARK SMILES IDX 79 87 80 88 59 89 60 90 68 91 61 92 67 93 62 94 63 95 64 96
REMARK SMILES IDX 65 97 66 98
REMARK H PARENT 26 5 31 35 87 54 57 65
REMARK Flexibility Score: inf
ROOT
ATOM      1  C   UNL A   1      33.714  21.467  26.590  1.00  0.00     0.116 C 
ENDROOT
BRANCH   1   2
ATOM      2  N   UNL A   1      32.549  22.487  26.988  1.00  0.00    -0.356 N 
ATOM      3  C   UNL A   1      32.273  23.782  26.690  1.00  0.00     0.220 C 
ATOM      4  O   UNL A   1      31.306  24.286  27.270  1.00  0.00    -0.275 OA
ATOM      5  H   UNL A   1      31.878  22.083  27.585  1.00  0.00     0.163 HD
BRANCH   3   6
ATOM      6  C   UNL A   1      33.094  24.572  25.699  1.00  0.00     0.110 C 
BRANCH   6   7
ATOM      7  C   UNL A   1      32.544  24.833  24.295  1.00  0.00     0.112 C 
BRANCH   7   8
ATOM      8  C   UNL A   1      32.979  26.179  23.704  1.00  0.00     0.243 C 
ATOM      9  O   UNL A   1      33.664  26.226  22.685  1.00  0.00    -0.273 OA
BRANCH   8  10
ATOM     10  N   UNL A   1      32.681  27.284  24.534  1.00  0.00    -0.225 N 
ATOM     11  C   UNL A   1      31.024  27.403  25.393  1.00  0.00     0.147 C 
ATOM     12  C   UNL A   1      31.588  27.948  27.289  1.00  0.00     0.091 C 
ATOM     13  C   UNL A   1      33.650  28.413  26.971  1.00  0.00     0.071 C 
ATOM     14  N   UNL A   1      34.068  27.948  25.538  1.00  0.00    -0.174 NA
BRANCH  11  15
ATOM     15  C   UNL A   1      30.164  28.145  24.241  1.00  0.00    -0.019 A 
ATOM     16  C   UNL A   1      29.362  30.191  23.193  1.00  0.00     0.119 A 
ATOM     17  C   UNL A   1      28.275  29.507  22.637  1.00  0.00     0.046 A 
ATOM     18  C   UNL A   1      30.318  29.514  23.978  1.00  0.00     0.052 A 
ATOM     19  C   UNL A   1      28.127  28.149  22.840  1.00  0.00     0.004 A 
ATOM     20  C   UNL A   1      29.053  27.485  23.634  1.00  0.00     0.006 A 
BRANCH  16  21
ATOM     21  O   UNL A   1      29.327  31.534  22.935  1.00  0.00    -0.497 OA
ATOM     22  C   UNL A   1      28.050  32.139  22.856  1.00  0.00     0.278 C 
ENDBRANCH  16  21
ENDBRANCH  11  15
BRANCH  13  23
ATOM     23  C   UNL A   1      34.712  29.683  27.518  1.00  0.00    -0.002 A 
ATOM     24  C   UNL A   1      35.934  29.300  28.030  1.00  0.00     0.010 A 
ATOM     25  C   UNL A   1      34.607  31.149  27.364  1.00  0.00     0.013 A 
ATOM     26  C   UNL A   1      36.885  30.300  28.282  1.00  0.00     0.001 A 
ATOM     27  C   UNL A   1      35.158  32.256  28.160  1.00  0.00    -0.050 A 
ATOM     28  C   UNL A   1      36.539  31.700  28.307  1.00  0.00     0.003 A 
ATOM     29  C   UNL A   1      34.069  33.662  29.351  1.00  0.00     0.044 C 
ENDBRANCH  13  23
ENDBRANCH   8  10
ENDBRANCH   7   8
ENDBRANCH   6   7
ENDBRANCH   3   6
ENDBRANCH   1   2
BRANCH   1  30
ATOM     30  C   UNL A   1      35.120  21.553  24.862  1.00  0.00     0.023 C 
BRANCH  30  31
ATOM     31  C   UNL A   1      36.611  20.357  24.985  1.00  0.00     0.023 C 
BRANCH  31  32
ATOM     32  C   UNL A   1      38.257  21.001  25.445  1.00  0.00     0.116 C 
BRANCH  32  33
ATOM     33  N   UNL A   1      39.546  20.045  25.776  1.00  0.00    -0.352 N 
ATOM     34  C   UNL A   1      40.893  20.144  26.281  1.00  0.00     0.251 C 
ATOM     35  H   UNL A   1      39.334  19.106  25.563  1.00  0.00     0.163 HD
ATOM     36  O   UNL A   1      41.683  19.218  26.140  1.00  0.00    -0.269 OA
BRANCH  34  37
ATOM     37  C   UNL A   1      41.326  21.393  26.973  1.00  0.00     0.039 A 
ATOM     38  C   UNL A   1      42.007  21.742  28.668  1.00  0.00     0.014 A 
ATOM     39  C   UNL A   1      41.628  22.569  25.641  1.00  0.00     0.014 A 
ATOM     40  C   UNL A   1      43.010  23.301  28.937  1.00  0.00     0.010 A 
ATOM     41  C   UNL A   1      42.724  23.950  25.859  1.00  0.00     0.010 A 
ATOM     42  C   UNL A   1      43.379  24.382  27.476  1.00  0.00    -0.014 A 
BRANCH  42  43
ATOM     43  C   UNL A   1      43.796  25.845  27.284  1.00  0.00     0.031 A 
ATOM     44  C   UNL A   1      45.289  26.169  27.007  1.00  0.00     0.074 A 
ATOM     45  C   UNL A   1      43.129  26.785  28.002  1.00  0.00     0.049 A 
ATOM     46  N   UNL A   1      46.012  27.217  27.355  1.00  0.00    -0.248 NA
ATOM     47  C   UNL A   1      46.093  25.131  26.348  1.00  0.00     0.031 C 
ATOM     48  C   UNL A   1      41.811  26.610  28.610  1.00  0.00     0.029 A 
ATOM     49  N   UNL A   1      43.518  28.045  28.431  1.00  0.00    -0.354 N 
ATOM     50  C   UNL A   1      47.330  26.934  26.975  1.00  0.00     0.074 A 
ATOM     51  C   UNL A   1      47.330  25.580  26.484  1.00  0.00     0.031 C 
ATOM     52  C   UNL A   1      41.501  27.707  29.328  1.00  0.00     0.029 A 
ATOM     53  C   UNL A   1      42.606  28.664  29.264  1.00  0.00     0.049 A 
ATOM     54  H   UNL A   1      44.370  28.461  28.166  1.00  0.00     0.167 HD
ATOM     55  C   UNL A   1      48.445  27.712  26.955  1.00  0.00     0.031 A 
ATOM     56  C   UNL A   1      42.639  29.854  29.910  1.00  0.00     0.031 A 
ATOM     57  C   UNL A   1      48.502  29.073  27.409  1.00  0.00     0.049 A 
ATOM     58  C   UNL A   1      43.845  30.764  29.811  1.00  0.00     0.074 A 
ATOM     59  C   UNL A   1      49.553  29.972  27.317  1.00  0.00     0.029 A 
ATOM     60  N   UNL A   1      47.464  29.731  28.036  1.00  0.00    -0.354 N 
ATOM     61  N   UNL A   1      45.011  30.533  29.261  1.00  0.00    -0.248 NA
ATOM     62  C   UNL A   1      43.727  32.110  30.405  1.00  0.00     0.031 C 
ATOM     63  C   UNL A   1      49.155  31.172  27.915  1.00  0.00     0.029 A 
ATOM     64  C   UNL A   1      47.844  31.026  28.332  1.00  0.00     0.049 A 
ATOM     65  H   UNL A   1      46.586  29.337  28.241  1.00  0.00     0.167 HD
ATOM     66  C   UNL A   1      45.734  31.719  29.389  1.00  0.00     0.074 A 
ATOM     67  C   UNL A   1      44.887  32.664  30.076  1.00  0.00     0.031 C 
ATOM     68  C   UNL A   1      46.989  31.994  28.961  1.00  0.00     0.031 A 
BRANCH  55  69
ATOM     69  C   UNL A   1      49.697  27.141  26.318  1.00  0.00    -0.014 A 
ATOM     70  C   UNL A   1      49.893  27.268  24.928  1.00  0.00     0.010 A 
ATOM     71  C   UNL A   1      50.716  26.560  27.094  1.00  0.00     0.010 A 
ATOM     72  C   UNL A   1      51.049  26.777  24.321  1.00  0.00     0.020 A 
ATOM     73  C   UNL A   1      51.894  26.095  26.493  1.00  0.00     0.020 A 
ATOM     74  C   UNL A   1      52.043  26.190  25.107  1.00  0.00     0.054 A 
BRANCH  74  75
ATOM     75  S   UNL A   1      53.545  25.588  24.285  1.00  0.00     0.124 S 
ATOM     76  O   UNL A   1      54.580  26.401  24.921  1.00  0.00    -0.237 OA
ATOM     77  O   UNL A   1      53.557  24.171  24.634  1.00  0.00    -0.237 OA
ATOM     78  O   UNL A   1      53.307  25.878  22.873  1.00  0.00    -0.744 OA
ENDBRANCH  74  75
ENDBRANCH  55  69
BRANCH  56  79
ATOM     79  C   UNL A   1      41.442  30.337  30.662  1.00  0.00    -0.014 A 
ATOM     80  C   UNL A   1      41.290  29.983  32.018  1.00  0.00     0.010 A 
ATOM     81  C   UNL A   1      40.433  31.094  30.042  1.00  0.00     0.010 A 
ATOM     82  C   UNL A   1      40.141  30.339  32.726  1.00  0.00     0.020 A 
ATOM     83  C   UNL A   1      39.291  31.479  30.758  1.00  0.00     0.020 A 
ATOM     84  C   UNL A   1      39.145  31.082  32.091  1.00  0.00     0.054 A 
BRANCH  84  85
ATOM     85  S   UNL A   1      37.670  31.555  33.039  1.00  0.00     0.124 S 
ATOM     86  O   UNL A   1      36.596  30.979  32.234  1.00  0.00    -0.237 OA
ATOM     87  O   UNL A   1      37.904  30.915  34.331  1.00  0.00    -0.237 OA
ATOM     88  O   UNL A   1      37.729  33.015  33.053  1.00  0.00    -0.744 OA
ENDBRANCH  84  85
ENDBRANCH  56  79
BRANCH  68  89
ATOM     89  C   UNL A   1      47.526  33.392  29.110  1.00  0.00    -0.014 A 
ATOM     90  C   UNL A   1      47.124  34.433  28.257  1.00  0.00     0.010 A 
ATOM     91  C   UNL A   1      48.341  33.692  30.219  1.00  0.00     0.010 A 
ATOM     92  C   UNL A   1      47.527  35.748  28.510  1.00  0.00     0.020 A 
ATOM     93  C   UNL A   1      48.730  35.006  30.486  1.00  0.00     0.020 A 
ATOM     94  C   UNL A   1      48.321  36.028  29.628  1.00  0.00     0.054 A 
BRANCH  94  95
ATOM     95  S   UNL A   1      48.744  37.755  29.995  1.00  0.00     0.124 S 
ATOM     96  O   UNL A   1      49.342  37.647  31.322  1.00  0.00    -0.237 OA
ATOM     97  O   UNL A   1      49.669  38.095  28.916  1.00  0.00    -0.237 OA
ATOM     98  O   UNL A   1      47.459  38.446  29.944  1.00  0.00    -0.744 OA
ENDBRANCH  94  95
ENDBRANCH  68  89
ENDBRANCH  42  43
ENDBRANCH  34  37
ENDBRANCH  32  33
ENDBRANCH  31  32
ENDBRANCH  30  31
ENDBRANCH   1  30
TORSDOF 20
ENDMDL
MODEL 3
REMARK VINA RESULT:     -11.9      5.802      7.204
REMARK SMILES COc1cccc([C@@H]2CC(c3cccc(C)c3)=NN2C(=O)CCC(=O)NCCCCNC(=O)c2ccc(-c3c4nc(c(-c5ccc(S(=O)(=O)[O-])cc5)c5ccc([nH]5)c(-c5ccc(S(=O)(=O)[O-])cc5)c5nc(c(-c6ccc(S(=O)(=O)[O-])cc6)c6ccc3[nH]6)C=C5)C=C4)cc2)c1
REMARK SMILES IDX 27 1 26 2 24 3 25 4 23 6 22 7 20 8 21 9 19 10 8 11 9 12
REMARK SMILES IDX 10 13 18 14 7 15 3 16 4 17 94 18 5 19 6 20 2 21 1 22 11 23
REMARK SMILES IDX 12 24 17 25 13 26 15 27 14 28 16 29 28 30 29 31 30 32 31 33
REMARK SMILES IDX 32 34 33 36 34 37 35 38 93 39 36 40 92 41 37 42 38 43 39 44
REMARK SMILES IDX 86 45 40 46 91 47 85 48 87 49 41 50 90 51 84 52 83 53 42 55
REMARK SMILES IDX 72 56 53 57 71 58 54 59 57 60 70 61 88 62 55 63 56 64 69 66
REMARK SMILES IDX 89 67 58 68 43 69 44 70 52 71 45 72 51 73 46 74 47 75 48 76
REMARK SMILES IDX 49 77 50 78 73 79 74 80 82 81 75 82 81 83 76 84 77 85 78 86
REMARK SMILES IDX 79 87 80 88 59 89 60 90 68 91 61 92 67 93 62 94 63 95 64 96
REMARK SMILES IDX 65 97 66 98
REMARK H PARENT 26 5 31 35 87 54 57 65
REMARK Flexibility Score: inf
ROOT
ATOM      1  C   UNL A   1      35.488  21.953  25.691  1.00  0.00     0.116 C 
ENDROOT
BRANCH   1   2
ATOM      2  N   UNL A   1      34.390  22.122  26.841  1.00  0.00    -0.356 N 
ATOM      3  C   UNL A   1      33.310  22.925  27.018  1.00  0.00     0.220 C 
ATOM      4  O   UNL A   1      32.731  22.835  28.105  1.00  0.00    -0.275 OA
ATOM      5  H   UNL A   1      34.528  21.500  27.592  1.00  0.00     0.163 HD
BRANCH   3   6
ATOM      6  C   UNL A   1      32.830  23.874  25.947  1.00  0.00     0.110 C 
BRANCH   6   7
ATOM      7  C   UNL A   1      33.420  25.284  25.861  1.00  0.00     0.112 C 
BRANCH   7   8
ATOM      8  C   UNL A   1      32.569  26.351  26.558  1.00  0.00     0.243 C 
ATOM      9  O   UNL A   1      31.589  26.035  27.227  1.00  0.00    -0.273 OA
BRANCH   8  10
ATOM     10  N   UNL A   1      32.914  27.674  26.196  1.00  0.00    -0.225 N 
ATOM     11  C   UNL A   1      31.777  28.682  25.105  1.00  0.00     0.147 C 
ATOM     12  C   UNL A   1      31.754  30.479  26.096  1.00  0.00     0.091 C 
ATOM     13  C   UNL A   1      33.334  30.177  27.502  1.00  0.00     0.071 C 
ATOM     14  N   UNL A   1      33.768  28.675  27.476  1.00  0.00    -0.174 NA
BRANCH  11  15
ATOM     15  C   UNL A   1      32.317  28.233  23.647  1.00  0.00    -0.019 A 
ATOM     16  C   UNL A   1      32.475  26.571  21.875  1.00  0.00     0.119 A 
ATOM     17  C   UNL A   1      33.650  27.162  21.395  1.00  0.00     0.046 A 
ATOM     18  C   UNL A   1      31.795  27.112  22.986  1.00  0.00     0.052 A 
ATOM     19  C   UNL A   1      34.158  28.296  21.998  1.00  0.00     0.004 A 
ATOM     20  C   UNL A   1      33.504  28.815  23.108  1.00  0.00     0.006 A 
BRANCH  16  21
ATOM     21  O   UNL A   1      32.143  25.432  21.194  1.00  0.00    -0.497 OA
ATOM     22  C   UNL A   1      32.480  25.384  19.821  1.00  0.00     0.278 C 
ENDBRANCH  16  21
ENDBRANCH  11  15
BRANCH  13  23
ATOM     23  C   UNL A   1      34.644  31.165  28.094  1.00  0.00    -0.002 A 
ATOM     24  C   UNL A   1      34.629  32.499  27.745  1.00  0.00     0.010 A 
ATOM     25  C   UNL A   1      35.702  30.859  29.079  1.00  0.00     0.013 A 
ATOM     26  C   UNL A   1      35.545  33.355  28.374  1.00  0.00     0.001 A 
ATOM     27  C   UNL A   1      37.050  31.416  29.268  1.00  0.00    -0.050 A 
ATOM     28  C   UNL A   1      36.669  32.856  29.128  1.00  0.00     0.003 A 
ATOM     29  C   UNL A   1      38.918  30.414  28.971  1.00  0.00     0.044 C 
ENDBRANCH  13  23
ENDBRANCH   8  10
ENDBRANCH   7   8
ENDBRANCH   6   7
ENDBRANCH   3   6
ENDBRANCH   1   2
BRANCH   1  30
ATOM     30  C   UNL A   1      37.473  22.948  25.495  1.00  0.00     0.023 C 
BRANCH  30  31
ATOM     31  C   UNL A   1      37.782  24.368  26.743  1.00  0.00     0.023 C 
BRANCH  31  32
ATOM     32  C   UNL A   1      39.315  24.388  27.737  1.00  0.00     0.116 C 
BRANCH  32  33
ATOM     33  N   UNL A   1      40.818  24.407  27.085  1.00  0.00    -0.352 N 
ATOM     34  C   UNL A   1      42.003  25.229  27.068  1.00  0.00     0.251 C 
ATOM     35  H   UNL A   1      40.957  23.604  26.532  1.00  0.00     0.163 HD
ATOM     36  O   UNL A   1      42.877  25.048  26.227  1.00  0.00    -0.269 OA
BRANCH  34  37
ATOM     37  C   UNL A   1      42.157  26.315  28.078  1.00  0.00     0.039 A 
ATOM     38  C   UNL A   1      43.155  26.474  29.639  1.00  0.00     0.014 A 
ATOM     39  C   UNL A   1      41.598  27.805  27.233  1.00  0.00     0.014 A 
ATOM     40  C   UNL A   1      43.573  28.186  30.276  1.00  0.00     0.010 A 
ATOM     41  C   UNL A   1      42.145  29.417  27.743  1.00  0.00     0.010 A 
ATOM     42  C   UNL A   1      43.067  29.656  29.266  1.00  0.00    -0.014 A 
BRANCH  42  43
ATOM     43  C   UNL A   1      42.860  31.149  29.548  1.00  0.00     0.031 A 
ATOM     44  C   UNL A   1      43.962  32.154  29.119  1.00  0.00     0.074 A 
ATOM     45  C   UNL A   1      42.188  31.484  30.680  1.00  0.00     0.049 A 
ATOM     46  N   UNL A   1      44.346  33.287  29.677  1.00  0.00    -0.248 NA
ATOM     47  C   UNL A   1      44.807  31.779  27.977  1.00  0.00     0.031 C 
ATOM     48  C   UNL A   1      41.297  30.600  31.430  1.00  0.00     0.029 A 
ATOM     49  N   UNL A   1      42.233  32.632  31.457  1.00  0.00    -0.354 N 
ATOM     50  C   UNL A   1      45.473  33.718  28.965  1.00  0.00     0.074 A 
ATOM     51  C   UNL A   1      45.780  32.676  28.019  1.00  0.00     0.031 C 
ATOM     52  C   UNL A   1      40.883  31.227  32.548  1.00  0.00     0.029 A 
ATOM     53  C   UNL A   1      41.497  32.554  32.623  1.00  0.00     0.049 A 
ATOM     54  H   UNL A   1      42.746  33.432  31.200  1.00  0.00     0.167 HD
ATOM     55  C   UNL A   1      46.172  34.884  29.011  1.00  0.00     0.031 A 
ATOM     56  C   UNL A   1      41.327  33.429  33.642  1.00  0.00     0.031 A 
ATOM     57  C   UNL A   1      45.899  35.966  29.913  1.00  0.00     0.049 A 
ATOM     58  C   UNL A   1      42.033  34.769  33.647  1.00  0.00     0.074 A 
ATOM     59  C   UNL A   1      46.476  37.226  29.952  1.00  0.00     0.029 A 
ATOM     60  N   UNL A   1      44.970  35.919  30.932  1.00  0.00    -0.354 N 
ATOM     61  N   UNL A   1      42.951  35.221  32.830  1.00  0.00    -0.248 NA
ATOM     62  C   UNL A   1      41.660  35.726  34.706  1.00  0.00     0.031 C 
ATOM     63  C   UNL A   1      45.909  37.934  31.017  1.00  0.00     0.029 A 
ATOM     64  C   UNL A   1      44.951  37.127  31.604  1.00  0.00     0.049 A 
ATOM     65  H   UNL A   1      44.407  35.141  31.149  1.00  0.00     0.167 HD
ATOM     66  C   UNL A   1      43.214  36.529  33.240  1.00  0.00     0.074 A 
ATOM     67  C   UNL A   1      42.373  36.796  34.381  1.00  0.00     0.031 C 
ATOM     68  C   UNL A   1      44.075  37.425  32.702  1.00  0.00     0.031 A 
BRANCH  55  69
ATOM     69  C   UNL A   1      47.254  35.103  27.972  1.00  0.00    -0.014 A 
ATOM     70  C   UNL A   1      48.536  34.553  28.172  1.00  0.00     0.010 A 
ATOM     71  C   UNL A   1      46.988  35.775  26.765  1.00  0.00     0.010 A 
ATOM     72  C   UNL A   1      49.541  34.716  27.219  1.00  0.00     0.020 A 
ATOM     73  C   UNL A   1      47.985  35.912  25.789  1.00  0.00     0.020 A 
ATOM     74  C   UNL A   1      49.261  35.398  26.034  1.00  0.00     0.054 A 
BRANCH  74  75
ATOM     75  S   UNL A   1      50.586  35.565  24.804  1.00  0.00     0.124 S 
ATOM     76  O   UNL A   1      49.947  36.397  23.787  1.00  0.00    -0.237 OA
ATOM     77  O   UNL A   1      51.651  36.212  25.565  1.00  0.00    -0.237 OA
ATOM     78  O   UNL A   1      50.860  34.188  24.400  1.00  0.00    -0.744 OA
ENDBRANCH  74  75
ENDBRANCH  55  69
BRANCH  56  79
ATOM     79  C   UNL A   1      40.361  33.129  34.742  1.00  0.00    -0.014 A 
ATOM     80  C   UNL A   1      40.831  32.529  35.927  1.00  0.00     0.010 A 
ATOM     81  C   UNL A   1      38.985  33.381  34.608  1.00  0.00     0.010 A 
ATOM     82  C   UNL A   1      39.945  32.151  36.938  1.00  0.00     0.020 A 
ATOM     83  C   UNL A   1      38.095  33.030  35.633  1.00  0.00     0.020 A 
ATOM     84  C   UNL A   1      38.580  32.400  36.784  1.00  0.00     0.054 A 
BRANCH  84  85
ATOM     85  S   UNL A   1      37.449  31.922  38.121  1.00  0.00     0.124 S 
ATOM     86  O   UNL A   1      37.191  30.518  37.813  1.00  0.00    -0.237 OA
ATOM     87  O   UNL A   1      38.250  32.169  39.318  1.00  0.00    -0.237 OA
ATOM     88  O   UNL A   1      36.313  32.823  37.943  1.00  0.00    -0.744 OA
ENDBRANCH  84  85
ENDBRANCH  56  79
BRANCH  68  89
ATOM     89  C   UNL A   1      44.108  38.828  33.246  1.00  0.00    -0.014 A 
ATOM     90  C   UNL A   1      43.254  39.830  32.758  1.00  0.00     0.010 A 
ATOM     91  C   UNL A   1      44.917  39.103  34.366  1.00  0.00     0.010 A 
ATOM     92  C   UNL A   1      43.206  41.082  33.381  1.00  0.00     0.020 A 
ATOM     93  C   UNL A   1      44.859  40.345  35.003  1.00  0.00     0.020 A 
ATOM     94  C   UNL A   1      44.003  41.329  34.505  1.00  0.00     0.054 A 
BRANCH  94  95
ATOM     95  S   UNL A   1      43.848  42.923  35.359  1.00  0.00     0.124 S 
ATOM     96  O   UNL A   1      44.202  43.869  34.305  1.00  0.00    -0.237 OA
ATOM     97  O   UNL A   1      42.445  42.934  35.767  1.00  0.00    -0.237 OA
ATOM     98  O   UNL A   1      44.807  42.824  36.456  1.00  0.00    -0.744 OA
ENDBRANCH  94  95
ENDBRANCH  68  89
ENDBRANCH  42  43
ENDBRANCH  34  37
ENDBRANCH  32  33
ENDBRANCH  31  32
ENDBRANCH  30  31
ENDBRANCH   1  30
TORSDOF 20
ENDMDL
