MODEL 1
REMARK VINA RESULT:     -11.4      0.000      0.000
REMARK SMILES COc1ccccc1N1CC[NH+]([C@@H](C(=O)NCCCCNC(=O)c2ccc(-c3c4nc(c(-c5ccc(S(=O)(=O)[O-])cc5)c5ccc([nH]5)c(-c5ccc(S(=O)(=O)[O-])cc5)c5nc(c(-c6ccc(S(=O)(=O)[O-])cc6)c6ccc3[nH]6)C=C5)C=C4)cc2)c2c[nH]c3ccc(OCC#N)cc23)CC1
REMARK SMILES IDX 18 1 17 2 16 3 14 4 15 5 13 7 12 8 9 9 10 10 98 11 11 12
REMARK SMILES IDX 97 13 8 15 3 16 4 17 5 18 7 19 6 20 2 21 1 22 84 23 85 24
REMARK SMILES IDX 96 25 86 26 87 27 95 28 88 30 90 31 89 32 91 33 92 34 93 35
REMARK SMILES IDX 94 36 19 37 20 38 21 39 22 40 23 42 24 43 25 44 83 45 26 46
REMARK SMILES IDX 82 47 27 48 28 49 29 50 76 51 30 52 81 53 75 54 77 55 31 56
REMARK SMILES IDX 80 57 74 58 73 59 32 61 62 62 43 63 61 64 44 65 47 66 60 67
REMARK SMILES IDX 78 68 45 69 46 70 59 72 79 73 48 74 33 75 34 76 42 77 35 78
REMARK SMILES IDX 41 79 36 80 37 81 38 82 39 83 40 84 63 85 64 86 72 87 65 88
REMARK SMILES IDX 71 89 66 90 67 91 68 92 69 93 70 94 49 95 50 96 58 97 51 98
REMARK SMILES IDX 57 99 52 100 53 101 54 102 55 103 56 104
REMARK H PARENT 16 6 12 14 86 29 21 41 77 60 47 71
REMARK Flexibility Score: inf
ROOT
ATOM      1  C   UNL A   1      32.698  27.652  26.832  1.00  0.00     0.023 C 
ENDROOT
BRANCH   1   2
ATOM      2  C   UNL A   1      31.168  27.645  26.498  1.00  0.00     0.116 C 
BRANCH   2   3
ATOM      3  N   UNL A   1      30.450  26.352  26.512  1.00  0.00    -0.351 N 
ATOM      4  C   UNL A   1      30.466  25.132  25.853  1.00  0.00     0.283 C 
ATOM      5  O   UNL A   1      29.729  24.282  26.375  1.00  0.00    -0.268 OA
ATOM      6  H   UNL A   1      29.746  26.360  27.200  1.00  0.00     0.163 HD
BRANCH   4   7
ATOM      7  C   UNL A   1      31.345  24.775  24.599  1.00  0.00     0.307 C 
BRANCH   7   8
ATOM      8  N   UNL A   1      32.850  24.618  24.770  1.00  0.00    -0.318 N 
ATOM      9  N   UNL A   1      33.766  21.807  24.751  1.00  0.00    -0.357 N 
ATOM     10  C   UNL A   1      33.185  22.388  25.968  1.00  0.00     0.178 C 
ATOM     11  C   UNL A   1      33.356  22.478  23.517  1.00  0.00     0.178 C 
ATOM     12  C   UNL A   1      33.433  23.905  25.929  1.00  0.00     0.284 C 
ATOM     13  C   UNL A   1      33.533  24.016  23.628  1.00  0.00     0.284 C 
ATOM     14  H   UNL A   1      33.011  25.615  24.910  1.00  0.00     0.349 HD
BRANCH   9  15
ATOM     15  C   UNL A   1      33.798  20.414  24.624  1.00  0.00     0.080 A 
ATOM     16  C   UNL A   1      34.980  19.661  24.781  1.00  0.00     0.142 A 
ATOM     17  C   UNL A   1      34.938  18.269  24.589  1.00  0.00     0.048 A 
ATOM     18  C   UNL A   1      33.761  17.615  24.231  1.00  0.00     0.004 A 
ATOM     19  C   UNL A   1      32.622  19.729  24.241  1.00  0.00     0.030 A 
ATOM     20  C   UNL A   1      32.599  18.348  24.047  1.00  0.00     0.002 A 
BRANCH  16  21
ATOM     21  O   UNL A   1      36.242  20.080  25.115  1.00  0.00    -0.495 OA
ATOM     22  C   UNL A   1      36.764  21.295  24.609  1.00  0.00     0.278 C 
ENDBRANCH  16  21
ENDBRANCH   9  15
ENDBRANCH   7   8
BRANCH   7  23
ATOM     23  C   UNL A   1      31.039  25.599  23.295  1.00  0.00     0.044 A 
ATOM     24  C   UNL A   1      31.815  25.533  22.143  1.00  0.00     0.094 A 
ATOM     25  C   UNL A   1      30.477  26.923  23.128  1.00  0.00     0.013 A 
ATOM     26  N   UNL A   1      32.421  26.758  22.074  1.00  0.00    -0.361 N 
ATOM     27  C   UNL A   1      31.543  27.672  22.608  1.00  0.00     0.046 A 
ATOM     28  C   UNL A   1      29.282  27.623  23.399  1.00  0.00     0.057 A 
ATOM     29  H   UNL A   1      33.316  26.948  21.711  1.00  0.00     0.166 HD
ATOM     30  C   UNL A   1      31.634  29.058  22.731  1.00  0.00     0.030 A 
ATOM     31  C   UNL A   1      29.281  29.019  23.217  1.00  0.00     0.121 A 
ATOM     32  C   UNL A   1      30.472  29.727  23.090  1.00  0.00     0.048 A 
BRANCH  31  33
ATOM     33  O   UNL A   1      28.082  29.672  23.177  1.00  0.00    -0.479 OA
BRANCH  33  34
ATOM     34  C   UNL A   1      27.852  30.534  22.021  1.00  0.00     0.349 C 
BRANCH  34  35
ATOM     35  C   UNL A   1      28.017  31.992  22.146  1.00  0.00     0.104 C 
ATOM     36  N   UNL A   1      28.129  33.167  22.183  1.00  0.00    -0.195 NA
ENDBRANCH  34  35
ENDBRANCH  33  34
ENDBRANCH  31  33
ENDBRANCH   7  23
ENDBRANCH   4   7
ENDBRANCH   2   3
ENDBRANCH   1   2
BRANCH   1  37
ATOM     37  C   UNL A   1      33.684  27.824  25.670  1.00  0.00     0.023 C 
BRANCH  37  38
ATOM     38  C   UNL A   1      34.572  29.043  25.782  1.00  0.00     0.116 C 
BRANCH  38  39
ATOM     39  N   UNL A   1      33.892  30.184  26.387  1.00  0.00    -0.352 N 
ATOM     40  C   UNL A   1      34.277  30.916  27.491  1.00  0.00     0.251 C 
ATOM     41  H   UNL A   1      33.054  30.467  25.953  1.00  0.00     0.163 HD
ATOM     42  O   UNL A   1      33.526  31.765  27.962  1.00  0.00    -0.269 OA
BRANCH  40  43
ATOM     43  C   UNL A   1      35.591  30.644  28.118  1.00  0.00     0.039 A 
ATOM     44  C   UNL A   1      36.651  31.536  27.926  1.00  0.00     0.014 A 
ATOM     45  C   UNL A   1      35.763  29.523  28.930  1.00  0.00     0.014 A 
ATOM     46  C   UNL A   1      37.859  31.330  28.598  1.00  0.00     0.010 A 
ATOM     47  C   UNL A   1      36.915  29.386  29.690  1.00  0.00     0.010 A 
ATOM     48  C   UNL A   1      37.988  30.269  29.508  1.00  0.00    -0.014 A 
BRANCH  48  49
ATOM     49  C   UNL A   1      39.249  29.992  30.239  1.00  0.00     0.031 A 
ATOM     50  C   UNL A   1      40.143  28.881  29.747  1.00  0.00     0.074 A 
ATOM     51  C   UNL A   1      39.539  30.657  31.374  1.00  0.00     0.049 A 
ATOM     52  N   UNL A   1      41.203  28.363  30.310  1.00  0.00    -0.248 NA
ATOM     53  C   UNL A   1      39.769  28.240  28.473  1.00  0.00     0.031 C 
ATOM     54  C   UNL A   1      38.729  31.724  31.966  1.00  0.00     0.029 A 
ATOM     55  N   UNL A   1      40.593  30.523  32.240  1.00  0.00    -0.354 N 
ATOM     56  C   UNL A   1      41.596  27.319  29.479  1.00  0.00     0.074 A 
ATOM     57  C   UNL A   1      40.626  27.234  28.411  1.00  0.00     0.031 C 
ATOM     58  C   UNL A   1      39.332  32.166  33.083  1.00  0.00     0.029 A 
ATOM     59  C   UNL A   1      40.542  31.384  33.312  1.00  0.00     0.049 A 
ATOM     60  H   UNL A   1      41.321  29.872  32.108  1.00  0.00     0.167 HD
ATOM     61  C   UNL A   1      42.683  26.520  29.578  1.00  0.00     0.031 A 
ATOM     62  C   UNL A   1      41.371  31.516  34.365  1.00  0.00     0.031 A 
ATOM     63  C   UNL A   1      43.661  26.639  30.623  1.00  0.00     0.049 A 
ATOM     64  C   UNL A   1      42.580  30.619  34.452  1.00  0.00     0.074 A 
ATOM     65  C   UNL A   1      44.831  25.921  30.794  1.00  0.00     0.029 A 
ATOM     66  N   UNL A   1      43.589  27.548  31.669  1.00  0.00    -0.354 N 
ATOM     67  N   UNL A   1      42.959  29.668  33.631  1.00  0.00    -0.248 NA
ATOM     68  C   UNL A   1      43.477  30.824  35.596  1.00  0.00     0.031 C 
ATOM     69  C   UNL A   1      45.444  26.366  31.969  1.00  0.00     0.029 A 
ATOM     70  C   UNL A   1      44.689  27.404  32.494  1.00  0.00     0.049 A 
ATOM     71  H   UNL A   1      42.863  28.199  31.803  1.00  0.00     0.167 HD
ATOM     72  C   UNL A   1      44.161  29.187  34.141  1.00  0.00     0.074 A 
ATOM     73  C   UNL A   1      44.447  29.959  35.333  1.00  0.00     0.031 C 
ATOM     74  C   UNL A   1      44.959  28.200  33.664  1.00  0.00     0.031 A 
BRANCH  61  75
ATOM     75  C   UNL A   1      42.875  25.460  28.524  1.00  0.00    -0.014 A 
ATOM     76  C   UNL A   1      43.720  25.679  27.420  1.00  0.00     0.010 A 
ATOM     77  C   UNL A   1      42.233  24.216  28.656  1.00  0.00     0.010 A 
ATOM     78  C   UNL A   1      43.888  24.690  26.449  1.00  0.00     0.020 A 
ATOM     79  C   UNL A   1      42.424  23.211  27.703  1.00  0.00     0.020 A 
ATOM     80  C   UNL A   1      43.240  23.461  26.597  1.00  0.00     0.054 A 
BRANCH  80  81
ATOM     81  S   UNL A   1      43.507  22.182  25.339  1.00  0.00     0.124 S 
ATOM     82  O   UNL A   1      42.459  21.216  25.664  1.00  0.00    -0.237 OA
ATOM     83  O   UNL A   1      43.316  22.918  24.092  1.00  0.00    -0.237 OA
ATOM     84  O   UNL A   1      44.872  21.727  25.589  1.00  0.00    -0.744 OA
ENDBRANCH  80  81
ENDBRANCH  61  75
BRANCH  62  85
ATOM     85  C   UNL A   1      41.106  32.546  35.409  1.00  0.00    -0.014 A 
ATOM     86  C   UNL A   1      40.264  32.257  36.498  1.00  0.00     0.010 A 
ATOM     87  C   UNL A   1      41.691  33.822  35.320  1.00  0.00     0.010 A 
ATOM     88  C   UNL A   1      39.986  33.233  37.459  1.00  0.00     0.020 A 
ATOM     89  C   UNL A   1      41.440  34.791  36.297  1.00  0.00     0.020 A 
ATOM     90  C   UNL A   1      40.574  34.496  37.351  1.00  0.00     0.054 A 
BRANCH  90  91
ATOM     91  S   UNL A   1      40.219  35.739  38.625  1.00  0.00     0.124 S 
ATOM     92  O   UNL A   1      39.701  36.847  37.831  1.00  0.00    -0.237 OA
ATOM     93  O   UNL A   1      39.242  35.053  39.470  1.00  0.00    -0.237 OA
ATOM     94  O   UNL A   1      41.519  35.968  39.251  1.00  0.00    -0.744 OA
ENDBRANCH  90  91
ENDBRANCH  62  85
BRANCH  74  95
ATOM     95  C   UNL A   1      46.250  27.936  34.391  1.00  0.00    -0.014 A 
ATOM     96  C   UNL A   1      46.340  26.956  35.393  1.00  0.00     0.010 A 
ATOM     97  C   UNL A   1      47.409  28.633  34.001  1.00  0.00     0.010 A 
ATOM     98  C   UNL A   1      47.565  26.694  36.011  1.00  0.00     0.020 A 
ATOM     99  C   UNL A   1      48.640  28.352  34.595  1.00  0.00     0.020 A 
ATOM    100  C   UNL A   1      48.708  27.391  35.606  1.00  0.00     0.054 A 
BRANCH 100 101
ATOM    101  S   UNL A   1      50.296  26.987  36.381  1.00  0.00     0.124 S 
ATOM    102  O   UNL A   1      51.019  26.357  35.281  1.00  0.00    -0.237 OA
ATOM    103  O   UNL A   1      50.793  28.298  36.793  1.00  0.00    -0.237 OA
ATOM    104  O   UNL A   1      49.930  26.095  37.479  1.00  0.00    -0.744 OA
ENDBRANCH 100 101
ENDBRANCH  74  95
ENDBRANCH  48  49
ENDBRANCH  40  43
ENDBRANCH  38  39
ENDBRANCH  37  38
ENDBRANCH   1  37
TORSDOF 21
ENDMDL
MODEL 2
REMARK VINA RESULT:     -11.2      0.710      7.742
REMARK SMILES COc1ccccc1N1CC[NH+]([C@@H](C(=O)NCCCCNC(=O)c2ccc(-c3c4nc(c(-c5ccc(S(=O)(=O)[O-])cc5)c5ccc([nH]5)c(-c5ccc(S(=O)(=O)[O-])cc5)c5nc(c(-c6ccc(S(=O)(=O)[O-])cc6)c6ccc3[nH]6)C=C5)C=C4)cc2)c2c[nH]c3ccc(OCC#N)cc23)CC1
REMARK SMILES IDX 18 1 17 2 16 3 14 4 15 5 13 7 12 8 9 9 10 10 98 11 11 12
REMARK SMILES IDX 97 13 8 15 3 16 4 17 5 18 7 19 6 20 2 21 1 22 84 23 85 24
REMARK SMILES IDX 96 25 86 26 87 27 95 28 88 30 90 31 89 32 91 33 92 34 93 35
REMARK SMILES IDX 94 36 19 37 20 38 21 39 22 40 23 42 24 43 25 44 83 45 26 46
REMARK SMILES IDX 82 47 27 48 28 49 29 50 76 51 30 52 81 53 75 54 77 55 31 56
REMARK SMILES IDX 80 57 74 58 73 59 32 61 62 62 43 63 61 64 44 65 47 66 60 67
REMARK SMILES IDX 78 68 45 69 46 70 59 72 79 73 48 74 33 75 34 76 42 77 35 78
REMARK SMILES IDX 41 79 36 80 37 81 38 82 39 83 40 84 63 85 64 86 72 87 65 88
REMARK SMILES IDX 71 89 66 90 67 91 68 92 69 93 70 94 49 95 50 96 58 97 51 98
REMARK SMILES IDX 57 99 52 100 53 101 54 102 55 103 56 104
REMARK H PARENT 16 6 12 14 86 29 21 41 77 60 47 71
REMARK Flexibility Score: inf
ROOT
ATOM      1  C   UNL A   1      32.796  27.439  26.649  1.00  0.00     0.023 C 
ENDROOT
BRANCH   1   2
ATOM      2  C   UNL A   1      31.232  27.426  26.556  1.00  0.00     0.116 C 
BRANCH   2   3
ATOM      3  N   UNL A   1      30.541  26.119  26.511  1.00  0.00    -0.351 N 
ATOM      4  C   UNL A   1      30.603  24.919  25.818  1.00  0.00     0.283 C 
ATOM      5  O   UNL A   1      29.867  24.040  26.291  1.00  0.00    -0.268 OA
ATOM      6  H   UNL A   1      29.816  26.092  27.177  1.00  0.00     0.163 HD
BRANCH   4   7
ATOM      7  C   UNL A   1      31.527  24.617  24.582  1.00  0.00     0.307 C 
BRANCH   7   8
ATOM      8  N   UNL A   1      33.034  24.536  24.787  1.00  0.00    -0.318 N 
ATOM      9  N   UNL A   1      34.081  21.773  24.871  1.00  0.00    -0.357 N 
ATOM     10  C   UNL A   1      33.449  22.362  26.059  1.00  0.00     0.178 C 
ATOM     11  C   UNL A   1      33.665  22.387  23.609  1.00  0.00     0.178 C 
ATOM     12  C   UNL A   1      33.626  23.886  25.978  1.00  0.00     0.284 C 
ATOM     13  C   UNL A   1      33.768  23.934  23.678  1.00  0.00     0.284 C 
ATOM     14  H   UNL A   1      33.145  25.544  24.900  1.00  0.00     0.349 HD
BRANCH   9  15
ATOM     15  C   UNL A   1      34.181  20.380  24.788  1.00  0.00     0.080 A 
ATOM     16  C   UNL A   1      35.417  19.702  24.806  1.00  0.00     0.142 A 
ATOM     17  C   UNL A   1      35.435  18.303  24.668  1.00  0.00     0.048 A 
ATOM     18  C   UNL A   1      34.263  17.569  24.496  1.00  0.00     0.004 A 
ATOM     19  C   UNL A   1      33.008  19.614  24.591  1.00  0.00     0.030 A 
ATOM     20  C   UNL A   1      33.045  18.227  24.448  1.00  0.00     0.002 A 
BRANCH  16  21
ATOM     21  O   UNL A   1      36.685  20.204  24.951  1.00  0.00    -0.495 OA
ATOM     22  C   UNL A   1      37.809  19.344  24.987  1.00  0.00     0.278 C 
ENDBRANCH  16  21
ENDBRANCH   9  15
ENDBRANCH   7   8
BRANCH   7  23
ATOM     23  C   UNL A   1      31.208  25.432  23.276  1.00  0.00     0.044 A 
ATOM     24  C   UNL A   1      31.994  25.388  22.130  1.00  0.00     0.094 A 
ATOM     25  C   UNL A   1      30.612  26.740  23.105  1.00  0.00     0.013 A 
ATOM     26  N   UNL A   1      32.567  26.629  22.066  1.00  0.00    -0.361 N 
ATOM     27  C   UNL A   1      31.660  27.518  22.593  1.00  0.00     0.046 A 
ATOM     28  C   UNL A   1      29.396  27.407  23.368  1.00  0.00     0.057 A 
ATOM     29  H   UNL A   1      33.459  26.843  21.709  1.00  0.00     0.166 HD
ATOM     30  C   UNL A   1      31.713  28.906  22.717  1.00  0.00     0.030 A 
ATOM     31  C   UNL A   1      29.358  28.802  23.186  1.00  0.00     0.121 A 
ATOM     32  C   UNL A   1      30.530  29.543  23.068  1.00  0.00     0.048 A 
BRANCH  31  33
ATOM     33  O   UNL A   1      28.142  29.423  23.137  1.00  0.00    -0.479 OA
BRANCH  33  34
ATOM     34  C   UNL A   1      27.866  30.216  21.942  1.00  0.00     0.349 C 
BRANCH  34  35
ATOM     35  C   UNL A   1      27.866  31.687  22.018  1.00  0.00     0.104 C 
ATOM     36  N   UNL A   1      27.919  32.866  22.039  1.00  0.00    -0.195 NA
ENDBRANCH  34  35
ENDBRANCH  33  34
ENDBRANCH  31  33
ENDBRANCH   7  23
ENDBRANCH   4   7
ENDBRANCH   2   3
ENDBRANCH   1   2
BRANCH   1  37
ATOM     37  C   UNL A   1      33.556  28.450  25.781  1.00  0.00     0.023 C 
BRANCH  37  38
ATOM     38  C   UNL A   1      34.630  29.219  26.518  1.00  0.00     0.116 C 
BRANCH  38  39
ATOM     39  N   UNL A   1      34.210  30.568  26.883  1.00  0.00    -0.352 N 
ATOM     40  C   UNL A   1      34.728  31.383  27.868  1.00  0.00     0.251 C 
ATOM     41  H   UNL A   1      33.464  30.943  26.361  1.00  0.00     0.163 HD
ATOM     42  O   UNL A   1      34.176  32.442  28.147  1.00  0.00    -0.269 OA
BRANCH  40  43
ATOM     43  C   UNL A   1      35.938  30.949  28.605  1.00  0.00     0.039 A 
ATOM     44  C   UNL A   1      35.845  29.925  29.553  1.00  0.00     0.014 A 
ATOM     45  C   UNL A   1      37.175  31.531  28.327  1.00  0.00     0.014 A 
ATOM     46  C   UNL A   1      37.004  29.450  30.174  1.00  0.00     0.010 A 
ATOM     47  C   UNL A   1      38.334  30.979  28.850  1.00  0.00     0.010 A 
ATOM     48  C   UNL A   1      38.260  29.955  29.804  1.00  0.00    -0.014 A 
BRANCH  48  49
ATOM     49  C   UNL A   1      39.522  29.501  30.438  1.00  0.00     0.031 A 
ATOM     50  C   UNL A   1      40.034  30.242  31.647  1.00  0.00     0.074 A 
ATOM     51  C   UNL A   1      40.243  28.506  29.885  1.00  0.00     0.049 A 
ATOM     52  N   UNL A   1      41.180  30.125  32.265  1.00  0.00    -0.248 NA
ATOM     53  C   UNL A   1      39.156  31.286  32.208  1.00  0.00     0.031 C 
ATOM     54  C   UNL A   1      39.866  27.742  28.693  1.00  0.00     0.029 A 
ATOM     55  N   UNL A   1      41.453  27.974  30.249  1.00  0.00    -0.354 N 
ATOM     56  C   UNL A   1      41.171  31.098  33.259  1.00  0.00     0.074 A 
ATOM     57  C   UNL A   1      39.938  31.840  33.121  1.00  0.00     0.031 C 
ATOM     58  C   UNL A   1      40.813  26.823  28.442  1.00  0.00     0.029 A 
ATOM     59  C   UNL A   1      41.884  26.962  29.423  1.00  0.00     0.049 A 
ATOM     60  H   UNL A   1      41.967  28.287  31.030  1.00  0.00     0.167 HD
ATOM     61  C   UNL A   1      42.092  31.335  34.221  1.00  0.00     0.031 A 
ATOM     62  C   UNL A   1      43.020  26.239  29.450  1.00  0.00     0.031 A 
ATOM     63  C   UNL A   1      43.296  30.566  34.372  1.00  0.00     0.049 A 
ATOM     64  C   UNL A   1      44.030  26.517  30.534  1.00  0.00     0.074 A 
ATOM     65  C   UNL A   1      44.275  30.681  35.342  1.00  0.00     0.029 A 
ATOM     66  N   UNL A   1      43.676  29.526  33.536  1.00  0.00    -0.354 N 
ATOM     67  N   UNL A   1      43.983  27.412  31.493  1.00  0.00    -0.248 NA
ATOM     68  C   UNL A   1      45.236  25.680  30.547  1.00  0.00     0.031 C 
ATOM     69  C   UNL A   1      45.270  29.738  35.066  1.00  0.00     0.029 A 
ATOM     70  C   UNL A   1      44.879  28.997  33.962  1.00  0.00     0.049 A 
ATOM     71  H   UNL A   1      43.165  29.213  32.755  1.00  0.00     0.167 HD
ATOM     72  C   UNL A   1      45.136  27.217  32.247  1.00  0.00     0.074 A 
ATOM     73  C   UNL A   1      45.852  26.116  31.638  1.00  0.00     0.031 C 
ATOM     74  C   UNL A   1      45.562  27.886  33.347  1.00  0.00     0.031 A 
BRANCH  61  75
ATOM     75  C   UNL A   1      41.826  32.461  35.186  1.00  0.00    -0.014 A 
ATOM     76  C   UNL A   1      41.111  32.241  36.378  1.00  0.00     0.010 A 
ATOM     77  C   UNL A   1      42.329  33.747  34.920  1.00  0.00     0.010 A 
ATOM     78  C   UNL A   1      40.868  33.293  37.264  1.00  0.00     0.020 A 
ATOM     79  C   UNL A   1      42.117  34.796  35.820  1.00  0.00     0.020 A 
ATOM     80  C   UNL A   1      41.374  34.564  36.980  1.00  0.00     0.054 A 
BRANCH  80  81
ATOM     81  S   UNL A   1      41.076  35.902  38.168  1.00  0.00     0.124 S 
ATOM     82  O   UNL A   1      42.391  36.536  38.245  1.00  0.00    -0.237 OA
ATOM     83  O   UNL A   1      40.038  36.689  37.507  1.00  0.00    -0.237 OA
ATOM     84  O   UNL A   1      40.650  35.204  39.378  1.00  0.00    -0.744 OA
ENDBRANCH  80  81
ENDBRANCH  61  75
BRANCH  62  85
ATOM     85  C   UNL A   1      43.258  25.172  28.438  1.00  0.00    -0.014 A 
ATOM     86  C   UNL A   1      43.934  25.464  27.239  1.00  0.00     0.010 A 
ATOM     87  C   UNL A   1      42.809  23.858  28.663  1.00  0.00     0.010 A 
ATOM     88  C   UNL A   1      44.127  24.472  26.273  1.00  0.00     0.020 A 
ATOM     89  C   UNL A   1      43.028  22.856  27.712  1.00  0.00     0.020 A 
ATOM     90  C   UNL A   1      43.671  23.174  26.515  1.00  0.00     0.054 A 
BRANCH  90  91
ATOM     91  S   UNL A   1      43.955  21.897  25.257  1.00  0.00     0.124 S 
ATOM     92  O   UNL A   1      45.328  21.493  25.540  1.00  0.00    -0.237 OA
ATOM     93  O   UNL A   1      42.925  20.909  25.573  1.00  0.00    -0.237 OA
ATOM     94  O   UNL A   1      43.757  22.609  23.996  1.00  0.00    -0.744 OA
ENDBRANCH  90  91
ENDBRANCH  62  85
BRANCH  74  95
ATOM     95  C   UNL A   1      46.828  27.409  34.005  1.00  0.00    -0.014 A 
ATOM     96  C   UNL A   1      46.804  26.454  35.035  1.00  0.00     0.010 A 
ATOM     97  C   UNL A   1      48.066  27.870  33.520  1.00  0.00     0.010 A 
ATOM     98  C   UNL A   1      47.999  25.988  35.588  1.00  0.00     0.020 A 
ATOM     99  C   UNL A   1      49.262  27.382  34.049  1.00  0.00     0.020 A 
ATOM    100  C   UNL A   1      49.220  26.451  35.089  1.00  0.00     0.054 A 
BRANCH 100 101
ATOM    101  S   UNL A   1      50.756  25.783  35.782  1.00  0.00     0.124 S 
ATOM    102  O   UNL A   1      50.703  24.390  35.350  1.00  0.00    -0.237 OA
ATOM    103  O   UNL A   1      51.780  26.603  35.139  1.00  0.00    -0.237 OA
ATOM    104  O   UNL A   1      50.609  25.995  37.221  1.00  0.00    -0.744 OA
ENDBRANCH 100 101
ENDBRANCH  74  95
ENDBRANCH  48  49
ENDBRANCH  40  43
ENDBRANCH  38  39
ENDBRANCH  37  38
ENDBRANCH   1  37
TORSDOF 21
ENDMDL
MODEL 3
REMARK VINA RESULT:     -10.9      2.154      5.901
REMARK SMILES COc1ccccc1N1CC[NH+]([C@@H](C(=O)NCCCCNC(=O)c2ccc(-c3c4nc(c(-c5ccc(S(=O)(=O)[O-])cc5)c5ccc([nH]5)c(-c5ccc(S(=O)(=O)[O-])cc5)c5nc(c(-c6ccc(S(=O)(=O)[O-])cc6)c6ccc3[nH]6)C=C5)C=C4)cc2)c2c[nH]c3ccc(OCC#N)cc23)CC1
REMARK SMILES IDX 18 1 17 2 16 3 14 4 15 5 13 7 12 8 9 9 10 10 98 11 11 12
REMARK SMILES IDX 97 13 8 15 3 16 4 17 5 18 7 19 6 20 2 21 1 22 84 23 85 24
REMARK SMILES IDX 96 25 86 26 87 27 95 28 88 30 90 31 89 32 91 33 92 34 93 35
REMARK SMILES IDX 94 36 19 37 20 38 21 39 22 40 23 42 24 43 25 44 83 45 26 46
REMARK SMILES IDX 82 47 27 48 28 49 29 50 76 51 30 52 81 53 75 54 77 55 31 56
REMARK SMILES IDX 80 57 74 58 73 59 32 61 62 62 43 63 61 64 44 65 47 66 60 67
REMARK SMILES IDX 78 68 45 69 46 70 59 72 79 73 48 74 33 75 34 76 42 77 35 78
REMARK SMILES IDX 41 79 36 80 37 81 38 82 39 83 40 84 63 85 64 86 72 87 65 88
REMARK SMILES IDX 71 89 66 90 67 91 68 92 69 93 70 94 49 95 50 96 58 97 51 98
REMARK SMILES IDX 57 99 52 100 53 101 54 102 55 103 56 104
REMARK H PARENT 16 6 12 14 86 29 21 41 77 60 47 71
REMARK Flexibility Score: inf
ROOT
ATOM      1  C   UNL A   1      33.251  28.959  27.237  1.00  0.00     0.023 C 
ENDROOT
BRANCH   1   2
ATOM      2  C   UNL A   1      33.186  28.005  25.996  1.00  0.00     0.116 C 
BRANCH   2   3
ATOM      3  N   UNL A   1      32.792  26.596  26.211  1.00  0.00    -0.351 N 
ATOM      4  C   UNL A   1      32.643  25.422  25.488  1.00  0.00     0.283 C 
ATOM      5  O   UNL A   1      32.432  24.429  26.201  1.00  0.00    -0.268 OA
ATOM      6  H   UNL A   1      32.566  26.445  27.158  1.00  0.00     0.163 HD
BRANCH   4   7
ATOM      7  C   UNL A   1      32.768  25.281  23.927  1.00  0.00     0.307 C 
BRANCH   7   8
ATOM      8  N   UNL A   1      31.500  25.196  23.087  1.00  0.00    -0.318 N 
ATOM      9  N   UNL A   1      29.838  27.639  23.183  1.00  0.00    -0.357 N 
ATOM     10  C   UNL A   1      29.777  26.659  24.276  1.00  0.00     0.178 C 
ATOM     11  C   UNL A   1      31.085  27.600  22.418  1.00  0.00     0.178 C 
ATOM     12  C   UNL A   1      30.153  25.285  23.696  1.00  0.00     0.284 C 
ATOM     13  C   UNL A   1      31.434  26.151  21.985  1.00  0.00     0.284 C 
ATOM     14  H   UNL A   1      31.653  24.222  22.824  1.00  0.00     0.349 HD
BRANCH   9  15
ATOM     15  C   UNL A   1      29.394  28.942  23.430  1.00  0.00     0.080 A 
ATOM     16  C   UNL A   1      28.056  29.342  23.230  1.00  0.00     0.142 A 
ATOM     17  C   UNL A   1      27.700  30.684  23.453  1.00  0.00     0.048 A 
ATOM     18  C   UNL A   1      28.639  31.634  23.850  1.00  0.00     0.004 A 
ATOM     19  C   UNL A   1      30.331  29.930  23.813  1.00  0.00     0.030 A 
ATOM     20  C   UNL A   1      29.962  31.259  24.022  1.00  0.00     0.002 A 
BRANCH  16  21
ATOM     21  O   UNL A   1      26.973  28.599  22.836  1.00  0.00    -0.495 OA
ATOM     22  C   UNL A   1      26.265  27.797  23.763  1.00  0.00     0.278 C 
ENDBRANCH  16  21
ENDBRANCH   9  15
ENDBRANCH   7   8
BRANCH   7  23
ATOM     23  C   UNL A   1      33.817  24.225  23.419  1.00  0.00     0.044 A 
ATOM     24  C   UNL A   1      33.527  23.246  22.474  1.00  0.00     0.094 A 
ATOM     25  C   UNL A   1      34.906  23.571  24.113  1.00  0.00     0.013 A 
ATOM     26  N   UNL A   1      33.561  22.075  23.180  1.00  0.00    -0.361 N 
ATOM     27  C   UNL A   1      34.505  22.229  24.169  1.00  0.00     0.046 A 
ATOM     28  C   UNL A   1      36.114  23.901  24.764  1.00  0.00     0.057 A 
ATOM     29  H   UNL A   1      33.014  21.275  23.012  1.00  0.00     0.166 HD
ATOM     30  C   UNL A   1      34.975  21.331  25.127  1.00  0.00     0.030 A 
ATOM     31  C   UNL A   1      36.769  22.888  25.489  1.00  0.00     0.121 A 
ATOM     32  C   UNL A   1      36.112  21.709  25.827  1.00  0.00     0.048 A 
BRANCH  31  33
ATOM     33  O   UNL A   1      38.066  23.088  25.867  1.00  0.00    -0.479 OA
BRANCH  33  34
ATOM     34  C   UNL A   1      38.896  21.893  25.995  1.00  0.00     0.349 C 
BRANCH  34  35
ATOM     35  C   UNL A   1      39.972  21.848  26.999  1.00  0.00     0.104 C 
ATOM     36  N   UNL A   1      40.869  21.774  27.763  1.00  0.00    -0.195 NA
ENDBRANCH  34  35
ENDBRANCH  33  34
ENDBRANCH  31  33
ENDBRANCH   7  23
ENDBRANCH   4   7
ENDBRANCH   2   3
ENDBRANCH   1   2
BRANCH   1  37
ATOM     37  C   UNL A   1      32.672  30.370  27.086  1.00  0.00     0.023 C 
BRANCH  37  38
ATOM     38  C   UNL A   1      33.692  31.479  27.213  1.00  0.00     0.116 C 
BRANCH  38  39
ATOM     39  N   UNL A   1      33.120  32.719  27.728  1.00  0.00    -0.352 N 
ATOM     40  C   UNL A   1      33.578  33.500  28.767  1.00  0.00     0.251 C 
ATOM     41  H   UNL A   1      32.304  33.037  27.276  1.00  0.00     0.163 HD
ATOM     42  O   UNL A   1      32.908  34.445  29.172  1.00  0.00    -0.269 OA
BRANCH  40  43
ATOM     43  C   UNL A   1      34.872  33.167  29.407  1.00  0.00     0.039 A 
ATOM     44  C   UNL A   1      36.015  33.910  29.092  1.00  0.00     0.014 A 
ATOM     45  C   UNL A   1      34.945  32.142  30.351  1.00  0.00     0.014 A 
ATOM     46  C   UNL A   1      37.211  33.658  29.771  1.00  0.00     0.010 A 
ATOM     47  C   UNL A   1      36.095  31.977  31.108  1.00  0.00     0.010 A 
ATOM     48  C   UNL A   1      37.251  32.709  30.805  1.00  0.00    -0.014 A 
BRANCH  48  49
ATOM     49  C   UNL A   1      38.493  32.389  31.549  1.00  0.00     0.031 A 
ATOM     50  C   UNL A   1      39.443  31.371  30.971  1.00  0.00     0.074 A 
ATOM     51  C   UNL A   1      38.718  32.929  32.763  1.00  0.00     0.049 A 
ATOM     52  N   UNL A   1      40.499  30.824  31.513  1.00  0.00    -0.248 NA
ATOM     53  C   UNL A   1      39.138  30.868  29.618  1.00  0.00     0.031 C 
ATOM     54  C   UNL A   1      37.850  33.896  33.439  1.00  0.00     0.029 A 
ATOM     55  N   UNL A   1      39.744  32.730  33.650  1.00  0.00    -0.354 N 
ATOM     56  C   UNL A   1      40.959  29.895  30.585  1.00  0.00     0.074 A 
ATOM     57  C   UNL A   1      40.032  29.903  29.477  1.00  0.00     0.031 C 
ATOM     58  C   UNL A   1      38.396  34.225  34.622  1.00  0.00     0.029 A 
ATOM     59  C   UNL A   1      39.624  33.460  34.809  1.00  0.00     0.049 A 
ATOM     60  H   UNL A   1      40.499  32.121  33.473  1.00  0.00     0.167 HD
ATOM     61  C   UNL A   1      42.069  29.124  30.637  1.00  0.00     0.031 A 
ATOM     62  C   UNL A   1      40.410  33.497  35.902  1.00  0.00     0.031 A 
ATOM     63  C   UNL A   1      43.004  29.153  31.727  1.00  0.00     0.049 A 
ATOM     64  C   UNL A   1      41.645  32.634  35.935  1.00  0.00     0.074 A 
ATOM     65  C   UNL A   1      44.191  28.457  31.862  1.00  0.00     0.029 A 
ATOM     66  N   UNL A   1      42.862  29.934  32.866  1.00  0.00    -0.354 N 
ATOM     67  N   UNL A   1      42.087  31.794  35.029  1.00  0.00    -0.248 NA
ATOM     68  C   UNL A   1      42.492  32.733  37.130  1.00  0.00     0.031 C 
ATOM     69  C   UNL A   1      44.746  28.783  33.103  1.00  0.00     0.029 A 
ATOM     70  C   UNL A   1      43.936  29.730  33.712  1.00  0.00     0.049 A 
ATOM     71  H   UNL A   1      42.109  30.542  33.043  1.00  0.00     0.167 HD
ATOM     72  C   UNL A   1      43.286  31.296  35.528  1.00  0.00     0.074 A 
ATOM     73  C   UNL A   1      43.501  31.935  36.810  1.00  0.00     0.031 C 
ATOM     74  C   UNL A   1      44.135  30.395  34.975  1.00  0.00     0.031 A 
BRANCH  61  75
ATOM     75  C   UNL A   1      42.336  28.199  29.478  1.00  0.00    -0.014 A 
ATOM     76  C   UNL A   1      43.129  28.608  28.391  1.00  0.00     0.010 A 
ATOM     77  C   UNL A   1      41.820  26.890  29.492  1.00  0.00     0.010 A 
ATOM     78  C   UNL A   1      43.369  27.742  27.321  1.00  0.00     0.020 A 
ATOM     79  C   UNL A   1      42.084  26.009  28.440  1.00  0.00     0.020 A 
ATOM     80  C   UNL A   1      42.845  26.446  27.353  1.00  0.00     0.054 A 
BRANCH  80  81
ATOM     81  S   UNL A   1      43.203  25.332  25.968  1.00  0.00     0.124 S 
ATOM     82  O   UNL A   1      44.405  24.646  26.437  1.00  0.00    -0.237 OA
ATOM     83  O   UNL A   1      41.998  24.509  25.901  1.00  0.00    -0.237 OA
ATOM     84  O   UNL A   1      43.402  26.234  24.837  1.00  0.00    -0.744 OA
ENDBRANCH  80  81
ENDBRANCH  61  75
BRANCH  62  85
ATOM     85  C   UNL A   1      40.071  34.391  37.044  1.00  0.00    -0.014 A 
ATOM     86  C   UNL A   1      39.373  33.891  38.159  1.00  0.00     0.010 A 
ATOM     87  C   UNL A   1      40.440  35.749  37.025  1.00  0.00     0.010 A 
ATOM     88  C   UNL A   1      39.023  34.738  39.216  1.00  0.00     0.020 A 
ATOM     89  C   UNL A   1      40.120  36.591  38.095  1.00  0.00     0.020 A 
ATOM     90  C   UNL A   1      39.397  36.083  39.176  1.00  0.00     0.054 A 
BRANCH  90  91
ATOM     91  S   UNL A   1      38.954  37.157  40.571  1.00  0.00     0.124 S 
ATOM     92  O   UNL A   1      38.122  36.274  41.381  1.00  0.00    -0.237 OA
ATOM     93  O   UNL A   1      40.259  37.493  41.136  1.00  0.00    -0.237 OA
ATOM     94  O   UNL A   1      38.254  38.271  39.936  1.00  0.00    -0.744 OA
ENDBRANCH  90  91
ENDBRANCH  62  85
BRANCH  74  95
ATOM     95  C   UNL A   1      45.407  30.090  35.718  1.00  0.00    -0.014 A 
ATOM     96  C   UNL A   1      45.486  29.023  36.629  1.00  0.00     0.010 A 
ATOM     97  C   UNL A   1      46.563  30.841  35.433  1.00  0.00     0.010 A 
ATOM     98  C   UNL A   1      46.696  28.729  37.262  1.00  0.00     0.020 A 
ATOM     99  C   UNL A   1      47.780  30.530  36.041  1.00  0.00     0.020 A 
ATOM    100  C   UNL A   1      47.836  29.481  36.961  1.00  0.00     0.054 A 
BRANCH 100 101
ATOM    101  S   UNL A   1      49.407  29.038  37.750  1.00  0.00     0.124 S 
ATOM    102  O   UNL A   1      50.197  28.575  36.614  1.00  0.00    -0.237 OA
ATOM    103  O   UNL A   1      49.835  30.304  38.342  1.00  0.00    -0.237 OA
ATOM    104  O   UNL A   1      49.033  28.004  38.712  1.00  0.00    -0.744 OA
ENDBRANCH 100 101
ENDBRANCH  74  95
ENDBRANCH  48  49
ENDBRANCH  40  43
ENDBRANCH  38  39
ENDBRANCH  37  38
ENDBRANCH   1  37
TORSDOF 21
ENDMDL
