MODEL 1
REMARK VINA RESULT:     -11.2      0.000      0.000
REMARK SMILES O=C(NCCCCNC(=O)c1ccc(S(=O)(=O)Cc2cnoc2)c(F)c1)c1ccc(-c2c3nc(c(-c4ccc(S(=O)(=O)[O-])cc4)c4ccc([nH]4)c(-c4ccc(S(=O)(=O)[O-])cc4)c4nc(c(-c5ccc(S(=O)(=O)[O-])cc5)c5ccc2[nH]5)C=C4)C=C3)cc1
REMARK SMILES IDX 5 1 4 2 3 3 1 4 2 5 27 7 28 8 86 9 29 10 85 11 30 12 31 13
REMARK SMILES IDX 32 14 79 15 33 16 84 17 78 18 80 19 34 20 83 21 77 22 76 23
REMARK SMILES IDX 35 25 65 26 46 27 64 28 47 29 50 30 63 31 81 32 48 33 49 34
REMARK SMILES IDX 62 36 82 37 51 38 36 39 37 40 45 41 38 42 44 43 39 44 40 45
REMARK SMILES IDX 41 46 42 47 43 48 66 49 67 50 75 51 68 52 74 53 69 54 70 55
REMARK SMILES IDX 71 56 72 57 73 58 52 59 53 60 61 61 54 62 60 63 55 64 56 65
REMARK SMILES IDX 57 66 58 67 59 68 6 69 7 70 8 71 9 72 10 74 11 75 12 76
REMARK SMILES IDX 26 77 13 78 24 79 14 80 25 81 15 82 16 83 17 84 18 85 19 86
REMARK SMILES IDX 20 87 23 88 21 89 22 90
REMARK H PARENT 3 6 80 24 50 35 8 73
REMARK Flexibility Score: inf
ROOT
ATOM      1  C   UNL A   1      33.322  28.096  25.554  1.00  0.00     0.023 C 
ENDROOT
BRANCH   1   2
ATOM      2  C   UNL A   1      33.844  28.359  26.962  1.00  0.00     0.116 C 
BRANCH   2   3
ATOM      3  N   UNL A   1      33.642  29.733  27.388  1.00  0.00    -0.352 N 
ATOM      4  O   UNL A   1      34.065  31.644  28.497  1.00  0.00    -0.269 OA
ATOM      5  C   UNL A   1      34.479  30.560  28.096  1.00  0.00     0.251 C 
ATOM      6  H   UNL A   1      32.778  30.130  27.131  1.00  0.00     0.163 HD
BRANCH   5   7
ATOM      7  C   UNL A   1      35.862  30.134  28.398  1.00  0.00     0.039 A 
ATOM      8  C   UNL A   1      36.211  29.661  29.667  1.00  0.00     0.014 A 
ATOM      9  C   UNL A   1      36.820  30.194  27.383  1.00  0.00     0.014 A 
ATOM     10  C   UNL A   1      37.541  29.360  29.954  1.00  0.00     0.010 A 
ATOM     11  C   UNL A   1      38.140  29.830  27.654  1.00  0.00     0.010 A 
ATOM     12  C   UNL A   1      38.516  29.437  28.949  1.00  0.00    -0.014 A 
BRANCH  12  13
ATOM     13  C   UNL A   1      39.922  29.061  29.236  1.00  0.00     0.031 A 
ATOM     14  C   UNL A   1      40.883  30.063  29.812  1.00  0.00     0.074 A 
ATOM     15  C   UNL A   1      40.341  27.817  28.939  1.00  0.00     0.049 A 
ATOM     16  N   UNL A   1      42.162  29.932  30.050  1.00  0.00    -0.248 NA
ATOM     17  C   UNL A   1      40.337  31.385  30.156  1.00  0.00     0.031 C 
ATOM     18  C   UNL A   1      39.502  26.759  28.373  1.00  0.00     0.029 A 
ATOM     19  N   UNL A   1      41.579  27.237  29.054  1.00  0.00    -0.354 N 
ATOM     20  C   UNL A   1      42.584  31.161  30.544  1.00  0.00     0.074 A 
ATOM     21  C   UNL A   1      41.424  32.029  30.558  1.00  0.00     0.031 C 
ATOM     22  C   UNL A   1      40.247  25.659  28.193  1.00  0.00     0.029 A 
ATOM     23  C   UNL A   1      41.625  25.949  28.578  1.00  0.00     0.049 A 
ATOM     24  H   UNL A   1      42.358  27.698  29.440  1.00  0.00     0.167 HD
ATOM     25  C   UNL A   1      43.824  31.533  30.946  1.00  0.00     0.031 A 
ATOM     26  C   UNL A   1      42.662  25.104  28.430  1.00  0.00     0.031 A 
ATOM     27  C   UNL A   1      44.973  30.667  30.922  1.00  0.00     0.049 A 
ATOM     28  C   UNL A   1      44.032  25.540  28.855  1.00  0.00     0.074 A 
ATOM     29  C   UNL A   1      46.264  30.938  31.343  1.00  0.00     0.029 A 
ATOM     30  N   UNL A   1      44.975  29.366  30.438  1.00  0.00    -0.354 N 
ATOM     31  N   UNL A   1      44.405  26.693  29.359  1.00  0.00    -0.248 NA
ATOM     32  C   UNL A   1      45.122  24.568  28.696  1.00  0.00     0.031 C 
ATOM     33  C   UNL A   1      47.056  29.817  31.071  1.00  0.00     0.029 A 
ATOM     34  C   UNL A   1      46.248  28.830  30.527  1.00  0.00     0.049 A 
ATOM     35  H   UNL A   1      44.187  28.895  30.085  1.00  0.00     0.167 HD
ATOM     36  C   UNL A   1      45.768  26.579  29.597  1.00  0.00     0.074 A 
ATOM     37  C   UNL A   1      46.155  25.243  29.185  1.00  0.00     0.031 C 
ATOM     38  C   UNL A   1      46.619  27.498  30.115  1.00  0.00     0.031 A 
BRANCH  25  39
ATOM     39  C   UNL A   1      44.003  32.957  31.401  1.00  0.00    -0.014 A 
ATOM     40  C   UNL A   1      44.267  33.990  30.484  1.00  0.00     0.010 A 
ATOM     41  C   UNL A   1      43.904  33.265  32.770  1.00  0.00     0.010 A 
ATOM     42  C   UNL A   1      44.493  35.294  30.935  1.00  0.00     0.020 A 
ATOM     43  C   UNL A   1      44.104  34.572  33.222  1.00  0.00     0.020 A 
ATOM     44  C   UNL A   1      44.425  35.573  32.304  1.00  0.00     0.054 A 
BRANCH  44  45
ATOM     45  S   UNL A   1      44.755  37.265  32.869  1.00  0.00     0.124 S 
ATOM     46  O   UNL A   1      45.310  37.031  34.201  1.00  0.00    -0.237 OA
ATOM     47  O   UNL A   1      45.701  37.762  31.875  1.00  0.00    -0.237 OA
ATOM     48  O   UNL A   1      43.440  37.901  32.846  1.00  0.00    -0.744 OA
ENDBRANCH  44  45
ENDBRANCH  25  39
BRANCH  26  49
ATOM     49  C   UNL A   1      42.414  23.766  27.832  1.00  0.00    -0.014 A 
ATOM     50  C   UNL A   1      42.461  23.586  26.440  1.00  0.00     0.010 A 
ATOM     51  C   UNL A   1      42.234  22.646  28.666  1.00  0.00     0.010 A 
ATOM     52  C   UNL A   1      42.349  22.304  25.892  1.00  0.00     0.020 A 
ATOM     53  C   UNL A   1      42.145  21.363  28.122  1.00  0.00     0.020 A 
ATOM     54  C   UNL A   1      42.204  21.200  26.737  1.00  0.00     0.054 A 
BRANCH  54  55
ATOM     55  S   UNL A   1      42.180  19.537  26.010  1.00  0.00     0.124 S 
ATOM     56  O   UNL A   1      42.621  18.711  27.129  1.00  0.00    -0.237 OA
ATOM     57  O   UNL A   1      40.780  19.383  25.622  1.00  0.00    -0.237 OA
ATOM     58  O   UNL A   1      43.118  19.640  24.895  1.00  0.00    -0.744 OA
ENDBRANCH  54  55
ENDBRANCH  26  49
BRANCH  38  59
ATOM     59  C   UNL A   1      48.055  27.093  30.300  1.00  0.00    -0.014 A 
ATOM     60  C   UNL A   1      49.035  27.439  29.354  1.00  0.00     0.010 A 
ATOM     61  C   UNL A   1      48.441  26.443  31.486  1.00  0.00     0.010 A 
ATOM     62  C   UNL A   1      50.379  27.138  29.591  1.00  0.00     0.020 A 
ATOM     63  C   UNL A   1      49.786  26.158  31.735  1.00  0.00     0.020 A 
ATOM     64  C   UNL A   1      50.747  26.505  30.783  1.00  0.00     0.054 A 
BRANCH  64  65
ATOM     65  S   UNL A   1      52.507  26.203  31.109  1.00  0.00     0.124 S 
ATOM     66  O   UNL A   1      53.055  26.117  29.758  1.00  0.00    -0.237 OA
ATOM     67  O   UNL A   1      52.899  27.386  31.872  1.00  0.00    -0.237 OA
ATOM     68  O   UNL A   1      52.509  24.953  31.865  1.00  0.00    -0.744 OA
ENDBRANCH  64  65
ENDBRANCH  38  59
ENDBRANCH  12  13
ENDBRANCH   5   7
ENDBRANCH   2   3
ENDBRANCH   1   2
BRANCH   1  69
ATOM     69  C   UNL A   1      31.855  27.671  25.465  1.00  0.00     0.023 C 
BRANCH  69  70
ATOM     70  C   UNL A   1      31.546  26.613  24.407  1.00  0.00     0.116 C 
BRANCH  70  71
ATOM     71  N   UNL A   1      32.298  26.826  23.180  1.00  0.00    -0.352 N 
ATOM     72  C   UNL A   1      33.196  25.991  22.572  1.00  0.00     0.251 C 
ATOM     73  H   UNL A   1      32.139  27.685  22.726  1.00  0.00     0.163 HD
ATOM     74  O   UNL A   1      33.848  26.346  21.596  1.00  0.00    -0.269 OA
BRANCH  72  75
ATOM     75  C   UNL A   1      33.401  24.642  23.119  1.00  0.00     0.042 A 
ATOM     76  C   UNL A   1      32.699  23.550  22.594  1.00  0.00     0.015 A 
ATOM     77  C   UNL A   1      34.297  24.479  24.175  1.00  0.00     0.054 A 
ATOM     78  C   UNL A   1      32.877  22.286  23.156  1.00  0.00     0.024 A 
ATOM     79  C   UNL A   1      34.453  23.220  24.741  1.00  0.00     0.142 A 
ATOM     80  C   UNL A   1      33.755  22.128  24.239  1.00  0.00     0.103 A 
ATOM     81  F   UNL A   1      35.268  23.101  25.795  1.00  0.00    -0.206 F 
BRANCH  80  82
ATOM     82  S   UNL A   1      33.909  20.530  24.972  1.00  0.00     0.185 S 
ATOM     83  O   UNL A   1      35.291  20.136  24.767  1.00  0.00    -0.223 OA
ATOM     84  O   UNL A   1      33.384  20.643  26.325  1.00  0.00    -0.223 OA
BRANCH  82  85
ATOM     85  C   UNL A   1      32.873  19.370  24.102  1.00  0.00     0.183 C 
BRANCH  85  86
ATOM     86  C   UNL A   1      33.071  17.948  24.472  1.00  0.00     0.027 A 
ATOM     87  C   UNL A   1      33.538  16.889  23.660  1.00  0.00     0.162 A 
ATOM     88  C   UNL A   1      32.809  17.330  25.673  1.00  0.00     0.235 A 
ATOM     89  N   UNL A   1      33.561  15.726  24.313  1.00  0.00    -0.088 NA
ATOM     90  O   UNL A   1      33.102  16.010  25.587  1.00  0.00    -0.364 OA
ENDBRANCH  85  86
ENDBRANCH  82  85
ENDBRANCH  80  82
ENDBRANCH  72  75
ENDBRANCH  70  71
ENDBRANCH  69  70
ENDBRANCH   1  69
TORSDOF 17
ENDMDL
MODEL 2
REMARK VINA RESULT:     -10.7      2.385      2.924
REMARK SMILES O=C(NCCCCNC(=O)c1ccc(S(=O)(=O)Cc2cnoc2)c(F)c1)c1ccc(-c2c3nc(c(-c4ccc(S(=O)(=O)[O-])cc4)c4ccc([nH]4)c(-c4ccc(S(=O)(=O)[O-])cc4)c4nc(c(-c5ccc(S(=O)(=O)[O-])cc5)c5ccc2[nH]5)C=C4)C=C3)cc1
REMARK SMILES IDX 5 1 4 2 3 3 1 4 2 5 27 7 28 8 86 9 29 10 85 11 30 12 31 13
REMARK SMILES IDX 32 14 79 15 33 16 84 17 78 18 80 19 34 20 83 21 77 22 76 23
REMARK SMILES IDX 35 25 65 26 46 27 64 28 47 29 50 30 63 31 81 32 48 33 49 34
REMARK SMILES IDX 62 36 82 37 51 38 36 39 37 40 45 41 38 42 44 43 39 44 40 45
REMARK SMILES IDX 41 46 42 47 43 48 66 49 67 50 75 51 68 52 74 53 69 54 70 55
REMARK SMILES IDX 71 56 72 57 73 58 52 59 53 60 61 61 54 62 60 63 55 64 56 65
REMARK SMILES IDX 57 66 58 67 59 68 6 69 7 70 8 71 9 72 10 74 11 75 12 76
REMARK SMILES IDX 26 77 13 78 24 79 14 80 25 81 15 82 16 83 17 84 18 85 19 86
REMARK SMILES IDX 20 87 23 88 21 89 22 90
REMARK H PARENT 3 6 80 24 50 35 8 73
REMARK Flexibility Score: inf
ROOT
ATOM      1  C   UNL A   1      33.707  27.672  26.060  1.00  0.00     0.023 C 
ENDROOT
BRANCH   1   2
ATOM      2  C   UNL A   1      34.499  28.946  25.791  1.00  0.00     0.116 C 
BRANCH   2   3
ATOM      3  N   UNL A   1      33.902  30.119  26.408  1.00  0.00    -0.352 N 
ATOM      4  O   UNL A   1      33.567  31.691  27.981  1.00  0.00    -0.269 OA
ATOM      5  C   UNL A   1      34.295  30.814  27.525  1.00  0.00     0.251 C 
ATOM      6  H   UNL A   1      33.097  30.465  25.959  1.00  0.00     0.163 HD
BRANCH   5   7
ATOM      7  C   UNL A   1      35.575  30.490  28.189  1.00  0.00     0.039 A 
ATOM      8  C   UNL A   1      36.769  31.102  27.794  1.00  0.00     0.014 A 
ATOM      9  C   UNL A   1      35.572  29.569  29.240  1.00  0.00     0.014 A 
ATOM     10  C   UNL A   1      37.974  30.707  28.369  1.00  0.00     0.010 A 
ATOM     11  C   UNL A   1      36.774  29.222  29.860  1.00  0.00     0.010 A 
ATOM     12  C   UNL A   1      37.987  29.767  29.411  1.00  0.00    -0.014 A 
BRANCH  12  13
ATOM     13  C   UNL A   1      39.264  29.389  30.065  1.00  0.00     0.031 A 
ATOM     14  C   UNL A   1      39.789  30.173  31.235  1.00  0.00     0.074 A 
ATOM     15  C   UNL A   1      39.971  28.355  29.573  1.00  0.00     0.049 A 
ATOM     16  N   UNL A   1      40.921  30.034  31.875  1.00  0.00    -0.248 NA
ATOM     17  C   UNL A   1      38.935  31.256  31.745  1.00  0.00     0.031 C 
ATOM     18  C   UNL A   1      39.565  27.522  28.439  1.00  0.00     0.029 A 
ATOM     19  N   UNL A   1      41.184  27.838  29.951  1.00  0.00    -0.354 N 
ATOM     20  C   UNL A   1      40.932  31.030  32.845  1.00  0.00     0.074 A 
ATOM     21  C   UNL A   1      39.698  31.774  32.699  1.00  0.00     0.031 C 
ATOM     22  C   UNL A   1      40.511  26.598  28.215  1.00  0.00     0.029 A 
ATOM     23  C   UNL A   1      41.611  26.806  29.151  1.00  0.00     0.049 A 
ATOM     24  H   UNL A   1      41.698  28.174  30.720  1.00  0.00     0.167 HD
ATOM     25  C   UNL A   1      41.885  31.301  33.770  1.00  0.00     0.031 A 
ATOM     26  C   UNL A   1      42.772  26.124  29.142  1.00  0.00     0.031 A 
ATOM     27  C   UNL A   1      43.113  30.562  33.905  1.00  0.00     0.049 A 
ATOM     28  C   UNL A   1      43.826  26.454  30.155  1.00  0.00     0.074 A 
ATOM     29  C   UNL A   1      44.124  30.735  34.834  1.00  0.00     0.029 A 
ATOM     30  N   UNL A   1      43.504  29.518  33.078  1.00  0.00    -0.354 N 
ATOM     31  N   UNL A   1      43.802  27.372  31.092  1.00  0.00    -0.248 NA
ATOM     32  C   UNL A   1      45.061  25.661  30.117  1.00  0.00     0.031 C 
ATOM     33  C   UNL A   1      45.147  29.827  34.540  1.00  0.00     0.029 A 
ATOM     34  C   UNL A   1      44.750  29.053  33.460  1.00  0.00     0.049 A 
ATOM     35  H   UNL A   1      42.972  29.161  32.331  1.00  0.00     0.167 HD
ATOM     36  C   UNL A   1      45.009  27.255  31.768  1.00  0.00     0.074 A 
ATOM     37  C   UNL A   1      45.740  26.173  31.136  1.00  0.00     0.031 C 
ATOM     38  C   UNL A   1      45.465  27.975  32.821  1.00  0.00     0.031 A 
BRANCH  25  39
ATOM     39  C   UNL A   1      41.650  32.480  34.677  1.00  0.00    -0.014 A 
ATOM     40  C   UNL A   1      42.116  33.764  34.343  1.00  0.00     0.010 A 
ATOM     41  C   UNL A   1      40.948  32.298  35.883  1.00  0.00     0.010 A 
ATOM     42  C   UNL A   1      41.942  34.831  35.230  1.00  0.00     0.020 A 
ATOM     43  C   UNL A   1      40.750  33.368  36.760  1.00  0.00     0.020 A 
ATOM     44  C   UNL A   1      41.273  34.622  36.441  1.00  0.00     0.054 A 
BRANCH  44  45
ATOM     45  S   UNL A   1      41.088  36.013  37.590  1.00  0.00     0.124 S 
ATOM     46  O   UNL A   1      42.318  36.765  37.347  1.00  0.00    -0.237 OA
ATOM     47  O   UNL A   1      39.861  36.655  37.128  1.00  0.00    -0.237 OA
ATOM     48  O   UNL A   1      40.998  35.372  38.899  1.00  0.00    -0.744 OA
ENDBRANCH  44  45
ENDBRANCH  25  39
BRANCH  26  49
ATOM     49  C   UNL A   1      42.975  25.073  28.111  1.00  0.00    -0.014 A 
ATOM     50  C   UNL A   1      43.689  25.354  26.935  1.00  0.00     0.010 A 
ATOM     51  C   UNL A   1      42.541  23.755  28.356  1.00  0.00     0.010 A 
ATOM     52  C   UNL A   1      43.982  24.331  26.028  1.00  0.00     0.020 A 
ATOM     53  C   UNL A   1      42.853  22.728  27.463  1.00  0.00     0.020 A 
ATOM     54  C   UNL A   1      43.573  23.023  26.304  1.00  0.00     0.054 A 
BRANCH  54  55
ATOM     55  S   UNL A   1      44.067  21.693  25.172  1.00  0.00     0.124 S 
ATOM     56  O   UNL A   1      43.982  22.352  23.873  1.00  0.00    -0.237 OA
ATOM     57  O   UNL A   1      45.416  21.372  25.632  1.00  0.00    -0.237 OA
ATOM     58  O   UNL A   1      43.072  20.651  25.416  1.00  0.00    -0.744 OA
ENDBRANCH  54  55
ENDBRANCH  26  49
BRANCH  38  59
ATOM     59  C   UNL A   1      46.809  27.608  33.388  1.00  0.00    -0.014 A 
ATOM     60  C   UNL A   1      46.932  26.620  34.382  1.00  0.00     0.010 A 
ATOM     61  C   UNL A   1      47.969  28.190  32.848  1.00  0.00     0.010 A 
ATOM     62  C   UNL A   1      48.196  26.225  34.827  1.00  0.00     0.020 A 
ATOM     63  C   UNL A   1      49.234  27.782  33.277  1.00  0.00     0.020 A 
ATOM     64  C   UNL A   1      49.340  26.803  34.267  1.00  0.00     0.054 A 
BRANCH  64  65
ATOM     65  S   UNL A   1      50.972  26.211  34.796  1.00  0.00     0.124 S 
ATOM     66  O   UNL A   1      50.945  24.818  34.359  1.00  0.00    -0.237 OA
ATOM     67  O   UNL A   1      51.885  27.084  34.061  1.00  0.00    -0.237 OA
ATOM     68  O   UNL A   1      50.960  26.410  36.244  1.00  0.00    -0.744 OA
ENDBRANCH  64  65
ENDBRANCH  38  59
ENDBRANCH  12  13
ENDBRANCH   5   7
ENDBRANCH   2   3
ENDBRANCH   1   2
BRANCH   1  69
ATOM     69  C   UNL A   1      32.222  27.731  25.693  1.00  0.00     0.023 C 
BRANCH  69  70
ATOM     70  C   UNL A   1      31.770  26.722  24.640  1.00  0.00     0.116 C 
BRANCH  70  71
ATOM     71  N   UNL A   1      32.479  26.887  23.380  1.00  0.00    -0.352 N 
ATOM     72  C   UNL A   1      33.315  26.007  22.747  1.00  0.00     0.251 C 
ATOM     73  H   UNL A   1      32.337  27.746  22.920  1.00  0.00     0.163 HD
ATOM     74  O   UNL A   1      33.939  26.321  21.741  1.00  0.00    -0.269 OA
BRANCH  72  75
ATOM     75  C   UNL A   1      33.485  24.657  23.306  1.00  0.00     0.042 A 
ATOM     76  C   UNL A   1      32.658  23.608  22.886  1.00  0.00     0.015 A 
ATOM     77  C   UNL A   1      34.475  24.452  24.265  1.00  0.00     0.054 A 
ATOM     78  C   UNL A   1      32.810  22.346  23.459  1.00  0.00     0.024 A 
ATOM     79  C   UNL A   1      34.605  23.196  24.844  1.00  0.00     0.142 A 
ATOM     80  C   UNL A   1      33.785  22.146  24.447  1.00  0.00     0.103 A 
ATOM     81  F   UNL A   1      35.518  23.040  25.810  1.00  0.00    -0.206 F 
BRANCH  80  82
ATOM     82  S   UNL A   1      33.908  20.556  25.202  1.00  0.00     0.185 S 
ATOM     83  O   UNL A   1      35.227  20.058  24.856  1.00  0.00    -0.223 OA
ATOM     84  O   UNL A   1      33.548  20.732  26.600  1.00  0.00    -0.223 OA
BRANCH  82  85
ATOM     85  C   UNL A   1      32.703  19.458  24.483  1.00  0.00     0.183 C 
BRANCH  85  86
ATOM     86  C   UNL A   1      33.179  18.075  24.233  1.00  0.00     0.027 A 
ATOM     87  C   UNL A   1      33.619  17.508  23.015  1.00  0.00     0.162 A 
ATOM     88  C   UNL A   1      33.263  17.025  25.118  1.00  0.00     0.235 A 
ATOM     89  N   UNL A   1      33.946  16.221  23.149  1.00  0.00    -0.088 NA
ATOM     90  O   UNL A   1      33.722  15.921  24.481  1.00  0.00    -0.364 OA
ENDBRANCH  85  86
ENDBRANCH  82  85
ENDBRANCH  80  82
ENDBRANCH  72  75
ENDBRANCH  70  71
ENDBRANCH  69  70
ENDBRANCH   1  69
TORSDOF 17
ENDMDL
MODEL 3
REMARK VINA RESULT:     -10.5      3.027      3.948
REMARK SMILES O=C(NCCCCNC(=O)c1ccc(S(=O)(=O)Cc2cnoc2)c(F)c1)c1ccc(-c2c3nc(c(-c4ccc(S(=O)(=O)[O-])cc4)c4ccc([nH]4)c(-c4ccc(S(=O)(=O)[O-])cc4)c4nc(c(-c5ccc(S(=O)(=O)[O-])cc5)c5ccc2[nH]5)C=C4)C=C3)cc1
REMARK SMILES IDX 5 1 4 2 3 3 1 4 2 5 27 7 28 8 86 9 29 10 85 11 30 12 31 13
REMARK SMILES IDX 32 14 79 15 33 16 84 17 78 18 80 19 34 20 83 21 77 22 76 23
REMARK SMILES IDX 35 25 65 26 46 27 64 28 47 29 50 30 63 31 81 32 48 33 49 34
REMARK SMILES IDX 62 36 82 37 51 38 36 39 37 40 45 41 38 42 44 43 39 44 40 45
REMARK SMILES IDX 41 46 42 47 43 48 66 49 67 50 75 51 68 52 74 53 69 54 70 55
REMARK SMILES IDX 71 56 72 57 73 58 52 59 53 60 61 61 54 62 60 63 55 64 56 65
REMARK SMILES IDX 57 66 58 67 59 68 6 69 7 70 8 71 9 72 10 74 11 75 12 76
REMARK SMILES IDX 26 77 13 78 24 79 14 80 25 81 15 82 16 83 17 84 18 85 19 86
REMARK SMILES IDX 20 87 23 88 21 89 22 90
REMARK H PARENT 3 6 80 24 50 35 8 73
REMARK Flexibility Score: inf
ROOT
ATOM      1  C   UNL A   1      34.469  31.451  27.955  1.00  0.00     0.023 C 
ENDROOT
BRANCH   1   2
ATOM      2  C   UNL A   1      35.795  31.505  28.705  1.00  0.00     0.116 C 
BRANCH   2   3
ATOM      3  N   UNL A   1      35.645  31.258  30.129  1.00  0.00    -0.352 N 
ATOM      4  O   UNL A   1      36.104  30.354  32.136  1.00  0.00    -0.269 OA
ATOM      5  C   UNL A   1      36.480  30.594  30.993  1.00  0.00     0.251 C 
ATOM      6  H   UNL A   1      34.823  31.620  30.533  1.00  0.00     0.163 HD
BRANCH   5   7
ATOM      7  C   UNL A   1      37.815  30.148  30.541  1.00  0.00     0.039 A 
ATOM      8  C   UNL A   1      38.764  29.672  31.451  1.00  0.00     0.014 A 
ATOM      9  C   UNL A   1      38.111  30.192  29.176  1.00  0.00     0.014 A 
ATOM     10  C   UNL A   1      40.046  29.351  31.012  1.00  0.00     0.010 A 
ATOM     11  C   UNL A   1      39.377  29.808  28.729  1.00  0.00     0.010 A 
ATOM     12  C   UNL A   1      40.362  29.411  29.647  1.00  0.00    -0.014 A 
BRANCH  12  13
ATOM     13  C   UNL A   1      41.710  29.013  29.170  1.00  0.00     0.031 A 
ATOM     14  C   UNL A   1      42.820  30.022  29.077  1.00  0.00     0.074 A 
ATOM     15  C   UNL A   1      41.918  27.742  28.782  1.00  0.00     0.049 A 
ATOM     16  N   UNL A   1      44.032  29.870  28.608  1.00  0.00    -0.248 NA
ATOM     17  C   UNL A   1      42.528  31.378  29.566  1.00  0.00     0.031 C 
ATOM     18  C   UNL A   1      40.917  26.674  28.823  1.00  0.00     0.029 A 
ATOM     19  N   UNL A   1      43.034  27.135  28.263  1.00  0.00    -0.354 N 
ATOM     20  C   UNL A   1      44.640  31.115  28.717  1.00  0.00     0.074 A 
ATOM     21  C   UNL A   1      43.656  32.015  29.284  1.00  0.00     0.031 C 
ATOM     22  C   UNL A   1      41.463  25.544  28.351  1.00  0.00     0.029 A 
ATOM     23  C   UNL A   1      42.832  25.819  27.925  1.00  0.00     0.049 A 
ATOM     24  H   UNL A   1      43.895  27.597  28.144  1.00  0.00     0.167 HD
ATOM     25  C   UNL A   1      45.900  31.476  28.372  1.00  0.00     0.031 A 
ATOM     26  C   UNL A   1      43.641  24.936  27.309  1.00  0.00     0.031 A 
ATOM     27  C   UNL A   1      46.869  30.578  27.802  1.00  0.00     0.049 A 
ATOM     28  C   UNL A   1      45.023  25.359  26.911  1.00  0.00     0.074 A 
ATOM     29  C   UNL A   1      48.183  30.838  27.455  1.00  0.00     0.029 A 
ATOM     30  N   UNL A   1      46.626  29.249  27.483  1.00  0.00    -0.354 N 
ATOM     31  N   UNL A   1      45.595  26.530  27.059  1.00  0.00    -0.248 NA
ATOM     32  C   UNL A   1      45.870  24.348  26.266  1.00  0.00     0.031 C 
ATOM     33  C   UNL A   1      48.721  29.679  26.882  1.00  0.00     0.029 A 
ATOM     34  C   UNL A   1      47.757  28.683  26.920  1.00  0.00     0.049 A 
ATOM     35  H   UNL A   1      45.775  28.779  27.635  1.00  0.00     0.167 HD
ATOM     36  C   UNL A   1      46.877  26.392  26.545  1.00  0.00     0.074 A 
ATOM     37  C   UNL A   1      46.999  25.023  26.084  1.00  0.00     0.031 C 
ATOM     38  C   UNL A   1      47.864  27.318  26.467  1.00  0.00     0.031 A 
BRANCH  25  39
ATOM     39  C   UNL A   1      46.280  32.921  28.563  1.00  0.00    -0.014 A 
ATOM     40  C   UNL A   1      46.255  33.831  27.492  1.00  0.00     0.010 A 
ATOM     41  C   UNL A   1      46.667  33.373  29.838  1.00  0.00     0.010 A 
ATOM     42  C   UNL A   1      46.673  35.152  27.678  1.00  0.00     0.020 A 
ATOM     43  C   UNL A   1      47.061  34.700  30.033  1.00  0.00     0.020 A 
ATOM     44  C   UNL A   1      47.088  35.574  28.945  1.00  0.00     0.054 A 
BRANCH  44  45
ATOM     45  S   UNL A   1      47.658  37.284  29.155  1.00  0.00     0.124 S 
ATOM     46  O   UNL A   1      48.262  37.558  27.853  1.00  0.00    -0.237 OA
ATOM     47  O   UNL A   1      46.420  38.006  29.436  1.00  0.00    -0.237 OA
ATOM     48  O   UNL A   1      48.595  37.202  30.272  1.00  0.00    -0.744 OA
ENDBRANCH  44  45
ENDBRANCH  25  39
BRANCH  26  49
ATOM     49  C   UNL A   1      43.125  23.570  27.028  1.00  0.00    -0.014 A 
ATOM     50  C   UNL A   1      42.749  23.203  25.726  1.00  0.00     0.010 A 
ATOM     51  C   UNL A   1      43.111  22.601  28.049  1.00  0.00     0.010 A 
ATOM     52  C   UNL A   1      42.382  21.883  25.446  1.00  0.00     0.020 A 
ATOM     53  C   UNL A   1      42.767  21.277  27.767  1.00  0.00     0.020 A 
ATOM     54  C   UNL A   1      42.406  20.926  26.465  1.00  0.00     0.054 A 
BRANCH  54  55
ATOM     55  S   UNL A   1      42.041  19.197  26.052  1.00  0.00     0.124 S 
ATOM     56  O   UNL A   1      42.878  18.982  24.877  1.00  0.00    -0.237 OA
ATOM     57  O   UNL A   1      42.456  18.490  27.262  1.00  0.00    -0.237 OA
ATOM     58  O   UNL A   1      40.601  19.201  25.808  1.00  0.00    -0.744 OA
ENDBRANCH  54  55
ENDBRANCH  26  49
BRANCH  38  59
ATOM     59  C   UNL A   1      49.183  26.884  25.890  1.00  0.00    -0.014 A 
ATOM     60  C   UNL A   1      49.472  27.061  24.525  1.00  0.00     0.010 A 
ATOM     61  C   UNL A   1      50.180  26.384  26.746  1.00  0.00     0.010 A 
ATOM     62  C   UNL A   1      50.738  26.741  24.028  1.00  0.00     0.020 A 
ATOM     63  C   UNL A   1      51.453  26.081  26.255  1.00  0.00     0.020 A 
ATOM     64  C   UNL A   1      51.723  26.259  24.896  1.00  0.00     0.054 A 
BRANCH  64  65
ATOM     65  S   UNL A   1      53.385  25.934  24.245  1.00  0.00     0.124 S 
ATOM     66  O   UNL A   1      53.635  24.574  24.714  1.00  0.00    -0.237 OA
ATOM     67  O   UNL A   1      53.198  26.077  22.802  1.00  0.00    -0.237 OA
ATOM     68  O   UNL A   1      54.208  26.969  24.865  1.00  0.00    -0.744 OA
ENDBRANCH  64  65
ENDBRANCH  38  59
ENDBRANCH  12  13
ENDBRANCH   5   7
ENDBRANCH   2   3
ENDBRANCH   1   2
BRANCH   1  69
ATOM     69  C   UNL A   1      34.155  30.119  27.268  1.00  0.00     0.023 C 
BRANCH  69  70
ATOM     70  C   UNL A   1      32.886  30.107  26.420  1.00  0.00     0.116 C 
BRANCH  70  71
ATOM     71  N   UNL A   1      33.176  30.023  24.997  1.00  0.00    -0.352 N 
ATOM     72  C   UNL A   1      33.152  28.923  24.182  1.00  0.00     0.251 C 
ATOM     73  H   UNL A   1      33.421  30.871  24.560  1.00  0.00     0.163 HD
ATOM     74  O   UNL A   1      33.532  28.974  23.018  1.00  0.00    -0.269 OA
BRANCH  72  75
ATOM     75  C   UNL A   1      32.680  27.641  24.728  1.00  0.00     0.042 A 
ATOM     76  C   UNL A   1      33.585  26.739  25.299  1.00  0.00     0.015 A 
ATOM     77  C   UNL A   1      31.320  27.345  24.653  1.00  0.00     0.054 A 
ATOM     78  C   UNL A   1      33.122  25.512  25.773  1.00  0.00     0.024 A 
ATOM     79  C   UNL A   1      30.871  26.112  25.109  1.00  0.00     0.142 A 
ATOM     80  C   UNL A   1      31.758  25.199  25.668  1.00  0.00     0.103 A 
ATOM     81  F   UNL A   1      29.573  25.823  24.966  1.00  0.00    -0.206 F 
BRANCH  80  82
ATOM     82  S   UNL A   1      31.212  23.612  26.215  1.00  0.00     0.185 S 
ATOM     83  O   UNL A   1      30.253  23.871  27.273  1.00  0.00    -0.223 OA
ATOM     84  O   UNL A   1      30.796  22.885  25.026  1.00  0.00    -0.223 OA
BRANCH  82  85
ATOM     85  C   UNL A   1      32.583  22.720  26.923  1.00  0.00     0.183 C 
BRANCH  85  86
ATOM     86  C   UNL A   1      33.330  21.858  25.976  1.00  0.00     0.027 A 
ATOM     87  C   UNL A   1      33.480  20.452  26.004  1.00  0.00     0.162 A 
ATOM     88  C   UNL A   1      34.076  22.231  24.883  1.00  0.00     0.235 A 
ATOM     89  N   UNL A   1      34.250  20.008  25.009  1.00  0.00    -0.088 NA
ATOM     90  O   UNL A   1      34.623  21.137  24.300  1.00  0.00    -0.364 OA
ENDBRANCH  85  86
ENDBRANCH  82  85
ENDBRANCH  80  82
ENDBRANCH  72  75
ENDBRANCH  70  71
ENDBRANCH  69  70
ENDBRANCH   1  69
TORSDOF 17
ENDMDL
