MODEL 1
REMARK VINA RESULT:     -11.5      0.000      0.000
REMARK SMILES CC1(C)[C@H](C(=O)NCCCCNC(=O)c2ccc(-c3c4nc(c(-c5ccc(S(=O)(=O)[O-])cc5)c5ccc([nH]5)c(-c5ccc(S(=O)(=O)[O-])cc5)c5nc(c(-c6ccc(S(=O)(=O)[O-])cc6)c6ccc3[nH]6)C=C5)C=C4)cc2)[C@@H]1C(=O)Nc1ccc(NC(=O)C2CCC2)cc1
REMARK SMILES IDX 9 1 8 2 7 3 5 4 6 5 4 7 1 8 2 9 3 10 75 11 76 12 77 13 78 14
REMARK SMILES IDX 79 16 80 17 91 18 81 19 90 20 82 21 83 22 84 23 85 25 86 26
REMARK SMILES IDX 87 27 89 28 88 29 10 30 11 31 12 32 13 33 14 35 15 36 16 37
REMARK SMILES IDX 74 38 17 39 73 40 18 41 19 42 20 43 67 44 21 45 72 46 66 47
REMARK SMILES IDX 68 48 22 49 71 50 65 51 64 52 23 54 53 55 34 56 52 57 35 58
REMARK SMILES IDX 38 59 51 60 69 61 36 62 37 63 50 65 70 66 39 67 24 68 25 69
REMARK SMILES IDX 33 70 26 71 32 72 27 73 28 74 29 75 30 76 31 77 54 78 55 79
REMARK SMILES IDX 63 80 56 81 62 82 57 83 58 84 59 85 60 86 61 87 40 88 41 89
REMARK SMILES IDX 49 90 42 91 48 92 43 93 44 94 45 95 46 96 47 97
REMARK H PARENT 7 6 78 15 83 24 12 34 68 53 38 64
REMARK Flexibility Score: inf
ROOT
ATOM      1  C   UNL A   1      41.180  21.627  27.170  1.00  0.00     0.023 C 
ENDROOT
BRANCH   1   2
ATOM      2  C   UNL A   1      39.899  22.251  26.624  1.00  0.00     0.116 C 
BRANCH   2   3
ATOM      3  N   UNL A   1      39.201  21.338  25.746  1.00  0.00    -0.356 N 
ATOM      4  C   UNL A   1      37.907  21.160  25.354  1.00  0.00     0.224 C 
ATOM      5  O   UNL A   1      37.724  20.229  24.566  1.00  0.00    -0.275 OA
ATOM      6  H   UNL A   1      39.808  20.686  25.330  1.00  0.00     0.163 HD
BRANCH   4   7
ATOM      7  C   UNL A   1      36.700  21.932  25.740  1.00  0.00     0.098 C 
ATOM      8  C   UNL A   1      35.659  24.262  25.463  1.00  0.00     0.013 C 
ATOM      9  C   UNL A   1      35.910  22.894  24.867  1.00  0.00    -0.011 C 
ATOM     10  C   UNL A   1      36.161  22.966  23.382  1.00  0.00     0.013 C 
ATOM     11  C   UNL A   1      35.234  21.690  25.561  1.00  0.00     0.098 C 
BRANCH  11  12
ATOM     12  C   UNL A   1      34.589  20.555  24.875  1.00  0.00     0.228 C 
ATOM     13  O   UNL A   1      35.111  19.443  24.896  1.00  0.00    -0.274 OA
ATOM     14  N   UNL A   1      33.427  20.743  24.158  1.00  0.00    -0.326 N 
ATOM     15  H   UNL A   1      33.158  20.017  23.551  1.00  0.00     0.169 HD
BRANCH  14  16
ATOM     16  C   UNL A   1      32.590  21.862  24.211  1.00  0.00     0.041 A 
ATOM     17  C   UNL A   1      32.553  22.641  23.065  1.00  0.00     0.028 A 
ATOM     18  C   UNL A   1      31.737  22.155  25.271  1.00  0.00     0.028 A 
ATOM     19  C   UNL A   1      31.532  23.564  22.899  1.00  0.00     0.028 A 
ATOM     20  C   UNL A   1      30.844  23.234  25.158  1.00  0.00     0.028 A 
ATOM     21  C   UNL A   1      30.741  23.954  23.959  1.00  0.00     0.041 A 
BRANCH  21  22
ATOM     22  N   UNL A   1      29.847  25.025  23.888  1.00  0.00    -0.326 N 
ATOM     23  C   UNL A   1      29.924  26.363  24.227  1.00  0.00     0.227 C 
ATOM     24  H   UNL A   1      28.972  24.772  23.517  1.00  0.00     0.169 HD
ATOM     25  O   UNL A   1      28.886  27.005  23.980  1.00  0.00    -0.274 OA
BRANCH  23  26
ATOM     26  C   UNL A   1      31.153  27.069  24.864  1.00  0.00     0.079 C 
ATOM     27  C   UNL A   1      31.348  26.728  26.388  1.00  0.00     0.013 C 
ATOM     28  C   UNL A   1      32.642  26.610  24.731  1.00  0.00     0.013 C 
ATOM     29  C   UNL A   1      32.843  26.999  26.200  1.00  0.00     0.002 C 
ENDBRANCH  23  26
ENDBRANCH  21  22
ENDBRANCH  14  16
ENDBRANCH  11  12
ENDBRANCH   4   7
ENDBRANCH   2   3
ENDBRANCH   1   2
BRANCH   1  30
ATOM     30  C   UNL A   1      42.457  22.073  26.448  1.00  0.00     0.023 C 
BRANCH  30  31
ATOM     31  C   UNL A   1      42.937  23.489  26.769  1.00  0.00     0.116 C 
BRANCH  31  32
ATOM     32  N   UNL A   1      42.557  24.462  25.754  1.00  0.00    -0.352 N 
ATOM     33  C   UNL A   1      42.040  25.727  25.914  1.00  0.00     0.251 C 
ATOM     34  H   UNL A   1      42.688  24.174  24.822  1.00  0.00     0.163 HD
ATOM     35  O   UNL A   1      41.633  26.358  24.944  1.00  0.00    -0.269 OA
BRANCH  33  36
ATOM     36  C   UNL A   1      41.955  26.302  27.270  1.00  0.00     0.039 A 
ATOM     37  C   UNL A   1      42.832  27.328  27.628  1.00  0.00     0.014 A 
ATOM     38  C   UNL A   1      40.965  25.866  28.155  1.00  0.00     0.014 A 
ATOM     39  C   UNL A   1      42.652  27.989  28.844  1.00  0.00     0.010 A 
ATOM     40  C   UNL A   1      40.752  26.565  29.338  1.00  0.00     0.010 A 
ATOM     41  C   UNL A   1      41.577  27.648  29.682  1.00  0.00    -0.014 A 
BRANCH  41  42
ATOM     42  C   UNL A   1      41.251  28.447  30.890  1.00  0.00     0.031 A 
ATOM     43  C   UNL A   1      40.141  29.457  30.855  1.00  0.00     0.074 A 
ATOM     44  C   UNL A   1      42.029  28.331  31.986  1.00  0.00     0.049 A 
ATOM     45  N   UNL A   1      39.789  30.323  31.769  1.00  0.00    -0.248 NA
ATOM     46  C   UNL A   1      39.337  29.516  29.624  1.00  0.00     0.031 C 
ATOM     47  C   UNL A   1      43.159  27.410  32.131  1.00  0.00     0.029 A 
ATOM     48  N   UNL A   1      41.997  29.005  33.182  1.00  0.00    -0.354 N 
ATOM     49  C   UNL A   1      38.733  31.042  31.221  1.00  0.00     0.074 A 
ATOM     50  C   UNL A   1      38.530  30.536  29.880  1.00  0.00     0.031 C 
ATOM     51  C   UNL A   1      43.700  27.564  33.350  1.00  0.00     0.029 A 
ATOM     52  C   UNL A   1      42.990  28.626  34.055  1.00  0.00     0.049 A 
ATOM     53  H   UNL A   1      41.327  29.693  33.394  1.00  0.00     0.167 HD
ATOM     54  C   UNL A   1      37.992  32.023  31.789  1.00  0.00     0.031 A 
ATOM     55  C   UNL A   1      43.308  29.092  35.278  1.00  0.00     0.031 A 
ATOM     56  C   UNL A   1      38.197  32.520  33.123  1.00  0.00     0.049 A 
ATOM     57  C   UNL A   1      42.498  30.211  35.870  1.00  0.00     0.074 A 
ATOM     58  C   UNL A   1      37.460  33.469  33.810  1.00  0.00     0.029 A 
ATOM     59  N   UNL A   1      39.218  32.117  33.971  1.00  0.00    -0.354 N 
ATOM     60  N   UNL A   1      41.461  30.833  35.362  1.00  0.00    -0.248 NA
ATOM     61  C   UNL A   1      42.902  30.695  37.198  1.00  0.00     0.031 C 
ATOM     62  C   UNL A   1      38.068  33.678  35.052  1.00  0.00     0.029 A 
ATOM     63  C   UNL A   1      39.152  32.822  35.160  1.00  0.00     0.049 A 
ATOM     64  H   UNL A   1      39.890  31.430  33.757  1.00  0.00     0.167 HD
ATOM     65  C   UNL A   1      41.079  31.771  36.314  1.00  0.00     0.074 A 
ATOM     66  C   UNL A   1      41.985  31.624  37.434  1.00  0.00     0.031 C 
ATOM     67  C   UNL A   1      40.068  32.673  36.262  1.00  0.00     0.031 A 
BRANCH  54  68
ATOM     68  C   UNL A   1      36.894  32.630  30.957  1.00  0.00    -0.014 A 
ATOM     69  C   UNL A   1      37.163  33.673  30.051  1.00  0.00     0.010 A 
ATOM     70  C   UNL A   1      35.582  32.136  31.061  1.00  0.00     0.010 A 
ATOM     71  C   UNL A   1      36.132  34.241  29.300  1.00  0.00     0.020 A 
ATOM     72  C   UNL A   1      34.551  32.685  30.292  1.00  0.00     0.020 A 
ATOM     73  C   UNL A   1      34.830  33.748  29.431  1.00  0.00     0.054 A 
BRANCH  73  74
ATOM     74  S   UNL A   1      33.512  34.501  28.440  1.00  0.00     0.124 S 
ATOM     75  O   UNL A   1      33.052  33.368  27.642  1.00  0.00    -0.237 OA
ATOM     76  O   UNL A   1      32.575  34.974  29.456  1.00  0.00    -0.237 OA
ATOM     77  O   UNL A   1      34.197  35.552  27.692  1.00  0.00    -0.744 OA
ENDBRANCH  73  74
ENDBRANCH  54  68
BRANCH  55  78
ATOM     78  C   UNL A   1      44.453  28.499  36.021  1.00  0.00    -0.014 A 
ATOM     79  C   UNL A   1      44.252  27.400  36.874  1.00  0.00     0.010 A 
ATOM     80  C   UNL A   1      45.753  29.011  35.858  1.00  0.00     0.010 A 
ATOM     81  C   UNL A   1      45.329  26.828  37.556  1.00  0.00     0.020 A 
ATOM     82  C   UNL A   1      46.837  28.425  36.519  1.00  0.00     0.020 A 
ATOM     83  C   UNL A   1      46.616  27.340  37.371  1.00  0.00     0.054 A 
BRANCH  83  84
ATOM     84  S   UNL A   1      48.007  26.536  38.211  1.00  0.00     0.124 S 
ATOM     85  O   UNL A   1      47.631  25.128  38.144  1.00  0.00    -0.237 OA
ATOM     86  O   UNL A   1      49.146  26.929  37.383  1.00  0.00    -0.237 OA
ATOM     87  O   UNL A   1      47.987  27.128  39.547  1.00  0.00    -0.744 OA
ENDBRANCH  83  84
ENDBRANCH  55  78
BRANCH  67  88
ATOM     88  C   UNL A   1      39.879  33.571  37.453  1.00  0.00    -0.014 A 
ATOM     89  C   UNL A   1      40.374  34.887  37.450  1.00  0.00     0.010 A 
ATOM     90  C   UNL A   1      39.129  33.121  38.555  1.00  0.00     0.010 A 
ATOM     91  C   UNL A   1      40.131  35.734  38.534  1.00  0.00     0.020 A 
ATOM     92  C   UNL A   1      38.865  33.972  39.631  1.00  0.00     0.020 A 
ATOM     93  C   UNL A   1      39.374  35.272  39.616  1.00  0.00     0.054 A 
BRANCH  93  94
ATOM     94  S   UNL A   1      39.011  36.415  40.977  1.00  0.00     0.124 S 
ATOM     95  O   UNL A   1      38.016  35.670  41.743  1.00  0.00    -0.237 OA
ATOM     96  O   UNL A   1      40.313  36.572  41.620  1.00  0.00    -0.237 OA
ATOM     97  O   UNL A   1      38.509  37.610  40.301  1.00  0.00    -0.744 OA
ENDBRANCH  93  94
ENDBRANCH  67  88
ENDBRANCH  41  42
ENDBRANCH  33  36
ENDBRANCH  31  32
ENDBRANCH  30  31
ENDBRANCH   1  30
TORSDOF 18
ENDMDL
MODEL 2
REMARK VINA RESULT:     -11.5      1.729      2.596
REMARK SMILES CC1(C)[C@H](C(=O)NCCCCNC(=O)c2ccc(-c3c4nc(c(-c5ccc(S(=O)(=O)[O-])cc5)c5ccc([nH]5)c(-c5ccc(S(=O)(=O)[O-])cc5)c5nc(c(-c6ccc(S(=O)(=O)[O-])cc6)c6ccc3[nH]6)C=C5)C=C4)cc2)[C@@H]1C(=O)Nc1ccc(NC(=O)C2CCC2)cc1
REMARK SMILES IDX 9 1 8 2 7 3 5 4 6 5 4 7 1 8 2 9 3 10 75 11 76 12 77 13 78 14
REMARK SMILES IDX 79 16 80 17 91 18 81 19 90 20 82 21 83 22 84 23 85 25 86 26
REMARK SMILES IDX 87 27 89 28 88 29 10 30 11 31 12 32 13 33 14 35 15 36 16 37
REMARK SMILES IDX 74 38 17 39 73 40 18 41 19 42 20 43 67 44 21 45 72 46 66 47
REMARK SMILES IDX 68 48 22 49 71 50 65 51 64 52 23 54 53 55 34 56 52 57 35 58
REMARK SMILES IDX 38 59 51 60 69 61 36 62 37 63 50 65 70 66 39 67 24 68 25 69
REMARK SMILES IDX 33 70 26 71 32 72 27 73 28 74 29 75 30 76 31 77 54 78 55 79
REMARK SMILES IDX 63 80 56 81 62 82 57 83 58 84 59 85 60 86 61 87 40 88 41 89
REMARK SMILES IDX 49 90 42 91 48 92 43 93 44 94 45 95 46 96 47 97
REMARK H PARENT 7 6 78 15 83 24 12 34 68 53 38 64
REMARK Flexibility Score: inf
ROOT
ATOM      1  C   UNL A   1      38.153  22.276  25.814  1.00  0.00     0.023 C 
ENDROOT
BRANCH   1   2
ATOM      2  C   UNL A   1      37.686  21.061  25.018  1.00  0.00     0.116 C 
BRANCH   2   3
ATOM      3  N   UNL A   1      36.322  20.708  25.347  1.00  0.00    -0.356 N 
ATOM      4  C   UNL A   1      35.088  21.202  25.043  1.00  0.00     0.224 C 
ATOM      5  O   UNL A   1      34.143  20.591  25.549  1.00  0.00    -0.275 OA
ATOM      6  H   UNL A   1      36.273  19.920  25.932  1.00  0.00     0.163 HD
BRANCH   4   7
ATOM      7  C   UNL A   1      34.730  22.363  24.190  1.00  0.00     0.098 C 
ATOM      8  C   UNL A   1      33.298  22.959  22.145  1.00  0.00     0.013 C 
ATOM      9  C   UNL A   1      33.356  22.703  23.636  1.00  0.00    -0.011 C 
ATOM     10  C   UNL A   1      32.128  21.980  24.129  1.00  0.00     0.013 C 
ATOM     11  C   UNL A   1      34.155  23.711  24.492  1.00  0.00     0.098 C 
BRANCH  11  12
ATOM     12  C   UNL A   1      33.742  24.237  25.807  1.00  0.00     0.228 C 
ATOM     13  O   UNL A   1      34.136  23.699  26.838  1.00  0.00    -0.274 OA
ATOM     14  N   UNL A   1      32.869  25.300  25.888  1.00  0.00    -0.326 N 
ATOM     15  H   UNL A   1      32.461  25.472  26.768  1.00  0.00     0.169 HD
BRANCH  14  16
ATOM     16  C   UNL A   1      32.506  26.159  24.847  1.00  0.00     0.041 A 
ATOM     17  C   UNL A   1      31.258  25.934  24.287  1.00  0.00     0.028 A 
ATOM     18  C   UNL A   1      33.255  27.260  24.441  1.00  0.00     0.028 A 
ATOM     19  C   UNL A   1      30.680  26.911  23.492  1.00  0.00     0.028 A 
ATOM     20  C   UNL A   1      32.729  28.131  23.472  1.00  0.00     0.028 A 
ATOM     21  C   UNL A   1      31.426  27.955  22.985  1.00  0.00     0.041 A 
BRANCH  21  22
ATOM     22  N   UNL A   1      30.941  28.838  22.017  1.00  0.00    -0.326 N 
ATOM     23  C   UNL A   1      29.950  29.801  22.008  1.00  0.00     0.227 C 
ATOM     24  H   UNL A   1      31.405  28.756  21.154  1.00  0.00     0.169 HD
ATOM     25  O   UNL A   1      29.842  30.402  20.923  1.00  0.00    -0.274 OA
BRANCH  23  26
ATOM     26  C   UNL A   1      29.014  30.152  23.198  1.00  0.00     0.079 C 
ATOM     27  C   UNL A   1      28.678  31.687  23.296  1.00  0.00     0.013 C 
ATOM     28  C   UNL A   1      27.461  29.969  23.225  1.00  0.00     0.013 C 
ATOM     29  C   UNL A   1      27.366  31.298  23.983  1.00  0.00     0.002 C 
ENDBRANCH  23  26
ENDBRANCH  21  22
ENDBRANCH  14  16
ENDBRANCH  11  12
ENDBRANCH   4   7
ENDBRANCH   2   3
ENDBRANCH   1   2
BRANCH   1  30
ATOM     30  C   UNL A   1      39.515  22.099  26.496  1.00  0.00     0.023 C 
BRANCH  30  31
ATOM     31  C   UNL A   1      40.116  23.365  27.108  1.00  0.00     0.116 C 
BRANCH  31  32
ATOM     32  N   UNL A   1      40.594  24.309  26.107  1.00  0.00    -0.352 N 
ATOM     33  C   UNL A   1      40.877  25.648  26.242  1.00  0.00     0.251 C 
ATOM     34  H   UNL A   1      40.734  23.937  25.207  1.00  0.00     0.163 HD
ATOM     35  O   UNL A   1      41.128  26.333  25.255  1.00  0.00    -0.269 OA
BRANCH  33  36
ATOM     36  C   UNL A   1      40.846  26.257  27.586  1.00  0.00     0.039 A 
ATOM     37  C   UNL A   1      41.948  26.997  28.021  1.00  0.00     0.014 A 
ATOM     38  C   UNL A   1      39.701  26.145  28.380  1.00  0.00     0.014 A 
ATOM     39  C   UNL A   1      41.863  27.712  29.217  1.00  0.00     0.010 A 
ATOM     40  C   UNL A   1      39.599  26.905  29.540  1.00  0.00     0.010 A 
ATOM     41  C   UNL A   1      40.668  27.715  29.956  1.00  0.00    -0.014 A 
BRANCH  41  42
ATOM     42  C   UNL A   1      40.485  28.603  31.131  1.00  0.00     0.031 A 
ATOM     43  C   UNL A   1      39.477  29.715  31.092  1.00  0.00     0.074 A 
ATOM     44  C   UNL A   1      41.304  28.467  32.194  1.00  0.00     0.049 A 
ATOM     45  N   UNL A   1      39.258  30.657  31.972  1.00  0.00    -0.248 NA
ATOM     46  C   UNL A   1      38.617  29.789  29.900  1.00  0.00     0.031 C 
ATOM     47  C   UNL A   1      42.347  27.447  32.337  1.00  0.00     0.029 A 
ATOM     48  N   UNL A   1      41.401  29.201  33.350  1.00  0.00    -0.354 N 
ATOM     49  C   UNL A   1      38.249  31.447  31.435  1.00  0.00     0.074 A 
ATOM     50  C   UNL A   1      37.927  30.896  30.136  1.00  0.00     0.031 C 
ATOM     51  C   UNL A   1      42.964  27.610  33.518  1.00  0.00     0.029 A 
ATOM     52  C   UNL A   1      42.397  28.772  34.195  1.00  0.00     0.049 A 
ATOM     53  H   UNL A   1      40.812  29.963  33.554  1.00  0.00     0.167 HD
ATOM     54  C   UNL A   1      37.636  32.525  31.981  1.00  0.00     0.031 A 
ATOM     55  C   UNL A   1      42.823  29.267  35.373  1.00  0.00     0.031 A 
ATOM     56  C   UNL A   1      37.958  33.067  33.274  1.00  0.00     0.049 A 
ATOM     57  C   UNL A   1      42.157  30.489  35.939  1.00  0.00     0.074 A 
ATOM     58  C   UNL A   1      37.353  34.118  33.940  1.00  0.00     0.029 A 
ATOM     59  N   UNL A   1      38.979  32.609  34.094  1.00  0.00    -0.354 N 
ATOM     60  N   UNL A   1      41.158  31.183  35.446  1.00  0.00    -0.248 NA
ATOM     61  C   UNL A   1      42.675  30.998  37.217  1.00  0.00     0.031 C 
ATOM     62  C   UNL A   1      38.043  34.330  35.139  1.00  0.00     0.029 A 
ATOM     63  C   UNL A   1      39.044  33.378  35.243  1.00  0.00     0.049 A 
ATOM     64  H   UNL A   1      39.570  31.849  33.887  1.00  0.00     0.167 HD
ATOM     65  C   UNL A   1      40.920  32.202  36.361  1.00  0.00     0.074 A 
ATOM     66  C   UNL A   1      41.865  32.024  37.444  1.00  0.00     0.031 C 
ATOM     67  C   UNL A   1      39.998  33.195  36.307  1.00  0.00     0.031 A 
BRANCH  54  68
ATOM     68  C   UNL A   1      36.559  33.194  31.170  1.00  0.00    -0.014 A 
ATOM     69  C   UNL A   1      36.868  33.876  29.978  1.00  0.00     0.010 A 
ATOM     70  C   UNL A   1      35.218  33.118  31.587  1.00  0.00     0.010 A 
ATOM     71  C   UNL A   1      35.862  34.510  29.246  1.00  0.00     0.020 A 
ATOM     72  C   UNL A   1      34.205  33.729  30.843  1.00  0.00     0.020 A 
ATOM     73  C   UNL A   1      34.537  34.438  29.686  1.00  0.00     0.054 A 
BRANCH  73  74
ATOM     74  S   UNL A   1      33.251  35.266  28.713  1.00  0.00     0.124 S 
ATOM     75  O   UNL A   1      34.042  36.155  27.866  1.00  0.00    -0.237 OA
ATOM     76  O   UNL A   1      32.603  34.154  28.023  1.00  0.00    -0.237 OA
ATOM     77  O   UNL A   1      32.430  35.935  29.720  1.00  0.00    -0.744 OA
ENDBRANCH  73  74
ENDBRANCH  54  68
BRANCH  55  78
ATOM     78  C   UNL A   1      43.943  28.603  36.093  1.00  0.00    -0.014 A 
ATOM     79  C   UNL A   1      43.689  27.529  36.964  1.00  0.00     0.010 A 
ATOM     80  C   UNL A   1      45.271  29.020  35.890  1.00  0.00     0.010 A 
ATOM     81  C   UNL A   1      44.741  26.889  37.625  1.00  0.00     0.020 A 
ATOM     82  C   UNL A   1      46.329  28.366  36.530  1.00  0.00     0.020 A 
ATOM     83  C   UNL A   1      46.055  27.309  37.400  1.00  0.00     0.054 A 
BRANCH  83  84
ATOM     84  S   UNL A   1      47.410  26.418  38.214  1.00  0.00     0.124 S 
ATOM     85  O   UNL A   1      48.579  27.170  37.770  1.00  0.00    -0.237 OA
ATOM     86  O   UNL A   1      47.070  26.551  39.629  1.00  0.00    -0.237 OA
ATOM     87  O   UNL A   1      47.296  25.062  37.680  1.00  0.00    -0.744 OA
ENDBRANCH  83  84
ENDBRANCH  55  78
BRANCH  67  88
ATOM     88  C   UNL A   1      39.960  34.168  37.453  1.00  0.00    -0.014 A 
ATOM     89  C   UNL A   1      40.600  35.416  37.362  1.00  0.00     0.010 A 
ATOM     90  C   UNL A   1      39.207  33.863  38.603  1.00  0.00     0.010 A 
ATOM     91  C   UNL A   1      40.498  36.339  38.406  1.00  0.00     0.020 A 
ATOM     92  C   UNL A   1      39.084  34.792  39.638  1.00  0.00     0.020 A 
ATOM     93  C   UNL A   1      39.736  36.023  39.536  1.00  0.00     0.054 A 
BRANCH  93  94
ATOM     94  S   UNL A   1      39.559  37.267  40.844  1.00  0.00     0.124 S 
ATOM     95  O   UNL A   1      38.718  38.271  40.197  1.00  0.00    -0.237 OA
ATOM     96  O   UNL A   1      38.922  36.512  41.921  1.00  0.00    -0.237 OA
ATOM     97  O   UNL A   1      40.933  37.685  41.113  1.00  0.00    -0.744 OA
ENDBRANCH  93  94
ENDBRANCH  67  88
ENDBRANCH  41  42
ENDBRANCH  33  36
ENDBRANCH  31  32
ENDBRANCH  30  31
ENDBRANCH   1  30
TORSDOF 18
ENDMDL
MODEL 3
REMARK VINA RESULT:     -11.4      4.287      9.419
REMARK SMILES CC1(C)[C@H](C(=O)NCCCCNC(=O)c2ccc(-c3c4nc(c(-c5ccc(S(=O)(=O)[O-])cc5)c5ccc([nH]5)c(-c5ccc(S(=O)(=O)[O-])cc5)c5nc(c(-c6ccc(S(=O)(=O)[O-])cc6)c6ccc3[nH]6)C=C5)C=C4)cc2)[C@@H]1C(=O)Nc1ccc(NC(=O)C2CCC2)cc1
REMARK SMILES IDX 9 1 8 2 7 3 5 4 6 5 4 7 1 8 2 9 3 10 75 11 76 12 77 13 78 14
REMARK SMILES IDX 79 16 80 17 91 18 81 19 90 20 82 21 83 22 84 23 85 25 86 26
REMARK SMILES IDX 87 27 89 28 88 29 10 30 11 31 12 32 13 33 14 35 15 36 16 37
REMARK SMILES IDX 74 38 17 39 73 40 18 41 19 42 20 43 67 44 21 45 72 46 66 47
REMARK SMILES IDX 68 48 22 49 71 50 65 51 64 52 23 54 53 55 34 56 52 57 35 58
REMARK SMILES IDX 38 59 51 60 69 61 36 62 37 63 50 65 70 66 39 67 24 68 25 69
REMARK SMILES IDX 33 70 26 71 32 72 27 73 28 74 29 75 30 76 31 77 54 78 55 79
REMARK SMILES IDX 63 80 56 81 62 82 57 83 58 84 59 85 60 86 61 87 40 88 41 89
REMARK SMILES IDX 49 90 42 91 48 92 43 93 44 94 45 95 46 96 47 97
REMARK H PARENT 7 6 78 15 83 24 12 34 68 53 38 64
REMARK Flexibility Score: inf
ROOT
ATOM      1  C   UNL A   1      34.002  26.588  26.212  1.00  0.00     0.023 C 
ENDROOT
BRANCH   1   2
ATOM      2  C   UNL A   1      34.111  25.954  24.828  1.00  0.00     0.116 C 
BRANCH   2   3
ATOM      3  N   UNL A   1      34.871  24.724  24.871  1.00  0.00    -0.356 N 
ATOM      4  C   UNL A   1      34.594  23.400  24.702  1.00  0.00     0.224 C 
ATOM      5  O   UNL A   1      35.560  22.644  24.831  1.00  0.00    -0.275 OA
ATOM      6  H   UNL A   1      35.822  24.882  25.070  1.00  0.00     0.163 HD
BRANCH   4   7
ATOM      7  C   UNL A   1      33.297  22.751  24.382  1.00  0.00     0.098 C 
ATOM      8  C   UNL A   1      32.311  20.444  23.843  1.00  0.00     0.013 C 
ATOM      9  C   UNL A   1      32.790  21.415  24.900  1.00  0.00    -0.011 C 
ATOM     10  C   UNL A   1      33.498  20.710  26.029  1.00  0.00     0.013 C 
ATOM     11  C   UNL A   1      31.975  22.715  25.083  1.00  0.00     0.098 C 
BRANCH  11  12
ATOM     12  C   UNL A   1      31.627  23.335  26.375  1.00  0.00     0.228 C 
ATOM     13  O   UNL A   1      31.934  22.783  27.428  1.00  0.00    -0.274 OA
ATOM     14  N   UNL A   1      30.906  24.509  26.411  1.00  0.00    -0.326 N 
ATOM     15  H   UNL A   1      30.517  24.764  27.279  1.00  0.00     0.169 HD
BRANCH  14  16
ATOM     16  C   UNL A   1      30.673  25.375  25.339  1.00  0.00     0.041 A 
ATOM     17  C   UNL A   1      30.623  26.724  25.654  1.00  0.00     0.028 A 
ATOM     18  C   UNL A   1      30.610  24.976  24.006  1.00  0.00     0.028 A 
ATOM     19  C   UNL A   1      30.723  27.666  24.642  1.00  0.00     0.028 A 
ATOM     20  C   UNL A   1      30.504  25.951  23.000  1.00  0.00     0.028 A 
ATOM     21  C   UNL A   1      30.556  27.315  23.319  1.00  0.00     0.041 A 
BRANCH  21  22
ATOM     22  N   UNL A   1      30.440  28.255  22.291  1.00  0.00    -0.326 N 
ATOM     23  C   UNL A   1      29.799  29.473  22.174  1.00  0.00     0.227 C 
ATOM     24  H   UNL A   1      30.917  27.991  21.472  1.00  0.00     0.169 HD
ATOM     25  O   UNL A   1      29.962  30.023  21.068  1.00  0.00    -0.274 OA
BRANCH  23  26
ATOM     26  C   UNL A   1      28.935  30.155  23.271  1.00  0.00     0.079 C 
ATOM     27  C   UNL A   1      28.714  31.693  23.027  1.00  0.00     0.013 C 
ATOM     28  C   UNL A   1      27.375  30.105  23.367  1.00  0.00     0.013 C 
ATOM     29  C   UNL A   1      27.403  31.572  23.808  1.00  0.00     0.002 C 
ENDBRANCH  23  26
ENDBRANCH  21  22
ENDBRANCH  14  16
ENDBRANCH  11  12
ENDBRANCH   4   7
ENDBRANCH   2   3
ENDBRANCH   1   2
BRANCH   1  30
ATOM     30  C   UNL A   1      33.945  28.121  26.201  1.00  0.00     0.023 C 
BRANCH  30  31
ATOM     31  C   UNL A   1      33.282  28.765  27.419  1.00  0.00     0.116 C 
BRANCH  31  32
ATOM     32  N   UNL A   1      33.453  30.212  27.460  1.00  0.00    -0.352 N 
ATOM     33  C   UNL A   1      34.545  30.945  27.864  1.00  0.00     0.251 C 
ATOM     34  H   UNL A   1      32.679  30.738  27.158  1.00  0.00     0.163 HD
ATOM     35  O   UNL A   1      34.466  32.164  27.978  1.00  0.00    -0.269 OA
BRANCH  33  36
ATOM     36  C   UNL A   1      35.803  30.244  28.186  1.00  0.00     0.039 A 
ATOM     37  C   UNL A   1      36.809  30.178  27.220  1.00  0.00     0.014 A 
ATOM     38  C   UNL A   1      36.002  29.713  29.463  1.00  0.00     0.014 A 
ATOM     39  C   UNL A   1      38.060  29.665  27.568  1.00  0.00     0.010 A 
ATOM     40  C   UNL A   1      37.266  29.257  29.823  1.00  0.00     0.010 A 
ATOM     41  C   UNL A   1      38.312  29.252  28.887  1.00  0.00    -0.014 A 
BRANCH  41  42
ATOM     42  C   UNL A   1      39.676  28.872  29.333  1.00  0.00     0.031 A 
ATOM     43  C   UNL A   1      40.545  29.866  30.048  1.00  0.00     0.074 A 
ATOM     44  C   UNL A   1      40.165  27.661  28.998  1.00  0.00     0.049 A 
ATOM     45  N   UNL A   1      41.797  29.754  30.409  1.00  0.00    -0.248 NA
ATOM     46  C   UNL A   1      39.933  31.162  30.382  1.00  0.00     0.031 C 
ATOM     47  C   UNL A   1      39.431  26.620  28.274  1.00  0.00     0.029 A 
ATOM     48  N   UNL A   1      41.403  27.105  29.208  1.00  0.00    -0.354 N 
ATOM     49  C   UNL A   1      42.129  30.968  30.997  1.00  0.00     0.074 A 
ATOM     50  C   UNL A   1      40.959  31.815  30.909  1.00  0.00     0.031 C 
ATOM     51  C   UNL A   1      40.225  25.549  28.116  1.00  0.00     0.029 A 
ATOM     52  C   UNL A   1      41.538  25.842  28.683  1.00  0.00     0.049 A 
ATOM     53  H   UNL A   1      42.125  27.568  29.690  1.00  0.00     0.167 HD
ATOM     54  C   UNL A   1      43.299  31.338  31.572  1.00  0.00     0.031 A 
ATOM     55  C   UNL A   1      42.602  25.017  28.641  1.00  0.00     0.031 A 
ATOM     56  C   UNL A   1      44.459  30.491  31.660  1.00  0.00     0.049 A 
ATOM     57  C   UNL A   1      43.902  25.466  29.247  1.00  0.00     0.074 A 
ATOM     58  C   UNL A   1      45.670  30.752  32.276  1.00  0.00     0.029 A 
ATOM     59  N   UNL A   1      44.557  29.222  31.107  1.00  0.00    -0.354 N 
ATOM     60  N   UNL A   1      44.177  26.593  29.859  1.00  0.00    -0.248 NA
ATOM     61  C   UNL A   1      45.035  24.534  29.156  1.00  0.00     0.031 C 
ATOM     62  C   UNL A   1      46.519  29.663  32.050  1.00  0.00     0.029 A 
ATOM     63  C   UNL A   1      45.819  28.702  31.338  1.00  0.00     0.049 A 
ATOM     64  H   UNL A   1      43.835  28.760  30.622  1.00  0.00     0.167 HD
ATOM     65  C   UNL A   1      45.512  26.501  30.237  1.00  0.00     0.074 A 
ATOM     66  C   UNL A   1      45.982  25.202  29.802  1.00  0.00     0.031 C 
ATOM     67  C   UNL A   1      46.277  27.412  30.888  1.00  0.00     0.031 A 
BRANCH  54  68
ATOM     68  C   UNL A   1      43.381  32.728  32.142  1.00  0.00    -0.014 A 
ATOM     69  C   UNL A   1      43.009  32.990  33.474  1.00  0.00     0.010 A 
ATOM     70  C   UNL A   1      43.862  33.783  31.346  1.00  0.00     0.010 A 
ATOM     71  C   UNL A   1      43.071  34.288  33.983  1.00  0.00     0.020 A 
ATOM     72  C   UNL A   1      43.951  35.080  31.861  1.00  0.00     0.020 A 
ATOM     73  C   UNL A   1      43.535  35.327  33.171  1.00  0.00     0.054 A 
BRANCH  73  74
ATOM     74  S   UNL A   1      43.609  37.003  33.861  1.00  0.00     0.124 S 
ATOM     75  O   UNL A   1      43.664  37.822  32.652  1.00  0.00    -0.237 OA
ATOM     76  O   UNL A   1      42.368  37.092  34.625  1.00  0.00    -0.237 OA
ATOM     77  O   UNL A   1      44.831  36.994  34.662  1.00  0.00    -0.744 OA
ENDBRANCH  73  74
ENDBRANCH  54  68
BRANCH  55  78
ATOM     78  C   UNL A   1      42.478  23.682  27.997  1.00  0.00    -0.014 A 
ATOM     79  C   UNL A   1      42.882  23.497  26.663  1.00  0.00     0.010 A 
ATOM     80  C   UNL A   1      41.982  22.581  28.720  1.00  0.00     0.010 A 
ATOM     81  C   UNL A   1      42.787  22.239  26.063  1.00  0.00     0.020 A 
ATOM     82  C   UNL A   1      41.909  21.316  28.131  1.00  0.00     0.020 A 
ATOM     83  C   UNL A   1      42.306  21.155  26.802  1.00  0.00     0.054 A 
BRANCH  83  84
ATOM     84  S   UNL A   1      42.258  19.517  26.023  1.00  0.00     0.124 S 
ATOM     85  O   UNL A   1      42.783  18.661  27.082  1.00  0.00    -0.237 OA
ATOM     86  O   UNL A   1      40.837  19.353  25.721  1.00  0.00    -0.237 OA
ATOM     87  O   UNL A   1      43.121  19.670  24.853  1.00  0.00    -0.744 OA
ENDBRANCH  83  84
ENDBRANCH  55  78
BRANCH  67  88
ATOM     88  C   UNL A   1      47.704  27.038  31.177  1.00  0.00    -0.014 A 
ATOM     89  C   UNL A   1      48.038  26.293  32.320  1.00  0.00     0.010 A 
ATOM     90  C   UNL A   1      48.712  27.366  30.251  1.00  0.00     0.010 A 
ATOM     91  C   UNL A   1      49.358  25.892  32.541  1.00  0.00     0.020 A 
ATOM     92  C   UNL A   1      50.029  26.948  30.456  1.00  0.00     0.020 A 
ATOM     93  C   UNL A   1      50.345  26.218  31.604  1.00  0.00     0.054 A 
BRANCH  93  94
ATOM     94  S   UNL A   1      52.036  25.623  31.876  1.00  0.00     0.124 S 
ATOM     95  O   UNL A   1      52.382  26.257  33.146  1.00  0.00    -0.237 OA
ATOM     96  O   UNL A   1      51.862  24.173  31.926  1.00  0.00    -0.237 OA
ATOM     97  O   UNL A   1      52.770  26.117  30.713  1.00  0.00    -0.744 OA
ENDBRANCH  93  94
ENDBRANCH  67  88
ENDBRANCH  41  42
ENDBRANCH  33  36
ENDBRANCH  31  32
ENDBRANCH  30  31
ENDBRANCH   1  30
TORSDOF 18
ENDMDL
