MODEL 1
REMARK VINA RESULT:     -10.3      0.000      0.000
REMARK SMILES Cc1cc(Cl)ccc1OCC(=O)Nc1ccc(CC(=O)NCCCCNC(=O)c2ccc(-c3c4nc(c(-c5ccc(S(=O)(=O)[O-])cc5)c5ccc([nH]5)c(-c5ccc(S(=O)(=O)[O-])cc5)c5nc(c(-c6ccc(S(=O)(=O)[O-])cc6)c6ccc3[nH]6)C=C5)C=C4)cc2)cc1
REMARK SMILES IDX 22 1 21 2 19 3 20 4 18 6 17 7 14 8 15 9 90 10 16 11 89 12
REMARK SMILES IDX 13 13 11 14 12 15 10 17 9 18 8 19 1 20 2 21 3 22 4 23 7 24
REMARK SMILES IDX 5 25 6 26 23 27 24 28 25 29 26 30 27 31 28 33 29 34 30 35
REMARK SMILES IDX 88 36 31 37 87 38 32 39 33 40 34 41 81 42 35 43 86 44 80 45
REMARK SMILES IDX 82 46 36 47 85 48 79 49 78 50 37 52 67 53 48 54 66 55 49 56
REMARK SMILES IDX 52 57 65 58 83 59 50 60 51 61 64 63 84 64 53 65 38 66 39 67
REMARK SMILES IDX 47 68 40 69 46 70 41 71 42 72 43 73 44 74 45 75 68 76 69 77
REMARK SMILES IDX 77 78 70 79 76 80 71 81 72 82 73 83 74 84 75 85 54 86 55 87
REMARK SMILES IDX 63 88 56 89 62 90 57 91 58 92 59 93 60 94 61 95
REMARK H PARENT 21 5 13 16 26 32 82 51 52 62
REMARK Flexibility Score: inf
ROOT
ATOM      1  C   UNL A   1      31.655  28.442  26.301  1.00  0.00     0.116 C 
ENDROOT
BRANCH   1   2
ATOM      2  N   UNL A   1      31.989  28.672  24.907  1.00  0.00    -0.356 N 
ATOM      3  C   UNL A   1      32.180  27.766  23.903  1.00  0.00     0.224 C 
ATOM      4  O   UNL A   1      32.521  28.177  22.793  1.00  0.00    -0.275 OA
ATOM      5  H   UNL A   1      32.093  29.616  24.648  1.00  0.00     0.163 HD
BRANCH   3   6
ATOM      6  C   UNL A   1      31.925  26.291  24.144  1.00  0.00     0.135 C 
BRANCH   6   7
ATOM      7  C   UNL A   1      33.170  25.444  24.156  1.00  0.00    -0.039 A 
ATOM      8  C   UNL A   1      35.444  23.790  24.161  1.00  0.00     0.041 A 
ATOM      9  C   UNL A   1      35.207  24.664  25.226  1.00  0.00     0.026 A 
ATOM     10  C   UNL A   1      34.511  23.713  23.137  1.00  0.00     0.026 A 
ATOM     11  C   UNL A   1      34.084  25.498  25.216  1.00  0.00     0.006 A 
ATOM     12  C   UNL A   1      33.404  24.551  23.110  1.00  0.00     0.006 A 
BRANCH   8  13
ATOM     13  N   UNL A   1      36.605  23.009  24.191  1.00  0.00    -0.323 N 
ATOM     14  C   UNL A   1      36.966  21.971  25.007  1.00  0.00     0.262 C 
ATOM     15  O   UNL A   1      38.079  21.468  24.819  1.00  0.00    -0.271 OA
ATOM     16  H   UNL A   1      37.275  23.246  23.511  1.00  0.00     0.170 HD
BRANCH  14  17
ATOM     17  C   UNL A   1      35.959  21.307  25.979  1.00  0.00     0.329 C 
BRANCH  17  18
ATOM     18  O   UNL A   1      34.733  20.687  25.651  1.00  0.00    -0.483 OA
BRANCH  18  19
ATOM     19  C   UNL A   1      33.546  21.338  25.800  1.00  0.00     0.123 A 
ATOM     20  C   UNL A   1      32.458  20.731  23.547  1.00  0.00     0.048 C 
ATOM     21  C   UNL A   1      32.482  21.387  24.894  1.00  0.00    -0.007 A 
ATOM     22  C   UNL A   1      31.343  22.150  25.235  1.00  0.00     0.027 A 
ATOM     23  C   UNL A   1      31.294  22.899  26.409  1.00  0.00     0.041 A 
ATOM     24  C   UNL A   1      33.495  22.130  26.964  1.00  0.00     0.048 A 
ATOM     25  Cl  UNL A   1      29.910  23.857  26.760  1.00  0.00    -0.084 Cl
ATOM     26  C   UNL A   1      32.376  22.902  27.276  1.00  0.00     0.024 A 
ENDBRANCH  18  19
ENDBRANCH  17  18
ENDBRANCH  14  17
ENDBRANCH   8  13
ENDBRANCH   6   7
ENDBRANCH   3   6
ENDBRANCH   1   2
BRANCH   1  27
ATOM     27  C   UNL A   1      32.387  29.411  27.231  1.00  0.00     0.023 C 
BRANCH  27  28
ATOM     28  C   UNL A   1      32.259  30.885  26.835  1.00  0.00     0.023 C 
BRANCH  28  29
ATOM     29  C   UNL A   1      33.370  31.791  27.351  1.00  0.00     0.116 C 
BRANCH  29  30
ATOM     30  N   UNL A   1      32.914  33.138  27.650  1.00  0.00    -0.352 N 
ATOM     31  C   UNL A   1      33.386  34.017  28.594  1.00  0.00     0.251 C 
ATOM     32  H   UNL A   1      32.164  33.465  27.102  1.00  0.00     0.163 HD
ATOM     33  O   UNL A   1      32.791  35.074  28.795  1.00  0.00    -0.269 OA
BRANCH  31  34
ATOM     34  C   UNL A   1      34.585  33.675  29.391  1.00  0.00     0.039 A 
ATOM     35  C   UNL A   1      34.444  32.811  30.479  1.00  0.00     0.014 A 
ATOM     36  C   UNL A   1      35.844  34.190  29.066  1.00  0.00     0.014 A 
ATOM     37  C   UNL A   1      35.572  32.423  31.204  1.00  0.00     0.010 A 
ATOM     38  C   UNL A   1      36.977  33.737  29.739  1.00  0.00     0.010 A 
ATOM     39  C   UNL A   1      36.854  32.854  30.820  1.00  0.00    -0.014 A 
BRANCH  39  40
ATOM     40  C   UNL A   1      38.064  32.383  31.546  1.00  0.00     0.031 A 
ATOM     41  C   UNL A   1      38.916  31.280  30.974  1.00  0.00     0.074 A 
ATOM     42  C   UNL A   1      38.386  32.939  32.731  1.00  0.00     0.049 A 
ATOM     43  N   UNL A   1      40.013  30.754  31.456  1.00  0.00    -0.248 NA
ATOM     44  C   UNL A   1      38.471  30.676  29.707  1.00  0.00     0.031 C 
ATOM     45  C   UNL A   1      37.619  33.985  33.415  1.00  0.00     0.029 A 
ATOM     46  N   UNL A   1      39.450  32.711  33.569  1.00  0.00    -0.354 N 
ATOM     47  C   UNL A   1      40.393  29.769  30.551  1.00  0.00     0.074 A 
ATOM     48  C   UNL A   1      39.370  29.719  29.530  1.00  0.00     0.031 C 
ATOM     49  C   UNL A   1      38.262  34.338  34.540  1.00  0.00     0.029 A 
ATOM     50  C   UNL A   1      39.460  33.520  34.682  1.00  0.00     0.049 A 
ATOM     51  H   UNL A   1      40.141  32.033  33.390  1.00  0.00     0.167 HD
ATOM     52  C   UNL A   1      41.507  28.997  30.549  1.00  0.00     0.031 A 
ATOM     53  C   UNL A   1      40.337  33.596  35.702  1.00  0.00     0.031 A 
ATOM     54  C   UNL A   1      42.523  29.044  31.567  1.00  0.00     0.049 A 
ATOM     55  C   UNL A   1      41.547  32.699  35.694  1.00  0.00     0.074 A 
ATOM     56  C   UNL A   1      43.698  28.316  31.644  1.00  0.00     0.029 A 
ATOM     57  N   UNL A   1      42.488  29.865  32.685  1.00  0.00    -0.354 N 
ATOM     58  N   UNL A   1      41.915  31.814  34.797  1.00  0.00    -0.248 NA
ATOM     59  C   UNL A   1      42.469  32.822  36.832  1.00  0.00     0.031 C 
ATOM     60  C   UNL A   1      44.350  28.662  32.832  1.00  0.00     0.029 A 
ATOM     61  C   UNL A   1      43.613  29.650  33.464  1.00  0.00     0.049 A 
ATOM     62  H   UNL A   1      41.769  30.504  32.893  1.00  0.00     0.167 HD
ATOM     63  C   UNL A   1      43.129  31.304  35.245  1.00  0.00     0.074 A 
ATOM     64  C   UNL A   1      43.442  31.995  36.479  1.00  0.00     0.031 C 
ATOM     65  C   UNL A   1      43.914  30.349  34.687  1.00  0.00     0.031 A 
BRANCH  52  66
ATOM     66  C   UNL A   1      41.694  28.046  29.394  1.00  0.00    -0.014 A 
ATOM     67  C   UNL A   1      42.548  28.374  28.325  1.00  0.00     0.010 A 
ATOM     68  C   UNL A   1      41.060  26.790  29.401  1.00  0.00     0.010 A 
ATOM     69  C   UNL A   1      42.738  27.479  27.269  1.00  0.00     0.020 A 
ATOM     70  C   UNL A   1      41.271  25.880  28.361  1.00  0.00     0.020 A 
ATOM     71  C   UNL A   1      42.100  26.236  27.295  1.00  0.00     0.054 A 
BRANCH  71  72
ATOM     72  S   UNL A   1      42.399  25.082  25.929  1.00  0.00     0.124 S 
ATOM     73  O   UNL A   1      42.387  25.973  24.772  1.00  0.00    -0.237 OA
ATOM     74  O   UNL A   1      43.702  24.515  26.269  1.00  0.00    -0.237 OA
ATOM     75  O   UNL A   1      41.277  24.150  26.008  1.00  0.00    -0.744 OA
ENDBRANCH  71  72
ENDBRANCH  52  66
BRANCH  53  76
ATOM     76  C   UNL A   1      40.121  34.563  36.816  1.00  0.00    -0.014 A 
ATOM     77  C   UNL A   1      39.242  34.258  37.871  1.00  0.00     0.010 A 
ATOM     78  C   UNL A   1      40.765  35.813  36.807  1.00  0.00     0.010 A 
ATOM     79  C   UNL A   1      38.974  35.201  38.867  1.00  0.00     0.020 A 
ATOM     80  C   UNL A   1      40.529  36.745  37.821  1.00  0.00     0.020 A 
ATOM     81  C   UNL A   1      39.616  36.441  38.833  1.00  0.00     0.054 A 
BRANCH  81  82
ATOM     82  S   UNL A   1      39.257  37.650  40.137  1.00  0.00     0.124 S 
ATOM     83  O   UNL A   1      40.519  38.377  40.232  1.00  0.00    -0.237 OA
ATOM     84  O   UNL A   1      38.136  38.398  39.575  1.00  0.00    -0.237 OA
ATOM     85  O   UNL A   1      38.924  36.818  41.292  1.00  0.00    -0.744 OA
ENDBRANCH  81  82
ENDBRANCH  53  76
BRANCH  65  86
ATOM     86  C   UNL A   1      45.212  30.030  35.385  1.00  0.00    -0.014 A 
ATOM     87  C   UNL A   1      46.396  30.728  35.087  1.00  0.00     0.010 A 
ATOM     88  C   UNL A   1      45.238  29.029  36.373  1.00  0.00     0.010 A 
ATOM     89  C   UNL A   1      47.592  30.395  35.726  1.00  0.00     0.020 A 
ATOM     90  C   UNL A   1      46.425  28.716  37.040  1.00  0.00     0.020 A 
ATOM     91  C   UNL A   1      47.600  29.387  36.697  1.00  0.00     0.054 A 
BRANCH  91  92
ATOM     92  S   UNL A   1      49.163  28.986  37.524  1.00  0.00     0.124 S 
ATOM     93  O   UNL A   1      48.701  28.364  38.762  1.00  0.00    -0.237 OA
ATOM     94  O   UNL A   1      49.807  28.085  36.571  1.00  0.00    -0.237 OA
ATOM     95  O   UNL A   1      49.816  30.284  37.684  1.00  0.00    -0.744 OA
ENDBRANCH  91  92
ENDBRANCH  65  86
ENDBRANCH  39  40
ENDBRANCH  31  34
ENDBRANCH  29  30
ENDBRANCH  28  29
ENDBRANCH  27  28
ENDBRANCH   1  27
TORSDOF 19
ENDMDL
MODEL 2
REMARK VINA RESULT:     -10.2      5.941      8.317
REMARK SMILES Cc1cc(Cl)ccc1OCC(=O)Nc1ccc(CC(=O)NCCCCNC(=O)c2ccc(-c3c4nc(c(-c5ccc(S(=O)(=O)[O-])cc5)c5ccc([nH]5)c(-c5ccc(S(=O)(=O)[O-])cc5)c5nc(c(-c6ccc(S(=O)(=O)[O-])cc6)c6ccc3[nH]6)C=C5)C=C4)cc2)cc1
REMARK SMILES IDX 22 1 21 2 19 3 20 4 18 6 17 7 14 8 15 9 90 10 16 11 89 12
REMARK SMILES IDX 13 13 11 14 12 15 10 17 9 18 8 19 1 20 2 21 3 22 4 23 7 24
REMARK SMILES IDX 5 25 6 26 23 27 24 28 25 29 26 30 27 31 28 33 29 34 30 35
REMARK SMILES IDX 88 36 31 37 87 38 32 39 33 40 34 41 81 42 35 43 86 44 80 45
REMARK SMILES IDX 82 46 36 47 85 48 79 49 78 50 37 52 67 53 48 54 66 55 49 56
REMARK SMILES IDX 52 57 65 58 83 59 50 60 51 61 64 63 84 64 53 65 38 66 39 67
REMARK SMILES IDX 47 68 40 69 46 70 41 71 42 72 43 73 44 74 45 75 68 76 69 77
REMARK SMILES IDX 77 78 70 79 76 80 71 81 72 82 73 83 74 84 75 85 54 86 55 87
REMARK SMILES IDX 63 88 56 89 62 90 57 91 58 92 59 93 60 94 61 95
REMARK H PARENT 21 5 13 16 26 32 82 51 52 62
REMARK Flexibility Score: inf
ROOT
ATOM      1  C   UNL A   1      32.745  29.424  25.815  1.00  0.00     0.116 C 
ENDROOT
BRANCH   1   2
ATOM      2  N   UNL A   1      31.728  28.533  26.341  1.00  0.00    -0.356 N 
ATOM      3  C   UNL A   1      31.598  27.182  26.189  1.00  0.00     0.224 C 
ATOM      4  O   UNL A   1      30.614  26.624  26.676  1.00  0.00    -0.275 OA
ATOM      5  H   UNL A   1      31.030  28.964  26.886  1.00  0.00     0.163 HD
BRANCH   3   6
ATOM      6  C   UNL A   1      32.677  26.385  25.480  1.00  0.00     0.135 C 
BRANCH   6   7
ATOM      7  C   UNL A   1      32.424  24.901  25.448  1.00  0.00    -0.039 A 
ATOM      8  C   UNL A   1      32.033  22.117  25.433  1.00  0.00     0.041 A 
ATOM      9  C   UNL A   1      31.920  22.850  24.249  1.00  0.00     0.026 A 
ATOM     10  C   UNL A   1      32.398  22.777  26.598  1.00  0.00     0.026 A 
ATOM     11  C   UNL A   1      32.098  24.237  24.259  1.00  0.00     0.006 A 
ATOM     12  C   UNL A   1      32.559  24.156  26.620  1.00  0.00     0.006 A 
BRANCH   8  13
ATOM     13  N   UNL A   1      31.799  20.738  25.384  1.00  0.00    -0.323 N 
ATOM     14  C   UNL A   1      32.642  19.693  25.115  1.00  0.00     0.262 C 
ATOM     15  O   UNL A   1      32.153  18.558  25.120  1.00  0.00    -0.271 OA
ATOM     16  H   UNL A   1      30.870  20.473  25.575  1.00  0.00     0.170 HD
BRANCH  14  17
ATOM     17  C   UNL A   1      34.176  19.887  25.019  1.00  0.00     0.329 C 
BRANCH  17  18
ATOM     18  O   UNL A   1      34.874  20.811  24.209  1.00  0.00    -0.483 OA
BRANCH  18  19
ATOM     19  C   UNL A   1      35.915  21.539  24.700  1.00  0.00     0.123 A 
ATOM     20  C   UNL A   1      37.635  19.646  24.997  1.00  0.00     0.048 C 
ATOM     21  C   UNL A   1      37.183  21.073  25.063  1.00  0.00    -0.007 A 
ATOM     22  C   UNL A   1      38.115  21.999  25.581  1.00  0.00     0.027 A 
ATOM     23  C   UNL A   1      37.774  23.333  25.798  1.00  0.00     0.041 A 
ATOM     24  C   UNL A   1      35.575  22.881  24.960  1.00  0.00     0.048 A 
ATOM     25  Cl  UNL A   1      38.923  24.413  26.482  1.00  0.00    -0.084 Cl
ATOM     26  C   UNL A   1      36.496  23.779  25.499  1.00  0.00     0.024 A 
ENDBRANCH  18  19
ENDBRANCH  17  18
ENDBRANCH  14  17
ENDBRANCH   8  13
ENDBRANCH   6   7
ENDBRANCH   3   6
ENDBRANCH   1   2
BRANCH   1  27
ATOM     27  C   UNL A   1      33.500  30.152  26.928  1.00  0.00     0.023 C 
BRANCH  27  28
ATOM     28  C   UNL A   1      34.767  29.436  27.405  1.00  0.00     0.023 C 
BRANCH  28  29
ATOM     29  C   UNL A   1      35.777  30.321  28.125  1.00  0.00     0.116 C 
BRANCH  29  30
ATOM     30  N   UNL A   1      35.671  30.246  29.573  1.00  0.00    -0.352 N 
ATOM     31  C   UNL A   1      36.592  29.784  30.480  1.00  0.00     0.251 C 
ATOM     32  H   UNL A   1      34.823  30.569  29.955  1.00  0.00     0.163 HD
ATOM     33  O   UNL A   1      36.280  29.674  31.664  1.00  0.00    -0.269 OA
BRANCH  31  34
ATOM     34  C   UNL A   1      37.944  29.386  30.027  1.00  0.00     0.039 A 
ATOM     35  C   UNL A   1      38.274  29.546  28.679  1.00  0.00     0.014 A 
ATOM     36  C   UNL A   1      38.886  28.869  30.921  1.00  0.00     0.014 A 
ATOM     37  C   UNL A   1      39.564  29.239  28.243  1.00  0.00     0.010 A 
ATOM     38  C   UNL A   1      40.195  28.642  30.500  1.00  0.00     0.010 A 
ATOM     39  C   UNL A   1      40.547  28.817  29.154  1.00  0.00    -0.014 A 
BRANCH  39  40
ATOM     40  C   UNL A   1      41.941  28.560  28.705  1.00  0.00     0.031 A 
ATOM     41  C   UNL A   1      42.363  27.179  28.272  1.00  0.00     0.074 A 
ATOM     42  C   UNL A   1      42.835  29.570  28.701  1.00  0.00     0.049 A 
ATOM     43  N   UNL A   1      43.527  26.774  27.834  1.00  0.00    -0.248 NA
ATOM     44  C   UNL A   1      41.353  26.111  28.360  1.00  0.00     0.031 C 
ATOM     45  C   UNL A   1      42.566  30.943  29.138  1.00  0.00     0.029 A 
ATOM     46  N   UNL A   1      44.151  29.603  28.308  1.00  0.00    -0.354 N 
ATOM     47  C   UNL A   1      43.388  25.414  27.585  1.00  0.00     0.074 A 
ATOM     48  C   UNL A   1      42.049  25.047  27.991  1.00  0.00     0.031 C 
ATOM     49  C   UNL A   1      43.665  31.690  28.945  1.00  0.00     0.029 A 
ATOM     50  C   UNL A   1      44.728  30.847  28.412  1.00  0.00     0.049 A 
ATOM     51  H   UNL A   1      44.635  28.809  27.983  1.00  0.00     0.167 HD
ATOM     52  C   UNL A   1      44.279  24.551  27.039  1.00  0.00     0.031 A 
ATOM     53  C   UNL A   1      45.973  31.263  28.110  1.00  0.00     0.031 A 
ATOM     54  C   UNL A   1      45.612  24.915  26.639  1.00  0.00     0.049 A 
ATOM     55  C   UNL A   1      46.956  30.274  27.540  1.00  0.00     0.074 A 
ATOM     56  C   UNL A   1      46.584  24.118  26.057  1.00  0.00     0.029 A 
ATOM     57  N   UNL A   1      46.163  26.180  26.775  1.00  0.00    -0.354 N 
ATOM     58  N   UNL A   1      46.783  29.004  27.260  1.00  0.00    -0.248 NA
ATOM     59  C   UNL A   1      48.300  30.782  27.230  1.00  0.00     0.031 C 
ATOM     60  C   UNL A   1      47.738  24.889  25.886  1.00  0.00     0.029 A 
ATOM     61  C   UNL A   1      47.465  26.182  26.302  1.00  0.00     0.049 A 
ATOM     62  H   UNL A   1      45.698  26.962  27.152  1.00  0.00     0.167 HD
ATOM     63  C   UNL A   1      47.984  28.571  26.708  1.00  0.00     0.074 A 
ATOM     64  C   UNL A   1      48.865  29.721  26.673  1.00  0.00     0.031 C 
ATOM     65  C   UNL A   1      48.329  27.335  26.270  1.00  0.00     0.031 A 
BRANCH  52  66
ATOM     66  C   UNL A   1      43.830  23.128  26.824  1.00  0.00    -0.014 A 
ATOM     67  C   UNL A   1      43.089  22.452  27.812  1.00  0.00     0.010 A 
ATOM     68  C   UNL A   1      44.096  22.477  25.606  1.00  0.00     0.010 A 
ATOM     69  C   UNL A   1      42.654  21.142  27.600  1.00  0.00     0.020 A 
ATOM     70  C   UNL A   1      43.636  21.176  25.378  1.00  0.00     0.020 A 
ATOM     71  C   UNL A   1      42.928  20.513  26.382  1.00  0.00     0.054 A 
BRANCH  71  72
ATOM     72  S   UNL A   1      42.314  18.826  26.122  1.00  0.00     0.124 S 
ATOM     73  O   UNL A   1      42.525  18.223  27.435  1.00  0.00    -0.237 OA
ATOM     74  O   UNL A   1      40.919  19.048  25.752  1.00  0.00    -0.237 OA
ATOM     75  O   UNL A   1      43.164  18.307  25.054  1.00  0.00    -0.744 OA
ENDBRANCH  71  72
ENDBRANCH  52  66
BRANCH  53  76
ATOM     76  C   UNL A   1      46.369  32.684  28.324  1.00  0.00    -0.014 A 
ATOM     77  C   UNL A   1      46.809  33.125  29.586  1.00  0.00     0.010 A 
ATOM     78  C   UNL A   1      46.271  33.615  27.275  1.00  0.00     0.010 A 
ATOM     79  C   UNL A   1      47.096  34.475  29.806  1.00  0.00     0.020 A 
ATOM     80  C   UNL A   1      46.593  34.960  27.481  1.00  0.00     0.020 A 
ATOM     81  C   UNL A   1      46.981  35.385  28.753  1.00  0.00     0.054 A 
BRANCH  81  82
ATOM     82  S   UNL A   1      47.361  37.133  29.059  1.00  0.00     0.124 S 
ATOM     83  O   UNL A   1      47.495  37.163  30.512  1.00  0.00    -0.237 OA
ATOM     84  O   UNL A   1      48.595  37.325  28.304  1.00  0.00    -0.237 OA
ATOM     85  O   UNL A   1      46.196  37.834  28.522  1.00  0.00    -0.744 OA
ENDBRANCH  81  82
ENDBRANCH  53  76
BRANCH  65  86
ATOM     86  C   UNL A   1      49.704  27.174  25.671  1.00  0.00    -0.014 A 
ATOM     87  C   UNL A   1      50.026  27.721  24.416  1.00  0.00     0.010 A 
ATOM     88  C   UNL A   1      50.695  26.483  26.392  1.00  0.00     0.010 A 
ATOM     89  C   UNL A   1      51.298  27.534  23.871  1.00  0.00     0.020 A 
ATOM     90  C   UNL A   1      51.979  26.323  25.865  1.00  0.00     0.020 A 
ATOM     91  C   UNL A   1      52.266  26.832  24.597  1.00  0.00     0.054 A 
BRANCH  91  92
ATOM     92  S   UNL A   1      53.915  26.618  23.874  1.00  0.00     0.124 S 
ATOM     93  O   UNL A   1      53.609  25.954  22.610  1.00  0.00    -0.237 OA
ATOM     94  O   UNL A   1      54.396  27.993  23.761  1.00  0.00    -0.237 OA
ATOM     95  O   UNL A   1      54.621  25.796  24.855  1.00  0.00    -0.744 OA
ENDBRANCH  91  92
ENDBRANCH  65  86
ENDBRANCH  39  40
ENDBRANCH  31  34
ENDBRANCH  29  30
ENDBRANCH  28  29
ENDBRANCH  27  28
ENDBRANCH   1  27
TORSDOF 19
ENDMDL
MODEL 3
REMARK VINA RESULT:     -10.2      5.800     10.398
REMARK SMILES Cc1cc(Cl)ccc1OCC(=O)Nc1ccc(CC(=O)NCCCCNC(=O)c2ccc(-c3c4nc(c(-c5ccc(S(=O)(=O)[O-])cc5)c5ccc([nH]5)c(-c5ccc(S(=O)(=O)[O-])cc5)c5nc(c(-c6ccc(S(=O)(=O)[O-])cc6)c6ccc3[nH]6)C=C5)C=C4)cc2)cc1
REMARK SMILES IDX 22 1 21 2 19 3 20 4 18 6 17 7 14 8 15 9 90 10 16 11 89 12
REMARK SMILES IDX 13 13 11 14 12 15 10 17 9 18 8 19 1 20 2 21 3 22 4 23 7 24
REMARK SMILES IDX 5 25 6 26 23 27 24 28 25 29 26 30 27 31 28 33 29 34 30 35
REMARK SMILES IDX 88 36 31 37 87 38 32 39 33 40 34 41 81 42 35 43 86 44 80 45
REMARK SMILES IDX 82 46 36 47 85 48 79 49 78 50 37 52 67 53 48 54 66 55 49 56
REMARK SMILES IDX 52 57 65 58 83 59 50 60 51 61 64 63 84 64 53 65 38 66 39 67
REMARK SMILES IDX 47 68 40 69 46 70 41 71 42 72 43 73 44 74 45 75 68 76 69 77
REMARK SMILES IDX 77 78 70 79 76 80 71 81 72 82 73 83 74 84 75 85 54 86 55 87
REMARK SMILES IDX 63 88 56 89 62 90 57 91 58 92 59 93 60 94 61 95
REMARK H PARENT 21 5 13 16 26 32 82 51 52 62
REMARK Flexibility Score: inf
ROOT
ATOM      1  C   UNL A   1      32.650  29.448  25.850  1.00  0.00     0.116 C 
ENDROOT
BRANCH   1   2
ATOM      2  N   UNL A   1      31.653  28.561  26.419  1.00  0.00    -0.356 N 
ATOM      3  C   UNL A   1      31.584  27.197  26.378  1.00  0.00     0.224 C 
ATOM      4  O   UNL A   1      30.607  26.638  26.879  1.00  0.00    -0.275 OA
ATOM      5  H   UNL A   1      30.919  29.005  26.902  1.00  0.00     0.163 HD
BRANCH   3   6
ATOM      6  C   UNL A   1      32.719  26.392  25.774  1.00  0.00     0.135 C 
BRANCH   6   7
ATOM      7  C   UNL A   1      32.446  24.913  25.688  1.00  0.00    -0.039 A 
ATOM      8  C   UNL A   1      32.018  22.136  25.569  1.00  0.00     0.041 A 
ATOM      9  C   UNL A   1      31.870  22.921  24.422  1.00  0.00     0.026 A 
ATOM     10  C   UNL A   1      32.435  22.741  26.746  1.00  0.00     0.026 A 
ATOM     11  C   UNL A   1      32.067  24.305  24.485  1.00  0.00     0.006 A 
ATOM     12  C   UNL A   1      32.615  24.116  26.821  1.00  0.00     0.006 A 
BRANCH   8  13
ATOM     13  N   UNL A   1      31.764  20.764  25.469  1.00  0.00    -0.323 N 
ATOM     14  C   UNL A   1      32.574  19.726  25.094  1.00  0.00     0.262 C 
ATOM     15  O   UNL A   1      32.072  18.597  25.078  1.00  0.00    -0.271 OA
ATOM     16  H   UNL A   1      30.847  20.499  25.710  1.00  0.00     0.170 HD
BRANCH  14  17
ATOM     17  C   UNL A   1      34.100  19.910  24.904  1.00  0.00     0.329 C 
BRANCH  17  18
ATOM     18  O   UNL A   1      34.755  20.904  24.142  1.00  0.00    -0.483 OA
BRANCH  18  19
ATOM     19  C   UNL A   1      35.812  21.601  24.645  1.00  0.00     0.123 A 
ATOM     20  C   UNL A   1      37.499  19.672  24.888  1.00  0.00     0.048 C 
ATOM     21  C   UNL A   1      37.072  21.105  24.991  1.00  0.00    -0.007 A 
ATOM     22  C   UNL A   1      38.024  22.001  25.526  1.00  0.00     0.027 A 
ATOM     23  C   UNL A   1      37.707  23.335  25.777  1.00  0.00     0.041 A 
ATOM     24  C   UNL A   1      35.496  22.943  24.939  1.00  0.00     0.048 A 
ATOM     25  Cl  UNL A   1      38.879  24.378  26.480  1.00  0.00    -0.084 Cl
ATOM     26  C   UNL A   1      36.437  23.811  25.494  1.00  0.00     0.024 A 
ENDBRANCH  18  19
ENDBRANCH  17  18
ENDBRANCH  14  17
ENDBRANCH   8  13
ENDBRANCH   6   7
ENDBRANCH   3   6
ENDBRANCH   1   2
BRANCH   1  27
ATOM     27  C   UNL A   1      33.324  30.310  26.919  1.00  0.00     0.023 C 
BRANCH  27  28
ATOM     28  C   UNL A   1      34.509  29.638  27.619  1.00  0.00     0.023 C 
BRANCH  28  29
ATOM     29  C   UNL A   1      35.640  30.577  28.021  1.00  0.00     0.116 C 
BRANCH  29  30
ATOM     30  N   UNL A   1      35.648  30.884  29.441  1.00  0.00    -0.352 N 
ATOM     31  C   UNL A   1      36.643  30.670  30.363  1.00  0.00     0.251 C 
ATOM     32  H   UNL A   1      34.827  31.302  29.791  1.00  0.00     0.163 HD
ATOM     33  O   UNL A   1      36.425  30.876  31.555  1.00  0.00    -0.269 OA
BRANCH  31  34
ATOM     34  C   UNL A   1      37.961  30.157  29.924  1.00  0.00     0.039 A 
ATOM     35  C   UNL A   1      38.196  29.992  28.558  1.00  0.00     0.014 A 
ATOM     36  C   UNL A   1      38.964  29.850  30.849  1.00  0.00     0.014 A 
ATOM     37  C   UNL A   1      39.453  29.572  28.119  1.00  0.00     0.010 A 
ATOM     38  C   UNL A   1      40.240  29.511  30.405  1.00  0.00     0.010 A 
ATOM     39  C   UNL A   1      40.498  29.361  29.035  1.00  0.00    -0.014 A 
BRANCH  39  40
ATOM     40  C   UNL A   1      41.858  28.986  28.565  1.00  0.00     0.031 A 
ATOM     41  C   UNL A   1      42.952  30.020  28.487  1.00  0.00     0.074 A 
ATOM     42  C   UNL A   1      42.104  27.714  28.190  1.00  0.00     0.049 A 
ATOM     43  N   UNL A   1      44.199  29.872  28.119  1.00  0.00    -0.248 NA
ATOM     44  C   UNL A   1      42.597  31.402  28.852  1.00  0.00     0.031 C 
ATOM     45  C   UNL A   1      41.120  26.628  28.177  1.00  0.00     0.029 A 
ATOM     46  N   UNL A   1      43.262  27.114  27.758  1.00  0.00    -0.354 N 
ATOM     47  C   UNL A   1      44.777  31.133  28.216  1.00  0.00     0.074 A 
ATOM     48  C   UNL A   1      43.727  32.048  28.607  1.00  0.00     0.031 C 
ATOM     49  C   UNL A   1      41.726  25.489  27.803  1.00  0.00     0.029 A 
ATOM     50  C   UNL A   1      43.127  25.768  27.511  1.00  0.00     0.049 A 
ATOM     51  H   UNL A   1      44.108  27.603  27.637  1.00  0.00     0.167 HD
ATOM     52  C   UNL A   1      46.069  31.495  28.031  1.00  0.00     0.031 A 
ATOM     53  C   UNL A   1      44.031  24.859  27.097  1.00  0.00     0.031 A 
ATOM     54  C   UNL A   1      47.113  30.585  27.638  1.00  0.00     0.049 A 
ATOM     55  C   UNL A   1      45.452  25.296  26.861  1.00  0.00     0.074 A 
ATOM     56  C   UNL A   1      48.458  30.851  27.444  1.00  0.00     0.029 A 
ATOM     57  N   UNL A   1      46.933  29.234  27.383  1.00  0.00    -0.354 N 
ATOM     58  N   UNL A   1      45.989  26.484  27.016  1.00  0.00    -0.248 NA
ATOM     59  C   UNL A   1      46.396  24.264  26.408  1.00  0.00     0.031 C 
ATOM     60  C   UNL A   1      49.082  29.672  27.024  1.00  0.00     0.029 A 
ATOM     61  C   UNL A   1      48.138  28.657  27.018  1.00  0.00     0.049 A 
ATOM     62  H   UNL A   1      46.074  28.756  27.450  1.00  0.00     0.167 HD
ATOM     63  C   UNL A   1      47.338  26.331  26.715  1.00  0.00     0.074 A 
ATOM     64  C   UNL A   1      47.538  24.934  26.392  1.00  0.00     0.031 C 
ATOM     65  C   UNL A   1      48.324  27.263  26.704  1.00  0.00     0.031 A 
BRANCH  52  66
ATOM     66  C   UNL A   1      46.430  32.939  28.271  1.00  0.00    -0.014 A 
ATOM     67  C   UNL A   1      46.355  33.880  27.227  1.00  0.00     0.010 A 
ATOM     68  C   UNL A   1      46.791  33.375  29.558  1.00  0.00     0.010 A 
ATOM     69  C   UNL A   1      46.666  35.222  27.458  1.00  0.00     0.020 A 
ATOM     70  C   UNL A   1      47.074  34.723  29.800  1.00  0.00     0.020 A 
ATOM     71  C   UNL A   1      47.021  35.635  28.745  1.00  0.00     0.054 A 
BRANCH  71  72
ATOM     72  S   UNL A   1      47.380  37.392  29.021  1.00  0.00     0.124 S 
ATOM     73  O   UNL A   1      48.708  37.336  29.627  1.00  0.00    -0.237 OA
ATOM     74  O   UNL A   1      47.330  37.944  27.670  1.00  0.00    -0.237 OA
ATOM     75  O   UNL A   1      46.309  37.831  29.911  1.00  0.00    -0.744 OA
ENDBRANCH  71  72
ENDBRANCH  52  66
BRANCH  53  76
ATOM     76  C   UNL A   1      43.633  23.437  26.887  1.00  0.00    -0.014 A 
ATOM     77  C   UNL A   1      43.503  22.911  25.589  1.00  0.00     0.010 A 
ATOM     78  C   UNL A   1      43.343  22.611  27.988  1.00  0.00     0.010 A 
ATOM     79  C   UNL A   1      43.046  21.605  25.394  1.00  0.00     0.020 A 
ATOM     80  C   UNL A   1      42.922  21.292  27.799  1.00  0.00     0.020 A 
ATOM     81  C   UNL A   1      42.753  20.804  26.501  1.00  0.00     0.054 A 
BRANCH  81  82
ATOM     82  S   UNL A   1      42.163  19.111  26.227  1.00  0.00     0.124 S 
ATOM     83  O   UNL A   1      40.774  19.333  25.839  1.00  0.00    -0.237 OA
ATOM     84  O   UNL A   1      43.049  18.635  25.168  1.00  0.00    -0.237 OA
ATOM     85  O   UNL A   1      42.357  18.468  27.526  1.00  0.00    -0.744 OA
ENDBRANCH  81  82
ENDBRANCH  53  76
BRANCH  65  86
ATOM     86  C   UNL A   1      49.717  26.789  26.378  1.00  0.00    -0.014 A 
ATOM     87  C   UNL A   1      50.555  26.238  27.364  1.00  0.00     0.010 A 
ATOM     88  C   UNL A   1      50.185  26.877  25.054  1.00  0.00     0.010 A 
ATOM     89  C   UNL A   1      51.852  25.833  27.043  1.00  0.00     0.020 A 
ATOM     90  C   UNL A   1      51.470  26.440  24.721  1.00  0.00     0.020 A 
ATOM     91  C   UNL A   1      52.303  25.940  25.723  1.00  0.00     0.054 A 
BRANCH  91  92
ATOM     92  S   UNL A   1      53.985  25.390  25.329  1.00  0.00     0.124 S 
ATOM     93  O   UNL A   1      54.779  26.092  26.334  1.00  0.00    -0.237 OA
ATOM     94  O   UNL A   1      53.897  23.942  25.497  1.00  0.00    -0.237 OA
ATOM     95  O   UNL A   1      54.184  25.840  23.952  1.00  0.00    -0.744 OA
ENDBRANCH  91  92
ENDBRANCH  65  86
ENDBRANCH  39  40
ENDBRANCH  31  34
ENDBRANCH  29  30
ENDBRANCH  28  29
ENDBRANCH  27  28
ENDBRANCH   1  27
TORSDOF 19
ENDMDL
