MODEL 1
REMARK VINA RESULT:     -11.4      0.000      0.000
REMARK SMILES O=C(NCCCCNC(=O)c1csc(C[NH2+][C@H]2CCSc3ccc(F)cc32)c1)c1ccc(-c2c3nc(c(-c4ccc(S(=O)(=O)[O-])cc4)c4ccc([nH]4)c(-c4ccc(S(=O)(=O)[O-])cc4)c4nc(c(-c5ccc(S(=O)(=O)[O-])cc5)c5ccc2[nH]5)C=C4)C=C3)cc1
REMARK SMILES IDX 5 1 4 2 3 3 1 4 2 5 29 7 30 8 88 9 31 10 87 11 32 12 33 13
REMARK SMILES IDX 34 14 81 15 35 16 86 17 80 18 82 19 36 20 85 21 79 22 78 23
REMARK SMILES IDX 37 25 67 26 48 27 66 28 49 29 52 30 65 31 83 32 50 33 51 34
REMARK SMILES IDX 64 36 84 37 53 38 38 39 39 40 47 41 40 42 46 43 41 44 42 45
REMARK SMILES IDX 43 46 44 47 45 48 68 49 69 50 77 51 70 52 76 53 71 54 72 55
REMARK SMILES IDX 73 56 74 57 75 58 54 59 55 60 63 61 56 62 62 63 57 64 58 65
REMARK SMILES IDX 59 66 60 67 61 68 6 69 7 70 8 71 9 72 10 74 11 75 12 76
REMARK SMILES IDX 28 77 13 78 14 79 15 80 16 81 17 84 18 85 27 86 19 87 21 88
REMARK SMILES IDX 26 89 20 90 22 91 24 92 23 93 25 94
REMARK H PARENT 3 6 82 24 52 35 8 73 16 82 16 83
REMARK Flexibility Score: inf
ROOT
ATOM      1  C   UNL A   1      32.436  28.210  26.984  1.00  0.00     0.023 C 
ENDROOT
BRANCH   1   2
ATOM      2  C   UNL A   1      33.833  28.729  27.307  1.00  0.00     0.116 C 
BRANCH   2   3
ATOM      3  N   UNL A   1      33.831  30.128  27.697  1.00  0.00    -0.352 N 
ATOM      4  O   UNL A   1      34.545  31.988  28.735  1.00  0.00    -0.269 OA
ATOM      5  C   UNL A   1      34.797  30.849  28.352  1.00  0.00     0.251 C 
ATOM      6  H   UNL A   1      33.020  30.631  27.457  1.00  0.00     0.163 HD
BRANCH   5   7
ATOM      7  C   UNL A   1      36.128  30.258  28.607  1.00  0.00     0.039 A 
ATOM      8  C   UNL A   1      36.371  29.658  29.846  1.00  0.00     0.014 A 
ATOM      9  C   UNL A   1      37.150  30.344  27.656  1.00  0.00     0.014 A 
ATOM     10  C   UNL A   1      37.633  29.125  30.126  1.00  0.00     0.010 A 
ATOM     11  C   UNL A   1      38.385  29.756  27.911  1.00  0.00     0.010 A 
ATOM     12  C   UNL A   1      38.647  29.169  29.159  1.00  0.00    -0.014 A 
BRANCH  12  13
ATOM     13  C   UNL A   1      40.027  28.714  29.458  1.00  0.00     0.031 A 
ATOM     14  C   UNL A   1      40.960  29.656  30.171  1.00  0.00     0.074 A 
ATOM     15  C   UNL A   1      40.456  27.501  29.060  1.00  0.00     0.049 A 
ATOM     16  N   UNL A   1      42.243  29.535  30.391  1.00  0.00    -0.248 NA
ATOM     17  C   UNL A   1      40.380  30.911  30.683  1.00  0.00     0.031 C 
ATOM     18  C   UNL A   1      39.642  26.498  28.374  1.00  0.00     0.029 A 
ATOM     19  N   UNL A   1      41.691  26.911  29.169  1.00  0.00    -0.354 N 
ATOM     20  C   UNL A   1      42.625  30.702  31.040  1.00  0.00     0.074 A 
ATOM     21  C   UNL A   1      41.452  31.539  31.145  1.00  0.00     0.031 C 
ATOM     22  C   UNL A   1      40.395  25.411  28.136  1.00  0.00     0.029 A 
ATOM     23  C   UNL A   1      41.756  25.656  28.609  1.00  0.00     0.049 A 
ATOM     24  H   UNL A   1      42.458  27.344  29.609  1.00  0.00     0.167 HD
ATOM     25  C   UNL A   1      43.841  31.035  31.526  1.00  0.00     0.031 A 
ATOM     26  C   UNL A   1      42.796  24.807  28.475  1.00  0.00     0.031 A 
ATOM     27  C   UNL A   1      44.990  30.176  31.465  1.00  0.00     0.049 A 
ATOM     28  C   UNL A   1      44.145  25.204  29.012  1.00  0.00     0.074 A 
ATOM     29  C   UNL A   1      46.260  30.414  31.960  1.00  0.00     0.029 A 
ATOM     30  N   UNL A   1      45.006  28.912  30.899  1.00  0.00    -0.354 N 
ATOM     31  N   UNL A   1      44.487  26.312  29.625  1.00  0.00    -0.248 NA
ATOM     32  C   UNL A   1      45.248  24.246  28.846  1.00  0.00     0.031 C 
ATOM     33  C   UNL A   1      47.056  29.310  31.656  1.00  0.00     0.029 A 
ATOM     34  C   UNL A   1      46.267  28.361  31.024  1.00  0.00     0.049 A 
ATOM     35  H   UNL A   1      44.235  28.472  30.472  1.00  0.00     0.167 HD
ATOM     36  C   UNL A   1      45.835  26.174  29.938  1.00  0.00     0.074 A 
ATOM     37  C   UNL A   1      46.247  24.873  29.455  1.00  0.00     0.031 C 
ATOM     38  C   UNL A   1      46.655  27.051  30.565  1.00  0.00     0.031 A 
BRANCH  25  39
ATOM     39  C   UNL A   1      44.005  32.369  32.203  1.00  0.00    -0.014 A 
ATOM     40  C   UNL A   1      43.783  32.482  33.587  1.00  0.00     0.010 A 
ATOM     41  C   UNL A   1      44.242  33.530  31.447  1.00  0.00     0.010 A 
ATOM     42  C   UNL A   1      43.752  33.737  34.199  1.00  0.00     0.020 A 
ATOM     43  C   UNL A   1      44.239  34.786  32.060  1.00  0.00     0.020 A 
ATOM     44  C   UNL A   1      43.967  34.883  33.427  1.00  0.00     0.054 A 
BRANCH  44  45
ATOM     45  S   UNL A   1      43.873  36.507  34.227  1.00  0.00     0.124 S 
ATOM     46  O   UNL A   1      45.072  37.168  33.723  1.00  0.00    -0.237 OA
ATOM     47  O   UNL A   1      42.604  37.035  33.734  1.00  0.00    -0.237 OA
ATOM     48  O   UNL A   1      43.888  36.185  35.654  1.00  0.00    -0.744 OA
ENDBRANCH  44  45
ENDBRANCH  25  39
BRANCH  26  49
ATOM     49  C   UNL A   1      42.585  23.489  27.813  1.00  0.00    -0.014 A 
ATOM     50  C   UNL A   1      41.988  22.425  28.513  1.00  0.00     0.010 A 
ATOM     51  C   UNL A   1      43.031  23.275  26.496  1.00  0.00     0.010 A 
ATOM     52  C   UNL A   1      41.879  21.160  27.928  1.00  0.00     0.020 A 
ATOM     53  C   UNL A   1      42.900  22.017  25.897  1.00  0.00     0.020 A 
ATOM     54  C   UNL A   1      42.348  20.961  26.627  1.00  0.00     0.054 A 
BRANCH  54  55
ATOM     55  S   UNL A   1      42.225  19.306  25.894  1.00  0.00     0.124 S 
ATOM     56  O   UNL A   1      40.788  19.189  25.662  1.00  0.00    -0.237 OA
ATOM     57  O   UNL A   1      43.048  19.424  24.693  1.00  0.00    -0.237 OA
ATOM     58  O   UNL A   1      42.765  18.433  26.932  1.00  0.00    -0.744 OA
ENDBRANCH  54  55
ENDBRANCH  26  49
BRANCH  38  59
ATOM     59  C   UNL A   1      48.088  26.662  30.808  1.00  0.00    -0.014 A 
ATOM     60  C   UNL A   1      48.450  26.106  32.050  1.00  0.00     0.010 A 
ATOM     61  C   UNL A   1      49.093  27.045  29.904  1.00  0.00     0.010 A 
ATOM     62  C   UNL A   1      49.794  25.997  32.411  1.00  0.00     0.020 A 
ATOM     63  C   UNL A   1      50.440  26.914  30.253  1.00  0.00     0.020 A 
ATOM     64  C   UNL A   1      50.781  26.424  31.517  1.00  0.00     0.054 A 
BRANCH  64  65
ATOM     65  S   UNL A   1      52.517  26.370  32.041  1.00  0.00     0.124 S 
ATOM     66  O   UNL A   1      52.932  25.046  31.586  1.00  0.00    -0.237 OA
ATOM     67  O   UNL A   1      53.105  27.497  31.320  1.00  0.00    -0.237 OA
ATOM     68  O   UNL A   1      52.443  26.537  33.490  1.00  0.00    -0.744 OA
ENDBRANCH  64  65
ENDBRANCH  38  59
ENDBRANCH  12  13
ENDBRANCH   5   7
ENDBRANCH   2   3
ENDBRANCH   1   2
BRANCH   1  69
ATOM     69  C   UNL A   1      31.627  29.077  26.017  1.00  0.00     0.023 C 
BRANCH  69  70
ATOM     70  C   UNL A   1      32.281  29.299  24.655  1.00  0.00     0.116 C 
BRANCH  70  71
ATOM     71  N   UNL A   1      31.292  29.551  23.623  1.00  0.00    -0.352 N 
ATOM     72  C   UNL A   1      30.758  28.673  22.716  1.00  0.00     0.252 C 
ATOM     73  H   UNL A   1      30.962  30.476  23.565  1.00  0.00     0.163 HD
ATOM     74  O   UNL A   1      30.164  29.104  21.732  1.00  0.00    -0.269 OA
BRANCH  72  75
ATOM     75  C   UNL A   1      30.931  27.247  22.941  1.00  0.00     0.051 A 
ATOM     76  C   UNL A   1      30.028  26.449  23.622  1.00  0.00     0.079 A 
ATOM     77  C   UNL A   1      31.998  26.457  22.402  1.00  0.00     0.035 A 
ATOM     78  S   UNL A   1      30.508  24.815  23.688  1.00  0.00    -0.142 S 
ATOM     79  C   UNL A   1      31.883  25.118  22.711  1.00  0.00     0.059 A 
BRANCH  79  80
ATOM     80  C   UNL A   1      32.717  23.980  22.206  1.00  0.00     0.308 C 
BRANCH  80  81
ATOM     81  N   UNL A   1      33.984  23.858  22.917  1.00  0.00    -0.336 N 
ATOM     82  H   UNL A   1      34.330  24.798  23.108  1.00  0.00     0.347 HD
ATOM     83  H   UNL A   1      34.596  23.313  22.310  1.00  0.00     0.347 HD
BRANCH  81  84
ATOM     84  C   UNL A   1      33.921  23.123  24.204  1.00  0.00     0.215 C 
ATOM     85  C   UNL A   1      32.953  21.948  23.929  1.00  0.00     0.081 C 
ATOM     86  C   UNL A   1      35.287  22.708  24.753  1.00  0.00     0.026 A 
ATOM     87  C   UNL A   1      33.002  20.873  24.994  1.00  0.00     0.081 C 
ATOM     88  C   UNL A   1      35.686  21.370  24.930  1.00  0.00     0.017 A 
ATOM     89  C   UNL A   1      36.203  23.703  25.155  1.00  0.00     0.050 A 
ATOM     90  S   UNL A   1      34.568  19.983  24.815  1.00  0.00    -0.125 SA
ATOM     91  C   UNL A   1      37.008  21.063  25.305  1.00  0.00     0.018 A 
ATOM     92  C   UNL A   1      37.507  23.388  25.519  1.00  0.00     0.123 A 
ATOM     93  C   UNL A   1      37.929  22.074  25.569  1.00  0.00     0.040 A 
ATOM     94  F   UNL A   1      38.361  24.373  25.825  1.00  0.00    -0.207 F 
ENDBRANCH  81  84
ENDBRANCH  80  81
ENDBRANCH  79  80
ENDBRANCH  72  75
ENDBRANCH  70  71
ENDBRANCH  69  70
ENDBRANCH   1  69
TORSDOF 17
ENDMDL
MODEL 2
REMARK VINA RESULT:     -11.2      2.957      9.552
REMARK SMILES O=C(NCCCCNC(=O)c1csc(C[NH2+][C@H]2CCSc3ccc(F)cc32)c1)c1ccc(-c2c3nc(c(-c4ccc(S(=O)(=O)[O-])cc4)c4ccc([nH]4)c(-c4ccc(S(=O)(=O)[O-])cc4)c4nc(c(-c5ccc(S(=O)(=O)[O-])cc5)c5ccc2[nH]5)C=C4)C=C3)cc1
REMARK SMILES IDX 5 1 4 2 3 3 1 4 2 5 29 7 30 8 88 9 31 10 87 11 32 12 33 13
REMARK SMILES IDX 34 14 81 15 35 16 86 17 80 18 82 19 36 20 85 21 79 22 78 23
REMARK SMILES IDX 37 25 67 26 48 27 66 28 49 29 52 30 65 31 83 32 50 33 51 34
REMARK SMILES IDX 64 36 84 37 53 38 38 39 39 40 47 41 40 42 46 43 41 44 42 45
REMARK SMILES IDX 43 46 44 47 45 48 68 49 69 50 77 51 70 52 76 53 71 54 72 55
REMARK SMILES IDX 73 56 74 57 75 58 54 59 55 60 63 61 56 62 62 63 57 64 58 65
REMARK SMILES IDX 59 66 60 67 61 68 6 69 7 70 8 71 9 72 10 74 11 75 12 76
REMARK SMILES IDX 28 77 13 78 14 79 15 80 16 81 17 84 18 85 27 86 19 87 21 88
REMARK SMILES IDX 26 89 20 90 22 91 24 92 23 93 25 94
REMARK H PARENT 3 6 82 24 52 35 8 73 16 82 16 83
REMARK Flexibility Score: inf
ROOT
ATOM      1  C   UNL A   1      36.253  23.144  24.422  1.00  0.00     0.023 C 
ENDROOT
BRANCH   1   2
ATOM      2  C   UNL A   1      36.923  23.448  25.757  1.00  0.00     0.116 C 
BRANCH   2   3
ATOM      3  N   UNL A   1      38.027  22.549  26.044  1.00  0.00    -0.352 N 
ATOM      4  O   UNL A   1      40.129  21.954  26.571  1.00  0.00    -0.269 OA
ATOM      5  C   UNL A   1      39.272  22.833  26.546  1.00  0.00     0.251 C 
ATOM      6  H   UNL A   1      37.858  21.599  25.850  1.00  0.00     0.163 HD
BRANCH   5   7
ATOM      7  C   UNL A   1      39.587  24.190  27.044  1.00  0.00     0.039 A 
ATOM      8  C   UNL A   1      40.216  25.093  26.181  1.00  0.00     0.014 A 
ATOM      9  C   UNL A   1      39.317  24.554  28.366  1.00  0.00     0.014 A 
ATOM     10  C   UNL A   1      40.558  26.369  26.639  1.00  0.00     0.010 A 
ATOM     11  C   UNL A   1      39.599  25.845  28.801  1.00  0.00     0.010 A 
ATOM     12  C   UNL A   1      40.249  26.753  27.951  1.00  0.00    -0.014 A 
BRANCH  12  13
ATOM     13  C   UNL A   1      40.693  28.056  28.505  1.00  0.00     0.031 A 
ATOM     14  C   UNL A   1      42.130  28.210  28.927  1.00  0.00     0.074 A 
ATOM     15  C   UNL A   1      39.822  29.069  28.671  1.00  0.00     0.049 A 
ATOM     16  N   UNL A   1      42.696  29.192  29.577  1.00  0.00    -0.248 NA
ATOM     17  C   UNL A   1      43.046  27.103  28.597  1.00  0.00     0.031 C 
ATOM     18  C   UNL A   1      38.410  29.043  28.288  1.00  0.00     0.029 A 
ATOM     19  N   UNL A   1      39.997  30.318  29.216  1.00  0.00    -0.354 N 
ATOM     20  C   UNL A   1      44.021  28.811  29.755  1.00  0.00     0.074 A 
ATOM     21  C   UNL A   1      44.169  27.494  29.182  1.00  0.00     0.031 C 
ATOM     22  C   UNL A   1      37.851  30.226  28.597  1.00  0.00     0.029 A 
ATOM     23  C   UNL A   1      38.850  31.076  29.242  1.00  0.00     0.049 A 
ATOM     24  H   UNL A   1      40.863  30.640  29.555  1.00  0.00     0.167 HD
ATOM     25  C   UNL A   1      45.028  29.509  30.324  1.00  0.00     0.031 A 
ATOM     26  C   UNL A   1      38.623  32.308  29.744  1.00  0.00     0.031 A 
ATOM     27  C   UNL A   1      44.885  30.840  30.844  1.00  0.00     0.049 A 
ATOM     28  C   UNL A   1      39.756  33.062  30.386  1.00  0.00     0.074 A 
ATOM     29  C   UNL A   1      45.859  31.643  31.412  1.00  0.00     0.029 A 
ATOM     30  N   UNL A   1      43.709  31.572  30.839  1.00  0.00    -0.354 N 
ATOM     31  N   UNL A   1      41.003  32.686  30.543  1.00  0.00    -0.248 NA
ATOM     32  C   UNL A   1      39.463  34.402  30.916  1.00  0.00     0.031 C 
ATOM     33  C   UNL A   1      45.262  32.845  31.790  1.00  0.00     0.029 A 
ATOM     34  C   UNL A   1      43.931  32.814  31.403  1.00  0.00     0.049 A 
ATOM     35  H   UNL A   1      42.846  31.255  30.487  1.00  0.00     0.167 HD
ATOM     36  C   UNL A   1      41.646  33.750  31.167  1.00  0.00     0.074 A 
ATOM     37  C   UNL A   1      40.656  34.789  31.353  1.00  0.00     0.031 C 
ATOM     38  C   UNL A   1      42.940  33.851  31.554  1.00  0.00     0.031 A 
BRANCH  25  39
ATOM     39  C   UNL A   1      46.392  28.878  30.393  1.00  0.00    -0.014 A 
ATOM     40  C   UNL A   1      47.289  29.035  29.321  1.00  0.00     0.010 A 
ATOM     41  C   UNL A   1      46.730  28.020  31.453  1.00  0.00     0.010 A 
ATOM     42  C   UNL A   1      48.483  28.311  29.286  1.00  0.00     0.020 A 
ATOM     43  C   UNL A   1      47.936  27.314  31.436  1.00  0.00     0.020 A 
ATOM     44  C   UNL A   1      48.792  27.444  30.339  1.00  0.00     0.054 A 
BRANCH  44  45
ATOM     45  S   UNL A   1      50.322  26.474  30.253  1.00  0.00     0.124 S 
ATOM     46  O   UNL A   1      49.861  25.224  29.657  1.00  0.00    -0.237 OA
ATOM     47  O   UNL A   1      51.178  27.301  29.408  1.00  0.00    -0.237 OA
ATOM     48  O   UNL A   1      50.745  26.383  31.650  1.00  0.00    -0.744 OA
ENDBRANCH  44  45
ENDBRANCH  25  39
BRANCH  26  49
ATOM     49  C   UNL A   1      37.261  32.901  29.640  1.00  0.00    -0.014 A 
ATOM     50  C   UNL A   1      36.850  33.546  28.458  1.00  0.00     0.010 A 
ATOM     51  C   UNL A   1      36.386  32.875  30.741  1.00  0.00     0.010 A 
ATOM     52  C   UNL A   1      35.611  34.190  28.392  1.00  0.00     0.020 A 
ATOM     53  C   UNL A   1      35.134  33.495  30.669  1.00  0.00     0.020 A 
ATOM     54  C   UNL A   1      34.766  34.171  29.503  1.00  0.00     0.054 A 
BRANCH  54  55
ATOM     55  S   UNL A   1      33.174  35.036  29.409  1.00  0.00     0.124 S 
ATOM     56  O   UNL A   1      32.452  34.226  28.431  1.00  0.00    -0.237 OA
ATOM     57  O   UNL A   1      32.680  34.952  30.781  1.00  0.00    -0.237 OA
ATOM     58  O   UNL A   1      33.541  36.377  28.963  1.00  0.00    -0.744 OA
ENDBRANCH  54  55
ENDBRANCH  26  49
BRANCH  38  59
ATOM     59  C   UNL A   1      43.409  35.125  32.202  1.00  0.00    -0.014 A 
ATOM     60  C   UNL A   1      43.134  35.346  33.566  1.00  0.00     0.010 A 
ATOM     61  C   UNL A   1      43.917  36.177  31.421  1.00  0.00     0.010 A 
ATOM     62  C   UNL A   1      43.300  36.615  34.123  1.00  0.00     0.020 A 
ATOM     63  C   UNL A   1      44.107  37.442  31.983  1.00  0.00     0.020 A 
ATOM     64  C   UNL A   1      43.764  37.661  33.321  1.00  0.00     0.054 A 
BRANCH  64  65
ATOM     65  S   UNL A   1      43.877  39.325  34.035  1.00  0.00     0.124 S 
ATOM     66  O   UNL A   1      45.062  39.862  33.373  1.00  0.00    -0.237 OA
ATOM     67  O   UNL A   1      42.607  39.931  33.642  1.00  0.00    -0.237 OA
ATOM     68  O   UNL A   1      44.022  39.074  35.467  1.00  0.00    -0.744 OA
ENDBRANCH  64  65
ENDBRANCH  38  59
ENDBRANCH  12  13
ENDBRANCH   5   7
ENDBRANCH   2   3
ENDBRANCH   1   2
BRANCH   1  69
ATOM     69  C   UNL A   1      35.729  21.716  24.266  1.00  0.00     0.023 C 
BRANCH  69  70
ATOM     70  C   UNL A   1      35.054  21.142  25.510  1.00  0.00     0.116 C 
BRANCH  70  71
ATOM     71  N   UNL A   1      34.192  20.021  25.182  1.00  0.00    -0.352 N 
ATOM     72  C   UNL A   1      32.823  19.980  25.133  1.00  0.00     0.252 C 
ATOM     73  H   UNL A   1      34.652  19.178  24.966  1.00  0.00     0.163 HD
ATOM     74  O   UNL A   1      32.250  18.895  25.130  1.00  0.00    -0.269 OA
BRANCH  72  75
ATOM     75  C   UNL A   1      32.088  21.234  25.107  1.00  0.00     0.051 A 
ATOM     76  C   UNL A   1      31.689  21.928  26.236  1.00  0.00     0.079 A 
ATOM     77  C   UNL A   1      31.772  21.974  23.921  1.00  0.00     0.035 A 
ATOM     78  S   UNL A   1      30.873  23.379  25.867  1.00  0.00    -0.142 S 
ATOM     79  C   UNL A   1      31.132  23.165  24.187  1.00  0.00     0.059 A 
BRANCH  79  80
ATOM     80  C   UNL A   1      30.782  24.260  23.224  1.00  0.00     0.308 C 
BRANCH  80  81
ATOM     81  N   UNL A   1      30.803  25.578  23.846  1.00  0.00    -0.336 N 
ATOM     82  H   UNL A   1      30.386  25.496  24.773  1.00  0.00     0.347 HD
ATOM     83  H   UNL A   1      30.287  26.194  23.219  1.00  0.00     0.347 HD
BRANCH  81  84
ATOM     84  C   UNL A   1      32.149  26.184  24.003  1.00  0.00     0.215 C 
ATOM     85  C   UNL A   1      32.617  26.458  22.554  1.00  0.00     0.081 C 
ATOM     86  C   UNL A   1      32.180  27.404  24.924  1.00  0.00     0.026 A 
ATOM     87  C   UNL A   1      33.813  27.383  22.480  1.00  0.00     0.081 C 
ATOM     88  C   UNL A   1      32.529  28.699  24.497  1.00  0.00     0.017 A 
ATOM     89  C   UNL A   1      31.892  27.243  26.296  1.00  0.00     0.050 A 
ATOM     90  S   UNL A   1      33.255  29.051  22.905  1.00  0.00    -0.125 SA
ATOM     91  C   UNL A   1      32.397  29.797  25.369  1.00  0.00     0.018 A 
ATOM     92  C   UNL A   1      31.761  28.336  27.146  1.00  0.00     0.123 A 
ATOM     93  C   UNL A   1      31.982  29.619  26.686  1.00  0.00     0.040 A 
ATOM     94  F   UNL A   1      31.416  28.137  28.425  1.00  0.00    -0.207 F 
ENDBRANCH  81  84
ENDBRANCH  80  81
ENDBRANCH  79  80
ENDBRANCH  72  75
ENDBRANCH  70  71
ENDBRANCH  69  70
ENDBRANCH   1  69
TORSDOF 17
ENDMDL
MODEL 3
REMARK VINA RESULT:     -10.9      5.389     11.611
REMARK SMILES O=C(NCCCCNC(=O)c1csc(C[NH2+][C@H]2CCSc3ccc(F)cc32)c1)c1ccc(-c2c3nc(c(-c4ccc(S(=O)(=O)[O-])cc4)c4ccc([nH]4)c(-c4ccc(S(=O)(=O)[O-])cc4)c4nc(c(-c5ccc(S(=O)(=O)[O-])cc5)c5ccc2[nH]5)C=C4)C=C3)cc1
REMARK SMILES IDX 5 1 4 2 3 3 1 4 2 5 29 7 30 8 88 9 31 10 87 11 32 12 33 13
REMARK SMILES IDX 34 14 81 15 35 16 86 17 80 18 82 19 36 20 85 21 79 22 78 23
REMARK SMILES IDX 37 25 67 26 48 27 66 28 49 29 52 30 65 31 83 32 50 33 51 34
REMARK SMILES IDX 64 36 84 37 53 38 38 39 39 40 47 41 40 42 46 43 41 44 42 45
REMARK SMILES IDX 43 46 44 47 45 48 68 49 69 50 77 51 70 52 76 53 71 54 72 55
REMARK SMILES IDX 73 56 74 57 75 58 54 59 55 60 63 61 56 62 62 63 57 64 58 65
REMARK SMILES IDX 59 66 60 67 61 68 6 69 7 70 8 71 9 72 10 74 11 75 12 76
REMARK SMILES IDX 28 77 13 78 14 79 15 80 16 81 17 84 18 85 27 86 19 87 21 88
REMARK SMILES IDX 26 89 20 90 22 91 24 92 23 93 25 94
REMARK H PARENT 3 6 82 24 52 35 8 73 16 82 16 83
REMARK Flexibility Score: inf
ROOT
ATOM      1  C   UNL A   1      40.572  22.767  27.629  1.00  0.00     0.023 C 
ENDROOT
BRANCH   1   2
ATOM      2  C   UNL A   1      40.259  23.913  26.673  1.00  0.00     0.116 C 
BRANCH   2   3
ATOM      3  N   UNL A   1      41.440  24.401  25.983  1.00  0.00    -0.352 N 
ATOM      4  O   UNL A   1      43.084  25.839  25.456  1.00  0.00    -0.269 OA
ATOM      5  C   UNL A   1      42.214  25.501  26.254  1.00  0.00     0.251 C 
ATOM      6  H   UNL A   1      41.726  23.866  25.208  1.00  0.00     0.163 HD
BRANCH   5   7
ATOM      7  C   UNL A   1      41.997  26.282  27.491  1.00  0.00     0.039 A 
ATOM      8  C   UNL A   1      41.052  25.828  28.416  1.00  0.00     0.014 A 
ATOM      9  C   UNL A   1      42.676  27.483  27.713  1.00  0.00     0.014 A 
ATOM     10  C   UNL A   1      40.801  26.568  29.575  1.00  0.00     0.010 A 
ATOM     11  C   UNL A   1      42.473  28.185  28.898  1.00  0.00     0.010 A 
ATOM     12  C   UNL A   1      41.512  27.750  29.824  1.00  0.00    -0.014 A 
BRANCH  12  13
ATOM     13  C   UNL A   1      41.197  28.617  30.985  1.00  0.00     0.031 A 
ATOM     14  C   UNL A   1      40.069  29.606  30.864  1.00  0.00     0.074 A 
ATOM     15  C   UNL A   1      41.932  28.557  32.112  1.00  0.00     0.049 A 
ATOM     16  N   UNL A   1      39.722  30.565  31.682  1.00  0.00    -0.248 NA
ATOM     17  C   UNL A   1      39.235  29.524  29.651  1.00  0.00     0.031 C 
ATOM     18  C   UNL A   1      43.040  27.632  32.352  1.00  0.00     0.029 A 
ATOM     19  N   UNL A   1      41.860  29.299  33.266  1.00  0.00    -0.354 N 
ATOM     20  C   UNL A   1      38.653  31.210  31.073  1.00  0.00     0.074 A 
ATOM     21  C   UNL A   1      38.430  30.565  29.801  1.00  0.00     0.031 C 
ATOM     22  C   UNL A   1      43.535  27.853  33.583  1.00  0.00     0.029 A 
ATOM     23  C   UNL A   1      42.813  28.964  34.199  1.00  0.00     0.049 A 
ATOM     24  H   UNL A   1      41.189  30.005  33.411  1.00  0.00     0.167 HD
ATOM     25  C   UNL A   1      37.909  32.235  31.546  1.00  0.00     0.031 A 
ATOM     26  C   UNL A   1      43.087  29.500  35.407  1.00  0.00     0.031 A 
ATOM     27  C   UNL A   1      38.103  32.837  32.836  1.00  0.00     0.049 A 
ATOM     28  C   UNL A   1      42.254  30.650  35.907  1.00  0.00     0.074 A 
ATOM     29  C   UNL A   1      37.376  33.861  33.416  1.00  0.00     0.029 A 
ATOM     30  N   UNL A   1      39.071  32.457  33.751  1.00  0.00    -0.354 N 
ATOM     31  N   UNL A   1      41.245  31.246  35.318  1.00  0.00    -0.248 NA
ATOM     32  C   UNL A   1      42.587  31.201  37.230  1.00  0.00     0.031 C 
ATOM     33  C   UNL A   1      37.933  34.130  34.666  1.00  0.00     0.029 A 
ATOM     34  C   UNL A   1      38.967  33.234  34.888  1.00  0.00     0.049 A 
ATOM     35  H   UNL A   1      39.734  31.742  33.611  1.00  0.00     0.167 HD
ATOM     36  C   UNL A   1      40.809  32.224  36.207  1.00  0.00     0.074 A 
ATOM     37  C   UNL A   1      41.656  32.136  37.377  1.00  0.00     0.031 C 
ATOM     38  C   UNL A   1      39.800  33.115  36.059  1.00  0.00     0.031 A 
BRANCH  25  39
ATOM     39  C   UNL A   1      36.788  32.763  30.694  1.00  0.00    -0.014 A 
ATOM     40  C   UNL A   1      37.034  33.808  29.784  1.00  0.00     0.010 A 
ATOM     41  C   UNL A   1      35.468  32.321  30.891  1.00  0.00     0.010 A 
ATOM     42  C   UNL A   1      35.977  34.432  29.119  1.00  0.00     0.020 A 
ATOM     43  C   UNL A   1      34.409  32.924  30.207  1.00  0.00     0.020 A 
ATOM     44  C   UNL A   1      34.668  33.994  29.347  1.00  0.00     0.054 A 
BRANCH  44  45
ATOM     45  S   UNL A   1      33.302  34.847  28.514  1.00  0.00     0.124 S 
ATOM     46  O   UNL A   1      34.007  35.813  27.677  1.00  0.00    -0.237 OA
ATOM     47  O   UNL A   1      32.633  33.762  27.802  1.00  0.00    -0.237 OA
ATOM     48  O   UNL A   1      32.534  35.419  29.619  1.00  0.00    -0.744 OA
ENDBRANCH  44  45
ENDBRANCH  25  39
BRANCH  26  49
ATOM     49  C   UNL A   1      44.196  28.936  36.225  1.00  0.00    -0.014 A 
ATOM     50  C   UNL A   1      45.495  29.471  36.135  1.00  0.00     0.010 A 
ATOM     51  C   UNL A   1      43.973  27.824  37.057  1.00  0.00     0.010 A 
ATOM     52  C   UNL A   1      46.557  28.881  36.825  1.00  0.00     0.020 A 
ATOM     53  C   UNL A   1      45.029  27.247  37.771  1.00  0.00     0.020 A 
ATOM     54  C   UNL A   1      46.319  27.763  37.629  1.00  0.00     0.054 A 
BRANCH  54  55
ATOM     55  S   UNL A   1      47.716  26.993  38.495  1.00  0.00     0.124 S 
ATOM     56  O   UNL A   1      47.553  27.518  39.848  1.00  0.00    -0.237 OA
ATOM     57  O   UNL A   1      47.444  25.567  38.338  1.00  0.00    -0.237 OA
ATOM     58  O   UNL A   1      48.881  27.486  37.767  1.00  0.00    -0.744 OA
ENDBRANCH  54  55
ENDBRANCH  26  49
BRANCH  38  59
ATOM     59  C   UNL A   1      39.505  34.074  37.181  1.00  0.00    -0.014 A 
ATOM     60  C   UNL A   1      40.186  35.306  37.230  1.00  0.00     0.010 A 
ATOM     61  C   UNL A   1      38.735  33.667  38.283  1.00  0.00     0.010 A 
ATOM     62  C   UNL A   1      40.151  36.087  38.386  1.00  0.00     0.020 A 
ATOM     63  C   UNL A   1      38.679  34.458  39.433  1.00  0.00     0.020 A 
ATOM     64  C   UNL A   1      39.416  35.646  39.490  1.00  0.00     0.054 A 
BRANCH  64  65
ATOM     65  S   UNL A   1      39.463  36.622  41.018  1.00  0.00     0.124 S 
ATOM     66  O   UNL A   1      38.947  37.913  40.573  1.00  0.00    -0.237 OA
ATOM     67  O   UNL A   1      38.585  35.866  41.909  1.00  0.00    -0.237 OA
ATOM     68  O   UNL A   1      40.876  36.608  41.390  1.00  0.00    -0.744 OA
ENDBRANCH  64  65
ENDBRANCH  38  59
ENDBRANCH  12  13
ENDBRANCH   5   7
ENDBRANCH   2   3
ENDBRANCH   1   2
BRANCH   1  69
ATOM     69  C   UNL A   1      40.839  21.417  26.962  1.00  0.00     0.023 C 
BRANCH  69  70
ATOM     70  C   UNL A   1      41.920  20.573  27.634  1.00  0.00     0.116 C 
BRANCH  70  71
ATOM     71  N   UNL A   1      41.935  19.216  27.121  1.00  0.00    -0.352 N 
ATOM     72  C   UNL A   1      42.696  18.692  26.108  1.00  0.00     0.252 C 
ATOM     73  H   UNL A   1      41.316  18.587  27.559  1.00  0.00     0.163 HD
ATOM     74  O   UNL A   1      42.378  17.617  25.607  1.00  0.00    -0.269 OA
BRANCH  72  75
ATOM     75  C   UNL A   1      43.850  19.443  25.643  1.00  0.00     0.051 A 
ATOM     76  C   UNL A   1      45.067  18.874  25.309  1.00  0.00     0.079 A 
ATOM     77  C   UNL A   1      43.855  20.849  25.367  1.00  0.00     0.035 A 
ATOM     78  S   UNL A   1      46.207  20.022  24.770  1.00  0.00    -0.142 S 
ATOM     79  C   UNL A   1      45.062  21.293  24.869  1.00  0.00     0.059 A 
BRANCH  79  80
ATOM     80  C   UNL A   1      45.395  22.652  24.334  1.00  0.00     0.308 C 
BRANCH  80  81
ATOM     81  N   UNL A   1      45.194  23.706  25.321  1.00  0.00    -0.336 N 
ATOM     82  H   UNL A   1      44.252  23.609  25.700  1.00  0.00     0.347 HD
ATOM     83  H   UNL A   1      45.349  24.586  24.830  1.00  0.00     0.347 HD
BRANCH  81  84
ATOM     84  C   UNL A   1      46.147  23.698  26.459  1.00  0.00     0.215 C 
ATOM     85  C   UNL A   1      47.308  24.609  25.995  1.00  0.00     0.081 C 
ATOM     86  C   UNL A   1      45.523  24.093  27.798  1.00  0.00     0.026 A 
ATOM     87  C   UNL A   1      48.230  25.021  27.122  1.00  0.00     0.081 C 
ATOM     88  C   UNL A   1      45.902  25.232  28.532  1.00  0.00     0.017 A 
ATOM     89  C   UNL A   1      44.541  23.262  28.377  1.00  0.00     0.050 A 
ATOM     90  S   UNL A   1      47.346  26.213  28.157  1.00  0.00    -0.125 SA
ATOM     91  C   UNL A   1      45.185  25.610  29.684  1.00  0.00     0.018 A 
ATOM     92  C   UNL A   1      43.837  23.647  29.512  1.00  0.00     0.123 A 
ATOM     93  C   UNL A   1      44.131  24.833  30.157  1.00  0.00     0.040 A 
ATOM     94  F   UNL A   1      42.865  22.856  29.984  1.00  0.00    -0.207 F 
ENDBRANCH  81  84
ENDBRANCH  80  81
ENDBRANCH  79  80
ENDBRANCH  72  75
ENDBRANCH  70  71
ENDBRANCH  69  70
ENDBRANCH   1  69
TORSDOF 17
ENDMDL
