MODEL 1
REMARK VINA RESULT:     -10.6      0.000      0.000
REMARK SMILES CCCN1CCC[C@@]2(CCN(c3ccc(C(=O)NCCCCNC(=O)c4ccc(-c5c6nc(c(-c7ccc(S(=O)(=O)[O-])cc7)c7ccc([nH]7)c(-c7ccc(S(=O)(=O)[O-])cc7)c7nc(c(-c8ccc(S(=O)(=O)[O-])cc8)c8ccc5[nH]8)C=C7)C=C6)cc4)cn3)C2)C1=O
REMARK SMILES IDX 20 1 19 2 18 3 16 4 17 5 15 7 12 8 13 9 87 10 14 11 86 12
REMARK SMILES IDX 11 13 4 14 5 15 89 16 6 17 8 18 90 19 7 20 9 21 88 22 10 23
REMARK SMILES IDX 3 24 2 25 1 26 21 27 22 28 23 29 24 30 25 32 26 33 27 34
REMARK SMILES IDX 85 35 28 36 84 37 29 38 30 39 31 40 78 41 32 42 83 43 77 44
REMARK SMILES IDX 79 45 33 46 82 47 76 48 75 49 34 51 64 52 45 53 63 54 46 55
REMARK SMILES IDX 49 56 62 57 80 58 47 59 48 60 61 62 81 63 50 64 35 65 36 66
REMARK SMILES IDX 44 67 37 68 43 69 38 70 39 71 40 72 41 73 42 74 65 75 66 76
REMARK SMILES IDX 74 77 67 78 73 79 68 80 69 81 70 82 71 83 72 84 51 85 52 86
REMARK SMILES IDX 60 87 53 88 59 89 54 90 55 91 56 92 57 93 58 94
REMARK H PARENT 18 6 23 31 79 50 49 61
REMARK Flexibility Score: inf
ROOT
ATOM      1  C   UNL A   1      33.037  34.548  28.576  1.00  0.00     0.023 C 
ENDROOT
BRANCH   1   2
ATOM      2  C   UNL A   1      33.511  35.860  29.208  1.00  0.00     0.116 C 
BRANCH   2   3
ATOM      3  N   UNL A   1      32.707  36.210  30.366  1.00  0.00    -0.352 N 
ATOM      4  C   UNL A   1      32.843  35.930  31.705  1.00  0.00     0.252 C 
ATOM      5  O   UNL A   1      32.028  36.437  32.477  1.00  0.00    -0.269 OA
ATOM      6  H   UNL A   1      31.913  36.750  30.150  1.00  0.00     0.163 HD
BRANCH   4   7
ATOM      7  C   UNL A   1      33.926  35.083  32.267  1.00  0.00     0.058 A 
ATOM      8  C   UNL A   1      36.084  33.727  33.388  1.00  0.00     0.128 A 
ATOM      9  C   UNL A   1      35.112  33.034  32.680  1.00  0.00     0.048 A 
ATOM     10  N   UNL A   1      35.984  35.053  33.588  1.00  0.00    -0.239 NA
ATOM     11  C   UNL A   1      34.014  33.704  32.154  1.00  0.00     0.019 A 
ATOM     12  C   UNL A   1      34.928  35.700  33.012  1.00  0.00     0.127 A 
BRANCH   8  13
ATOM     13  N   UNL A   1      37.140  33.019  33.887  1.00  0.00    -0.356 N 
ATOM     14  N   UNL A   1      38.564  32.770  37.780  1.00  0.00    -0.342 N 
ATOM     15  C   UNL A   1      39.881  33.373  37.949  1.00  0.00     0.119 C 
ATOM     16  C   UNL A   1      38.395  31.895  36.708  1.00  0.00     0.230 C 
ATOM     17  C   UNL A   1      40.481  33.903  36.653  1.00  0.00     0.023 C 
ATOM     18  C   UNL A   1      38.899  32.432  35.369  1.00  0.00     0.069 C 
ATOM     19  O   UNL A   1      37.851  30.800  36.816  1.00  0.00    -0.274 OA
ATOM     20  C   UNL A   1      40.357  32.872  35.532  1.00  0.00     0.021 C 
ATOM     21  C   UNL A   1      38.698  31.382  34.258  1.00  0.00     0.040 C 
ATOM     22  C   UNL A   1      37.994  33.602  34.909  1.00  0.00     0.135 C 
ATOM     23  C   UNL A   1      37.229  31.579  33.854  1.00  0.00     0.119 C 
BRANCH  14  24
ATOM     24  C   UNL A   1      37.757  32.589  38.990  1.00  0.00     0.119 C 
BRANCH  24  25
ATOM     25  C   UNL A   1      36.296  33.059  38.865  1.00  0.00     0.018 C 
ATOM     26  C   UNL A   1      35.332  32.159  39.630  1.00  0.00     0.006 C 
ENDBRANCH  24  25
ENDBRANCH  14  24
ENDBRANCH   8  13
ENDBRANCH   4   7
ENDBRANCH   2   3
ENDBRANCH   1   2
BRANCH   1  27
ATOM     27  C   UNL A   1      34.160  33.670  28.020  1.00  0.00     0.023 C 
BRANCH  27  28
ATOM     28  C   UNL A   1      34.369  32.350  28.755  1.00  0.00     0.116 C 
BRANCH  28  29
ATOM     29  N   UNL A   1      33.880  31.194  28.021  1.00  0.00    -0.352 N 
ATOM     30  C   UNL A   1      34.564  30.049  27.677  1.00  0.00     0.251 C 
ATOM     31  H   UNL A   1      32.938  31.235  27.733  1.00  0.00     0.163 HD
ATOM     32  O   UNL A   1      34.042  29.202  26.975  1.00  0.00    -0.269 OA
BRANCH  30  33
ATOM     33  C   UNL A   1      35.962  29.894  28.136  1.00  0.00     0.039 A 
ATOM     34  C   UNL A   1      36.195  29.489  29.452  1.00  0.00     0.014 A 
ATOM     35  C   UNL A   1      37.028  30.091  27.254  1.00  0.00     0.014 A 
ATOM     36  C   UNL A   1      37.499  29.206  29.864  1.00  0.00     0.010 A 
ATOM     37  C   UNL A   1      38.319  29.753  27.650  1.00  0.00     0.010 A 
ATOM     38  C   UNL A   1      38.565  29.296  28.954  1.00  0.00    -0.014 A 
BRANCH  38  39
ATOM     39  C   UNL A   1      39.941  28.893  29.335  1.00  0.00     0.031 A 
ATOM     40  C   UNL A   1      40.831  29.855  30.070  1.00  0.00     0.074 A 
ATOM     41  C   UNL A   1      40.409  27.687  28.955  1.00  0.00     0.049 A 
ATOM     42  N   UNL A   1      42.088  29.717  30.409  1.00  0.00    -0.248 NA
ATOM     43  C   UNL A   1      40.242  31.148  30.453  1.00  0.00     0.031 C 
ATOM     44  C   UNL A   1      39.653  26.679  28.206  1.00  0.00     0.029 A 
ATOM     45  N   UNL A   1      41.640  27.108  29.137  1.00  0.00    -0.354 N 
ATOM     46  C   UNL A   1      42.442  30.906  31.034  1.00  0.00     0.074 A 
ATOM     47  C   UNL A   1      41.283  31.770  30.988  1.00  0.00     0.031 C 
ATOM     48  C   UNL A   1      40.430  25.600  28.012  1.00  0.00     0.029 A 
ATOM     49  C   UNL A   1      41.748  25.853  28.585  1.00  0.00     0.049 A 
ATOM     50  H   UNL A   1      42.377  27.550  29.618  1.00  0.00     0.167 HD
ATOM     51  C   UNL A   1      43.621  31.241  31.611  1.00  0.00     0.031 A 
ATOM     52  C   UNL A   1      42.793  25.005  28.538  1.00  0.00     0.031 A 
ATOM     53  C   UNL A   1      44.768  30.376  31.668  1.00  0.00     0.049 A 
ATOM     54  C   UNL A   1      44.096  25.408  29.172  1.00  0.00     0.074 A 
ATOM     55  C   UNL A   1      45.993  30.610  32.268  1.00  0.00     0.029 A 
ATOM     56  N   UNL A   1      44.832  29.109  31.108  1.00  0.00    -0.354 N 
ATOM     57  N   UNL A   1      44.395  26.519  29.802  1.00  0.00    -0.248 NA
ATOM     58  C   UNL A   1      45.200  24.440  29.096  1.00  0.00     0.031 C 
ATOM     59  C   UNL A   1      46.811  29.498  32.039  1.00  0.00     0.029 A 
ATOM     60  C   UNL A   1      46.079  28.555  31.337  1.00  0.00     0.049 A 
ATOM     61  H   UNL A   1      44.098  28.669  30.621  1.00  0.00     0.167 HD
ATOM     62  C   UNL A   1      45.713  26.373  30.218  1.00  0.00     0.074 A 
ATOM     63  C   UNL A   1      46.148  25.062  29.782  1.00  0.00     0.031 C 
ATOM     64  C   UNL A   1      46.493  27.246  30.901  1.00  0.00     0.031 A 
BRANCH  51  65
ATOM     65  C   UNL A   1      43.724  32.606  32.238  1.00  0.00    -0.014 A 
ATOM     66  C   UNL A   1      43.506  32.782  33.615  1.00  0.00     0.010 A 
ATOM     67  C   UNL A   1      44.095  33.713  31.453  1.00  0.00     0.010 A 
ATOM     68  C   UNL A   1      43.623  34.048  34.192  1.00  0.00     0.020 A 
ATOM     69  C   UNL A   1      44.238  34.977  32.032  1.00  0.00     0.020 A 
ATOM     70  C   UNL A   1      43.986  35.139  33.396  1.00  0.00     0.054 A 
BRANCH  70  71
ATOM     71  S   UNL A   1      44.163  36.766  34.180  1.00  0.00     0.124 S 
ATOM     72  O   UNL A   1      44.968  37.486  33.197  1.00  0.00    -0.237 OA
ATOM     73  O   UNL A   1      42.778  37.214  34.306  1.00  0.00    -0.237 OA
ATOM     74  O   UNL A   1      44.836  36.471  35.442  1.00  0.00    -0.744 OA
ENDBRANCH  70  71
ENDBRANCH  51  65
BRANCH  52  75
ATOM     75  C   UNL A   1      42.655  23.683  27.868  1.00  0.00    -0.014 A 
ATOM     76  C   UNL A   1      42.263  22.551  28.604  1.00  0.00     0.010 A 
ATOM     77  C   UNL A   1      42.927  23.546  26.495  1.00  0.00     0.010 A 
ATOM     78  C   UNL A   1      42.173  21.300  27.987  1.00  0.00     0.020 A 
ATOM     79  C   UNL A   1      42.813  22.301  25.868  1.00  0.00     0.020 A 
ATOM     80  C   UNL A   1      42.453  21.183  26.622  1.00  0.00     0.054 A 
BRANCH  80  81
ATOM     81  S   UNL A   1      42.302  19.556  25.832  1.00  0.00     0.124 S 
ATOM     82  O   UNL A   1      40.909  19.562  25.396  1.00  0.00    -0.237 OA
ATOM     83  O   UNL A   1      43.299  19.626  24.768  1.00  0.00    -0.237 OA
ATOM     84  O   UNL A   1      42.619  18.624  26.912  1.00  0.00    -0.744 OA
ENDBRANCH  80  81
ENDBRANCH  52  75
BRANCH  64  85
ATOM     85  C   UNL A   1      47.887  26.802  31.248  1.00  0.00    -0.014 A 
ATOM     86  C   UNL A   1      48.142  26.058  32.414  1.00  0.00     0.010 A 
ATOM     87  C   UNL A   1      48.945  27.080  30.364  1.00  0.00     0.010 A 
ATOM     88  C   UNL A   1      49.438  25.621  32.701  1.00  0.00     0.020 A 
ATOM     89  C   UNL A   1      50.236  26.624  30.636  1.00  0.00     0.020 A 
ATOM     90  C   UNL A   1      50.477  25.907  31.810  1.00  0.00     0.054 A 
BRANCH  90  91
ATOM     91  S   UNL A   1      52.139  25.280  32.176  1.00  0.00     0.124 S 
ATOM     92  O   UNL A   1      52.464  25.987  33.412  1.00  0.00    -0.237 OA
ATOM     93  O   UNL A   1      51.919  23.843  32.313  1.00  0.00    -0.237 OA
ATOM     94  O   UNL A   1      52.923  25.676  31.007  1.00  0.00    -0.744 OA
ENDBRANCH  90  91
ENDBRANCH  64  85
ENDBRANCH  38  39
ENDBRANCH  30  33
ENDBRANCH  28  29
ENDBRANCH  27  28
ENDBRANCH   1  27
TORSDOF 17
ENDMDL
MODEL 2
REMARK VINA RESULT:     -10.6      4.340     12.265
REMARK SMILES CCCN1CCC[C@@]2(CCN(c3ccc(C(=O)NCCCCNC(=O)c4ccc(-c5c6nc(c(-c7ccc(S(=O)(=O)[O-])cc7)c7ccc([nH]7)c(-c7ccc(S(=O)(=O)[O-])cc7)c7nc(c(-c8ccc(S(=O)(=O)[O-])cc8)c8ccc5[nH]8)C=C7)C=C6)cc4)cn3)C2)C1=O
REMARK SMILES IDX 20 1 19 2 18 3 16 4 17 5 15 7 12 8 13 9 87 10 14 11 86 12
REMARK SMILES IDX 11 13 4 14 5 15 89 16 6 17 8 18 90 19 7 20 9 21 88 22 10 23
REMARK SMILES IDX 3 24 2 25 1 26 21 27 22 28 23 29 24 30 25 32 26 33 27 34
REMARK SMILES IDX 85 35 28 36 84 37 29 38 30 39 31 40 78 41 32 42 83 43 77 44
REMARK SMILES IDX 79 45 33 46 82 47 76 48 75 49 34 51 64 52 45 53 63 54 46 55
REMARK SMILES IDX 49 56 62 57 80 58 47 59 48 60 61 62 81 63 50 64 35 65 36 66
REMARK SMILES IDX 44 67 37 68 43 69 38 70 39 71 40 72 41 73 42 74 65 75 66 76
REMARK SMILES IDX 74 77 67 78 73 79 68 80 69 81 70 82 71 83 72 84 51 85 52 86
REMARK SMILES IDX 60 87 53 88 59 89 54 90 55 91 56 92 57 93 58 94
REMARK H PARENT 18 6 23 31 79 50 49 61
REMARK Flexibility Score: inf
ROOT
ATOM      1  C   UNL A   1      40.427  22.252  27.621  1.00  0.00     0.023 C 
ENDROOT
BRANCH   1   2
ATOM      2  C   UNL A   1      39.422  22.547  26.503  1.00  0.00     0.116 C 
BRANCH   2   3
ATOM      3  N   UNL A   1      38.984  21.327  25.851  1.00  0.00    -0.352 N 
ATOM      4  C   UNL A   1      37.858  21.019  25.124  1.00  0.00     0.252 C 
ATOM      5  O   UNL A   1      37.796  19.898  24.618  1.00  0.00    -0.269 OA
ATOM      6  H   UNL A   1      39.613  20.576  25.947  1.00  0.00     0.163 HD
BRANCH   4   7
ATOM      7  C   UNL A   1      36.738  21.967  24.894  1.00  0.00     0.058 A 
ATOM      8  C   UNL A   1      34.754  23.802  24.221  1.00  0.00     0.128 A 
ATOM      9  C   UNL A   1      34.804  23.259  25.498  1.00  0.00     0.048 A 
ATOM     10  N   UNL A   1      35.627  23.423  23.272  1.00  0.00    -0.239 NA
ATOM     11  C   UNL A   1      35.769  22.314  25.823  1.00  0.00     0.019 A 
ATOM     12  C   UNL A   1      36.604  22.537  23.630  1.00  0.00     0.127 A 
BRANCH   8  13
ATOM     13  N   UNL A   1      33.782  24.724  23.954  1.00  0.00    -0.356 N 
ATOM     14  N   UNL A   1      33.092  28.430  25.695  1.00  0.00    -0.342 N 
ATOM     15  C   UNL A   1      31.853  28.482  26.462  1.00  0.00     0.119 C 
ATOM     16  C   UNL A   1      33.028  27.889  24.413  1.00  0.00     0.230 C 
ATOM     17  C   UNL A   1      31.045  27.193  26.405  1.00  0.00     0.023 C 
ATOM     18  C   UNL A   1      32.306  26.545  24.330  1.00  0.00     0.069 C 
ATOM     19  O   UNL A   1      33.541  28.422  23.433  1.00  0.00    -0.274 OA
ATOM     20  C   UNL A   1      30.921  26.689  24.967  1.00  0.00     0.021 C 
ATOM     21  C   UNL A   1      32.259  26.047  22.871  1.00  0.00     0.040 C 
ATOM     22  C   UNL A   1      33.155  25.460  25.040  1.00  0.00     0.135 C 
ATOM     23  C   UNL A   1      33.635  25.391  22.682  1.00  0.00     0.119 C 
BRANCH  14  24
ATOM     24  C   UNL A   1      34.102  29.450  25.996  1.00  0.00     0.119 C 
BRANCH  24  25
ATOM     25  C   UNL A   1      34.279  29.759  27.493  1.00  0.00     0.018 C 
ATOM     26  C   UNL A   1      35.014  31.074  27.730  1.00  0.00     0.006 C 
ENDBRANCH  24  25
ENDBRANCH  14  24
ENDBRANCH   8  13
ENDBRANCH   4   7
ENDBRANCH   2   3
ENDBRANCH   1   2
BRANCH   1  27
ATOM     27  C   UNL A   1      41.861  22.019  27.140  1.00  0.00     0.023 C 
BRANCH  27  28
ATOM     28  C   UNL A   1      42.703  23.282  26.994  1.00  0.00     0.116 C 
BRANCH  28  29
ATOM     29  N   UNL A   1      42.331  24.098  25.849  1.00  0.00    -0.352 N 
ATOM     30  C   UNL A   1      41.886  25.402  25.839  1.00  0.00     0.251 C 
ATOM     31  H   UNL A   1      42.406  23.663  24.968  1.00  0.00     0.163 HD
ATOM     32  O   UNL A   1      41.521  25.924  24.801  1.00  0.00    -0.269 OA
BRANCH  30  33
ATOM     33  C   UNL A   1      41.812  26.136  27.122  1.00  0.00     0.039 A 
ATOM     34  C   UNL A   1      42.785  27.098  27.400  1.00  0.00     0.014 A 
ATOM     35  C   UNL A   1      40.759  25.913  28.012  1.00  0.00     0.014 A 
ATOM     36  C   UNL A   1      42.658  27.896  28.539  1.00  0.00     0.010 A 
ATOM     37  C   UNL A   1      40.602  26.748  29.115  1.00  0.00     0.010 A 
ATOM     38  C   UNL A   1      41.543  27.754  29.382  1.00  0.00    -0.014 A 
BRANCH  38  39
ATOM     39  C   UNL A   1      41.327  28.663  30.534  1.00  0.00     0.031 A 
ATOM     40  C   UNL A   1      42.183  28.539  31.763  1.00  0.00     0.074 A 
ATOM     41  C   UNL A   1      40.313  29.551  30.499  1.00  0.00     0.049 A 
ATOM     42  N   UNL A   1      42.089  29.180  32.900  1.00  0.00    -0.248 NA
ATOM     43  C   UNL A   1      43.272  27.549  31.719  1.00  0.00     0.031 C 
ATOM     44  C   UNL A   1      39.389  29.741  29.377  1.00  0.00     0.029 A 
ATOM     45  N   UNL A   1      39.882  30.453  31.439  1.00  0.00    -0.354 N 
ATOM     46  C   UNL A   1      43.095  28.666  33.708  1.00  0.00     0.074 A 
ATOM     47  C   UNL A   1      43.760  27.630  32.949  1.00  0.00     0.031 C 
ATOM     48  C   UNL A   1      38.515  30.714  29.688  1.00  0.00     0.029 A 
ATOM     49  C   UNL A   1      38.789  31.187  31.040  1.00  0.00     0.049 A 
ATOM     50  H   UNL A   1      40.313  30.564  32.317  1.00  0.00     0.167 HD
ATOM     51  C   UNL A   1      43.446  29.037  34.963  1.00  0.00     0.031 A 
ATOM     52  C   UNL A   1      38.082  32.129  31.693  1.00  0.00     0.031 A 
ATOM     53  C   UNL A   1      42.793  30.077  35.711  1.00  0.00     0.049 A 
ATOM     54  C   UNL A   1      38.483  32.511  33.092  1.00  0.00     0.074 A 
ATOM     55  C   UNL A   1      43.103  30.554  36.972  1.00  0.00     0.029 A 
ATOM     56  N   UNL A   1      41.699  30.804  35.266  1.00  0.00    -0.354 N 
ATOM     57  N   UNL A   1      39.470  32.046  33.820  1.00  0.00    -0.248 NA
ATOM     58  C   UNL A   1      37.680  33.549  33.754  1.00  0.00     0.031 C 
ATOM     59  C   UNL A   1      42.175  31.545  37.306  1.00  0.00     0.029 A 
ATOM     60  C   UNL A   1      41.315  31.716  36.233  1.00  0.00     0.049 A 
ATOM     61  H   UNL A   1      41.262  30.689  34.392  1.00  0.00     0.167 HD
ATOM     62  C   UNL A   1      39.421  32.753  35.016  1.00  0.00     0.074 A 
ATOM     63  C   UNL A   1      38.317  33.686  34.908  1.00  0.00     0.031 C 
ATOM     64  C   UNL A   1      40.218  32.641  36.106  1.00  0.00     0.031 A 
BRANCH  51  65
ATOM     65  C   UNL A   1      44.600  28.315  35.603  1.00  0.00    -0.014 A 
ATOM     66  C   UNL A   1      44.393  27.125  36.324  1.00  0.00     0.010 A 
ATOM     67  C   UNL A   1      45.911  28.799  35.439  1.00  0.00     0.010 A 
ATOM     68  C   UNL A   1      45.473  26.451  36.898  1.00  0.00     0.020 A 
ATOM     69  C   UNL A   1      46.996  28.114  35.991  1.00  0.00     0.020 A 
ATOM     70  C   UNL A   1      46.768  26.951  36.730  1.00  0.00     0.054 A 
BRANCH  70  71
ATOM     71  S   UNL A   1      48.154  26.035  37.459  1.00  0.00     0.124 S 
ATOM     72  O   UNL A   1      49.300  26.832  37.029  1.00  0.00    -0.237 OA
ATOM     73  O   UNL A   1      47.856  26.084  38.888  1.00  0.00    -0.237 OA
ATOM     74  O   UNL A   1      48.052  24.710  36.851  1.00  0.00    -0.744 OA
ENDBRANCH  70  71
ENDBRANCH  51  65
BRANCH  52  75
ATOM     75  C   UNL A   1      36.920  32.785  31.034  1.00  0.00    -0.014 A 
ATOM     76  C   UNL A   1      37.124  33.774  30.055  1.00  0.00     0.010 A 
ATOM     77  C   UNL A   1      35.606  32.435  31.389  1.00  0.00     0.010 A 
ATOM     78  C   UNL A   1      36.035  34.421  29.464  1.00  0.00     0.020 A 
ATOM     79  C   UNL A   1      34.513  33.062  30.782  1.00  0.00     0.020 A 
ATOM     80  C   UNL A   1      34.736  34.063  29.835  1.00  0.00     0.054 A 
BRANCH  80  81
ATOM     81  S   UNL A   1      33.334  34.894  29.035  1.00  0.00     0.124 S 
ATOM     82  O   UNL A   1      32.489  35.225  30.177  1.00  0.00    -0.237 OA
ATOM     83  O   UNL A   1      33.973  36.026  28.370  1.00  0.00    -0.237 OA
ATOM     84  O   UNL A   1      32.804  33.872  28.135  1.00  0.00    -0.744 OA
ENDBRANCH  80  81
ENDBRANCH  52  75
BRANCH  64  85
ATOM     85  C   UNL A   1      39.949  33.569  37.258  1.00  0.00    -0.014 A 
ATOM     86  C   UNL A   1      40.574  34.826  37.338  1.00  0.00     0.010 A 
ATOM     87  C   UNL A   1      39.011  33.204  38.240  1.00  0.00     0.010 A 
ATOM     88  C   UNL A   1      40.284  35.692  38.395  1.00  0.00     0.020 A 
ATOM     89  C   UNL A   1      38.700  34.077  39.285  1.00  0.00     0.020 A 
ATOM     90  C   UNL A   1      39.348  35.312  39.362  1.00  0.00     0.054 A 
BRANCH  90  91
ATOM     91  S   UNL A   1      38.945  36.475  40.694  1.00  0.00     0.124 S 
ATOM     92  O   UNL A   1      40.219  36.582  41.399  1.00  0.00    -0.237 OA
ATOM     93  O   UNL A   1      38.528  37.670  39.963  1.00  0.00    -0.237 OA
ATOM     94  O   UNL A   1      37.878  35.800  41.431  1.00  0.00    -0.744 OA
ENDBRANCH  90  91
ENDBRANCH  64  85
ENDBRANCH  38  39
ENDBRANCH  30  33
ENDBRANCH  28  29
ENDBRANCH  27  28
ENDBRANCH   1  27
TORSDOF 17
ENDMDL
MODEL 3
REMARK VINA RESULT:     -10.3      4.180     11.701
REMARK SMILES CCCN1CCC[C@@]2(CCN(c3ccc(C(=O)NCCCCNC(=O)c4ccc(-c5c6nc(c(-c7ccc(S(=O)(=O)[O-])cc7)c7ccc([nH]7)c(-c7ccc(S(=O)(=O)[O-])cc7)c7nc(c(-c8ccc(S(=O)(=O)[O-])cc8)c8ccc5[nH]8)C=C7)C=C6)cc4)cn3)C2)C1=O
REMARK SMILES IDX 20 1 19 2 18 3 16 4 17 5 15 7 12 8 13 9 87 10 14 11 86 12
REMARK SMILES IDX 11 13 4 14 5 15 89 16 6 17 8 18 90 19 7 20 9 21 88 22 10 23
REMARK SMILES IDX 3 24 2 25 1 26 21 27 22 28 23 29 24 30 25 32 26 33 27 34
REMARK SMILES IDX 85 35 28 36 84 37 29 38 30 39 31 40 78 41 32 42 83 43 77 44
REMARK SMILES IDX 79 45 33 46 82 47 76 48 75 49 34 51 64 52 45 53 63 54 46 55
REMARK SMILES IDX 49 56 62 57 80 58 47 59 48 60 61 62 81 63 50 64 35 65 36 66
REMARK SMILES IDX 44 67 37 68 43 69 38 70 39 71 40 72 41 73 42 74 65 75 66 76
REMARK SMILES IDX 74 77 67 78 73 79 68 80 69 81 70 82 71 83 72 84 51 85 52 86
REMARK SMILES IDX 60 87 53 88 59 89 54 90 55 91 56 92 57 93 58 94
REMARK H PARENT 18 6 23 31 79 50 49 61
REMARK Flexibility Score: inf
ROOT
ATOM      1  C   UNL A   1      36.521  21.824  23.926  1.00  0.00     0.023 C 
ENDROOT
BRANCH   1   2
ATOM      2  C   UNL A   1      36.608  20.729  24.994  1.00  0.00     0.116 C 
BRANCH   2   3
ATOM      3  N   UNL A   1      35.500  19.797  24.888  1.00  0.00    -0.352 N 
ATOM      4  C   UNL A   1      34.141  19.956  25.020  1.00  0.00     0.252 C 
ATOM      5  O   UNL A   1      33.429  18.978  24.794  1.00  0.00    -0.269 OA
ATOM      6  H   UNL A   1      35.775  18.875  24.681  1.00  0.00     0.163 HD
BRANCH   4   7
ATOM      7  C   UNL A   1      33.491  21.241  25.388  1.00  0.00     0.058 A 
ATOM      8  C   UNL A   1      32.231  23.687  25.811  1.00  0.00     0.128 A 
ATOM      9  C   UNL A   1      32.862  23.033  26.861  1.00  0.00     0.048 A 
ATOM     10  N   UNL A   1      32.173  23.138  24.586  1.00  0.00    -0.239 NA
ATOM     11  C   UNL A   1      33.456  21.793  26.660  1.00  0.00     0.019 A 
ATOM     12  C   UNL A   1      32.815  21.947  24.396  1.00  0.00     0.127 A 
BRANCH   8  13
ATOM     13  N   UNL A   1      31.659  24.901  26.065  1.00  0.00    -0.356 N 
ATOM     14  N   UNL A   1      32.711  28.671  24.677  1.00  0.00    -0.342 N 
ATOM     15  C   UNL A   1      33.211  29.551  25.727  1.00  0.00     0.119 C 
ATOM     16  C   UNL A   1      31.526  27.982  24.931  1.00  0.00     0.230 C 
ATOM     17  C   UNL A   1      33.178  28.925  27.115  1.00  0.00     0.023 C 
ATOM     18  C   UNL A   1      31.492  27.260  26.277  1.00  0.00     0.069 C 
ATOM     19  O   UNL A   1      30.599  27.923  24.128  1.00  0.00    -0.274 OA
ATOM     20  C   UNL A   1      31.826  28.264  27.384  1.00  0.00     0.021 C 
ATOM     21  C   UNL A   1      30.133  26.558  26.477  1.00  0.00     0.040 C 
ATOM     22  C   UNL A   1      32.493  26.078  26.253  1.00  0.00     0.135 C 
ATOM     23  C   UNL A   1      30.303  25.242  25.705  1.00  0.00     0.119 C 
BRANCH  14  24
ATOM     24  C   UNL A   1      33.056  29.023  23.296  1.00  0.00     0.119 C 
BRANCH  24  25
ATOM     25  C   UNL A   1      34.094  28.097  22.636  1.00  0.00     0.018 C 
ATOM     26  C   UNL A   1      33.475  26.796  22.137  1.00  0.00     0.006 C 
ENDBRANCH  24  25
ENDBRANCH  14  24
ENDBRANCH   8  13
ENDBRANCH   4   7
ENDBRANCH   2   3
ENDBRANCH   1   2
BRANCH   1  27
ATOM     27  C   UNL A   1      36.355  23.240  24.482  1.00  0.00     0.023 C 
BRANCH  27  28
ATOM     28  C   UNL A   1      37.155  23.533  25.747  1.00  0.00     0.116 C 
BRANCH  28  29
ATOM     29  N   UNL A   1      38.307  22.662  25.918  1.00  0.00    -0.352 N 
ATOM     30  C   UNL A   1      39.535  22.969  26.461  1.00  0.00     0.251 C 
ATOM     31  H   UNL A   1      38.195  21.734  25.607  1.00  0.00     0.163 HD
ATOM     32  O   UNL A   1      40.439  22.152  26.451  1.00  0.00    -0.269 OA
BRANCH  30  33
ATOM     33  C   UNL A   1      39.749  24.326  27.010  1.00  0.00     0.039 A 
ATOM     34  C   UNL A   1      39.314  24.602  28.307  1.00  0.00     0.014 A 
ATOM     35  C   UNL A   1      40.425  25.297  26.266  1.00  0.00     0.014 A 
ATOM     36  C   UNL A   1      39.625  25.831  28.892  1.00  0.00     0.010 A 
ATOM     37  C   UNL A   1      40.786  26.498  26.871  1.00  0.00     0.010 A 
ATOM     38  C   UNL A   1      40.400  26.771  28.192  1.00  0.00    -0.014 A 
BRANCH  38  39
ATOM     39  C   UNL A   1      40.840  28.036  28.831  1.00  0.00     0.031 A 
ATOM     40  C   UNL A   1      42.228  28.152  29.395  1.00  0.00     0.074 A 
ATOM     41  C   UNL A   1      39.963  29.051  28.967  1.00  0.00     0.049 A 
ATOM     42  N   UNL A   1      42.763  29.140  30.066  1.00  0.00    -0.248 NA
ATOM     43  C   UNL A   1      43.124  27.001  29.200  1.00  0.00     0.031 C 
ATOM     44  C   UNL A   1      38.576  29.045  28.493  1.00  0.00     0.029 A 
ATOM     45  N   UNL A   1      40.107  30.283  29.554  1.00  0.00    -0.354 N 
ATOM     46  C   UNL A   1      44.051  28.727  30.382  1.00  0.00     0.074 A 
ATOM     47  C   UNL A   1      44.203  27.383  29.870  1.00  0.00     0.031 C 
ATOM     48  C   UNL A   1      38.005  30.225  28.791  1.00  0.00     0.029 A 
ATOM     49  C   UNL A   1      38.968  31.053  29.508  1.00  0.00     0.049 A 
ATOM     50  H   UNL A   1      40.946  30.588  29.969  1.00  0.00     0.167 HD
ATOM     51  C   UNL A   1      45.026  29.413  31.026  1.00  0.00     0.031 A 
ATOM     52  C   UNL A   1      38.723  32.284  29.998  1.00  0.00     0.031 A 
ATOM     53  C   UNL A   1      44.878  30.754  31.523  1.00  0.00     0.049 A 
ATOM     54  C   UNL A   1      39.819  33.017  30.723  1.00  0.00     0.074 A 
ATOM     55  C   UNL A   1      45.822  31.547  32.151  1.00  0.00     0.029 A 
ATOM     56  N   UNL A   1      43.713  31.502  31.446  1.00  0.00    -0.354 N 
ATOM     57  N   UNL A   1      41.047  32.627  30.968  1.00  0.00    -0.248 NA
ATOM     58  C   UNL A   1      39.498  34.359  31.230  1.00  0.00     0.031 C 
ATOM     59  C   UNL A   1      45.217  32.763  32.486  1.00  0.00     0.029 A 
ATOM     60  C   UNL A   1      43.911  32.743  32.027  1.00  0.00     0.049 A 
ATOM     61  H   UNL A   1      42.871  31.196  31.038  1.00  0.00     0.167 HD
ATOM     62  C   UNL A   1      41.652  33.685  31.637  1.00  0.00     0.074 A 
ATOM     63  C   UNL A   1      40.660  34.736  31.743  1.00  0.00     0.031 C 
ATOM     64  C   UNL A   1      42.915  33.779  32.118  1.00  0.00     0.031 A 
BRANCH  51  65
ATOM     65  C   UNL A   1      46.348  28.721  31.221  1.00  0.00    -0.014 A 
ATOM     66  C   UNL A   1      46.593  27.949  32.370  1.00  0.00     0.010 A 
ATOM     67  C   UNL A   1      47.336  28.800  30.223  1.00  0.00     0.010 A 
ATOM     68  C   UNL A   1      47.816  27.294  32.533  1.00  0.00     0.020 A 
ATOM     69  C   UNL A   1      48.551  28.127  30.371  1.00  0.00     0.020 A 
ATOM     70  C   UNL A   1      48.789  27.389  31.534  1.00  0.00     0.054 A 
BRANCH  70  71
ATOM     71  S   UNL A   1      50.355  26.501  31.759  1.00  0.00     0.124 S 
ATOM     72  O   UNL A   1      51.299  27.379  31.070  1.00  0.00    -0.237 OA
ATOM     73  O   UNL A   1      50.490  26.450  33.212  1.00  0.00    -0.237 OA
ATOM     74  O   UNL A   1      50.118  25.212  31.113  1.00  0.00    -0.744 OA
ENDBRANCH  70  71
ENDBRANCH  51  65
BRANCH  52  75
ATOM     75  C   UNL A   1      37.385  32.910  29.818  1.00  0.00    -0.014 A 
ATOM     76  C   UNL A   1      37.078  33.602  28.634  1.00  0.00     0.010 A 
ATOM     77  C   UNL A   1      36.416  32.828  30.834  1.00  0.00     0.010 A 
ATOM     78  C   UNL A   1      35.836  34.226  28.479  1.00  0.00     0.020 A 
ATOM     79  C   UNL A   1      35.164  33.429  30.673  1.00  0.00     0.020 A 
ATOM     80  C   UNL A   1      34.889  34.139  29.503  1.00  0.00     0.054 A 
BRANCH  80  81
ATOM     81  S   UNL A   1      33.272  34.930  29.271  1.00  0.00     0.124 S 
ATOM     82  O   UNL A   1      32.732  34.913  30.627  1.00  0.00    -0.237 OA
ATOM     83  O   UNL A   1      33.633  36.245  28.749  1.00  0.00    -0.237 OA
ATOM     84  O   UNL A   1      32.599  34.052  28.315  1.00  0.00    -0.744 OA
ENDBRANCH  80  81
ENDBRANCH  52  75
BRANCH  64  85
ATOM     85  C   UNL A   1      43.310  35.072  32.776  1.00  0.00    -0.014 A 
ATOM     86  C   UNL A   1      43.798  36.152  32.019  1.00  0.00     0.010 A 
ATOM     87  C   UNL A   1      43.130  35.229  34.162  1.00  0.00     0.010 A 
ATOM     88  C   UNL A   1      44.124  37.359  32.642  1.00  0.00     0.020 A 
ATOM     89  C   UNL A   1      43.433  36.442  34.785  1.00  0.00     0.020 A 
ATOM     90  C   UNL A   1      43.939  37.497  34.021  1.00  0.00     0.054 A 
BRANCH  90  91
ATOM     91  S   UNL A   1      44.316  39.091  34.799  1.00  0.00     0.124 S 
ATOM     92  O   UNL A   1      43.351  39.978  34.155  1.00  0.00    -0.237 OA
ATOM     93  O   UNL A   1      44.077  38.824  36.215  1.00  0.00    -0.237 OA
ATOM     94  O   UNL A   1      45.714  39.328  34.443  1.00  0.00    -0.744 OA
ENDBRANCH  90  91
ENDBRANCH  64  85
ENDBRANCH  38  39
ENDBRANCH  30  33
ENDBRANCH  28  29
ENDBRANCH  27  28
ENDBRANCH   1  27
TORSDOF 17
ENDMDL
