MODEL 1
REMARK VINA RESULT:     -12.2      0.000      0.000
REMARK SMILES Cc1cccc(NC(=O)C[C@H]([NH2+]C(C)C)C(=O)NCCCCNC(=O)c2ccc(-c3c4nc(c(-c5ccc(S(=O)(=O)[O-])cc5)c5ccc([nH]5)c(-c5ccc(S(=O)(=O)[O-])cc5)c5nc(c(-c6ccc(S(=O)(=O)[O-])cc6)c6ccc3[nH]6)C=C5)C=C4)cc2)c1
REMARK SMILES IDX 20 1 19 2 18 3 16 4 17 5 11 7 10 8 8 9 7 10 9 12 6 13 1 14
REMARK SMILES IDX 2 15 3 16 86 17 4 18 5 19 12 20 13 23 14 24 15 25 21 26
REMARK SMILES IDX 22 27 23 28 24 29 25 31 26 32 27 33 85 34 28 35 84 36 29 37
REMARK SMILES IDX 30 38 31 39 78 40 32 41 83 42 77 43 79 44 33 45 82 46 76 47
REMARK SMILES IDX 75 48 34 50 64 51 45 52 63 53 46 54 49 55 62 56 80 57 47 58
REMARK SMILES IDX 48 59 61 61 81 62 50 63 35 64 36 65 44 66 37 67 43 68 38 69
REMARK SMILES IDX 39 70 40 71 41 72 42 73 65 74 66 75 74 76 67 77 73 78 68 79
REMARK SMILES IDX 69 80 70 81 71 82 72 83 51 84 52 85 60 86 53 87 59 88 54 89
REMARK SMILES IDX 55 90 56 91 57 92 58 93
REMARK H PARENT 18 6 7 11 12 21 12 22 23 30 79 49 49 60
REMARK Flexibility Score: inf
ROOT
ATOM      1  C   UNL A   1      32.794  27.811  26.042  1.00  0.00     0.023 C 
ENDROOT
BRANCH   1   2
ATOM      2  C   UNL A   1      31.342  27.000  26.618  1.00  0.00     0.116 C 
BRANCH   2   3
ATOM      3  N   UNL A   1      30.927  24.967  26.888  1.00  0.00    -0.351 N 
ATOM      4  C   UNL A   1      31.072  23.601  26.702  1.00  0.00     0.278 C 
ATOM      5  O   UNL A   1      30.505  22.937  27.597  1.00  0.00    -0.268 OA
ATOM      6  H   UNL A   1      30.183  25.000  27.532  1.00  0.00     0.163 HD
BRANCH   4   7
ATOM      7  C   UNL A   1      31.724  22.799  25.567  1.00  0.00     0.282 C 
BRANCH   7   8
ATOM      8  C   UNL A   1      31.029  22.856  24.181  1.00  0.00     0.175 C 
BRANCH   8   9
ATOM      9  C   UNL A   1      31.901  22.859  22.909  1.00  0.00     0.230 C 
ATOM     10  N   UNL A   1      32.422  24.001  22.353  1.00  0.00    -0.326 N 
ATOM     11  H   UNL A   1      32.867  23.914  21.479  1.00  0.00     0.169 HD
ATOM     12  O   UNL A   1      32.141  21.785  22.345  1.00  0.00    -0.274 OA
BRANCH  10  13
ATOM     13  C   UNL A   1      32.374  25.281  22.923  1.00  0.00     0.041 A 
ATOM     14  C   UNL A   1      29.115  28.399  22.970  1.00  0.00     0.044 C 
ATOM     15  C   UNL A   1      30.481  27.796  23.033  1.00  0.00    -0.049 A 
ATOM     16  C   UNL A   1      31.903  28.846  22.617  1.00  0.00     0.003 A 
ATOM     17  C   UNL A   1      30.714  25.990  23.131  1.00  0.00     0.029 A 
ATOM     18  C   UNL A   1      33.569  28.126  22.487  1.00  0.00     0.002 A 
ATOM     19  C   UNL A   1      33.813  26.359  22.671  1.00  0.00     0.026 A 
ENDBRANCH  10  13
ENDBRANCH   8   9
ENDBRANCH   7   8
BRANCH   7  20
ATOM     20  N   UNL A   1      32.214  21.441  26.028  1.00  0.00    -0.334 N 
ATOM     21  H   UNL A   1      31.711  20.729  25.496  1.00  0.00     0.347 HD
ATOM     22  H   UNL A   1      32.037  21.405  27.032  1.00  0.00     0.347 HD
BRANCH  20  23
ATOM     23  C   UNL A   1      33.669  21.194  25.861  1.00  0.00     0.176 C 
ATOM     24  C   UNL A   1      33.906  19.982  24.947  1.00  0.00     0.075 C 
ATOM     25  C   UNL A   1      34.546  22.368  25.447  1.00  0.00     0.075 C 
ENDBRANCH  20  23
ENDBRANCH   7  20
ENDBRANCH   4   7
ENDBRANCH   2   3
ENDBRANCH   1   2
BRANCH   1  26
ATOM     26  C   UNL A   1      33.218  29.152  26.667  1.00  0.00     0.023 C 
BRANCH  26  27
ATOM     27  C   UNL A   1      34.698  29.202  26.933  1.00  0.00     0.116 C 
BRANCH  27  28
ATOM     28  N   UNL A   1      35.186  30.514  27.284  1.00  0.00    -0.352 N 
ATOM     29  C   UNL A   1      36.119  30.758  28.273  1.00  0.00     0.251 C 
ATOM     30  H   UNL A   1      34.830  31.286  26.786  1.00  0.00     0.163 HD
ATOM     31  O   UNL A   1      36.145  31.760  28.972  1.00  0.00    -0.269 OA
BRANCH  29  32
ATOM     32  C   UNL A   1      37.200  29.760  28.353  1.00  0.00     0.039 A 
ATOM     33  C   UNL A   1      37.476  29.249  29.628  1.00  0.00     0.014 A 
ATOM     34  C   UNL A   1      38.130  29.715  27.316  1.00  0.00     0.014 A 
ATOM     35  C   UNL A   1      38.765  28.839  29.909  1.00  0.00     0.010 A 
ATOM     36  C   UNL A   1      39.438  29.501  27.647  1.00  0.00     0.010 A 
ATOM     37  C   UNL A   1      39.739  29.065  28.937  1.00  0.00    -0.014 A 
BRANCH  37  38
ATOM     38  C   UNL A   1      41.099  28.603  29.064  1.00  0.00     0.031 A 
ATOM     39  C   UNL A   1      41.213  27.157  28.809  1.00  0.00     0.074 A 
ATOM     40  C   UNL A   1      42.061  29.514  29.311  1.00  0.00     0.049 A 
ATOM     41  N   UNL A   1      41.947  26.346  29.471  1.00  0.00    -0.248 NA
ATOM     42  C   UNL A   1      40.337  26.458  27.851  1.00  0.00     0.031 C 
ATOM     43  C   UNL A   1      43.508  29.371  29.373  1.00  0.00     0.029 A 
ATOM     44  N   UNL A   1      41.830  30.797  29.817  1.00  0.00    -0.354 N 
ATOM     45  C   UNL A   1      41.972  25.181  28.730  1.00  0.00     0.074 A 
ATOM     46  C   UNL A   1      40.798  25.208  27.909  1.00  0.00     0.031 C 
ATOM     47  C   UNL A   1      43.995  30.334  30.185  1.00  0.00     0.029 A 
ATOM     48  C   UNL A   1      42.854  31.059  30.738  1.00  0.00     0.049 A 
ATOM     49  H   UNL A   1      41.090  31.400  29.574  1.00  0.00     0.167 HD
ATOM     50  C   UNL A   1      43.132  24.474  28.686  1.00  0.00     0.031 A 
ATOM     51  C   UNL A   1      42.523  31.105  32.063  1.00  0.00     0.031 A 
ATOM     52  C   UNL A   1      44.120  25.138  29.534  1.00  0.00     0.049 A 
ATOM     53  C   UNL A   1      43.063  29.892  32.799  1.00  0.00     0.074 A 
ATOM     54  C   UNL A   1      45.131  26.039  29.243  1.00  0.00     0.029 A 
ATOM     55  N   UNL A   1      43.837  25.283  30.884  1.00  0.00    -0.354 N 
ATOM     56  N   UNL A   1      43.297  28.730  32.245  1.00  0.00    -0.248 NA
ATOM     57  C   UNL A   1      43.482  29.943  34.195  1.00  0.00     0.031 C 
ATOM     58  C   UNL A   1      45.397  26.784  30.428  1.00  0.00     0.029 A 
ATOM     59  C   UNL A   1      44.552  26.331  31.428  1.00  0.00     0.049 A 
ATOM     60  H   UNL A   1      43.210  24.714  31.387  1.00  0.00     0.167 HD
ATOM     61  C   UNL A   1      43.940  27.914  33.144  1.00  0.00     0.074 A 
ATOM     62  C   UNL A   1      44.029  28.725  34.347  1.00  0.00     0.031 C 
ATOM     63  C   UNL A   1      44.384  26.654  32.841  1.00  0.00     0.031 A 
BRANCH  50  64
ATOM     64  C   UNL A   1      43.479  23.425  27.660  1.00  0.00    -0.014 A 
ATOM     65  C   UNL A   1      42.729  22.231  27.660  1.00  0.00     0.010 A 
ATOM     66  C   UNL A   1      44.501  23.518  26.694  1.00  0.00     0.010 A 
ATOM     67  C   UNL A   1      42.990  21.184  26.771  1.00  0.00     0.020 A 
ATOM     68  C   UNL A   1      44.784  22.469  25.802  1.00  0.00     0.020 A 
ATOM     69  C   UNL A   1      44.020  21.308  25.843  1.00  0.00     0.054 A 
BRANCH  69  70
ATOM     70  S   UNL A   1      44.302  19.950  24.681  1.00  0.00     0.124 S 
ATOM     71  O   UNL A   1      43.061  19.188  24.782  1.00  0.00    -0.237 OA
ATOM     72  O   UNL A   1      44.506  20.658  23.419  1.00  0.00    -0.237 OA
ATOM     73  O   UNL A   1      45.485  19.278  25.212  1.00  0.00    -0.744 OA
ENDBRANCH  69  70
ENDBRANCH  50  64
BRANCH  51  74
ATOM     74  C   UNL A   1      41.209  31.793  32.304  1.00  0.00    -0.014 A 
ATOM     75  C   UNL A   1      40.172  31.033  32.900  1.00  0.00     0.010 A 
ATOM     76  C   UNL A   1      41.092  33.191  32.322  1.00  0.00     0.010 A 
ATOM     77  C   UNL A   1      39.114  31.647  33.584  1.00  0.00     0.020 A 
ATOM     78  C   UNL A   1      40.023  33.813  33.000  1.00  0.00     0.020 A 
ATOM     79  C   UNL A   1      39.054  33.039  33.643  1.00  0.00     0.054 A 
BRANCH  79  80
ATOM     80  S   UNL A   1      37.744  33.810  34.637  1.00  0.00     0.124 S 
ATOM     81  O   UNL A   1      37.238  34.841  33.739  1.00  0.00    -0.237 OA
ATOM     82  O   UNL A   1      36.832  32.698  34.890  1.00  0.00    -0.237 OA
ATOM     83  O   UNL A   1      38.441  34.283  35.828  1.00  0.00    -0.744 OA
ENDBRANCH  79  80
ENDBRANCH  51  74
BRANCH  63  84
ATOM     84  C   UNL A   1      44.763  25.579  33.845  1.00  0.00    -0.014 A 
ATOM     85  C   UNL A   1      43.865  24.660  34.399  1.00  0.00     0.010 A 
ATOM     86  C   UNL A   1      46.133  25.388  34.176  1.00  0.00     0.010 A 
ATOM     87  C   UNL A   1      44.288  23.665  35.286  1.00  0.00     0.020 A 
ATOM     88  C   UNL A   1      46.580  24.348  34.989  1.00  0.00     0.020 A 
ATOM     89  C   UNL A   1      45.643  23.513  35.572  1.00  0.00     0.054 A 
BRANCH  89  90
ATOM     90  S   UNL A   1      46.154  22.198  36.694  1.00  0.00     0.124 S 
ATOM     91  O   UNL A   1      45.452  21.044  36.137  1.00  0.00    -0.237 OA
ATOM     92  O   UNL A   1      47.606  22.189  36.529  1.00  0.00    -0.237 OA
ATOM     93  O   UNL A   1      45.682  22.649  38.000  1.00  0.00    -0.744 OA
ENDBRANCH  89  90
ENDBRANCH  63  84
ENDBRANCH  37  38
ENDBRANCH  29  32
ENDBRANCH  27  28
ENDBRANCH  26  27
ENDBRANCH   1  26
TORSDOF 19
ENDMDL
MODEL 2
REMARK VINA RESULT:     -12.0      1.804      2.904
REMARK SMILES Cc1cccc(NC(=O)C[C@H]([NH2+]C(C)C)C(=O)NCCCCNC(=O)c2ccc(-c3c4nc(c(-c5ccc(S(=O)(=O)[O-])cc5)c5ccc([nH]5)c(-c5ccc(S(=O)(=O)[O-])cc5)c5nc(c(-c6ccc(S(=O)(=O)[O-])cc6)c6ccc3[nH]6)C=C5)C=C4)cc2)c1
REMARK SMILES IDX 20 1 19 2 18 3 16 4 17 5 11 7 10 8 8 9 7 10 9 12 6 13 1 14
REMARK SMILES IDX 2 15 3 16 86 17 4 18 5 19 12 20 13 23 14 24 15 25 21 26
REMARK SMILES IDX 22 27 23 28 24 29 25 31 26 32 27 33 85 34 28 35 84 36 29 37
REMARK SMILES IDX 30 38 31 39 78 40 32 41 83 42 77 43 79 44 33 45 82 46 76 47
REMARK SMILES IDX 75 48 34 50 64 51 45 52 63 53 46 54 49 55 62 56 80 57 47 58
REMARK SMILES IDX 48 59 61 61 81 62 50 63 35 64 36 65 44 66 37 67 43 68 38 69
REMARK SMILES IDX 39 70 40 71 41 72 42 73 65 74 66 75 74 76 67 77 73 78 68 79
REMARK SMILES IDX 69 80 70 81 71 82 72 83 51 84 52 85 60 86 53 87 59 88 54 89
REMARK SMILES IDX 55 90 56 91 57 92 58 93
REMARK H PARENT 18 6 7 11 12 21 12 22 23 30 79 49 49 60
REMARK Flexibility Score: inf
ROOT
ATOM      1  C   UNL A   1      34.224  32.542  28.032  1.00  0.00     0.023 C 
ENDROOT
BRANCH   1   2
ATOM      2  C   UNL A   1      33.310  31.129  27.517  1.00  0.00     0.116 C 
BRANCH   2   3
ATOM      3  N   UNL A   1      33.498  29.922  25.818  1.00  0.00    -0.351 N 
ATOM      4  C   UNL A   1      33.262  28.830  24.998  1.00  0.00     0.278 C 
ATOM      5  O   UNL A   1      33.628  29.031  23.821  1.00  0.00    -0.268 OA
ATOM      6  H   UNL A   1      34.139  30.439  25.278  1.00  0.00     0.163 HD
BRANCH   4   7
ATOM      7  C   UNL A   1      32.716  27.430  25.313  1.00  0.00     0.282 C 
BRANCH   7   8
ATOM      8  C   UNL A   1      31.239  27.344  25.783  1.00  0.00     0.175 C 
BRANCH   8   9
ATOM      9  C   UNL A   1      30.579  25.956  25.914  1.00  0.00     0.230 C 
ATOM     10  N   UNL A   1      29.498  25.561  25.167  1.00  0.00    -0.326 N 
ATOM     11  H   UNL A   1      29.076  24.703  25.404  1.00  0.00     0.169 HD
ATOM     12  O   UNL A   1      31.030  25.155  26.741  1.00  0.00    -0.274 OA
BRANCH  10  13
ATOM     13  C   UNL A   1      28.942  26.274  24.095  1.00  0.00     0.041 A 
ATOM     14  C   UNL A   1      30.429  29.878  21.827  1.00  0.00     0.044 C 
ATOM     15  C   UNL A   1      29.484  28.868  22.393  1.00  0.00    -0.049 A 
ATOM     16  C   UNL A   1      27.753  29.357  22.645  1.00  0.00     0.003 A 
ATOM     17  C   UNL A   1      30.093  27.337  23.175  1.00  0.00     0.029 A 
ATOM     18  C   UNL A   1      26.600  28.243  23.505  1.00  0.00     0.002 A 
ATOM     19  C   UNL A   1      27.179  26.694  24.199  1.00  0.00     0.026 A 
ENDBRANCH  10  13
ENDBRANCH   8   9
ENDBRANCH   7   8
BRANCH   7  20
ATOM     20  N   UNL A   1      33.719  26.575  26.061  1.00  0.00    -0.334 N 
ATOM     21  H   UNL A   1      33.239  26.147  26.853  1.00  0.00     0.347 HD
ATOM     22  H   UNL A   1      34.476  27.203  26.331  1.00  0.00     0.347 HD
BRANCH  20  23
ATOM     23  C   UNL A   1      34.353  25.490  25.268  1.00  0.00     0.176 C 
ATOM     24  C   UNL A   1      34.283  24.158  26.031  1.00  0.00     0.075 C 
ATOM     25  C   UNL A   1      33.908  25.313  23.822  1.00  0.00     0.075 C 
ENDBRANCH  20  23
ENDBRANCH   7  20
ENDBRANCH   4   7
ENDBRANCH   2   3
ENDBRANCH   1   2
BRANCH   1  26
ATOM     26  C   UNL A   1      35.698  32.389  28.447  1.00  0.00     0.023 C 
BRANCH  26  27
ATOM     27  C   UNL A   1      35.873  31.347  29.518  1.00  0.00     0.116 C 
BRANCH  27  28
ATOM     28  N   UNL A   1      35.522  30.012  29.099  1.00  0.00    -0.352 N 
ATOM     29  C   UNL A   1      36.331  29.201  28.327  1.00  0.00     0.251 C 
ATOM     30  H   UNL A   1      34.649  29.655  29.382  1.00  0.00     0.163 HD
ATOM     31  O   UNL A   1      35.924  28.386  27.512  1.00  0.00    -0.269 OA
BRANCH  29  32
ATOM     32  C   UNL A   1      37.767  29.288  28.647  1.00  0.00     0.039 A 
ATOM     33  C   UNL A   1      38.618  29.616  27.583  1.00  0.00     0.014 A 
ATOM     34  C   UNL A   1      38.224  28.642  29.794  1.00  0.00     0.014 A 
ATOM     35  C   UNL A   1      39.914  29.136  27.604  1.00  0.00     0.010 A 
ATOM     36  C   UNL A   1      39.431  28.004  29.724  1.00  0.00     0.010 A 
ATOM     37  C   UNL A   1      40.260  28.260  28.632  1.00  0.00    -0.014 A 
BRANCH  37  38
ATOM     38  C   UNL A   1      41.599  27.762  28.824  1.00  0.00     0.031 A 
ATOM     39  C   UNL A   1      41.717  26.344  28.446  1.00  0.00     0.074 A 
ATOM     40  C   UNL A   1      42.549  28.628  29.230  1.00  0.00     0.049 A 
ATOM     41  N   UNL A   1      42.386  25.462  29.085  1.00  0.00    -0.248 NA
ATOM     42  C   UNL A   1      40.913  25.753  27.360  1.00  0.00     0.031 C 
ATOM     43  C   UNL A   1      43.985  28.453  29.393  1.00  0.00     0.029 A 
ATOM     44  N   UNL A   1      42.293  29.864  29.832  1.00  0.00    -0.354 N 
ATOM     45  C   UNL A   1      42.456  24.369  28.244  1.00  0.00     0.074 A 
ATOM     46  C   UNL A   1      41.353  24.494  27.339  1.00  0.00     0.031 C 
ATOM     47  C   UNL A   1      44.416  29.328  30.327  1.00  0.00     0.029 A 
ATOM     48  C   UNL A   1      43.242  30.021  30.852  1.00  0.00     0.049 A 
ATOM     49  H   UNL A   1      41.582  30.500  29.588  1.00  0.00     0.167 HD
ATOM     50  C   UNL A   1      43.608  23.647  28.227  1.00  0.00     0.031 A 
ATOM     51  C   UNL A   1      42.806  29.952  32.145  1.00  0.00     0.031 A 
ATOM     52  C   UNL A   1      44.532  24.212  29.208  1.00  0.00     0.049 A 
ATOM     53  C   UNL A   1      43.270  28.666  32.806  1.00  0.00     0.074 A 
ATOM     54  C   UNL A   1      45.574  25.117  29.083  1.00  0.00     0.029 A 
ATOM     55  N   UNL A   1      44.143  24.238  30.539  1.00  0.00    -0.354 N 
ATOM     56  N   UNL A   1      43.534  27.556  32.167  1.00  0.00    -0.248 NA
ATOM     57  C   UNL A   1      43.576  28.581  34.229  1.00  0.00     0.031 C 
ATOM     58  C   UNL A   1      45.752  25.744  30.350  1.00  0.00     0.029 A 
ATOM     59  C   UNL A   1      44.824  25.218  31.233  1.00  0.00     0.049 A 
ATOM     60  H   UNL A   1      43.471  23.638  30.936  1.00  0.00     0.167 HD
ATOM     61  C   UNL A   1      44.094  26.648  33.034  1.00  0.00     0.074 A 
ATOM     62  C   UNL A   1      44.094  27.344  34.311  1.00  0.00     0.031 C 
ATOM     63  C   UNL A   1      44.545  25.413  32.652  1.00  0.00     0.031 A 
BRANCH  50  64
ATOM     64  C   UNL A   1      44.025  22.690  27.139  1.00  0.00    -0.014 A 
ATOM     65  C   UNL A   1      43.147  21.634  26.820  1.00  0.00     0.010 A 
ATOM     66  C   UNL A   1      45.227  22.743  26.405  1.00  0.00     0.010 A 
ATOM     67  C   UNL A   1      43.453  20.675  25.849  1.00  0.00     0.020 A 
ATOM     68  C   UNL A   1      45.554  21.779  25.435  1.00  0.00     0.020 A 
ATOM     69  C   UNL A   1      44.658  20.752  25.159  1.00  0.00     0.054 A 
BRANCH  69  70
ATOM     70  S   UNL A   1      45.001  19.519  23.880  1.00  0.00     0.124 S 
ATOM     71  O   UNL A   1      46.444  19.332  24.005  1.00  0.00    -0.237 OA
ATOM     72  O   UNL A   1      44.181  18.389  24.309  1.00  0.00    -0.237 OA
ATOM     73  O   UNL A   1      44.566  20.167  22.645  1.00  0.00    -0.744 OA
ENDBRANCH  69  70
ENDBRANCH  50  64
BRANCH  51  74
ATOM     74  C   UNL A   1      41.485  30.640  32.344  1.00  0.00    -0.014 A 
ATOM     75  C   UNL A   1      40.370  29.831  32.680  1.00  0.00     0.010 A 
ATOM     76  C   UNL A   1      41.391  32.020  32.581  1.00  0.00     0.010 A 
ATOM     77  C   UNL A   1      39.249  30.365  33.330  1.00  0.00     0.020 A 
ATOM     78  C   UNL A   1      40.260  32.562  33.225  1.00  0.00     0.020 A 
ATOM     79  C   UNL A   1      39.207  31.729  33.613  1.00  0.00     0.054 A 
BRANCH  79  80
ATOM     80  S   UNL A   1      37.801  32.376  34.564  1.00  0.00     0.124 S 
ATOM     81  O   UNL A   1      38.187  33.764  34.786  1.00  0.00    -0.237 OA
ATOM     82  O   UNL A   1      36.676  32.179  33.653  1.00  0.00    -0.237 OA
ATOM     83  O   UNL A   1      37.757  31.526  35.748  1.00  0.00    -0.744 OA
ENDBRANCH  79  80
ENDBRANCH  51  74
BRANCH  63  84
ATOM     84  C   UNL A   1      44.830  24.244  33.579  1.00  0.00    -0.014 A 
ATOM     85  C   UNL A   1      43.967  23.160  33.775  1.00  0.00     0.010 A 
ATOM     86  C   UNL A   1      46.099  24.152  34.214  1.00  0.00     0.010 A 
ATOM     87  C   UNL A   1      44.310  22.092  34.610  1.00  0.00     0.020 A 
ATOM     88  C   UNL A   1      46.488  23.053  34.978  1.00  0.00     0.020 A 
ATOM     89  C   UNL A   1      45.570  22.044  35.203  1.00  0.00     0.054 A 
BRANCH  89  90
ATOM     90  S   UNL A   1      45.987  20.635  36.246  1.00  0.00     0.124 S 
ATOM     91  O   UNL A   1      45.737  21.171  37.582  1.00  0.00    -0.237 OA
ATOM     92  O   UNL A   1      45.045  19.615  35.792  1.00  0.00    -0.237 OA
ATOM     93  O   UNL A   1      47.388  20.368  35.930  1.00  0.00    -0.744 OA
ENDBRANCH  89  90
ENDBRANCH  63  84
ENDBRANCH  37  38
ENDBRANCH  29  32
ENDBRANCH  27  28
ENDBRANCH  26  27
ENDBRANCH   1  26
TORSDOF 19
ENDMDL
MODEL 3
REMARK VINA RESULT:     -11.9      1.583      3.326
REMARK SMILES Cc1cccc(NC(=O)C[C@H]([NH2+]C(C)C)C(=O)NCCCCNC(=O)c2ccc(-c3c4nc(c(-c5ccc(S(=O)(=O)[O-])cc5)c5ccc([nH]5)c(-c5ccc(S(=O)(=O)[O-])cc5)c5nc(c(-c6ccc(S(=O)(=O)[O-])cc6)c6ccc3[nH]6)C=C5)C=C4)cc2)c1
REMARK SMILES IDX 20 1 19 2 18 3 16 4 17 5 11 7 10 8 8 9 7 10 9 12 6 13 1 14
REMARK SMILES IDX 2 15 3 16 86 17 4 18 5 19 12 20 13 23 14 24 15 25 21 26
REMARK SMILES IDX 22 27 23 28 24 29 25 31 26 32 27 33 85 34 28 35 84 36 29 37
REMARK SMILES IDX 30 38 31 39 78 40 32 41 83 42 77 43 79 44 33 45 82 46 76 47
REMARK SMILES IDX 75 48 34 50 64 51 45 52 63 53 46 54 49 55 62 56 80 57 47 58
REMARK SMILES IDX 48 59 61 61 81 62 50 63 35 64 36 65 44 66 37 67 43 68 38 69
REMARK SMILES IDX 39 70 40 71 41 72 42 73 65 74 66 75 74 76 67 77 73 78 68 79
REMARK SMILES IDX 69 80 70 81 71 82 72 83 51 84 52 85 60 86 53 87 59 88 54 89
REMARK SMILES IDX 55 90 56 91 57 92 58 93
REMARK H PARENT 18 6 7 11 12 21 12 22 23 30 79 49 49 60
REMARK Flexibility Score: inf
ROOT
ATOM      1  C   UNL A   1      33.758  32.314  27.788  1.00  0.00     0.023 C 
ENDROOT
BRANCH   1   2
ATOM      2  C   UNL A   1      33.022  30.780  27.337  1.00  0.00     0.116 C 
BRANCH   2   3
ATOM      3  N   UNL A   1      33.431  29.480  25.750  1.00  0.00    -0.351 N 
ATOM      4  C   UNL A   1      33.158  28.534  24.775  1.00  0.00     0.278 C 
ATOM      5  O   UNL A   1      34.060  28.466  23.912  1.00  0.00    -0.268 OA
ATOM      6  H   UNL A   1      34.395  29.629  25.616  1.00  0.00     0.163 HD
BRANCH   4   7
ATOM      7  C   UNL A   1      32.003  27.532  24.634  1.00  0.00     0.282 C 
BRANCH   7   8
ATOM      8  C   UNL A   1      32.170  26.167  25.353  1.00  0.00     0.175 C 
BRANCH   8   9
ATOM      9  C   UNL A   1      30.909  25.405  25.809  1.00  0.00     0.230 C 
ATOM     10  N   UNL A   1      30.657  24.097  25.480  1.00  0.00    -0.326 N 
ATOM     11  H   UNL A   1      29.773  23.734  25.719  1.00  0.00     0.169 HD
ATOM     12  O   UNL A   1      30.068  25.997  26.496  1.00  0.00    -0.274 OA
BRANCH  10  13
ATOM     13  C   UNL A   1      31.550  23.231  24.832  1.00  0.00     0.041 A 
ATOM     14  C   UNL A   1      35.777  22.019  25.837  1.00  0.00     0.044 C 
ATOM     15  C   UNL A   1      34.545  22.277  25.031  1.00  0.00    -0.049 A 
ATOM     16  C   UNL A   1      34.733  22.600  23.254  1.00  0.00     0.003 A 
ATOM     17  C   UNL A   1      32.950  22.651  25.833  1.00  0.00     0.029 A 
ATOM     18  C   UNL A   1      33.300  23.110  22.256  1.00  0.00     0.002 A 
ATOM     19  C   UNL A   1      31.707  23.393  23.031  1.00  0.00     0.026 A 
ENDBRANCH  10  13
ENDBRANCH   8   9
ENDBRANCH   7   8
BRANCH   7  20
ATOM     20  N   UNL A   1      31.437  27.497  23.229  1.00  0.00    -0.334 N 
ATOM     21  H   UNL A   1      31.269  26.521  22.982  1.00  0.00     0.347 HD
ATOM     22  H   UNL A   1      32.129  27.957  22.637  1.00  0.00     0.347 HD
BRANCH  20  23
ATOM     23  C   UNL A   1      30.170  28.245  23.030  1.00  0.00     0.176 C 
ATOM     24  C   UNL A   1      28.963  27.353  23.361  1.00  0.00     0.075 C 
ATOM     25  C   UNL A   1      30.037  29.609  23.694  1.00  0.00     0.075 C 
ENDBRANCH  20  23
ENDBRANCH   7  20
ENDBRANCH   4   7
ENDBRANCH   2   3
ENDBRANCH   1   2
BRANCH   1  26
ATOM     26  C   UNL A   1      35.283  32.403  27.976  1.00  0.00     0.023 C 
BRANCH  26  27
ATOM     27  C   UNL A   1      35.772  31.462  29.042  1.00  0.00     0.116 C 
BRANCH  27  28
ATOM     28  N   UNL A   1      35.408  30.084  28.819  1.00  0.00    -0.352 N 
ATOM     29  C   UNL A   1      36.207  29.163  28.170  1.00  0.00     0.251 C 
ATOM     30  H   UNL A   1      34.532  29.779  29.151  1.00  0.00     0.163 HD
ATOM     31  O   UNL A   1      35.790  28.244  27.481  1.00  0.00    -0.269 OA
BRANCH  29  32
ATOM     32  C   UNL A   1      37.645  29.282  28.471  1.00  0.00     0.039 A 
ATOM     33  C   UNL A   1      38.481  29.581  27.388  1.00  0.00     0.014 A 
ATOM     34  C   UNL A   1      38.121  28.684  29.637  1.00  0.00     0.014 A 
ATOM     35  C   UNL A   1      39.784  29.121  27.413  1.00  0.00     0.010 A 
ATOM     36  C   UNL A   1      39.336  28.061  29.578  1.00  0.00     0.010 A 
ATOM     37  C   UNL A   1      40.151  28.287  28.470  1.00  0.00    -0.014 A 
BRANCH  37  38
ATOM     38  C   UNL A   1      41.499  27.815  28.666  1.00  0.00     0.031 A 
ATOM     39  C   UNL A   1      41.636  26.389  28.328  1.00  0.00     0.074 A 
ATOM     40  C   UNL A   1      42.439  28.706  29.040  1.00  0.00     0.049 A 
ATOM     41  N   UNL A   1      42.322  25.535  28.987  1.00  0.00    -0.248 NA
ATOM     42  C   UNL A   1      40.834  25.754  27.266  1.00  0.00     0.031 C 
ATOM     43  C   UNL A   1      43.878  28.557  29.197  1.00  0.00     0.029 A 
ATOM     44  N   UNL A   1      42.168  29.955  29.608  1.00  0.00    -0.354 N 
ATOM     45  C   UNL A   1      42.403  24.419  28.178  1.00  0.00     0.074 A 
ATOM     46  C   UNL A   1      41.292  24.502  27.277  1.00  0.00     0.031 C 
ATOM     47  C   UNL A   1      44.302  29.465  30.102  1.00  0.00     0.029 A 
ATOM     48  C   UNL A   1      43.122  30.156  30.616  1.00  0.00     0.049 A 
ATOM     49  H   UNL A   1      41.446  30.573  29.351  1.00  0.00     0.167 HD
ATOM     50  C   UNL A   1      43.565  23.715  28.173  1.00  0.00     0.031 A 
ATOM     51  C   UNL A   1      42.695  30.117  31.914  1.00  0.00     0.031 A 
ATOM     52  C   UNL A   1      44.487  24.321  29.131  1.00  0.00     0.049 A 
ATOM     53  C   UNL A   1      43.183  28.859  32.608  1.00  0.00     0.074 A 
ATOM     54  C   UNL A   1      45.514  25.237  28.972  1.00  0.00     0.029 A 
ATOM     55  N   UNL A   1      44.107  24.380  30.464  1.00  0.00    -0.354 N 
ATOM     56  N   UNL A   1      43.460  27.734  32.000  1.00  0.00    -0.248 NA
ATOM     57  C   UNL A   1      43.500  28.819  34.031  1.00  0.00     0.031 C 
ATOM     58  C   UNL A   1      45.692  25.903  30.220  1.00  0.00     0.029 A 
ATOM     59  C   UNL A   1      44.777  25.390  31.124  1.00  0.00     0.049 A 
ATOM     60  H   UNL A   1      43.446  23.782  30.882  1.00  0.00     0.167 HD
ATOM     61  C   UNL A   1      44.038  26.861  32.889  1.00  0.00     0.074 A 
ATOM     62  C   UNL A   1      44.037  27.593  34.145  1.00  0.00     0.031 C 
ATOM     63  C   UNL A   1      44.506  25.622  32.539  1.00  0.00     0.031 A 
BRANCH  50  64
ATOM     64  C   UNL A   1      43.989  22.733  27.111  1.00  0.00    -0.014 A 
ATOM     65  C   UNL A   1      43.113  21.669  26.812  1.00  0.00     0.010 A 
ATOM     66  C   UNL A   1      45.196  22.769  26.383  1.00  0.00     0.010 A 
ATOM     67  C   UNL A   1      43.425  20.688  25.865  1.00  0.00     0.020 A 
ATOM     68  C   UNL A   1      45.529  21.783  25.438  1.00  0.00     0.020 A 
ATOM     69  C   UNL A   1      44.635  20.749  25.180  1.00  0.00     0.054 A 
BRANCH  69  70
ATOM     70  S   UNL A   1      44.986  19.487  23.933  1.00  0.00     0.124 S 
ATOM     71  O   UNL A   1      44.284  18.320  24.461  1.00  0.00    -0.237 OA
ATOM     72  O   UNL A   1      44.411  20.074  22.725  1.00  0.00    -0.237 OA
ATOM     73  O   UNL A   1      46.444  19.386  23.939  1.00  0.00    -0.744 OA
ENDBRANCH  69  70
ENDBRANCH  50  64
BRANCH  51  74
ATOM     74  C   UNL A   1      41.366  30.791  32.102  1.00  0.00    -0.014 A 
ATOM     75  C   UNL A   1      40.229  29.961  32.269  1.00  0.00     0.010 A 
ATOM     76  C   UNL A   1      41.259  32.136  32.489  1.00  0.00     0.010 A 
ATOM     77  C   UNL A   1      39.068  30.428  32.900  1.00  0.00     0.020 A 
ATOM     78  C   UNL A   1      40.089  32.612  33.114  1.00  0.00     0.020 A 
ATOM     79  C   UNL A   1      39.010  31.751  33.334  1.00  0.00     0.054 A 
BRANCH  79  80
ATOM     80  S   UNL A   1      37.545  32.300  34.257  1.00  0.00     0.124 S 
ATOM     81  O   UNL A   1      37.721  33.746  34.290  1.00  0.00    -0.237 OA
ATOM     82  O   UNL A   1      36.442  31.823  33.427  1.00  0.00    -0.237 OA
ATOM     83  O   UNL A   1      37.660  31.611  35.538  1.00  0.00    -0.744 OA
ENDBRANCH  79  80
ENDBRANCH  51  74
BRANCH  63  84
ATOM     84  C   UNL A   1      44.814  24.484  33.497  1.00  0.00    -0.014 A 
ATOM     85  C   UNL A   1      43.929  23.445  33.804  1.00  0.00     0.010 A 
ATOM     86  C   UNL A   1      46.122  24.370  34.044  1.00  0.00     0.010 A 
ATOM     87  C   UNL A   1      44.292  22.402  34.662  1.00  0.00     0.020 A 
ATOM     88  C   UNL A   1      46.525  23.291  34.830  1.00  0.00     0.020 A 
ATOM     89  C   UNL A   1      45.589  22.330  35.166  1.00  0.00     0.054 A 
BRANCH  89  90
ATOM     90  S   UNL A   1      46.030  20.953  36.242  1.00  0.00     0.124 S 
ATOM     91  O   UNL A   1      45.197  19.879  35.704  1.00  0.00    -0.237 OA
ATOM     92  O   UNL A   1      47.465  20.814  36.005  1.00  0.00    -0.237 OA
ATOM     93  O   UNL A   1      45.665  21.421  37.576  1.00  0.00    -0.744 OA
ENDBRANCH  89  90
ENDBRANCH  63  84
ENDBRANCH  37  38
ENDBRANCH  29  32
ENDBRANCH  27  28
ENDBRANCH  26  27
ENDBRANCH   1  26
TORSDOF 19
ENDMDL
