MODEL 1
REMARK VINA RESULT:     -10.9      0.000      0.000
REMARK SMILES C[C@@H](C(=O)NCCCCNC(=O)c1ccc(-c2c3nc(c(-c4ccc(S(=O)(=O)[O-])cc4)c4ccc([nH]4)c(-c4ccc(S(=O)(=O)[O-])cc4)c4nc(c(-c5ccc(S(=O)(=O)[O-])cc5)c5ccc2[nH]5)C=C4)C=C3)cc1)c1ccc(-c2ccccc2)c(F)c1
REMARK SMILES IDX 8 1 7 2 6 3 5 4 3 5 4 6 2 8 1 9 73 10 74 11 85 12 75 13
REMARK SMILES IDX 83 14 76 15 84 16 77 17 78 18 82 19 79 20 81 21 80 22 9 23
REMARK SMILES IDX 10 24 11 25 12 27 13 28 14 29 72 30 15 31 71 32 16 33 17 34
REMARK SMILES IDX 18 35 65 36 19 37 70 38 64 39 66 40 20 41 69 42 63 43 62 44
REMARK SMILES IDX 21 46 51 47 32 48 50 49 33 50 36 51 49 52 67 53 34 54 35 55
REMARK SMILES IDX 48 57 68 58 37 59 22 60 23 61 31 62 24 63 30 64 25 65 26 66
REMARK SMILES IDX 27 67 28 68 29 69 52 70 53 71 61 72 54 73 60 74 55 75 56 76
REMARK SMILES IDX 57 77 58 78 59 79 38 80 39 81 47 82 40 83 46 84 41 85 42 86
REMARK SMILES IDX 43 87 44 88 45 89
REMARK H PARENT 5 7 10 26 66 45 36 56
REMARK Flexibility Score: inf
ROOT
ATOM      1  C   UNL A   1      33.740  27.821  26.716  1.00  0.00     0.023 C 
ENDROOT
BRANCH   1   2
ATOM      2  C   UNL A   1      32.291  28.039  27.157  1.00  0.00     0.023 C 
BRANCH   2   3
ATOM      3  C   UNL A   1      31.235  27.581  26.151  1.00  0.00     0.116 C 
BRANCH   3   4
ATOM      4  N   UNL A   1      30.604  26.349  26.574  1.00  0.00    -0.356 N 
ATOM      5  C   UNL A   1      30.606  25.108  26.011  1.00  0.00     0.227 C 
ATOM      6  O   UNL A   1      29.951  24.253  26.612  1.00  0.00    -0.274 OA
ATOM      7  H   UNL A   1      30.087  26.420  27.408  1.00  0.00     0.163 HD
BRANCH   5   8
ATOM      8  C   UNL A   1      31.430  24.830  24.736  1.00  0.00     0.105 C 
ATOM      9  C   UNL A   1      30.769  23.813  23.805  1.00  0.00     0.023 C 
BRANCH   8  10
ATOM     10  C   UNL A   1      32.865  24.357  24.977  1.00  0.00    -0.033 A 
ATOM     11  C   UNL A   1      33.889  24.561  24.044  1.00  0.00     0.005 A 
ATOM     12  C   UNL A   1      33.209  23.795  26.216  1.00  0.00     0.044 A 
ATOM     13  C   UNL A   1      35.202  24.172  24.317  1.00  0.00     0.012 A 
ATOM     14  C   UNL A   1      34.531  23.434  26.493  1.00  0.00     0.131 A 
ATOM     15  C   UNL A   1      35.556  23.609  25.553  1.00  0.00     0.017 A 
ATOM     16  F   UNL A   1      34.803  22.932  27.707  1.00  0.00    -0.206 F 
BRANCH  15  17
ATOM     17  C   UNL A   1      36.953  23.231  25.816  1.00  0.00    -0.015 A 
ATOM     18  C   UNL A   1      37.424  21.946  25.488  1.00  0.00     0.009 A 
ATOM     19  C   UNL A   1      37.844  24.115  26.446  1.00  0.00     0.009 A 
ATOM     20  C   UNL A   1      38.727  21.552  25.795  1.00  0.00     0.001 A 
ATOM     21  C   UNL A   1      39.150  23.722  26.754  1.00  0.00     0.001 A 
ATOM     22  C   UNL A   1      39.588  22.440  26.434  1.00  0.00     0.000 A 
ENDBRANCH  15  17
ENDBRANCH   8  10
ENDBRANCH   5   8
ENDBRANCH   3   4
ENDBRANCH   2   3
ENDBRANCH   1   2
BRANCH   1  23
ATOM     23  C   UNL A   1      34.378  29.000  25.996  1.00  0.00     0.116 C 
BRANCH  23  24
ATOM     24  N   UNL A   1      33.880  30.281  26.471  1.00  0.00    -0.352 N 
ATOM     25  C   UNL A   1      34.334  31.045  27.518  1.00  0.00     0.251 C 
ATOM     26  H   UNL A   1      33.114  30.649  25.976  1.00  0.00     0.163 HD
ATOM     27  O   UNL A   1      33.692  32.028  27.879  1.00  0.00    -0.269 OA
BRANCH  25  28
ATOM     28  C   UNL A   1      35.578  30.662  28.219  1.00  0.00     0.039 A 
ATOM     29  C   UNL A   1      35.511  29.731  29.257  1.00  0.00     0.014 A 
ATOM     30  C   UNL A   1      36.806  31.218  27.851  1.00  0.00     0.014 A 
ATOM     31  C   UNL A   1      36.684  29.327  29.899  1.00  0.00     0.010 A 
ATOM     32  C   UNL A   1      37.980  30.749  28.430  1.00  0.00     0.010 A 
ATOM     33  C   UNL A   1      37.930  29.816  29.476  1.00  0.00    -0.014 A 
BRANCH  33  34
ATOM     34  C   UNL A   1      39.189  29.400  30.144  1.00  0.00     0.031 A 
ATOM     35  C   UNL A   1      39.628  30.089  31.410  1.00  0.00     0.074 A 
ATOM     36  C   UNL A   1      39.958  28.441  29.595  1.00  0.00     0.049 A 
ATOM     37  N   UNL A   1      40.702  29.888  32.131  1.00  0.00    -0.248 NA
ATOM     38  C   UNL A   1      38.763  31.168  31.915  1.00  0.00     0.031 C 
ATOM     39  C   UNL A   1      39.661  27.723  28.354  1.00  0.00     0.029 A 
ATOM     40  N   UNL A   1      41.149  27.902  30.013  1.00  0.00    -0.354 N 
ATOM     41  C   UNL A   1      40.651  30.826  33.155  1.00  0.00     0.074 A 
ATOM     42  C   UNL A   1      39.475  31.635  32.928  1.00  0.00     0.031 C 
ATOM     43  C   UNL A   1      40.621  26.809  28.136  1.00  0.00     0.029 A 
ATOM     44  C   UNL A   1      41.622  26.904  29.194  1.00  0.00     0.049 A 
ATOM     45  H   UNL A   1      41.621  28.202  30.824  1.00  0.00     0.167 HD
ATOM     46  C   UNL A   1      41.493  30.987  34.205  1.00  0.00     0.031 A 
ATOM     47  C   UNL A   1      42.732  26.147  29.288  1.00  0.00     0.031 A 
ATOM     48  C   UNL A   1      42.658  30.173  34.430  1.00  0.00     0.049 A 
ATOM     49  C   UNL A   1      43.658  26.346  30.456  1.00  0.00     0.074 A 
ATOM     50  C   UNL A   1      43.544  30.214  35.491  1.00  0.00     0.029 A 
ATOM     51  N   UNL A   1      43.101  29.174  33.575  1.00  0.00    -0.354 N 
ATOM     52  N   UNL A   1      43.558  27.194  31.454  1.00  0.00    -0.248 NA
ATOM     53  C   UNL A   1      44.838  25.473  30.521  1.00  0.00     0.031 C 
ATOM     54  C   UNL A   1      44.558  29.281  35.248  1.00  0.00     0.029 A 
ATOM     55  C   UNL A   1      44.263  28.608  34.073  1.00  0.00     0.049 A 
ATOM     56  H   UNL A   1      42.655  28.907  32.740  1.00  0.00     0.167 HD
ATOM     57  C   UNL A   1      44.641  26.927  32.286  1.00  0.00     0.074 A 
ATOM     58  C   UNL A   1      45.376  25.838  31.677  1.00  0.00     0.031 C 
ATOM     59  C   UNL A   1      44.987  27.524  33.454  1.00  0.00     0.031 A 
BRANCH  46  60
ATOM     60  C   UNL A   1      41.189  32.106  35.171  1.00  0.00    -0.014 A 
ATOM     61  C   UNL A   1      40.420  31.887  36.329  1.00  0.00     0.010 A 
ATOM     62  C   UNL A   1      41.683  33.398  34.916  1.00  0.00     0.010 A 
ATOM     63  C   UNL A   1      40.096  32.950  37.177  1.00  0.00     0.020 A 
ATOM     64  C   UNL A   1      41.392  34.457  35.781  1.00  0.00     0.020 A 
ATOM     65  C   UNL A   1      40.577  34.231  36.892  1.00  0.00     0.054 A 
BRANCH  65  66
ATOM     66  S   UNL A   1      40.132  35.594  38.002  1.00  0.00     0.124 S 
ATOM     67  O   UNL A   1      38.895  35.100  38.601  1.00  0.00    -0.237 OA
ATOM     68  O   UNL A   1      41.280  35.663  38.902  1.00  0.00    -0.237 OA
ATOM     69  O   UNL A   1      39.977  36.736  37.104  1.00  0.00    -0.744 OA
ENDBRANCH  65  66
ENDBRANCH  46  60
BRANCH  47  70
ATOM     70  C   UNL A   1      42.998  25.096  28.268  1.00  0.00    -0.014 A 
ATOM     71  C   UNL A   1      43.642  25.426  27.061  1.00  0.00     0.010 A 
ATOM     72  C   UNL A   1      42.639  23.757  28.505  1.00  0.00     0.010 A 
ATOM     73  C   UNL A   1      43.912  24.440  26.108  1.00  0.00     0.020 A 
ATOM     74  C   UNL A   1      42.933  22.763  27.567  1.00  0.00     0.020 A 
ATOM     75  C   UNL A   1      43.562  23.112  26.371  1.00  0.00     0.054 A 
BRANCH  75  76
ATOM     76  S   UNL A   1      43.986  21.841  25.148  1.00  0.00     0.124 S 
ATOM     77  O   UNL A   1      43.869  22.574  23.891  1.00  0.00    -0.237 OA
ATOM     78  O   UNL A   1      45.343  21.468  25.540  1.00  0.00    -0.237 OA
ATOM     79  O   UNL A   1      42.977  20.806  25.366  1.00  0.00    -0.744 OA
ENDBRANCH  75  76
ENDBRANCH  47  70
BRANCH  59  80
ATOM     80  C   UNL A   1      46.186  26.976  34.186  1.00  0.00    -0.014 A 
ATOM     81  C   UNL A   1      47.477  27.491  33.978  1.00  0.00     0.010 A 
ATOM     82  C   UNL A   1      46.001  25.951  35.132  1.00  0.00     0.010 A 
ATOM     83  C   UNL A   1      48.569  26.960  34.672  1.00  0.00     0.020 A 
ATOM     84  C   UNL A   1      47.084  25.442  35.853  1.00  0.00     0.020 A 
ATOM     85  C   UNL A   1      48.364  25.936  35.604  1.00  0.00     0.054 A 
BRANCH  85  86
ATOM     86  S   UNL A   1      49.792  25.283  36.513  1.00  0.00     0.124 S 
ATOM     87  O   UNL A   1      50.882  25.510  35.568  1.00  0.00    -0.237 OA
ATOM     88  O   UNL A   1      49.815  26.115  37.713  1.00  0.00    -0.237 OA
ATOM     89  O   UNL A   1      49.446  23.881  36.740  1.00  0.00    -0.744 OA
ENDBRANCH  85  86
ENDBRANCH  59  80
ENDBRANCH  33  34
ENDBRANCH  25  28
ENDBRANCH  23  24
ENDBRANCH   1  23
TORSDOF 16
ENDMDL
MODEL 2
REMARK VINA RESULT:     -10.8      2.588      3.206
REMARK SMILES C[C@@H](C(=O)NCCCCNC(=O)c1ccc(-c2c3nc(c(-c4ccc(S(=O)(=O)[O-])cc4)c4ccc([nH]4)c(-c4ccc(S(=O)(=O)[O-])cc4)c4nc(c(-c5ccc(S(=O)(=O)[O-])cc5)c5ccc2[nH]5)C=C4)C=C3)cc1)c1ccc(-c2ccccc2)c(F)c1
REMARK SMILES IDX 8 1 7 2 6 3 5 4 3 5 4 6 2 8 1 9 73 10 74 11 85 12 75 13
REMARK SMILES IDX 83 14 76 15 84 16 77 17 78 18 82 19 79 20 81 21 80 22 9 23
REMARK SMILES IDX 10 24 11 25 12 27 13 28 14 29 72 30 15 31 71 32 16 33 17 34
REMARK SMILES IDX 18 35 65 36 19 37 70 38 64 39 66 40 20 41 69 42 63 43 62 44
REMARK SMILES IDX 21 46 51 47 32 48 50 49 33 50 36 51 49 52 67 53 34 54 35 55
REMARK SMILES IDX 48 57 68 58 37 59 22 60 23 61 31 62 24 63 30 64 25 65 26 66
REMARK SMILES IDX 27 67 28 68 29 69 52 70 53 71 61 72 54 73 60 74 55 75 56 76
REMARK SMILES IDX 57 77 58 78 59 79 38 80 39 81 47 82 40 83 46 84 41 85 42 86
REMARK SMILES IDX 43 87 44 88 45 89
REMARK H PARENT 5 7 10 26 66 45 36 56
REMARK Flexibility Score: inf
ROOT
ATOM      1  C   UNL A   1      33.762  28.350  24.995  1.00  0.00     0.023 C 
ENDROOT
BRANCH   1   2
ATOM      2  C   UNL A   1      32.646  29.297  24.549  1.00  0.00     0.023 C 
BRANCH   2   3
ATOM      3  C   UNL A   1      31.415  28.609  23.958  1.00  0.00     0.116 C 
BRANCH   3   4
ATOM      4  N   UNL A   1      30.794  27.725  24.920  1.00  0.00    -0.356 N 
ATOM      5  C   UNL A   1      30.649  26.369  24.920  1.00  0.00     0.227 C 
ATOM      6  O   UNL A   1      30.050  25.901  25.891  1.00  0.00    -0.274 OA
ATOM      7  H   UNL A   1      30.412  28.178  25.706  1.00  0.00     0.163 HD
BRANCH   5   8
ATOM      8  C   UNL A   1      31.256  25.520  23.785  1.00  0.00     0.105 C 
ATOM      9  C   UNL A   1      30.305  24.437  23.272  1.00  0.00     0.023 C 
BRANCH   8  10
ATOM     10  C   UNL A   1      32.582  24.834  24.121  1.00  0.00    -0.033 A 
ATOM     11  C   UNL A   1      33.595  24.653  23.171  1.00  0.00     0.005 A 
ATOM     12  C   UNL A   1      32.853  24.466  25.447  1.00  0.00     0.044 A 
ATOM     13  C   UNL A   1      34.818  24.077  23.521  1.00  0.00     0.012 A 
ATOM     14  C   UNL A   1      34.091  23.917  25.796  1.00  0.00     0.131 A 
ATOM     15  C   UNL A   1      35.099  23.706  24.845  1.00  0.00     0.017 A 
ATOM     16  F   UNL A   1      34.302  23.616  27.087  1.00  0.00    -0.206 F 
BRANCH  15  17
ATOM     17  C   UNL A   1      36.407  23.124  25.184  1.00  0.00    -0.015 A 
ATOM     18  C   UNL A   1      36.726  21.807  24.806  1.00  0.00     0.009 A 
ATOM     19  C   UNL A   1      37.354  23.839  25.935  1.00  0.00     0.009 A 
ATOM     20  C   UNL A   1      37.935  21.219  25.181  1.00  0.00     0.001 A 
ATOM     21  C   UNL A   1      38.565  23.252  26.311  1.00  0.00     0.001 A 
ATOM     22  C   UNL A   1      38.853  21.941  25.939  1.00  0.00     0.000 A 
ENDBRANCH  15  17
ENDBRANCH   8  10
ENDBRANCH   5   8
ENDBRANCH   3   4
ENDBRANCH   2   3
ENDBRANCH   1   2
BRANCH   1  23
ATOM     23  C   UNL A   1      34.099  28.403  26.477  1.00  0.00     0.116 C 
BRANCH  23  24
ATOM     24  N   UNL A   1      33.840  29.708  27.063  1.00  0.00    -0.352 N 
ATOM     25  C   UNL A   1      34.634  30.447  27.904  1.00  0.00     0.251 C 
ATOM     26  H   UNL A   1      32.977  30.118  26.823  1.00  0.00     0.163 HD
ATOM     27  O   UNL A   1      34.188  31.463  28.430  1.00  0.00    -0.269 OA
BRANCH  25  28
ATOM     28  C   UNL A   1      36.013  29.997  28.191  1.00  0.00     0.039 A 
ATOM     29  C   UNL A   1      36.991  30.138  27.205  1.00  0.00     0.014 A 
ATOM     30  C   UNL A   1      36.340  29.442  29.431  1.00  0.00     0.014 A 
ATOM     31  C   UNL A   1      38.307  29.759  27.479  1.00  0.00     0.010 A 
ATOM     32  C   UNL A   1      37.665  29.149  29.731  1.00  0.00     0.010 A 
ATOM     33  C   UNL A   1      38.659  29.281  28.751  1.00  0.00    -0.014 A 
BRANCH  33  34
ATOM     34  C   UNL A   1      40.052  28.872  29.063  1.00  0.00     0.031 A 
ATOM     35  C   UNL A   1      40.979  29.837  29.757  1.00  0.00     0.074 A 
ATOM     36  C   UNL A   1      40.499  27.659  28.684  1.00  0.00     0.049 A 
ATOM     37  N   UNL A   1      42.233  29.679  30.096  1.00  0.00    -0.248 NA
ATOM     38  C   UNL A   1      40.433  31.164  30.086  1.00  0.00     0.031 C 
ATOM     39  C   UNL A   1      39.712  26.649  27.974  1.00  0.00     0.029 A 
ATOM     40  N   UNL A   1      41.727  27.069  28.846  1.00  0.00    -0.354 N 
ATOM     41  C   UNL A   1      42.629  30.889  30.654  1.00  0.00     0.074 A 
ATOM     42  C   UNL A   1      41.502  31.789  30.552  1.00  0.00     0.031 C 
ATOM     43  C   UNL A   1      40.463  25.549  27.802  1.00  0.00     0.029 A 
ATOM     44  C   UNL A   1      41.795  25.790  28.348  1.00  0.00     0.049 A 
ATOM     45  H   UNL A   1      42.488  27.519  29.280  1.00  0.00     0.167 HD
ATOM     46  C   UNL A   1      43.814  31.217  31.221  1.00  0.00     0.031 A 
ATOM     47  C   UNL A   1      42.813  24.907  28.338  1.00  0.00     0.031 A 
ATOM     48  C   UNL A   1      44.930  30.314  31.327  1.00  0.00     0.049 A 
ATOM     49  C   UNL A   1      44.124  25.294  28.966  1.00  0.00     0.074 A 
ATOM     50  C   UNL A   1      46.154  30.526  31.935  1.00  0.00     0.029 A 
ATOM     51  N   UNL A   1      44.957  29.028  30.808  1.00  0.00    -0.354 N 
ATOM     52  N   UNL A   1      44.460  26.420  29.550  1.00  0.00    -0.248 NA
ATOM     53  C   UNL A   1      45.188  24.281  28.949  1.00  0.00     0.031 C 
ATOM     54  C   UNL A   1      46.945  29.391  31.730  1.00  0.00     0.029 A 
ATOM     55  C   UNL A   1      46.187  28.443  31.059  1.00  0.00     0.049 A 
ATOM     56  H   UNL A   1      44.212  28.595  30.332  1.00  0.00     0.167 HD
ATOM     57  C   UNL A   1      45.761  26.236  30.007  1.00  0.00     0.074 A 
ATOM     58  C   UNL A   1      46.146  24.890  29.636  1.00  0.00     0.031 C 
ATOM     59  C   UNL A   1      46.559  27.101  30.682  1.00  0.00     0.031 A 
BRANCH  46  60
ATOM     60  C   UNL A   1      43.965  32.624  31.746  1.00  0.00    -0.014 A 
ATOM     61  C   UNL A   1      44.409  33.672  30.918  1.00  0.00     0.010 A 
ATOM     62  C   UNL A   1      43.656  32.903  33.089  1.00  0.00     0.010 A 
ATOM     63  C   UNL A   1      44.604  34.954  31.439  1.00  0.00     0.020 A 
ATOM     64  C   UNL A   1      43.815  34.192  33.606  1.00  0.00     0.020 A 
ATOM     65  C   UNL A   1      44.313  35.204  32.783  1.00  0.00     0.054 A 
BRANCH  65  66
ATOM     66  S   UNL A   1      44.586  36.874  33.437  1.00  0.00     0.124 S 
ATOM     67  O   UNL A   1      43.934  36.795  34.741  1.00  0.00    -0.237 OA
ATOM     68  O   UNL A   1      46.043  36.970  33.469  1.00  0.00    -0.237 OA
ATOM     69  O   UNL A   1      43.928  37.739  32.461  1.00  0.00    -0.744 OA
ENDBRANCH  65  66
ENDBRANCH  46  60
BRANCH  47  70
ATOM     70  C   UNL A   1      42.611  23.553  27.753  1.00  0.00    -0.014 A 
ATOM     71  C   UNL A   1      43.012  23.284  26.432  1.00  0.00     0.010 A 
ATOM     72  C   UNL A   1      42.045  22.517  28.519  1.00  0.00     0.010 A 
ATOM     73  C   UNL A   1      42.843  22.008  25.885  1.00  0.00     0.020 A 
ATOM     74  C   UNL A   1      41.901  21.234  27.985  1.00  0.00     0.020 A 
ATOM     75  C   UNL A   1      42.295  20.989  26.668  1.00  0.00     0.054 A 
BRANCH  75  76
ATOM     76  S   UNL A   1      42.150  19.326  25.957  1.00  0.00     0.124 S 
ATOM     77  O   UNL A   1      42.985  19.429  24.765  1.00  0.00    -0.237 OA
ATOM     78  O   UNL A   1      42.674  18.481  27.027  1.00  0.00    -0.237 OA
ATOM     79  O   UNL A   1      40.717  19.184  25.708  1.00  0.00    -0.744 OA
ENDBRANCH  75  76
ENDBRANCH  47  70
BRANCH  59  80
ATOM     80  C   UNL A   1      47.913  26.602  31.116  1.00  0.00    -0.014 A 
ATOM     81  C   UNL A   1      49.046  26.728  30.295  1.00  0.00     0.010 A 
ATOM     82  C   UNL A   1      48.055  26.033  32.396  1.00  0.00     0.010 A 
ATOM     83  C   UNL A   1      50.288  26.253  30.727  1.00  0.00     0.020 A 
ATOM     84  C   UNL A   1      49.301  25.589  32.846  1.00  0.00     0.020 A 
ATOM     85  C   UNL A   1      50.406  25.685  32.001  1.00  0.00     0.054 A 
BRANCH  85  86
ATOM     86  S   UNL A   1      52.034  25.103  32.550  1.00  0.00     0.124 S 
ATOM     87  O   UNL A   1      52.112  25.653  33.900  1.00  0.00    -0.237 OA
ATOM     88  O   UNL A   1      51.899  23.651  32.469  1.00  0.00    -0.237 OA
ATOM     89  O   UNL A   1      52.958  25.692  31.583  1.00  0.00    -0.744 OA
ENDBRANCH  85  86
ENDBRANCH  59  80
ENDBRANCH  33  34
ENDBRANCH  25  28
ENDBRANCH  23  24
ENDBRANCH   1  23
TORSDOF 16
ENDMDL
MODEL 3
REMARK VINA RESULT:     -10.7      3.229      3.969
REMARK SMILES C[C@@H](C(=O)NCCCCNC(=O)c1ccc(-c2c3nc(c(-c4ccc(S(=O)(=O)[O-])cc4)c4ccc([nH]4)c(-c4ccc(S(=O)(=O)[O-])cc4)c4nc(c(-c5ccc(S(=O)(=O)[O-])cc5)c5ccc2[nH]5)C=C4)C=C3)cc1)c1ccc(-c2ccccc2)c(F)c1
REMARK SMILES IDX 8 1 7 2 6 3 5 4 3 5 4 6 2 8 1 9 73 10 74 11 85 12 75 13
REMARK SMILES IDX 83 14 76 15 84 16 77 17 78 18 82 19 79 20 81 21 80 22 9 23
REMARK SMILES IDX 10 24 11 25 12 27 13 28 14 29 72 30 15 31 71 32 16 33 17 34
REMARK SMILES IDX 18 35 65 36 19 37 70 38 64 39 66 40 20 41 69 42 63 43 62 44
REMARK SMILES IDX 21 46 51 47 32 48 50 49 33 50 36 51 49 52 67 53 34 54 35 55
REMARK SMILES IDX 48 57 68 58 37 59 22 60 23 61 31 62 24 63 30 64 25 65 26 66
REMARK SMILES IDX 27 67 28 68 29 69 52 70 53 71 61 72 54 73 60 74 55 75 56 76
REMARK SMILES IDX 57 77 58 78 59 79 38 80 39 81 47 82 40 83 46 84 41 85 42 86
REMARK SMILES IDX 43 87 44 88 45 89
REMARK H PARENT 5 7 10 26 66 45 36 56
REMARK Flexibility Score: inf
ROOT
ATOM      1  C   UNL A   1      32.898  27.608  26.051  1.00  0.00     0.023 C 
ENDROOT
BRANCH   1   2
ATOM      2  C   UNL A   1      32.813  27.757  24.530  1.00  0.00     0.023 C 
BRANCH   2   3
ATOM      3  C   UNL A   1      31.935  26.721  23.829  1.00  0.00     0.116 C 
BRANCH   3   4
ATOM      4  N   UNL A   1      32.704  25.919  22.902  1.00  0.00    -0.356 N 
ATOM      5  C   UNL A   1      33.539  24.864  23.117  1.00  0.00     0.227 C 
ATOM      6  O   UNL A   1      34.068  24.393  22.107  1.00  0.00    -0.274 OA
ATOM      7  H   UNL A   1      32.606  26.179  21.958  1.00  0.00     0.163 HD
BRANCH   5   8
ATOM      8  C   UNL A   1      33.737  24.302  24.540  1.00  0.00     0.105 C 
ATOM      9  C   UNL A   1      35.067  24.721  25.170  1.00  0.00     0.023 C 
BRANCH   8  10
ATOM     10  C   UNL A   1      33.639  22.780  24.661  1.00  0.00    -0.033 A 
ATOM     11  C   UNL A   1      32.436  22.088  24.473  1.00  0.00     0.005 A 
ATOM     12  C   UNL A   1      34.806  22.026  24.856  1.00  0.00     0.044 A 
ATOM     13  C   UNL A   1      32.389  20.694  24.529  1.00  0.00     0.012 A 
ATOM     14  C   UNL A   1      34.755  20.629  24.884  1.00  0.00     0.131 A 
ATOM     15  C   UNL A   1      33.550  19.931  24.725  1.00  0.00     0.017 A 
ATOM     16  F   UNL A   1      35.910  19.963  25.042  1.00  0.00    -0.206 F 
BRANCH  15  17
ATOM     17  C   UNL A   1      33.469  18.462  24.756  1.00  0.00    -0.015 A 
ATOM     18  C   UNL A   1      34.105  17.686  23.770  1.00  0.00     0.009 A 
ATOM     19  C   UNL A   1      32.717  17.791  25.734  1.00  0.00     0.009 A 
ATOM     20  C   UNL A   1      33.979  16.297  23.747  1.00  0.00     0.001 A 
ATOM     21  C   UNL A   1      32.589  16.399  25.714  1.00  0.00     0.001 A 
ATOM     22  C   UNL A   1      33.215  15.654  24.718  1.00  0.00     0.000 A 
ENDBRANCH  15  17
ENDBRANCH   8  10
ENDBRANCH   5   8
ENDBRANCH   3   4
ENDBRANCH   2   3
ENDBRANCH   1   2
BRANCH   1  23
ATOM     23  C   UNL A   1      34.093  28.290  26.700  1.00  0.00     0.116 C 
BRANCH  23  24
ATOM     24  N   UNL A   1      33.789  29.638  27.152  1.00  0.00    -0.352 N 
ATOM     25  C   UNL A   1      34.556  30.484  27.914  1.00  0.00     0.251 C 
ATOM     26  H   UNL A   1      32.914  29.993  26.874  1.00  0.00     0.163 HD
ATOM     27  O   UNL A   1      34.075  31.532  28.336  1.00  0.00    -0.269 OA
BRANCH  25  28
ATOM     28  C   UNL A   1      35.949  30.112  28.243  1.00  0.00     0.039 A 
ATOM     29  C   UNL A   1      36.233  29.609  29.514  1.00  0.00     0.014 A 
ATOM     30  C   UNL A   1      36.969  30.257  27.300  1.00  0.00     0.014 A 
ATOM     31  C   UNL A   1      37.536  29.212  29.824  1.00  0.00     0.010 A 
ATOM     32  C   UNL A   1      38.244  29.779  27.580  1.00  0.00     0.010 A 
ATOM     33  C   UNL A   1      38.548  29.273  28.852  1.00  0.00    -0.014 A 
BRANCH  33  34
ATOM     34  C   UNL A   1      39.939  28.857  29.161  1.00  0.00     0.031 A 
ATOM     35  C   UNL A   1      40.867  29.811  29.867  1.00  0.00     0.074 A 
ATOM     36  C   UNL A   1      40.383  27.647  28.770  1.00  0.00     0.049 A 
ATOM     37  N   UNL A   1      42.121  29.645  30.206  1.00  0.00    -0.248 NA
ATOM     38  C   UNL A   1      40.325  31.136  30.209  1.00  0.00     0.031 C 
ATOM     39  C   UNL A   1      39.593  26.647  28.047  1.00  0.00     0.029 A 
ATOM     40  N   UNL A   1      41.609  27.051  28.927  1.00  0.00    -0.354 N 
ATOM     41  C   UNL A   1      42.520  30.848  30.778  1.00  0.00     0.074 A 
ATOM     42  C   UNL A   1      41.396  31.753  30.684  1.00  0.00     0.031 C 
ATOM     43  C   UNL A   1      40.342  25.547  27.864  1.00  0.00     0.029 A 
ATOM     44  C   UNL A   1      41.674  25.777  28.414  1.00  0.00     0.049 A 
ATOM     45  H   UNL A   1      42.371  27.495  29.366  1.00  0.00     0.167 HD
ATOM     46  C   UNL A   1      43.705  31.167  31.350  1.00  0.00     0.031 A 
ATOM     47  C   UNL A   1      42.689  24.892  28.395  1.00  0.00     0.031 A 
ATOM     48  C   UNL A   1      44.818  30.260  31.447  1.00  0.00     0.049 A 
ATOM     49  C   UNL A   1      44.001  25.268  29.029  1.00  0.00     0.074 A 
ATOM     50  C   UNL A   1      46.042  30.461  32.058  1.00  0.00     0.029 A 
ATOM     51  N   UNL A   1      44.842  28.979  30.914  1.00  0.00    -0.354 N 
ATOM     52  N   UNL A   1      44.339  26.387  29.626  1.00  0.00    -0.248 NA
ATOM     53  C   UNL A   1      45.062  24.252  29.003  1.00  0.00     0.031 C 
ATOM     54  C   UNL A   1      46.830  29.326  31.842  1.00  0.00     0.029 A 
ATOM     55  C   UNL A   1      46.070  28.387  31.160  1.00  0.00     0.049 A 
ATOM     56  H   UNL A   1      44.097  28.554  30.432  1.00  0.00     0.167 HD
ATOM     57  C   UNL A   1      45.639  26.194  30.083  1.00  0.00     0.074 A 
ATOM     58  C   UNL A   1      46.020  24.851  29.697  1.00  0.00     0.031 C 
ATOM     59  C   UNL A   1      46.438  27.049  30.768  1.00  0.00     0.031 A 
BRANCH  46  60
ATOM     60  C   UNL A   1      43.860  32.567  31.890  1.00  0.00    -0.014 A 
ATOM     61  C   UNL A   1      44.322  33.620  31.078  1.00  0.00     0.010 A 
ATOM     62  C   UNL A   1      43.535  32.835  33.232  1.00  0.00     0.010 A 
ATOM     63  C   UNL A   1      44.519  34.895  31.615  1.00  0.00     0.020 A 
ATOM     64  C   UNL A   1      43.697  34.118  33.763  1.00  0.00     0.020 A 
ATOM     65  C   UNL A   1      44.213  35.134  32.957  1.00  0.00     0.054 A 
BRANCH  65  66
ATOM     66  S   UNL A   1      44.490  36.795  33.630  1.00  0.00     0.124 S 
ATOM     67  O   UNL A   1      43.198  37.434  33.393  1.00  0.00    -0.237 OA
ATOM     68  O   UNL A   1      44.808  36.525  35.030  1.00  0.00    -0.237 OA
ATOM     69  O   UNL A   1      45.598  37.313  32.831  1.00  0.00    -0.744 OA
ENDBRANCH  65  66
ENDBRANCH  46  60
BRANCH  47  70
ATOM     70  C   UNL A   1      42.484  23.545  27.796  1.00  0.00    -0.014 A 
ATOM     71  C   UNL A   1      42.841  23.303  26.456  1.00  0.00     0.010 A 
ATOM     72  C   UNL A   1      41.959  22.489  28.564  1.00  0.00     0.010 A 
ATOM     73  C   UNL A   1      42.669  22.035  25.895  1.00  0.00     0.020 A 
ATOM     74  C   UNL A   1      41.813  21.213  28.013  1.00  0.00     0.020 A 
ATOM     75  C   UNL A   1      42.162  20.995  26.680  1.00  0.00     0.054 A 
BRANCH  75  76
ATOM     76  S   UNL A   1      42.013  19.342  25.946  1.00  0.00     0.124 S 
ATOM     77  O   UNL A   1      42.864  19.453  24.766  1.00  0.00    -0.237 OA
ATOM     78  O   UNL A   1      42.518  18.480  27.012  1.00  0.00    -0.237 OA
ATOM     79  O   UNL A   1      40.582  19.215  25.678  1.00  0.00    -0.744 OA
ENDBRANCH  75  76
ENDBRANCH  47  70
BRANCH  59  80
ATOM     80  C   UNL A   1      47.791  26.541  31.199  1.00  0.00    -0.014 A 
ATOM     81  C   UNL A   1      48.917  26.639  30.365  1.00  0.00     0.010 A 
ATOM     82  C   UNL A   1      47.938  25.991  32.487  1.00  0.00     0.010 A 
ATOM     83  C   UNL A   1      50.158  26.157  30.795  1.00  0.00     0.020 A 
ATOM     84  C   UNL A   1      49.182  25.541  32.933  1.00  0.00     0.020 A 
ATOM     85  C   UNL A   1      50.281  25.609  32.076  1.00  0.00     0.054 A 
BRANCH  85  86
ATOM     86  S   UNL A   1      51.906  25.017  32.621  1.00  0.00     0.124 S 
ATOM     87  O   UNL A   1      51.799  23.580  32.387  1.00  0.00    -0.237 OA
ATOM     88  O   UNL A   1      52.821  25.733  31.736  1.00  0.00    -0.237 OA
ATOM     89  O   UNL A   1      51.968  25.416  34.026  1.00  0.00    -0.744 OA
ENDBRANCH  85  86
ENDBRANCH  59  80
ENDBRANCH  33  34
ENDBRANCH  25  28
ENDBRANCH  23  24
ENDBRANCH   1  23
TORSDOF 16
ENDMDL
