MODEL 1
REMARK VINA RESULT:     -12.2      0.000      0.000
REMARK SMILES O=C(CCN1C(=O)/C(=C/C=C/c2ccco2)SC1=S)Nc1ccc(C(=O)NCCCCNC(=O)c2ccc(-c3c4nc(c(-c5ccc(S(=O)(=O)[O-])cc5)c5ccc([nH]5)c(-c5ccc(S(=O)(=O)[O-])cc5)c5nc(c(-c6ccc(S(=O)(=O)[O-])cc6)c6ccc3[nH]6)C=C5)C=C4)cc2)c(O)c1
REMARK SMILES IDX 28 1 27 2 25 3 26 4 24 6 21 7 22 8 97 9 23 10 95 11 20 12
REMARK SMILES IDX 1 13 2 14 3 16 4 17 5 18 6 19 18 20 7 21 8 22 17 23 19 24
REMARK SMILES IDX 9 25 10 26 11 27 12 28 13 29 16 30 14 31 15 32 96 33 29 35
REMARK SMILES IDX 30 36 31 37 32 38 33 39 34 41 35 42 36 43 94 44 37 45 93 46
REMARK SMILES IDX 38 47 39 48 40 49 87 50 41 51 92 52 86 53 88 54 42 55 91 56
REMARK SMILES IDX 85 57 84 58 43 60 73 61 54 62 72 63 55 64 58 65 71 66 89 67
REMARK SMILES IDX 56 68 57 69 70 71 90 72 59 73 44 74 45 75 53 76 46 77 52 78
REMARK SMILES IDX 47 79 48 80 49 81 50 82 51 83 74 84 75 85 83 86 76 87 82 88
REMARK SMILES IDX 77 89 78 90 79 91 80 92 81 93 60 94 61 95 69 96 62 97 68 98
REMARK SMILES IDX 63 99 64 100 65 101 66 102 67 103
REMARK H PARENT 27 5 20 15 96 34 32 40 88 59 58 70
REMARK Flexibility Score: inf
ROOT
ATOM      1  C   UNL A   1      44.120  22.652  27.486  1.00  0.00     0.116 C 
ENDROOT
BRANCH   1   2
ATOM      2  N   UNL A   1      44.213  21.617  26.464  1.00  0.00    -0.352 N 
ATOM      3  C   UNL A   1      43.202  20.967  25.791  1.00  0.00     0.255 C 
ATOM      4  O   UNL A   1      43.470  20.115  24.950  1.00  0.00    -0.269 OA
ATOM      5  H   UNL A   1      45.127  21.345  26.221  1.00  0.00     0.163 HD
BRANCH   3   6
ATOM      6  C   UNL A   1      41.789  21.254  26.114  1.00  0.00     0.081 A 
ATOM      7  C   UNL A   1      39.101  22.028  26.345  1.00  0.00     0.044 A 
ATOM      8  C   UNL A   1      40.117  22.964  26.538  1.00  0.00     0.027 A 
ATOM      9  C   UNL A   1      39.443  20.683  26.153  1.00  0.00     0.073 A 
ATOM     10  C   UNL A   1      41.458  22.581  26.414  1.00  0.00     0.020 A 
ATOM     11  C   UNL A   1      40.778  20.293  26.080  1.00  0.00     0.130 A 
BRANCH   7  12
ATOM     12  N   UNL A   1      37.727  22.337  26.337  1.00  0.00    -0.326 N 
ATOM     13  O   UNL A   1      37.299  22.688  24.088  1.00  0.00    -0.275 OA
ATOM     14  C   UNL A   1      36.938  22.675  25.263  1.00  0.00     0.226 C 
ATOM     15  H   UNL A   1      37.274  22.305  27.211  1.00  0.00     0.169 HD
BRANCH  14  16
ATOM     16  C   UNL A   1      35.539  23.164  25.608  1.00  0.00     0.122 C 
BRANCH  16  17
ATOM     17  C   UNL A   1      34.370  22.851  24.672  1.00  0.00     0.137 C 
BRANCH  17  18
ATOM     18  N   UNL A   1      33.273  23.825  24.507  1.00  0.00    -0.292 N 
ATOM     19  C   UNL A   1      33.401  24.738  23.459  1.00  0.00     0.266 C 
ATOM     20  C   UNL A   1      32.248  24.095  25.395  1.00  0.00     0.148 C 
ATOM     21  O   UNL A   1      34.341  24.807  22.679  1.00  0.00    -0.268 OA
ATOM     22  C   UNL A   1      32.240  25.665  23.422  1.00  0.00     0.080 C 
ATOM     23  S   UNL A   1      31.161  25.288  24.701  1.00  0.00    -0.054 SA
ATOM     24  S   UNL A   1      31.958  23.456  26.904  1.00  0.00    -0.052 S 
ATOM     25  C   UNL A   1      32.118  26.644  22.511  1.00  0.00     0.021 C 
BRANCH  25  26
ATOM     26  C   UNL A   1      30.972  27.525  22.384  1.00  0.00     0.005 C 
ATOM     27  C   UNL A   1      30.877  28.731  22.963  1.00  0.00     0.047 C 
BRANCH  27  28
ATOM     28  C   UNL A   1      29.764  29.587  22.717  1.00  0.00     0.126 A 
ATOM     29  C   UNL A   1      29.200  30.602  23.485  1.00  0.00     0.050 A 
ATOM     30  O   UNL A   1      29.012  29.487  21.566  1.00  0.00    -0.465 OA
ATOM     31  C   UNL A   1      28.059  31.088  22.807  1.00  0.00     0.042 A 
ATOM     32  C   UNL A   1      27.987  30.369  21.642  1.00  0.00     0.195 A 
ENDBRANCH  27  28
ENDBRANCH  25  26
ENDBRANCH  17  18
ENDBRANCH  16  17
ENDBRANCH  14  16
ENDBRANCH   7  12
BRANCH  11  33
ATOM     33  O   UNL A   1      41.005  18.951  25.962  1.00  0.00    -0.507 OA
ATOM     34  H   UNL A   1      41.591  18.521  26.554  1.00  0.00     0.293 HD
ENDBRANCH  11  33
ENDBRANCH   3   6
ENDBRANCH   1   2
BRANCH   1  35
ATOM     35  C   UNL A   1      45.158  23.762  27.369  1.00  0.00     0.023 C 
BRANCH  35  36
ATOM     36  C   UNL A   1      44.646  25.191  27.529  1.00  0.00     0.023 C 
BRANCH  36  37
ATOM     37  C   UNL A   1      44.580  26.031  26.261  1.00  0.00     0.116 C 
BRANCH  37  38
ATOM     38  N   UNL A   1      43.388  25.795  25.462  1.00  0.00    -0.352 N 
ATOM     39  C   UNL A   1      42.087  26.190  25.676  1.00  0.00     0.251 C 
ATOM     40  H   UNL A   1      43.534  25.272  24.641  1.00  0.00     0.163 HD
ATOM     41  O   UNL A   1      41.205  25.801  24.911  1.00  0.00    -0.269 OA
BRANCH  39  42
ATOM     42  C   UNL A   1      41.735  27.043  26.835  1.00  0.00     0.039 A 
ATOM     43  C   UNL A   1      40.989  26.486  27.879  1.00  0.00     0.014 A 
ATOM     44  C   UNL A   1      42.129  28.381  26.903  1.00  0.00     0.014 A 
ATOM     45  C   UNL A   1      40.704  27.248  29.015  1.00  0.00     0.010 A 
ATOM     46  C   UNL A   1      41.927  29.107  28.073  1.00  0.00     0.010 A 
ATOM     47  C   UNL A   1      41.201  28.556  29.139  1.00  0.00    -0.014 A 
BRANCH  47  48
ATOM     48  C   UNL A   1      40.946  29.370  30.358  1.00  0.00     0.031 A 
ATOM     49  C   UNL A   1      41.801  29.180  31.586  1.00  0.00     0.074 A 
ATOM     50  C   UNL A   1      39.915  30.239  30.386  1.00  0.00     0.049 A 
ATOM     51  N   UNL A   1      41.707  29.761  32.755  1.00  0.00    -0.248 NA
ATOM     52  C   UNL A   1      42.882  28.185  31.497  1.00  0.00     0.031 C 
ATOM     53  C   UNL A   1      38.978  30.482  29.286  1.00  0.00     0.029 A 
ATOM     54  N   UNL A   1      39.481  31.081  31.379  1.00  0.00    -0.354 N 
ATOM     55  C   UNL A   1      42.698  29.185  33.544  1.00  0.00     0.074 A 
ATOM     56  C   UNL A   1      43.341  28.171  32.739  1.00  0.00     0.031 C 
ATOM     57  C   UNL A   1      38.103  31.434  29.654  1.00  0.00     0.029 A 
ATOM     58  C   UNL A   1      38.395  31.846  31.024  1.00  0.00     0.049 A 
ATOM     59  H   UNL A   1      39.910  31.134  32.264  1.00  0.00     0.167 HD
ATOM     60  C   UNL A   1      43.061  29.488  34.813  1.00  0.00     0.031 A 
ATOM     61  C   UNL A   1      37.714  32.778  31.718  1.00  0.00     0.031 A 
ATOM     62  C   UNL A   1      42.440  30.516  35.606  1.00  0.00     0.049 A 
ATOM     63  C   UNL A   1      38.155  33.122  33.115  1.00  0.00     0.074 A 
ATOM     64  C   UNL A   1      42.768  30.937  36.883  1.00  0.00     0.029 A 
ATOM     65  N   UNL A   1      41.366  31.291  35.193  1.00  0.00    -0.354 N 
ATOM     66  N   UNL A   1      39.131  32.605  33.822  1.00  0.00    -0.248 NA
ATOM     67  C   UNL A   1      37.417  34.193  33.796  1.00  0.00     0.031 C 
ATOM     68  C   UNL A   1      41.870  31.942  37.256  1.00  0.00     0.029 A 
ATOM     69  C   UNL A   1      41.016  32.184  36.192  1.00  0.00     0.049 A 
ATOM     70  H   UNL A   1      40.919  31.217  34.320  1.00  0.00     0.167 HD
ATOM     71  C   UNL A   1      39.148  33.314  35.018  1.00  0.00     0.074 A 
ATOM     72  C   UNL A   1      38.092  34.302  34.932  1.00  0.00     0.031 C 
ATOM     73  C   UNL A   1      39.966  33.164  36.089  1.00  0.00     0.031 A 
BRANCH  60  74
ATOM     74  C   UNL A   1      44.191  28.695  35.418  1.00  0.00    -0.014 A 
ATOM     75  C   UNL A   1      45.521  29.152  35.340  1.00  0.00     0.010 A 
ATOM     76  C   UNL A   1      43.921  27.490  36.089  1.00  0.00     0.010 A 
ATOM     77  C   UNL A   1      46.562  28.391  35.877  1.00  0.00     0.020 A 
ATOM     78  C   UNL A   1      44.958  26.742  36.655  1.00  0.00     0.020 A 
ATOM     79  C   UNL A   1      46.275  27.188  36.526  1.00  0.00     0.054 A 
BRANCH  79  80
ATOM     80  S   UNL A   1      47.647  26.227  37.223  1.00  0.00     0.124 S 
ATOM     81  O   UNL A   1      47.293  24.867  36.825  1.00  0.00    -0.237 OA
ATOM     82  O   UNL A   1      48.812  26.795  36.550  1.00  0.00    -0.237 OA
ATOM     83  O   UNL A   1      47.566  26.497  38.657  1.00  0.00    -0.744 OA
ENDBRANCH  79  80
ENDBRANCH  60  74
BRANCH  61  84
ATOM     84  C   UNL A   1      36.566  33.487  31.086  1.00  0.00    -0.014 A 
ATOM     85  C   UNL A   1      36.618  33.860  29.731  1.00  0.00     0.010 A 
ATOM     86  C   UNL A   1      35.414  33.789  31.834  1.00  0.00     0.010 A 
ATOM     87  C   UNL A   1      35.550  34.544  29.141  1.00  0.00     0.020 A 
ATOM     88  C   UNL A   1      34.332  34.448  31.241  1.00  0.00     0.020 A 
ATOM     89  C   UNL A   1      34.413  34.833  29.900  1.00  0.00     0.054 A 
BRANCH  89  90
ATOM     90  S   UNL A   1      33.020  35.678  29.103  1.00  0.00     0.124 S 
ATOM     91  O   UNL A   1      33.685  36.785  28.423  1.00  0.00    -0.237 OA
ATOM     92  O   UNL A   1      32.474  34.637  28.234  1.00  0.00    -0.237 OA
ATOM     93  O   UNL A   1      32.162  36.054  30.224  1.00  0.00    -0.744 OA
ENDBRANCH  89  90
ENDBRANCH  61  84
BRANCH  73  94
ATOM     94  C   UNL A   1      39.788  34.127  37.233  1.00  0.00    -0.014 A 
ATOM     95  C   UNL A   1      40.464  35.359  37.270  1.00  0.00     0.010 A 
ATOM     96  C   UNL A   1      38.906  33.797  38.280  1.00  0.00     0.010 A 
ATOM     97  C   UNL A   1      40.301  36.220  38.359  1.00  0.00     0.020 A 
ATOM     98  C   UNL A   1      38.719  34.668  39.355  1.00  0.00     0.020 A 
ATOM     99  C   UNL A   1      39.435  35.865  39.398  1.00  0.00     0.054 A 
BRANCH  99 100
ATOM    100  S   UNL A   1      39.233  37.001  40.798  1.00  0.00     0.124 S 
ATOM    101  O   UNL A   1      38.639  36.133  41.810  1.00  0.00    -0.237 OA
ATOM    102  O   UNL A   1      40.603  37.432  41.064  1.00  0.00    -0.237 OA
ATOM    103  O   UNL A   1      38.351  38.042  40.273  1.00  0.00    -0.744 OA
ENDBRANCH  99 100
ENDBRANCH  73  94
ENDBRANCH  47  48
ENDBRANCH  39  42
ENDBRANCH  37  38
ENDBRANCH  36  37
ENDBRANCH  35  36
ENDBRANCH   1  35
TORSDOF 21
ENDMDL
MODEL 2
REMARK VINA RESULT:     -12.1      4.694     13.534
REMARK SMILES O=C(CCN1C(=O)/C(=C/C=C/c2ccco2)SC1=S)Nc1ccc(C(=O)NCCCCNC(=O)c2ccc(-c3c4nc(c(-c5ccc(S(=O)(=O)[O-])cc5)c5ccc([nH]5)c(-c5ccc(S(=O)(=O)[O-])cc5)c5nc(c(-c6ccc(S(=O)(=O)[O-])cc6)c6ccc3[nH]6)C=C5)C=C4)cc2)c(O)c1
REMARK SMILES IDX 28 1 27 2 25 3 26 4 24 6 21 7 22 8 97 9 23 10 95 11 20 12
REMARK SMILES IDX 1 13 2 14 3 16 4 17 5 18 6 19 18 20 7 21 8 22 17 23 19 24
REMARK SMILES IDX 9 25 10 26 11 27 12 28 13 29 16 30 14 31 15 32 96 33 29 35
REMARK SMILES IDX 30 36 31 37 32 38 33 39 34 41 35 42 36 43 94 44 37 45 93 46
REMARK SMILES IDX 38 47 39 48 40 49 87 50 41 51 92 52 86 53 88 54 42 55 91 56
REMARK SMILES IDX 85 57 84 58 43 60 73 61 54 62 72 63 55 64 58 65 71 66 89 67
REMARK SMILES IDX 56 68 57 69 70 71 90 72 59 73 44 74 45 75 53 76 46 77 52 78
REMARK SMILES IDX 47 79 48 80 49 81 50 82 51 83 74 84 75 85 83 86 76 87 82 88
REMARK SMILES IDX 77 89 78 90 79 91 80 92 81 93 60 94 61 95 69 96 62 97 68 98
REMARK SMILES IDX 63 99 64 100 65 101 66 102 67 103
REMARK H PARENT 27 5 20 15 96 34 32 40 88 59 58 70
REMARK Flexibility Score: inf
ROOT
ATOM      1  C   UNL A   1      34.423  32.740  32.117  1.00  0.00     0.116 C 
ENDROOT
BRANCH   1   2
ATOM      2  N   UNL A   1      34.258  34.078  32.670  1.00  0.00    -0.352 N 
ATOM      3  C   UNL A   1      35.167  34.854  33.355  1.00  0.00     0.255 C 
ATOM      4  O   UNL A   1      34.851  35.971  33.748  1.00  0.00    -0.269 OA
ATOM      5  H   UNL A   1      33.372  34.484  32.534  1.00  0.00     0.163 HD
BRANCH   3   6
ATOM      6  C   UNL A   1      36.511  34.323  33.666  1.00  0.00     0.081 A 
ATOM      7  C   UNL A   1      38.871  32.913  34.231  1.00  0.00     0.044 A 
ATOM      8  C   UNL A   1      37.859  32.995  35.188  1.00  0.00     0.027 A 
ATOM      9  C   UNL A   1      38.741  33.639  33.041  1.00  0.00     0.073 A 
ATOM     10  C   UNL A   1      36.677  33.689  34.903  1.00  0.00     0.020 A 
ATOM     11  C   UNL A   1      37.587  34.373  32.779  1.00  0.00     0.130 A 
BRANCH   7  12
ATOM     12  N   UNL A   1      40.044  32.147  34.378  1.00  0.00    -0.326 N 
ATOM     13  O   UNL A   1      39.450  30.122  33.423  1.00  0.00    -0.275 OA
ATOM     14  C   UNL A   1      40.253  30.836  34.019  1.00  0.00     0.226 C 
ATOM     15  H   UNL A   1      40.810  32.609  34.789  1.00  0.00     0.169 HD
BRANCH  14  16
ATOM     16  C   UNL A   1      41.560  30.227  34.505  1.00  0.00     0.122 C 
BRANCH  16  17
ATOM     17  C   UNL A   1      41.542  29.168  35.609  1.00  0.00     0.137 C 
BRANCH  17  18
ATOM     18  N   UNL A   1      42.577  28.114  35.640  1.00  0.00    -0.292 N 
ATOM     19  C   UNL A   1      42.193  26.848  35.194  1.00  0.00     0.266 C 
ATOM     20  C   UNL A   1      43.808  28.165  36.267  1.00  0.00     0.148 C 
ATOM     21  O   UNL A   1      41.081  26.536  34.793  1.00  0.00    -0.268 OA
ATOM     22  C   UNL A   1      43.323  25.888  35.297  1.00  0.00     0.080 C 
ATOM     23  S   UNL A   1      44.696  26.682  35.949  1.00  0.00    -0.054 SA
ATOM     24  S   UNL A   1      44.478  29.375  37.191  1.00  0.00    -0.052 S 
ATOM     25  C   UNL A   1      43.219  24.599  34.936  1.00  0.00     0.021 C 
BRANCH  25  26
ATOM     26  C   UNL A   1      44.308  23.641  34.945  1.00  0.00     0.005 C 
ATOM     27  C   UNL A   1      44.145  22.311  34.997  1.00  0.00     0.047 C 
BRANCH  27  28
ATOM     28  C   UNL A   1      45.257  21.423  34.902  1.00  0.00     0.126 A 
ATOM     29  C   UNL A   1      46.584  21.650  34.549  1.00  0.00     0.050 A 
ATOM     30  O   UNL A   1      45.131  20.073  35.155  1.00  0.00    -0.465 OA
ATOM     31  C   UNL A   1      47.259  20.407  34.542  1.00  0.00     0.042 A 
ATOM     32  C   UNL A   1      46.323  19.477  34.915  1.00  0.00     0.195 A 
ENDBRANCH  27  28
ENDBRANCH  25  26
ENDBRANCH  17  18
ENDBRANCH  16  17
ENDBRANCH  14  16
ENDBRANCH   7  12
BRANCH  11  33
ATOM     33  O   UNL A   1      37.589  35.102  31.623  1.00  0.00    -0.507 OA
ATOM     34  H   UNL A   1      36.872  35.675  31.429  1.00  0.00     0.293 HD
ENDBRANCH  11  33
ENDBRANCH   3   6
ENDBRANCH   1   2
BRANCH   1  35
ATOM     35  C   UNL A   1      35.157  32.685  30.782  1.00  0.00     0.023 C 
BRANCH  35  36
ATOM     36  C   UNL A   1      34.563  33.510  29.644  1.00  0.00     0.023 C 
BRANCH  36  37
ATOM     37  C   UNL A   1      34.803  32.988  28.234  1.00  0.00     0.116 C 
BRANCH  37  38
ATOM     38  N   UNL A   1      33.975  31.846  27.882  1.00  0.00    -0.352 N 
ATOM     39  C   UNL A   1      34.304  30.513  27.779  1.00  0.00     0.251 C 
ATOM     40  H   UNL A   1      33.034  32.057  27.688  1.00  0.00     0.163 HD
ATOM     41  O   UNL A   1      33.462  29.714  27.375  1.00  0.00    -0.269 OA
BRANCH  39  42
ATOM     42  C   UNL A   1      35.669  30.042  28.113  1.00  0.00     0.039 A 
ATOM     43  C   UNL A   1      36.668  30.130  27.139  1.00  0.00     0.014 A 
ATOM     44  C   UNL A   1      35.971  29.514  29.370  1.00  0.00     0.014 A 
ATOM     45  C   UNL A   1      37.979  29.758  27.450  1.00  0.00     0.010 A 
ATOM     46  C   UNL A   1      37.293  29.236  29.707  1.00  0.00     0.010 A 
ATOM     47  C   UNL A   1      38.312  29.341  28.749  1.00  0.00    -0.014 A 
BRANCH  47  48
ATOM     48  C   UNL A   1      39.709  28.981  29.113  1.00  0.00     0.031 A 
ATOM     49  C   UNL A   1      40.589  29.984  29.815  1.00  0.00     0.074 A 
ATOM     50  C   UNL A   1      40.207  27.776  28.769  1.00  0.00     0.049 A 
ATOM     51  N   UNL A   1      41.843  29.875  30.174  1.00  0.00    -0.248 NA
ATOM     52  C   UNL A   1      39.990  31.294  30.124  1.00  0.00     0.031 C 
ATOM     53  C   UNL A   1      39.481  26.731  28.042  1.00  0.00     0.029 A 
ATOM     54  N   UNL A   1      41.447  27.226  28.984  1.00  0.00    -0.354 N 
ATOM     55  C   UNL A   1      42.187  31.104  30.726  1.00  0.00     0.074 A 
ATOM     56  C   UNL A   1      41.029  31.961  30.602  1.00  0.00     0.031 C 
ATOM     57  C   UNL A   1      40.276  25.657  27.903  1.00  0.00     0.029 A 
ATOM     58  C   UNL A   1      41.577  25.945  28.499  1.00  0.00     0.049 A 
ATOM     59  H   UNL A   1      42.175  27.704  29.443  1.00  0.00     0.167 HD
ATOM     60  C   UNL A   1      43.350  31.481  31.310  1.00  0.00     0.031 A 
ATOM     61  C   UNL A   1      42.622  25.096  28.536  1.00  0.00     0.031 A 
ATOM     62  C   UNL A   1      44.493  30.621  31.459  1.00  0.00     0.049 A 
ATOM     63  C   UNL A   1      43.893  25.524  29.218  1.00  0.00     0.074 A 
ATOM     64  C   UNL A   1      45.700  30.890  32.082  1.00  0.00     0.029 A 
ATOM     65  N   UNL A   1      44.569  29.319  30.986  1.00  0.00    -0.354 N 
ATOM     66  N   UNL A   1      44.178  26.672  29.785  1.00  0.00    -0.248 NA
ATOM     67  C   UNL A   1      44.974  24.532  29.286  1.00  0.00     0.031 C 
ATOM     68  C   UNL A   1      46.518  29.763  31.954  1.00  0.00     0.029 A 
ATOM     69  C   UNL A   1      45.803  28.774  31.299  1.00  0.00     0.049 A 
ATOM     70  H   UNL A   1      43.852  28.852  30.500  1.00  0.00     0.167 HD
ATOM     71  C   UNL A   1      45.458  26.527  30.310  1.00  0.00     0.074 A 
ATOM     72  C   UNL A   1      45.884  25.177  30.002  1.00  0.00     0.031 C 
ATOM     73  C   UNL A   1      46.211  27.427  30.989  1.00  0.00     0.031 A 
BRANCH  60  74
ATOM     74  C   UNL A   1      43.435  32.891  31.836  1.00  0.00    -0.014 A 
ATOM     75  C   UNL A   1      43.857  33.950  31.010  1.00  0.00     0.010 A 
ATOM     76  C   UNL A   1      43.069  33.166  33.165  1.00  0.00     0.010 A 
ATOM     77  C   UNL A   1      43.961  35.247  31.519  1.00  0.00     0.020 A 
ATOM     78  C   UNL A   1      43.142  34.468  33.669  1.00  0.00     0.020 A 
ATOM     79  C   UNL A   1      43.608  35.497  32.848  1.00  0.00     0.054 A 
BRANCH  79  80
ATOM     80  S   UNL A   1      43.743  37.192  33.479  1.00  0.00     0.124 S 
ATOM     81  O   UNL A   1      43.723  37.974  32.246  1.00  0.00    -0.237 OA
ATOM     82  O   UNL A   1      42.556  37.317  34.321  1.00  0.00    -0.237 OA
ATOM     83  O   UNL A   1      45.015  37.194  34.198  1.00  0.00    -0.744 OA
ENDBRANCH  79  80
ENDBRANCH  60  74
BRANCH  61  84
ATOM     84  C   UNL A   1      42.497  23.734  27.945  1.00  0.00    -0.014 A 
ATOM     85  C   UNL A   1      43.100  23.436  26.710  1.00  0.00     0.010 A 
ATOM     86  C   UNL A   1      41.778  22.728  28.615  1.00  0.00     0.010 A 
ATOM     87  C   UNL A   1      42.967  22.164  26.144  1.00  0.00     0.020 A 
ATOM     88  C   UNL A   1      41.666  21.447  28.066  1.00  0.00     0.020 A 
ATOM     89  C   UNL A   1      42.251  21.177  26.826  1.00  0.00     0.054 A 
BRANCH  89  90
ATOM     90  S   UNL A   1      42.132  19.520  26.096  1.00  0.00     0.124 S 
ATOM     91  O   UNL A   1      40.696  19.392  25.868  1.00  0.00    -0.237 OA
ATOM     92  O   UNL A   1      42.955  19.644  24.896  1.00  0.00    -0.237 OA
ATOM     93  O   UNL A   1      42.683  18.651  27.133  1.00  0.00    -0.744 OA
ENDBRANCH  89  90
ENDBRANCH  61  84
BRANCH  73  94
ATOM     94  C   UNL A   1      47.551  26.964  31.495  1.00  0.00    -0.014 A 
ATOM     95  C   UNL A   1      47.688  26.327  32.741  1.00  0.00     0.010 A 
ATOM     96  C   UNL A   1      48.692  27.153  30.692  1.00  0.00     0.010 A 
ATOM     97  C   UNL A   1      48.949  25.934  33.197  1.00  0.00     0.020 A 
ATOM     98  C   UNL A   1      49.949  26.735  31.133  1.00  0.00     0.020 A 
ATOM     99  C   UNL A   1      50.073  26.147  32.392  1.00  0.00     0.054 A 
BRANCH  99 100
ATOM    100  S   UNL A   1      51.699  25.622  33.000  1.00  0.00     0.124 S 
ATOM    101  O   UNL A   1      52.327  25.112  31.785  1.00  0.00    -0.237 OA
ATOM    102  O   UNL A   1      52.263  26.863  33.526  1.00  0.00    -0.237 OA
ATOM    103  O   UNL A   1      51.381  24.613  34.009  1.00  0.00    -0.744 OA
ENDBRANCH  99 100
ENDBRANCH  73  94
ENDBRANCH  47  48
ENDBRANCH  39  42
ENDBRANCH  37  38
ENDBRANCH  36  37
ENDBRANCH  35  36
ENDBRANCH   1  35
TORSDOF 21
ENDMDL
MODEL 3
REMARK VINA RESULT:     -11.7      4.538     13.763
REMARK SMILES O=C(CCN1C(=O)/C(=C/C=C/c2ccco2)SC1=S)Nc1ccc(C(=O)NCCCCNC(=O)c2ccc(-c3c4nc(c(-c5ccc(S(=O)(=O)[O-])cc5)c5ccc([nH]5)c(-c5ccc(S(=O)(=O)[O-])cc5)c5nc(c(-c6ccc(S(=O)(=O)[O-])cc6)c6ccc3[nH]6)C=C5)C=C4)cc2)c(O)c1
REMARK SMILES IDX 28 1 27 2 25 3 26 4 24 6 21 7 22 8 97 9 23 10 95 11 20 12
REMARK SMILES IDX 1 13 2 14 3 16 4 17 5 18 6 19 18 20 7 21 8 22 17 23 19 24
REMARK SMILES IDX 9 25 10 26 11 27 12 28 13 29 16 30 14 31 15 32 96 33 29 35
REMARK SMILES IDX 30 36 31 37 32 38 33 39 34 41 35 42 36 43 94 44 37 45 93 46
REMARK SMILES IDX 38 47 39 48 40 49 87 50 41 51 92 52 86 53 88 54 42 55 91 56
REMARK SMILES IDX 85 57 84 58 43 60 73 61 54 62 72 63 55 64 58 65 71 66 89 67
REMARK SMILES IDX 56 68 57 69 70 71 90 72 59 73 44 74 45 75 53 76 46 77 52 78
REMARK SMILES IDX 47 79 48 80 49 81 50 82 51 83 74 84 75 85 83 86 76 87 82 88
REMARK SMILES IDX 77 89 78 90 79 91 80 92 81 93 60 94 61 95 69 96 62 97 68 98
REMARK SMILES IDX 63 99 64 100 65 101 66 102 67 103
REMARK H PARENT 27 5 20 15 96 34 32 40 88 59 58 70
REMARK Flexibility Score: inf
ROOT
ATOM      1  C   UNL A   1      34.787  32.704  32.012  1.00  0.00     0.116 C 
ENDROOT
BRANCH   1   2
ATOM      2  N   UNL A   1      34.457  34.061  32.426  1.00  0.00    -0.352 N 
ATOM      3  C   UNL A   1      35.179  34.928  33.216  1.00  0.00     0.255 C 
ATOM      4  O   UNL A   1      34.742  36.048  33.461  1.00  0.00    -0.269 OA
ATOM      5  H   UNL A   1      33.597  34.406  32.095  1.00  0.00     0.163 HD
BRANCH   3   6
ATOM      6  C   UNL A   1      36.459  34.497  33.816  1.00  0.00     0.081 A 
ATOM      7  C   UNL A   1      38.999  34.111  34.944  1.00  0.00     0.044 A 
ATOM      8  C   UNL A   1      38.875  34.417  33.589  1.00  0.00     0.027 A 
ATOM      9  C   UNL A   1      37.842  33.885  35.699  1.00  0.00     0.073 A 
ATOM     10  C   UNL A   1      37.608  34.619  33.028  1.00  0.00     0.020 A 
ATOM     11  C   UNL A   1      36.581  34.036  35.128  1.00  0.00     0.130 A 
BRANCH   7  12
ATOM     12  N   UNL A   1      40.228  34.001  35.625  1.00  0.00    -0.326 N 
ATOM     13  O   UNL A   1      40.457  36.089  36.600  1.00  0.00    -0.275 OA
ATOM     14  C   UNL A   1      40.886  34.964  36.353  1.00  0.00     0.226 C 
ATOM     15  H   UNL A   1      40.670  33.122  35.573  1.00  0.00     0.169 HD
BRANCH  14  16
ATOM     16  C   UNL A   1      42.299  34.603  36.787  1.00  0.00     0.122 C 
BRANCH  16  17
ATOM     17  C   UNL A   1      42.519  33.499  37.823  1.00  0.00     0.137 C 
BRANCH  17  18
ATOM     18  N   UNL A   1      43.037  32.182  37.401  1.00  0.00    -0.292 N 
ATOM     19  C   UNL A   1      42.093  31.249  36.967  1.00  0.00     0.266 C 
ATOM     20  C   UNL A   1      44.309  31.677  37.598  1.00  0.00     0.148 C 
ATOM     21  O   UNL A   1      40.884  31.424  36.916  1.00  0.00    -0.268 OA
ATOM     22  C   UNL A   1      42.749  29.969  36.593  1.00  0.00     0.080 C 
ATOM     23  S   UNL A   1      44.441  30.093  36.849  1.00  0.00    -0.054 SA
ATOM     24  S   UNL A   1      45.609  32.357  38.383  1.00  0.00    -0.052 S 
ATOM     25  C   UNL A   1      42.067  28.904  36.146  1.00  0.00     0.021 C 
BRANCH  25  26
ATOM     26  C   UNL A   1      42.664  27.661  35.696  1.00  0.00     0.005 C 
ATOM     27  C   UNL A   1      41.982  26.524  35.494  1.00  0.00     0.047 C 
BRANCH  27  28
ATOM     28  C   UNL A   1      42.614  25.364  34.957  1.00  0.00     0.126 A 
ATOM     29  C   UNL A   1      42.461  24.013  35.258  1.00  0.00     0.050 A 
ATOM     30  O   UNL A   1      43.581  25.452  33.978  1.00  0.00    -0.465 OA
ATOM     31  C   UNL A   1      43.387  23.279  34.481  1.00  0.00     0.042 A 
ATOM     32  C   UNL A   1      44.049  24.208  33.721  1.00  0.00     0.195 A 
ENDBRANCH  27  28
ENDBRANCH  25  26
ENDBRANCH  17  18
ENDBRANCH  16  17
ENDBRANCH  14  16
ENDBRANCH   7  12
BRANCH  11  33
ATOM     33  O   UNL A   1      35.518  33.723  35.929  1.00  0.00    -0.507 OA
ATOM     34  H   UNL A   1      35.619  33.098  36.619  1.00  0.00     0.293 HD
ENDBRANCH  11  33
ENDBRANCH   3   6
ENDBRANCH   1   2
BRANCH   1  35
ATOM     35  C   UNL A   1      35.455  32.596  30.646  1.00  0.00     0.023 C 
BRANCH  35  36
ATOM     36  C   UNL A   1      34.888  33.480  29.539  1.00  0.00     0.023 C 
BRANCH  36  37
ATOM     37  C   UNL A   1      34.993  32.937  28.120  1.00  0.00     0.116 C 
BRANCH  37  38
ATOM     38  N   UNL A   1      34.128  31.798  27.861  1.00  0.00    -0.352 N 
ATOM     39  C   UNL A   1      34.423  30.455  27.815  1.00  0.00     0.251 C 
ATOM     40  H   UNL A   1      33.184  32.022  27.693  1.00  0.00     0.163 HD
ATOM     41  O   UNL A   1      33.548  29.656  27.486  1.00  0.00    -0.269 OA
BRANCH  39  42
ATOM     42  C   UNL A   1      35.789  29.969  28.120  1.00  0.00     0.039 A 
ATOM     43  C   UNL A   1      36.781  30.090  27.141  1.00  0.00     0.014 A 
ATOM     44  C   UNL A   1      36.101  29.395  29.354  1.00  0.00     0.014 A 
ATOM     45  C   UNL A   1      38.093  29.704  27.428  1.00  0.00     0.010 A 
ATOM     46  C   UNL A   1      37.425  29.102  29.670  1.00  0.00     0.010 A 
ATOM     47  C   UNL A   1      38.436  29.239  28.707  1.00  0.00    -0.014 A 
BRANCH  47  48
ATOM     48  C   UNL A   1      39.835  28.863  29.046  1.00  0.00     0.031 A 
ATOM     49  C   UNL A   1      40.739  29.856  29.733  1.00  0.00     0.074 A 
ATOM     50  C   UNL A   1      40.314  27.654  28.692  1.00  0.00     0.049 A 
ATOM     51  N   UNL A   1      41.997  29.733  30.069  1.00  0.00    -0.248 NA
ATOM     52  C   UNL A   1      40.160  31.172  30.054  1.00  0.00     0.031 C 
ATOM     53  C   UNL A   1      39.563  26.618  27.977  1.00  0.00     0.029 A 
ATOM     54  N   UNL A   1      41.551  27.089  28.884  1.00  0.00    -0.354 N 
ATOM     55  C   UNL A   1      42.365  30.958  30.617  1.00  0.00     0.074 A 
ATOM     56  C   UNL A   1      41.215  31.827  30.514  1.00  0.00     0.031 C 
ATOM     57  C   UNL A   1      40.344  25.535  27.823  1.00  0.00     0.029 A 
ATOM     58  C   UNL A   1      41.658  25.808  28.396  1.00  0.00     0.049 A 
ATOM     59  H   UNL A   1      42.292  27.559  29.331  1.00  0.00     0.167 HD
ATOM     60  C   UNL A   1      43.542  31.321  31.180  1.00  0.00     0.031 A 
ATOM     61  C   UNL A   1      42.694  24.947  28.413  1.00  0.00     0.031 A 
ATOM     62  C   UNL A   1      44.679  30.448  31.308  1.00  0.00     0.049 A 
ATOM     63  C   UNL A   1      43.982  25.360  29.073  1.00  0.00     0.074 A 
ATOM     64  C   UNL A   1      45.899  30.703  31.909  1.00  0.00     0.029 A 
ATOM     65  N   UNL A   1      44.731  29.145  30.832  1.00  0.00    -0.354 N 
ATOM     66  N   UNL A   1      44.290  26.505  29.636  1.00  0.00    -0.248 NA
ATOM     67  C   UNL A   1      45.052  24.356  29.121  1.00  0.00     0.031 C 
ATOM     68  C   UNL A   1      46.703  29.567  31.766  1.00  0.00     0.029 A 
ATOM     69  C   UNL A   1      45.964  28.586  31.122  1.00  0.00     0.049 A 
ATOM     70  H   UNL A   1      44.001  28.687  30.359  1.00  0.00     0.167 HD
ATOM     71  C   UNL A   1      45.577  26.345  30.138  1.00  0.00     0.074 A 
ATOM     72  C   UNL A   1      45.983  24.990  29.821  1.00  0.00     0.031 C 
ATOM     73  C   UNL A   1      46.351  27.236  30.804  1.00  0.00     0.031 A 
BRANCH  60  74
ATOM     74  C   UNL A   1      43.652  32.729  31.706  1.00  0.00    -0.014 A 
ATOM     75  C   UNL A   1      43.495  33.006  33.077  1.00  0.00     0.010 A 
ATOM     76  C   UNL A   1      43.936  33.786  30.824  1.00  0.00     0.010 A 
ATOM     77  C   UNL A   1      43.567  34.320  33.546  1.00  0.00     0.020 A 
ATOM     78  C   UNL A   1      44.040  35.099  31.295  1.00  0.00     0.020 A 
ATOM     79  C   UNL A   1      43.834  35.359  32.651  1.00  0.00     0.054 A 
BRANCH  79  80
ATOM     80  S   UNL A   1      43.934  37.054  33.291  1.00  0.00     0.124 S 
ATOM     81  O   UNL A   1      42.658  37.186  33.990  1.00  0.00    -0.237 OA
ATOM     82  O   UNL A   1      45.117  37.005  34.147  1.00  0.00    -0.237 OA
ATOM     83  O   UNL A   1      44.074  37.870  32.088  1.00  0.00    -0.744 OA
ENDBRANCH  79  80
ENDBRANCH  60  74
BRANCH  61  84
ATOM     84  C   UNL A   1      42.543  23.588  27.824  1.00  0.00    -0.014 A 
ATOM     85  C   UNL A   1      42.901  23.349  26.485  1.00  0.00     0.010 A 
ATOM     86  C   UNL A   1      42.045  22.524  28.598  1.00  0.00     0.010 A 
ATOM     87  C   UNL A   1      42.741  22.078  25.923  1.00  0.00     0.020 A 
ATOM     88  C   UNL A   1      41.911  21.245  28.048  1.00  0.00     0.020 A 
ATOM     89  C   UNL A   1      42.248  21.034  26.709  1.00  0.00     0.054 A 
BRANCH  89  90
ATOM     90  S   UNL A   1      42.094  19.382  25.974  1.00  0.00     0.124 S 
ATOM     91  O   UNL A   1      42.598  18.526  27.043  1.00  0.00    -0.237 OA
ATOM     92  O   UNL A   1      40.661  19.286  25.710  1.00  0.00    -0.237 OA
ATOM     93  O   UNL A   1      42.935  19.460  24.782  1.00  0.00    -0.744 OA
ENDBRANCH  89  90
ENDBRANCH  61  84
BRANCH  73  94
ATOM     94  C   UNL A   1      47.696  26.757  31.286  1.00  0.00    -0.014 A 
ATOM     95  C   UNL A   1      48.856  26.917  30.507  1.00  0.00     0.010 A 
ATOM     96  C   UNL A   1      47.798  26.154  32.554  1.00  0.00     0.010 A 
ATOM     97  C   UNL A   1      50.085  26.436  30.967  1.00  0.00     0.020 A 
ATOM     98  C   UNL A   1      49.030  25.700  33.028  1.00  0.00     0.020 A 
ATOM     99  C   UNL A   1      50.162  25.824  32.222  1.00  0.00     0.054 A 
BRANCH  99 100
ATOM    100  S   UNL A   1      51.769  25.214  32.803  1.00  0.00     0.124 S 
ATOM    101  O   UNL A   1      51.526  23.779  32.916  1.00  0.00    -0.237 OA
ATOM    102  O   UNL A   1      52.673  25.616  31.728  1.00  0.00    -0.237 OA
ATOM    103  O   UNL A   1      51.967  25.916  34.069  1.00  0.00    -0.744 OA
ENDBRANCH  99 100
ENDBRANCH  73  94
ENDBRANCH  47  48
ENDBRANCH  39  42
ENDBRANCH  37  38
ENDBRANCH  36  37
ENDBRANCH  35  36
ENDBRANCH   1  35
TORSDOF 21
ENDMDL
