MODEL 1
REMARK VINA RESULT:     -10.5      0.000      0.000
REMARK SMILES O=C(NCCCCNC(=O)c1cccc(/C=N/NC(=S)Nc2ccccc2)c1O)c1ccc(-c2c3nc(c(-c4ccc(S(=O)(=O)[O-])cc4)c4ccc([nH]4)c(-c4ccc(S(=O)(=O)[O-])cc4)c4nc(c(-c5ccc(S(=O)(=O)[O-])cc5)c5ccc2[nH]5)C=C4)C=C3)cc1
REMARK SMILES IDX 6 1 5 2 4 3 3 4 1 5 2 6 30 8 31 9 89 10 32 11 88 12 33 13
REMARK SMILES IDX 34 14 35 15 82 16 36 17 87 18 81 19 83 20 37 21 86 22 80 23
REMARK SMILES IDX 79 24 38 26 68 27 49 28 67 29 50 30 53 31 66 32 84 33 51 34
REMARK SMILES IDX 52 35 65 37 85 38 54 39 39 40 40 41 48 42 41 43 47 44 42 45
REMARK SMILES IDX 43 46 44 47 45 48 46 49 69 50 70 51 78 52 71 53 77 54 72 55
REMARK SMILES IDX 73 56 74 57 75 58 76 59 55 60 56 61 64 62 57 63 63 64 58 65
REMARK SMILES IDX 59 66 60 67 61 68 62 69 7 70 8 71 9 72 10 74 11 75 12 76
REMARK SMILES IDX 28 77 13 78 15 79 14 80 29 81 16 83 17 84 18 85 19 87 20 88
REMARK SMILES IDX 21 89 22 91 23 92 27 93 24 94 26 95 25 96
REMARK H PARENT 3 7 83 25 53 36 8 73 29 82 18 86 21 90
REMARK Flexibility Score: inf
ROOT
ATOM      1  C   UNL A   1      33.652  28.840  24.792  1.00  0.00     0.023 C 
ENDROOT
BRANCH   1   2
ATOM      2  C   UNL A   1      33.696  27.758  25.872  1.00  0.00     0.023 C 
BRANCH   2   3
ATOM      3  C   UNL A   1      33.450  28.243  27.297  1.00  0.00     0.116 C 
BRANCH   3   4
ATOM      4  N   UNL A   1      33.308  29.690  27.387  1.00  0.00    -0.352 N 
ATOM      5  O   UNL A   1      33.842  31.794  28.004  1.00  0.00    -0.269 OA
ATOM      6  C   UNL A   1      34.203  30.629  27.841  1.00  0.00     0.251 C 
ATOM      7  H   UNL A   1      32.446  30.047  27.074  1.00  0.00     0.163 HD
BRANCH   6   8
ATOM      8  C   UNL A   1      35.590  30.230  28.153  1.00  0.00     0.039 A 
ATOM      9  C   UNL A   1      36.602  30.421  27.211  1.00  0.00     0.014 A 
ATOM     10  C   UNL A   1      35.886  29.669  29.399  1.00  0.00     0.014 A 
ATOM     11  C   UNL A   1      37.871  29.911  27.448  1.00  0.00     0.010 A 
ATOM     12  C   UNL A   1      37.191  29.248  29.675  1.00  0.00     0.010 A 
ATOM     13  C   UNL A   1      38.189  29.349  28.694  1.00  0.00    -0.014 A 
BRANCH  13  14
ATOM     14  C   UNL A   1      39.602  29.001  28.990  1.00  0.00     0.031 A 
ATOM     15  C   UNL A   1      40.190  27.676  28.591  1.00  0.00     0.074 A 
ATOM     16  C   UNL A   1      40.352  29.914  29.642  1.00  0.00     0.049 A 
ATOM     17  N   UNL A   1      41.396  27.221  28.810  1.00  0.00    -0.248 NA
ATOM     18  C   UNL A   1      39.320  26.741  27.860  1.00  0.00     0.031 C 
ATOM     19  C   UNL A   1      39.878  31.231  30.086  1.00  0.00     0.029 A 
ATOM     20  N   UNL A   1      41.661  29.885  30.046  1.00  0.00    -0.354 N 
ATOM     21  C   UNL A   1      41.426  25.938  28.275  1.00  0.00     0.074 A 
ATOM     22  C   UNL A   1      40.112  25.685  27.720  1.00  0.00     0.031 C 
ATOM     23  C   UNL A   1      40.886  31.890  30.672  1.00  0.00     0.029 A 
ATOM     24  C   UNL A   1      42.051  31.017  30.723  1.00  0.00     0.049 A 
ATOM     25  H   UNL A   1      42.264  29.128  29.869  1.00  0.00     0.167 HD
ATOM     26  C   UNL A   1      42.455  25.058  28.258  1.00  0.00     0.031 A 
ATOM     27  C   UNL A   1      43.200  31.310  31.359  1.00  0.00     0.031 A 
ATOM     28  C   UNL A   1      43.758  25.331  28.808  1.00  0.00     0.049 A 
ATOM     29  C   UNL A   1      44.301  30.291  31.363  1.00  0.00     0.074 A 
ATOM     30  C   UNL A   1      44.887  24.529  28.776  1.00  0.00     0.029 A 
ATOM     31  N   UNL A   1      44.104  26.478  29.507  1.00  0.00    -0.354 N 
ATOM     32  N   UNL A   1      44.336  29.118  30.777  1.00  0.00    -0.248 NA
ATOM     33  C   UNL A   1      45.516  30.629  32.117  1.00  0.00     0.031 C 
ATOM     34  C   UNL A   1      45.889  25.155  29.522  1.00  0.00     0.029 A 
ATOM     35  C   UNL A   1      45.410  26.379  29.958  1.00  0.00     0.049 A 
ATOM     36  H   UNL A   1      43.510  27.248  29.659  1.00  0.00     0.167 HD
ATOM     37  C   UNL A   1      45.579  28.582  31.085  1.00  0.00     0.074 A 
ATOM     38  C   UNL A   1      46.278  29.571  31.880  1.00  0.00     0.031 C 
ATOM     39  C   UNL A   1      46.090  27.373  30.750  1.00  0.00     0.031 A 
BRANCH  26  40
ATOM     40  C   UNL A   1      42.226  23.691  27.663  1.00  0.00    -0.014 A 
ATOM     41  C   UNL A   1      42.577  23.400  26.335  1.00  0.00     0.010 A 
ATOM     42  C   UNL A   1      41.765  22.650  28.493  1.00  0.00     0.010 A 
ATOM     43  C   UNL A   1      42.461  22.094  25.843  1.00  0.00     0.020 A 
ATOM     44  C   UNL A   1      41.671  21.341  28.013  1.00  0.00     0.020 A 
ATOM     45  C   UNL A   1      42.015  21.072  26.688  1.00  0.00     0.054 A 
BRANCH  45  46
ATOM     46  S   UNL A   1      41.941  19.378  26.041  1.00  0.00     0.124 S 
ATOM     47  O   UNL A   1      42.792  19.471  24.857  1.00  0.00    -0.237 OA
ATOM     48  O   UNL A   1      42.486  18.592  27.145  1.00  0.00    -0.237 OA
ATOM     49  O   UNL A   1      40.522  19.169  25.770  1.00  0.00    -0.744 OA
ENDBRANCH  45  46
ENDBRANCH  26  40
BRANCH  27  50
ATOM     50  C   UNL A   1      43.330  32.589  32.109  1.00  0.00    -0.014 A 
ATOM     51  C   UNL A   1      42.973  32.673  33.465  1.00  0.00     0.010 A 
ATOM     52  C   UNL A   1      43.810  33.741  31.455  1.00  0.00     0.010 A 
ATOM     53  C   UNL A   1      43.062  33.892  34.143  1.00  0.00     0.020 A 
ATOM     54  C   UNL A   1      43.936  34.951  32.139  1.00  0.00     0.020 A 
ATOM     55  C   UNL A   1      43.539  35.024  33.474  1.00  0.00     0.054 A 
BRANCH  55  56
ATOM     56  S   UNL A   1      43.655  36.591  34.377  1.00  0.00     0.124 S 
ATOM     57  O   UNL A   1      44.821  36.365  35.225  1.00  0.00    -0.237 OA
ATOM     58  O   UNL A   1      43.833  37.562  33.299  1.00  0.00    -0.237 OA
ATOM     59  O   UNL A   1      42.376  36.678  35.079  1.00  0.00    -0.744 OA
ENDBRANCH  55  56
ENDBRANCH  27  50
BRANCH  39  60
ATOM     60  C   UNL A   1      47.480  27.055  31.231  1.00  0.00    -0.014 A 
ATOM     61  C   UNL A   1      48.609  27.510  30.527  1.00  0.00     0.010 A 
ATOM     62  C   UNL A   1      47.658  26.353  32.437  1.00  0.00     0.010 A 
ATOM     63  C   UNL A   1      49.893  27.255  31.013  1.00  0.00     0.020 A 
ATOM     64  C   UNL A   1      48.939  26.124  32.943  1.00  0.00     0.020 A 
ATOM     65  C   UNL A   1      50.050  26.570  32.223  1.00  0.00     0.054 A 
BRANCH  65  66
ATOM     66  S   UNL A   1      51.725  26.318  32.867  1.00  0.00     0.124 S 
ATOM     67  O   UNL A   1      51.512  26.394  34.309  1.00  0.00    -0.237 OA
ATOM     68  O   UNL A   1      52.071  24.996  32.350  1.00  0.00    -0.237 OA
ATOM     69  O   UNL A   1      52.487  27.425  32.292  1.00  0.00    -0.744 OA
ENDBRANCH  65  66
ENDBRANCH  39  60
ENDBRANCH  13  14
ENDBRANCH   6   8
ENDBRANCH   3   4
ENDBRANCH   2   3
ENDBRANCH   1   2
BRANCH   1  70
ATOM     70  C   UNL A   1      33.725  28.339  23.354  1.00  0.00     0.116 C 
BRANCH  70  71
ATOM     71  N   UNL A   1      32.464  28.421  22.636  1.00  0.00    -0.352 N 
ATOM     72  C   UNL A   1      31.349  27.621  22.696  1.00  0.00     0.255 C 
ATOM     73  H   UNL A   1      32.397  29.174  22.004  1.00  0.00     0.163 HD
ATOM     74  O   UNL A   1      30.435  27.834  21.900  1.00  0.00    -0.269 OA
BRANCH  72  75
ATOM     75  C   UNL A   1      31.195  26.509  23.676  1.00  0.00     0.082 A 
ATOM     76  C   UNL A   1      30.241  26.702  24.689  1.00  0.00     0.018 A 
ATOM     77  C   UNL A   1      31.993  25.357  23.715  1.00  0.00     0.137 A 
ATOM     78  C   UNL A   1      30.071  25.756  25.704  1.00  0.00     0.002 A 
ATOM     79  C   UNL A   1      31.805  24.391  24.716  1.00  0.00     0.037 A 
ATOM     80  C   UNL A   1      30.851  24.600  25.716  1.00  0.00     0.014 A 
BRANCH  77  81
ATOM     81  O   UNL A   1      33.024  25.167  22.842  1.00  0.00    -0.506 OA
ATOM     82  H   UNL A   1      33.364  24.305  22.700  1.00  0.00     0.293 HD
ENDBRANCH  77  81
BRANCH  79  83
ATOM     83  C   UNL A   1      32.658  23.177  24.752  1.00  0.00     0.145 C 
ATOM     84  N   UNL A   1      32.886  22.494  23.673  1.00  0.00    -0.181 NA
BRANCH  84  85
ATOM     85  N   UNL A   1      33.610  21.335  23.734  1.00  0.00    -0.254 N 
ATOM     86  H   UNL A   1      34.015  21.080  22.873  1.00  0.00     0.193 HD
BRANCH  85  87
ATOM     87  C   UNL A   1      33.885  20.463  24.738  1.00  0.00     0.191 C 
ATOM     88  S   UNL A   1      32.686  19.365  25.162  1.00  0.00    -0.039 S 
BRANCH  87  89
ATOM     89  N   UNL A   1      35.064  20.391  25.397  1.00  0.00    -0.331 N 
ATOM     90  H   UNL A   1      35.266  19.506  25.779  1.00  0.00     0.169 HD
BRANCH  89  91
ATOM     91  C   UNL A   1      36.049  21.365  25.629  1.00  0.00     0.040 A 
ATOM     92  C   UNL A   1      37.381  21.009  25.390  1.00  0.00     0.026 A 
ATOM     93  C   UNL A   1      35.749  22.659  26.054  1.00  0.00     0.026 A 
ATOM     94  C   UNL A   1      38.387  21.976  25.458  1.00  0.00     0.002 A 
ATOM     95  C   UNL A   1      36.753  23.625  26.123  1.00  0.00     0.002 A 
ATOM     96  C   UNL A   1      38.067  23.290  25.799  1.00  0.00     0.000 A 
ENDBRANCH  89  91
ENDBRANCH  87  89
ENDBRANCH  85  87
ENDBRANCH  84  85
ENDBRANCH  79  83
ENDBRANCH  72  75
ENDBRANCH  70  71
ENDBRANCH   1  70
TORSDOF 20
ENDMDL
MODEL 2
REMARK VINA RESULT:     -10.0      3.794      7.214
REMARK SMILES O=C(NCCCCNC(=O)c1cccc(/C=N/NC(=S)Nc2ccccc2)c1O)c1ccc(-c2c3nc(c(-c4ccc(S(=O)(=O)[O-])cc4)c4ccc([nH]4)c(-c4ccc(S(=O)(=O)[O-])cc4)c4nc(c(-c5ccc(S(=O)(=O)[O-])cc5)c5ccc2[nH]5)C=C4)C=C3)cc1
REMARK SMILES IDX 6 1 5 2 4 3 3 4 1 5 2 6 30 8 31 9 89 10 32 11 88 12 33 13
REMARK SMILES IDX 34 14 35 15 82 16 36 17 87 18 81 19 83 20 37 21 86 22 80 23
REMARK SMILES IDX 79 24 38 26 68 27 49 28 67 29 50 30 53 31 66 32 84 33 51 34
REMARK SMILES IDX 52 35 65 37 85 38 54 39 39 40 40 41 48 42 41 43 47 44 42 45
REMARK SMILES IDX 43 46 44 47 45 48 46 49 69 50 70 51 78 52 71 53 77 54 72 55
REMARK SMILES IDX 73 56 74 57 75 58 76 59 55 60 56 61 64 62 57 63 63 64 58 65
REMARK SMILES IDX 59 66 60 67 61 68 62 69 7 70 8 71 9 72 10 74 11 75 12 76
REMARK SMILES IDX 28 77 13 78 15 79 14 80 29 81 16 83 17 84 18 85 19 87 20 88
REMARK SMILES IDX 21 89 22 91 23 92 27 93 24 94 26 95 25 96
REMARK H PARENT 3 7 83 25 53 36 8 73 29 82 18 86 21 90
REMARK Flexibility Score: inf
ROOT
ATOM      1  C   UNL A   1      34.744  32.667  30.680  1.00  0.00     0.023 C 
ENDROOT
BRANCH   1   2
ATOM      2  C   UNL A   1      35.707  32.952  29.527  1.00  0.00     0.023 C 
BRANCH   2   3
ATOM      3  C   UNL A   1      35.110  32.836  28.129  1.00  0.00     0.116 C 
BRANCH   3   4
ATOM      4  N   UNL A   1      34.293  31.642  27.959  1.00  0.00    -0.352 N 
ATOM      5  O   UNL A   1      33.861  29.459  27.584  1.00  0.00    -0.269 OA
ATOM      6  C   UNL A   1      34.675  30.322  27.906  1.00  0.00     0.251 C 
ATOM      7  H   UNL A   1      33.327  31.804  27.871  1.00  0.00     0.163 HD
BRANCH   6   8
ATOM      8  C   UNL A   1      36.070  29.949  28.218  1.00  0.00     0.039 A 
ATOM      9  C   UNL A   1      36.393  29.434  29.474  1.00  0.00     0.014 A 
ATOM     10  C   UNL A   1      37.063  30.107  27.246  1.00  0.00     0.014 A 
ATOM     11  C   UNL A   1      37.723  29.225  29.814  1.00  0.00     0.010 A 
ATOM     12  C   UNL A   1      38.391  29.797  27.558  1.00  0.00     0.010 A 
ATOM     13  C   UNL A   1      38.733  29.372  28.850  1.00  0.00    -0.014 A 
BRANCH  13  14
ATOM     14  C   UNL A   1      40.116  28.945  29.183  1.00  0.00     0.031 A 
ATOM     15  C   UNL A   1      40.654  27.608  28.756  1.00  0.00     0.074 A 
ATOM     16  C   UNL A   1      40.884  29.796  29.894  1.00  0.00     0.049 A 
ATOM     17  N   UNL A   1      41.828  27.086  29.000  1.00  0.00    -0.248 NA
ATOM     18  C   UNL A   1      39.768  26.742  27.960  1.00  0.00     0.031 C 
ATOM     19  C   UNL A   1      40.458  31.119  30.369  1.00  0.00     0.029 A 
ATOM     20  N   UNL A   1      42.175  29.689  30.341  1.00  0.00    -0.354 N 
ATOM     21  C   UNL A   1      41.816  25.823  28.419  1.00  0.00     0.074 A 
ATOM     22  C   UNL A   1      40.513  25.654  27.809  1.00  0.00     0.031 C 
ATOM     23  C   UNL A   1      41.474  31.706  31.014  1.00  0.00     0.029 A 
ATOM     24  C   UNL A   1      42.593  30.776  31.073  1.00  0.00     0.049 A 
ATOM     25  H   UNL A   1      42.747  28.909  30.158  1.00  0.00     0.167 HD
ATOM     26  C   UNL A   1      42.801  24.894  28.406  1.00  0.00     0.031 A 
ATOM     27  C   UNL A   1      43.730  30.989  31.760  1.00  0.00     0.031 A 
ATOM     28  C   UNL A   1      44.095  25.083  29.011  1.00  0.00     0.049 A 
ATOM     29  C   UNL A   1      44.781  29.917  31.764  1.00  0.00     0.074 A 
ATOM     30  C   UNL A   1      45.184  24.228  28.989  1.00  0.00     0.029 A 
ATOM     31  N   UNL A   1      44.470  26.187  29.763  1.00  0.00    -0.354 N 
ATOM     32  N   UNL A   1      44.780  28.766  31.137  1.00  0.00    -0.248 NA
ATOM     33  C   UNL A   1      45.982  30.169  32.572  1.00  0.00     0.031 C 
ATOM     34  C   UNL A   1      46.188  24.778  29.792  1.00  0.00     0.029 A 
ATOM     35  C   UNL A   1      45.752  26.008  30.256  1.00  0.00     0.049 A 
ATOM     36  H   UNL A   1      43.908  26.979  29.922  1.00  0.00     0.167 HD
ATOM     37  C   UNL A   1      45.985  28.158  31.469  1.00  0.00     0.074 A 
ATOM     38  C   UNL A   1      46.700  29.083  32.323  1.00  0.00     0.031 C 
ATOM     39  C   UNL A   1      46.449  26.938  31.107  1.00  0.00     0.031 A 
BRANCH  26  40
ATOM     40  C   UNL A   1      42.530  23.562  27.753  1.00  0.00    -0.014 A 
ATOM     41  C   UNL A   1      42.914  23.301  26.428  1.00  0.00     0.010 A 
ATOM     42  C   UNL A   1      41.990  22.516  28.528  1.00  0.00     0.010 A 
ATOM     43  C   UNL A   1      42.754  22.021  25.884  1.00  0.00     0.020 A 
ATOM     44  C   UNL A   1      41.850  21.230  27.997  1.00  0.00     0.020 A 
ATOM     45  C   UNL A   1      42.229  20.992  26.675  1.00  0.00     0.054 A 
BRANCH  45  46
ATOM     46  S   UNL A   1      42.098  19.328  25.964  1.00  0.00     0.124 S 
ATOM     47  O   UNL A   1      42.598  18.494  27.055  1.00  0.00    -0.237 OA
ATOM     48  O   UNL A   1      40.669  19.211  25.689  1.00  0.00    -0.237 OA
ATOM     49  O   UNL A   1      42.956  19.383  24.783  1.00  0.00    -0.744 OA
ENDBRANCH  45  46
ENDBRANCH  26  40
BRANCH  27  50
ATOM     50  C   UNL A   1      43.894  32.233  32.560  1.00  0.00    -0.014 A 
ATOM     51  C   UNL A   1      44.382  33.412  31.973  1.00  0.00     0.010 A 
ATOM     52  C   UNL A   1      43.564  32.236  33.929  1.00  0.00     0.010 A 
ATOM     53  C   UNL A   1      44.569  34.560  32.748  1.00  0.00     0.020 A 
ATOM     54  C   UNL A   1      43.714  33.392  34.698  1.00  0.00     0.020 A 
ATOM     55  C   UNL A   1      44.237  34.541  34.106  1.00  0.00     0.054 A 
BRANCH  55  56
ATOM     56  S   UNL A   1      44.478  36.045  35.089  1.00  0.00     0.124 S 
ATOM     57  O   UNL A   1      45.898  35.964  35.419  1.00  0.00    -0.237 OA
ATOM     58  O   UNL A   1      44.105  37.099  34.149  1.00  0.00    -0.237 OA
ATOM     59  O   UNL A   1      43.562  35.870  36.213  1.00  0.00    -0.744 OA
ENDBRANCH  55  56
ENDBRANCH  27  50
BRANCH  39  60
ATOM     60  C   UNL A   1      47.803  26.536  31.625  1.00  0.00    -0.014 A 
ATOM     61  C   UNL A   1      47.932  25.810  32.823  1.00  0.00     0.010 A 
ATOM     62  C   UNL A   1      48.954  26.826  30.869  1.00  0.00     0.010 A 
ATOM     63  C   UNL A   1      49.190  25.395  33.264  1.00  0.00     0.020 A 
ATOM     64  C   UNL A   1      50.210  26.385  31.291  1.00  0.00     0.020 A 
ATOM     65  C   UNL A   1      50.321  25.679  32.491  1.00  0.00     0.054 A 
BRANCH  65  66
ATOM     66  S   UNL A   1      51.932  25.063  33.051  1.00  0.00     0.124 S 
ATOM     67  O   UNL A   1      52.847  26.054  32.494  1.00  0.00    -0.237 OA
ATOM     68  O   UNL A   1      51.792  25.082  34.505  1.00  0.00    -0.237 OA
ATOM     69  O   UNL A   1      52.019  23.731  32.456  1.00  0.00    -0.744 OA
ENDBRANCH  65  66
ENDBRANCH  39  60
ENDBRANCH  13  14
ENDBRANCH   6   8
ENDBRANCH   3   4
ENDBRANCH   2   3
ENDBRANCH   1   2
BRANCH   1  70
ATOM     70  C   UNL A   1      35.380  32.106  31.947  1.00  0.00     0.116 C 
BRANCH  70  71
ATOM     71  N   UNL A   1      35.035  32.838  33.154  1.00  0.00    -0.352 N 
ATOM     72  C   UNL A   1      35.834  33.341  34.153  1.00  0.00     0.255 C 
ATOM     73  H   UNL A   1      34.071  33.000  33.276  1.00  0.00     0.163 HD
ATOM     74  O   UNL A   1      35.291  33.835  35.140  1.00  0.00    -0.269 OA
BRANCH  72  75
ATOM     75  C   UNL A   1      37.322  33.316  34.095  1.00  0.00     0.082 A 
ATOM     76  C   UNL A   1      37.931  34.314  33.317  1.00  0.00     0.018 A 
ATOM     77  C   UNL A   1      38.131  32.324  34.668  1.00  0.00     0.137 A 
ATOM     78  C   UNL A   1      39.317  34.336  33.134  1.00  0.00     0.002 A 
ATOM     79  C   UNL A   1      39.525  32.360  34.510  1.00  0.00     0.037 A 
ATOM     80  C   UNL A   1      40.113  33.360  33.731  1.00  0.00     0.014 A 
BRANCH  77  81
ATOM     81  O   UNL A   1      37.599  31.253  35.326  1.00  0.00    -0.506 OA
ATOM     82  H   UNL A   1      38.080  30.451  35.382  1.00  0.00     0.293 HD
ENDBRANCH  77  81
BRANCH  79  83
ATOM     83  C   UNL A   1      40.373  31.302  35.116  1.00  0.00     0.145 C 
ATOM     84  N   UNL A   1      39.908  30.107  35.306  1.00  0.00    -0.181 NA
BRANCH  84  85
ATOM     85  N   UNL A   1      40.673  29.163  35.934  1.00  0.00    -0.254 N 
ATOM     86  H   UNL A   1      40.318  28.890  36.811  1.00  0.00     0.193 HD
BRANCH  85  87
ATOM     87  C   UNL A   1      41.825  28.526  35.596  1.00  0.00     0.191 C 
ATOM     88  S   UNL A   1      43.171  28.789  36.568  1.00  0.00    -0.039 S 
BRANCH  87  89
ATOM     89  N   UNL A   1      41.957  27.670  34.558  1.00  0.00    -0.331 N 
ATOM     90  H   UNL A   1      41.577  27.993  33.710  1.00  0.00     0.169 HD
BRANCH  89  91
ATOM     91  C   UNL A   1      42.546  26.396  34.485  1.00  0.00     0.040 A 
ATOM     92  C   UNL A   1      43.578  26.212  33.559  1.00  0.00     0.026 A 
ATOM     93  C   UNL A   1      42.164  25.336  35.307  1.00  0.00     0.026 A 
ATOM     94  C   UNL A   1      44.301  25.016  33.544  1.00  0.00     0.002 A 
ATOM     95  C   UNL A   1      42.884  24.143  35.293  1.00  0.00     0.002 A 
ATOM     96  C   UNL A   1      43.969  23.992  34.431  1.00  0.00     0.000 A 
ENDBRANCH  89  91
ENDBRANCH  87  89
ENDBRANCH  85  87
ENDBRANCH  84  85
ENDBRANCH  79  83
ENDBRANCH  72  75
ENDBRANCH  70  71
ENDBRANCH   1  70
TORSDOF 20
ENDMDL
MODEL 3
REMARK VINA RESULT:      -9.9      1.463      8.196
REMARK SMILES O=C(NCCCCNC(=O)c1cccc(/C=N/NC(=S)Nc2ccccc2)c1O)c1ccc(-c2c3nc(c(-c4ccc(S(=O)(=O)[O-])cc4)c4ccc([nH]4)c(-c4ccc(S(=O)(=O)[O-])cc4)c4nc(c(-c5ccc(S(=O)(=O)[O-])cc5)c5ccc2[nH]5)C=C4)C=C3)cc1
REMARK SMILES IDX 6 1 5 2 4 3 3 4 1 5 2 6 30 8 31 9 89 10 32 11 88 12 33 13
REMARK SMILES IDX 34 14 35 15 82 16 36 17 87 18 81 19 83 20 37 21 86 22 80 23
REMARK SMILES IDX 79 24 38 26 68 27 49 28 67 29 50 30 53 31 66 32 84 33 51 34
REMARK SMILES IDX 52 35 65 37 85 38 54 39 39 40 40 41 48 42 41 43 47 44 42 45
REMARK SMILES IDX 43 46 44 47 45 48 46 49 69 50 70 51 78 52 71 53 77 54 72 55
REMARK SMILES IDX 73 56 74 57 75 58 76 59 55 60 56 61 64 62 57 63 63 64 58 65
REMARK SMILES IDX 59 66 60 67 61 68 62 69 7 70 8 71 9 72 10 74 11 75 12 76
REMARK SMILES IDX 28 77 13 78 15 79 14 80 29 81 16 83 17 84 18 85 19 87 20 88
REMARK SMILES IDX 21 89 22 91 23 92 27 93 24 94 26 95 25 96
REMARK H PARENT 3 7 83 25 53 36 8 73 29 82 18 86 21 90
REMARK Flexibility Score: inf
ROOT
ATOM      1  C   UNL A   1      31.913  29.148  25.677  1.00  0.00     0.023 C 
ENDROOT
BRANCH   1   2
ATOM      2  C   UNL A   1      33.102  28.203  25.853  1.00  0.00     0.023 C 
BRANCH   2   3
ATOM      3  C   UNL A   1      34.064  28.562  26.980  1.00  0.00     0.116 C 
BRANCH   3   4
ATOM      4  N   UNL A   1      33.767  29.851  27.591  1.00  0.00    -0.352 N 
ATOM      5  O   UNL A   1      34.070  31.619  28.960  1.00  0.00    -0.269 OA
ATOM      6  C   UNL A   1      34.555  30.640  28.395  1.00  0.00     0.251 C 
ATOM      7  H   UNL A   1      32.871  30.210  27.397  1.00  0.00     0.163 HD
BRANCH   6   8
ATOM      8  C   UNL A   1      35.977  30.294  28.594  1.00  0.00     0.039 A 
ATOM      9  C   UNL A   1      36.876  30.392  27.531  1.00  0.00     0.014 A 
ATOM     10  C   UNL A   1      36.419  29.877  29.853  1.00  0.00     0.014 A 
ATOM     11  C   UNL A   1      38.176  29.927  27.681  1.00  0.00     0.010 A 
ATOM     12  C   UNL A   1      37.756  29.505  30.027  1.00  0.00     0.010 A 
ATOM     13  C   UNL A   1      38.640  29.510  28.938  1.00  0.00    -0.014 A 
BRANCH  13  14
ATOM     14  C   UNL A   1      40.085  29.214  29.113  1.00  0.00     0.031 A 
ATOM     15  C   UNL A   1      41.057  30.267  29.565  1.00  0.00     0.074 A 
ATOM     16  C   UNL A   1      40.508  27.961  28.844  1.00  0.00     0.049 A 
ATOM     17  N   UNL A   1      42.350  30.164  29.731  1.00  0.00    -0.248 NA
ATOM     18  C   UNL A   1      40.520  31.604  29.865  1.00  0.00     0.031 C 
ATOM     19  C   UNL A   1      39.648  26.862  28.388  1.00  0.00     0.029 A 
ATOM     20  N   UNL A   1      41.754  27.395  28.912  1.00  0.00    -0.354 N 
ATOM     21  C   UNL A   1      42.789  31.424  30.124  1.00  0.00     0.074 A 
ATOM     22  C   UNL A   1      41.621  32.279  30.169  1.00  0.00     0.031 C 
ATOM     23  C   UNL A   1      40.385  25.753  28.246  1.00  0.00     0.029 A 
ATOM     24  C   UNL A   1      41.779  26.078  28.517  1.00  0.00     0.049 A 
ATOM     25  H   UNL A   1      42.553  27.883  29.214  1.00  0.00     0.167 HD
ATOM     26  C   UNL A   1      44.051  31.822  30.410  1.00  0.00     0.031 A 
ATOM     27  C   UNL A   1      42.810  25.232  28.342  1.00  0.00     0.031 A 
ATOM     28  C   UNL A   1      45.200  30.954  30.367  1.00  0.00     0.049 A 
ATOM     29  C   UNL A   1      44.200  25.722  28.622  1.00  0.00     0.074 A 
ATOM     30  C   UNL A   1      46.510  31.250  30.710  1.00  0.00     0.029 A 
ATOM     31  N   UNL A   1      45.188  29.636  29.938  1.00  0.00    -0.354 N 
ATOM     32  N   UNL A   1      44.581  26.893  29.073  1.00  0.00    -0.248 NA
ATOM     33  C   UNL A   1      45.300  24.784  28.364  1.00  0.00     0.031 C 
ATOM     34  C   UNL A   1      47.300  30.135  30.413  1.00  0.00     0.029 A 
ATOM     35  C   UNL A   1      46.474  29.122  29.954  1.00  0.00     0.049 A 
ATOM     36  H   UNL A   1      44.384  29.138  29.664  1.00  0.00     0.167 HD
ATOM     37  C   UNL A   1      45.966  26.828  29.161  1.00  0.00     0.074 A 
ATOM     38  C   UNL A   1      46.351  25.494  28.749  1.00  0.00     0.031 C 
ATOM     39  C   UNL A   1      46.840  27.792  29.538  1.00  0.00     0.031 A 
BRANCH  26  40
ATOM     40  C   UNL A   1      44.289  33.269  30.762  1.00  0.00    -0.014 A 
ATOM     41  C   UNL A   1      44.621  34.219  29.782  1.00  0.00     0.010 A 
ATOM     42  C   UNL A   1      44.052  33.703  32.081  1.00  0.00     0.010 A 
ATOM     43  C   UNL A   1      44.723  35.575  30.116  1.00  0.00     0.020 A 
ATOM     44  C   UNL A   1      44.129  35.058  32.415  1.00  0.00     0.020 A 
ATOM     45  C   UNL A   1      44.470  35.986  31.429  1.00  0.00     0.054 A 
BRANCH  45  46
ATOM     46  S   UNL A   1      44.543  37.757  31.817  1.00  0.00     0.124 S 
ATOM     47  O   UNL A   1      43.886  37.807  33.121  1.00  0.00    -0.237 OA
ATOM     48  O   UNL A   1      45.979  38.022  31.827  1.00  0.00    -0.237 OA
ATOM     49  O   UNL A   1      43.802  38.385  30.725  1.00  0.00    -0.744 OA
ENDBRANCH  45  46
ENDBRANCH  26  40
BRANCH  27  50
ATOM     50  C   UNL A   1      42.569  23.865  27.804  1.00  0.00    -0.014 A 
ATOM     51  C   UNL A   1      42.418  22.765  28.664  1.00  0.00     0.010 A 
ATOM     52  C   UNL A   1      42.494  23.661  26.412  1.00  0.00     0.010 A 
ATOM     53  C   UNL A   1      42.233  21.482  28.141  1.00  0.00     0.020 A 
ATOM     54  C   UNL A   1      42.272  22.387  25.887  1.00  0.00     0.020 A 
ATOM     55  C   UNL A   1      42.165  21.301  26.756  1.00  0.00     0.054 A 
BRANCH  55  56
ATOM     56  S   UNL A   1      41.915  19.630  26.101  1.00  0.00     0.124 S 
ATOM     57  O   UNL A   1      42.316  18.800  27.232  1.00  0.00    -0.237 OA
ATOM     58  O   UNL A   1      40.488  19.625  25.785  1.00  0.00    -0.237 OA
ATOM     59  O   UNL A   1      42.802  19.580  24.941  1.00  0.00    -0.744 OA
ENDBRANCH  55  56
ENDBRANCH  27  50
BRANCH  39  60
ATOM     60  C   UNL A   1      48.302  27.436  29.535  1.00  0.00    -0.014 A 
ATOM     61  C   UNL A   1      49.146  27.860  28.493  1.00  0.00     0.010 A 
ATOM     62  C   UNL A   1      48.851  26.729  30.620  1.00  0.00     0.010 A 
ATOM     63  C   UNL A   1      50.511  27.570  28.529  1.00  0.00     0.020 A 
ATOM     64  C   UNL A   1      50.221  26.465  30.675  1.00  0.00     0.020 A 
ATOM     65  C   UNL A   1      51.042  26.880  29.624  1.00  0.00     0.054 A 
BRANCH  65  66
ATOM     66  S   UNL A   1      52.829  26.583  29.679  1.00  0.00     0.124 S 
ATOM     67  O   UNL A   1      53.048  25.812  28.459  1.00  0.00    -0.237 OA
ATOM     68  O   UNL A   1      53.378  27.936  29.676  1.00  0.00    -0.237 OA
ATOM     69  O   UNL A   1      53.019  25.842  30.925  1.00  0.00    -0.744 OA
ENDBRANCH  65  66
ENDBRANCH  39  60
ENDBRANCH  13  14
ENDBRANCH   6   8
ENDBRANCH   3   4
ENDBRANCH   2   3
ENDBRANCH   1   2
BRANCH   1  70
ATOM     70  C   UNL A   1      31.341  29.232  24.266  1.00  0.00     0.116 C 
BRANCH  70  71
ATOM     71  N   UNL A   1      30.071  28.545  24.102  1.00  0.00    -0.352 N 
ATOM     72  C   UNL A   1      29.790  27.289  23.622  1.00  0.00     0.255 C 
ATOM     73  H   UNL A   1      29.282  29.065  24.382  1.00  0.00     0.163 HD
ATOM     74  O   UNL A   1      28.610  26.970  23.478  1.00  0.00    -0.269 OA
BRANCH  72  75
ATOM     75  C   UNL A   1      30.845  26.297  23.270  1.00  0.00     0.082 A 
ATOM     76  C   UNL A   1      31.452  26.455  22.013  1.00  0.00     0.018 A 
ATOM     77  C   UNL A   1      31.191  25.182  24.048  1.00  0.00     0.137 A 
ATOM     78  C   UNL A   1      32.398  25.535  21.552  1.00  0.00     0.002 A 
ATOM     79  C   UNL A   1      32.162  24.273  23.601  1.00  0.00     0.037 A 
ATOM     80  C   UNL A   1      32.754  24.445  22.346  1.00  0.00     0.014 A 
BRANCH  77  81
ATOM     81  O   UNL A   1      30.550  24.895  25.218  1.00  0.00    -0.506 OA
ATOM     82  H   UNL A   1      30.927  24.286  25.821  1.00  0.00     0.293 HD
ENDBRANCH  77  81
BRANCH  79  83
ATOM     83  C   UNL A   1      32.517  23.093  24.429  1.00  0.00     0.145 C 
ATOM     84  N   UNL A   1      31.608  22.249  24.806  1.00  0.00    -0.181 NA
BRANCH  84  85
ATOM     85  N   UNL A   1      31.935  21.208  25.631  1.00  0.00    -0.254 N 
ATOM     86  H   UNL A   1      31.258  21.029  26.323  1.00  0.00     0.193 HD
BRANCH  85  87
ATOM     87  C   UNL A   1      33.005  20.373  25.693  1.00  0.00     0.191 C 
ATOM     88  S   UNL A   1      32.880  18.894  24.906  1.00  0.00    -0.039 S 
BRANCH  87  89
ATOM     89  N   UNL A   1      34.173  20.659  26.310  1.00  0.00    -0.331 N 
ATOM     90  H   UNL A   1      34.236  20.336  27.238  1.00  0.00     0.169 HD
BRANCH  89  91
ATOM     91  C   UNL A   1      35.314  21.339  25.852  1.00  0.00     0.040 A 
ATOM     92  C   UNL A   1      35.464  22.679  26.225  1.00  0.00     0.026 A 
ATOM     93  C   UNL A   1      36.298  20.729  25.074  1.00  0.00     0.026 A 
ATOM     94  C   UNL A   1      36.645  23.361  25.926  1.00  0.00     0.002 A 
ATOM     95  C   UNL A   1      37.478  21.409  24.774  1.00  0.00     0.002 A 
ATOM     96  C   UNL A   1      37.663  22.716  25.223  1.00  0.00     0.000 A 
ENDBRANCH  89  91
ENDBRANCH  87  89
ENDBRANCH  85  87
ENDBRANCH  84  85
ENDBRANCH  79  83
ENDBRANCH  72  75
ENDBRANCH  70  71
ENDBRANCH   1  70
TORSDOF 20
ENDMDL
