MODEL 1
REMARK VINA RESULT:     -10.6      0.000      0.000
REMARK SMILES O=C(NCCCCNC(=O)[C@H](Cc1ccccn1)[C@H]1CCS(=O)(=O)C1)c1ccc(-c2c3nc(c(-c4ccc(S(=O)(=O)[O-])cc4)c4ccc([nH]4)c(-c4ccc(S(=O)(=O)[O-])cc4)c4nc(c(-c5ccc(S(=O)(=O)[O-])cc5)c5ccc2[nH]5)C=C4)C=C3)cc1
REMARK SMILES IDX 5 1 4 2 3 3 1 4 2 5 26 7 27 8 85 9 28 10 84 11 29 12 30 13
REMARK SMILES IDX 31 14 78 15 32 16 83 17 77 18 79 19 33 20 82 21 76 22 75 23
REMARK SMILES IDX 34 25 64 26 45 27 63 28 46 29 49 30 62 31 80 32 47 33 48 34
REMARK SMILES IDX 61 36 81 37 50 38 35 39 36 40 44 41 37 42 43 43 38 44 39 45
REMARK SMILES IDX 40 46 41 47 42 48 65 49 66 50 74 51 67 52 73 53 68 54 69 55
REMARK SMILES IDX 70 56 71 57 72 58 51 59 52 60 60 61 53 62 59 63 54 64 55 65
REMARK SMILES IDX 56 66 57 67 58 68 6 69 7 70 8 71 9 72 10 74 11 75 12 76
REMARK SMILES IDX 13 77 14 78 18 79 15 80 17 81 16 82 19 83 20 84 25 85 21 86
REMARK SMILES IDX 22 87 23 88 24 89
REMARK H PARENT 3 6 79 24 49 35 8 73
REMARK Flexibility Score: inf
ROOT
ATOM      1  C   UNL A   1      34.192  28.141  25.936  1.00  0.00     0.023 C 
ENDROOT
BRANCH   1   2
ATOM      2  C   UNL A   1      33.455  28.488  27.215  1.00  0.00     0.116 C 
BRANCH   2   3
ATOM      3  N   UNL A   1      33.464  29.909  27.549  1.00  0.00    -0.352 N 
ATOM      4  O   UNL A   1      34.315  31.851  28.344  1.00  0.00    -0.269 OA
ATOM      5  C   UNL A   1      34.496  30.674  28.051  1.00  0.00     0.251 C 
ATOM      6  H   UNL A   1      32.616  30.386  27.396  1.00  0.00     0.163 HD
BRANCH   5   7
ATOM      7  C   UNL A   1      35.804  30.029  28.275  1.00  0.00     0.039 A 
ATOM      8  C   UNL A   1      36.092  29.486  29.526  1.00  0.00     0.014 A 
ATOM      9  C   UNL A   1      36.784  30.094  27.285  1.00  0.00     0.014 A 
ATOM     10  C   UNL A   1      37.412  29.241  29.865  1.00  0.00     0.010 A 
ATOM     11  C   UNL A   1      38.090  29.703  27.588  1.00  0.00     0.010 A 
ATOM     12  C   UNL A   1      38.427  29.324  28.897  1.00  0.00    -0.014 A 
BRANCH  12  13
ATOM     13  C   UNL A   1      39.812  28.948  29.275  1.00  0.00     0.031 A 
ATOM     14  C   UNL A   1      40.692  29.865  30.083  1.00  0.00     0.074 A 
ATOM     15  C   UNL A   1      40.261  27.732  28.904  1.00  0.00     0.049 A 
ATOM     16  N   UNL A   1      41.919  29.669  30.496  1.00  0.00    -0.248 NA
ATOM     17  C   UNL A   1      40.133  31.169  30.471  1.00  0.00     0.031 C 
ATOM     18  C   UNL A   1      39.492  26.753  28.126  1.00  0.00     0.029 A 
ATOM     19  N   UNL A   1      41.449  27.097  29.147  1.00  0.00    -0.354 N 
ATOM     20  C   UNL A   1      42.292  30.832  31.161  1.00  0.00     0.074 A 
ATOM     21  C   UNL A   1      41.166  31.738  31.078  1.00  0.00     0.031 C 
ATOM     22  C   UNL A   1      40.197  25.621  28.021  1.00  0.00     0.029 A 
ATOM     23  C   UNL A   1      41.504  25.824  28.630  1.00  0.00     0.049 A 
ATOM     24  H   UNL A   1      42.192  27.511  29.644  1.00  0.00     0.167 HD
ATOM     25  C   UNL A   1      43.465  31.116  31.780  1.00  0.00     0.031 A 
ATOM     26  C   UNL A   1      42.501  24.923  28.617  1.00  0.00     0.031 A 
ATOM     27  C   UNL A   1      44.581  30.206  31.846  1.00  0.00     0.049 A 
ATOM     28  C   UNL A   1      43.804  25.283  29.262  1.00  0.00     0.074 A 
ATOM     29  C   UNL A   1      45.804  30.385  32.471  1.00  0.00     0.029 A 
ATOM     30  N   UNL A   1      44.617  28.948  31.258  1.00  0.00    -0.354 N 
ATOM     31  N   UNL A   1      44.129  26.380  29.900  1.00  0.00    -0.248 NA
ATOM     32  C   UNL A   1      44.874  24.282  29.183  1.00  0.00     0.031 C 
ATOM     33  C   UNL A   1      46.601  29.268  32.201  1.00  0.00     0.029 A 
ATOM     34  C   UNL A   1      45.851  28.355  31.476  1.00  0.00     0.049 A 
ATOM     35  H   UNL A   1      43.874  28.537  30.759  1.00  0.00     0.167 HD
ATOM     36  C   UNL A   1      45.440  26.196  30.322  1.00  0.00     0.074 A 
ATOM     37  C   UNL A   1      45.836  24.873  29.879  1.00  0.00     0.031 C 
ATOM     38  C   UNL A   1      46.238  27.042  31.018  1.00  0.00     0.031 A 
BRANCH  25  39
ATOM     39  C   UNL A   1      43.621  32.490  32.390  1.00  0.00    -0.014 A 
ATOM     40  C   UNL A   1      43.283  32.747  33.731  1.00  0.00     0.010 A 
ATOM     41  C   UNL A   1      44.137  33.540  31.608  1.00  0.00     0.010 A 
ATOM     42  C   UNL A   1      43.401  34.038  34.258  1.00  0.00     0.020 A 
ATOM     43  C   UNL A   1      44.287  34.825  32.140  1.00  0.00     0.020 A 
ATOM     44  C   UNL A   1      43.895  35.071  33.457  1.00  0.00     0.054 A 
BRANCH  44  45
ATOM     45  S   UNL A   1      44.020  36.738  34.160  1.00  0.00     0.124 S 
ATOM     46  O   UNL A   1      43.115  37.495  33.297  1.00  0.00    -0.237 OA
ATOM     47  O   UNL A   1      43.560  36.543  35.532  1.00  0.00    -0.237 OA
ATOM     48  O   UNL A   1      45.435  37.071  34.020  1.00  0.00    -0.744 OA
ENDBRANCH  44  45
ENDBRANCH  25  39
BRANCH  26  49
ATOM     49  C   UNL A   1      42.287  23.609  27.956  1.00  0.00    -0.014 A 
ATOM     50  C   UNL A   1      42.898  23.324  26.723  1.00  0.00     0.010 A 
ATOM     51  C   UNL A   1      41.522  22.612  28.590  1.00  0.00     0.010 A 
ATOM     52  C   UNL A   1      42.747  22.064  26.137  1.00  0.00     0.020 A 
ATOM     53  C   UNL A   1      41.397  21.342  28.024  1.00  0.00     0.020 A 
ATOM     54  C   UNL A   1      42.006  21.079  26.796  1.00  0.00     0.054 A 
BRANCH  54  55
ATOM     55  S   UNL A   1      41.889  19.430  26.050  1.00  0.00     0.124 S 
ATOM     56  O   UNL A   1      42.362  18.573  27.131  1.00  0.00    -0.237 OA
ATOM     57  O   UNL A   1      40.465  19.329  25.738  1.00  0.00    -0.237 OA
ATOM     58  O   UNL A   1      42.768  19.517  24.886  1.00  0.00    -0.744 OA
ENDBRANCH  54  55
ENDBRANCH  26  49
BRANCH  38  59
ATOM     59  C   UNL A   1      47.614  26.548  31.375  1.00  0.00    -0.014 A 
ATOM     60  C   UNL A   1      47.854  25.836  32.565  1.00  0.00     0.010 A 
ATOM     61  C   UNL A   1      48.680  26.771  30.483  1.00  0.00     0.010 A 
ATOM     62  C   UNL A   1      49.141  25.390  32.872  1.00  0.00     0.020 A 
ATOM     63  C   UNL A   1      49.961  26.296  30.771  1.00  0.00     0.020 A 
ATOM     64  C   UNL A   1      50.186  25.621  31.971  1.00  0.00     0.054 A 
BRANCH  64  65
ATOM     65  S   UNL A   1      51.839  24.994  32.375  1.00  0.00     0.124 S 
ATOM     66  O   UNL A   1      51.641  23.549  32.308  1.00  0.00    -0.237 OA
ATOM     67  O   UNL A   1      52.666  25.567  31.316  1.00  0.00    -0.237 OA
ATOM     68  O   UNL A   1      52.095  25.525  33.713  1.00  0.00    -0.744 OA
ENDBRANCH  64  65
ENDBRANCH  38  59
ENDBRANCH  12  13
ENDBRANCH   5   7
ENDBRANCH   2   3
ENDBRANCH   1   2
BRANCH   1  69
ATOM     69  C   UNL A   1      33.372  28.240  24.671  1.00  0.00     0.023 C 
BRANCH  69  70
ATOM     70  C   UNL A   1      34.031  27.762  23.396  1.00  0.00     0.116 C 
BRANCH  70  71
ATOM     71  N   UNL A   1      33.302  26.900  22.514  1.00  0.00    -0.356 N 
ATOM     72  C   UNL A   1      32.973  25.601  22.773  1.00  0.00     0.223 C 
ATOM     73  H   UNL A   1      33.014  27.276  21.651  1.00  0.00     0.163 HD
ATOM     74  O   UNL A   1      32.142  25.061  22.038  1.00  0.00    -0.275 OA
BRANCH  72  75
ATOM     75  C   UNL A   1      33.716  24.763  23.833  1.00  0.00     0.088 C 
BRANCH  75  76
ATOM     76  C   UNL A   1      34.962  23.925  23.347  1.00  0.00     0.070 C 
BRANCH  76  77
ATOM     77  C   UNL A   1      35.947  23.369  24.370  1.00  0.00     0.041 A 
ATOM     78  C   UNL A   1      36.433  24.160  25.414  1.00  0.00     0.024 A 
ATOM     79  N   UNL A   1      36.435  22.128  24.145  1.00  0.00    -0.261 NA
ATOM     80  C   UNL A   1      37.585  23.754  26.091  1.00  0.00     0.003 A 
ATOM     81  C   UNL A   1      37.547  21.752  24.820  1.00  0.00     0.111 A 
ATOM     82  C   UNL A   1      38.175  22.540  25.765  1.00  0.00     0.020 A 
ENDBRANCH  76  77
ENDBRANCH  75  76
BRANCH  75  83
ATOM     83  C   UNL A   1      32.727  24.092  24.825  1.00  0.00     0.018 C 
ATOM     84  C   UNL A   1      32.696  22.560  24.672  1.00  0.00     0.021 C 
ATOM     85  C   UNL A   1      32.956  24.304  26.330  1.00  0.00     0.141 C 
ATOM     86  C   UNL A   1      31.714  22.033  25.717  1.00  0.00     0.137 C 
ATOM     87  S   UNL A   1      31.821  23.156  27.102  1.00  0.00     0.150 S 
ATOM     88  O   UNL A   1      30.538  23.808  27.260  1.00  0.00    -0.229 OA
ATOM     89  O   UNL A   1      32.489  22.491  28.202  1.00  0.00    -0.229 OA
ENDBRANCH  75  83
ENDBRANCH  72  75
ENDBRANCH  70  71
ENDBRANCH  69  70
ENDBRANCH   1  69
TORSDOF 17
ENDMDL
MODEL 2
REMARK VINA RESULT:     -10.4      3.270      4.191
REMARK SMILES O=C(NCCCCNC(=O)[C@H](Cc1ccccn1)[C@H]1CCS(=O)(=O)C1)c1ccc(-c2c3nc(c(-c4ccc(S(=O)(=O)[O-])cc4)c4ccc([nH]4)c(-c4ccc(S(=O)(=O)[O-])cc4)c4nc(c(-c5ccc(S(=O)(=O)[O-])cc5)c5ccc2[nH]5)C=C4)C=C3)cc1
REMARK SMILES IDX 5 1 4 2 3 3 1 4 2 5 26 7 27 8 85 9 28 10 84 11 29 12 30 13
REMARK SMILES IDX 31 14 78 15 32 16 83 17 77 18 79 19 33 20 82 21 76 22 75 23
REMARK SMILES IDX 34 25 64 26 45 27 63 28 46 29 49 30 62 31 80 32 47 33 48 34
REMARK SMILES IDX 61 36 81 37 50 38 35 39 36 40 44 41 37 42 43 43 38 44 39 45
REMARK SMILES IDX 40 46 41 47 42 48 65 49 66 50 74 51 67 52 73 53 68 54 69 55
REMARK SMILES IDX 70 56 71 57 72 58 51 59 52 60 60 61 53 62 59 63 54 64 55 65
REMARK SMILES IDX 56 66 57 67 58 68 6 69 7 70 8 71 9 72 10 74 11 75 12 76
REMARK SMILES IDX 13 77 14 78 18 79 15 80 17 81 16 82 19 83 20 84 25 85 21 86
REMARK SMILES IDX 22 87 23 88 24 89
REMARK H PARENT 3 6 79 24 49 35 8 73
REMARK Flexibility Score: inf
ROOT
ATOM      1  C   UNL A   1      33.796  29.543  27.165  1.00  0.00     0.023 C 
ENDROOT
BRANCH   1   2
ATOM      2  C   UNL A   1      35.205  29.807  27.660  1.00  0.00     0.116 C 
BRANCH   2   3
ATOM      3  N   UNL A   1      35.281  30.279  29.039  1.00  0.00    -0.352 N 
ATOM      4  O   UNL A   1      36.215  30.600  31.077  1.00  0.00    -0.269 OA
ATOM      5  C   UNL A   1      36.340  30.213  29.921  1.00  0.00     0.251 C 
ATOM      6  H   UNL A   1      34.462  30.701  29.388  1.00  0.00     0.163 HD
BRANCH   5   7
ATOM      7  C   UNL A   1      37.607  29.621  29.452  1.00  0.00     0.039 A 
ATOM      8  C   UNL A   1      38.449  28.994  30.370  1.00  0.00     0.014 A 
ATOM      9  C   UNL A   1      38.014  29.815  28.132  1.00  0.00     0.014 A 
ATOM     10  C   UNL A   1      39.777  28.791  30.036  1.00  0.00     0.010 A 
ATOM     11  C   UNL A   1      39.315  29.468  27.758  1.00  0.00     0.010 A 
ATOM     12  C   UNL A   1      40.225  29.004  28.720  1.00  0.00    -0.014 A 
BRANCH  12  13
ATOM     13  C   UNL A   1      41.630  28.670  28.378  1.00  0.00     0.031 A 
ATOM     14  C   UNL A   1      42.733  29.693  28.463  1.00  0.00     0.074 A 
ATOM     15  C   UNL A   1      41.909  27.401  28.018  1.00  0.00     0.049 A 
ATOM     16  N   UNL A   1      44.008  29.545  28.204  1.00  0.00    -0.248 NA
ATOM     17  C   UNL A   1      42.361  31.053  28.881  1.00  0.00     0.031 C 
ATOM     18  C   UNL A   1      40.921  26.321  27.911  1.00  0.00     0.029 A 
ATOM     19  N   UNL A   1      43.095  26.794  27.703  1.00  0.00    -0.354 N 
ATOM     20  C   UNL A   1      44.586  30.796  28.394  1.00  0.00     0.074 A 
ATOM     21  C   UNL A   1      43.516  31.696  28.770  1.00  0.00     0.031 C 
ATOM     22  C   UNL A   1      41.550  25.175  27.629  1.00  0.00     0.029 A 
ATOM     23  C   UNL A   1      42.965  25.452  27.433  1.00  0.00     0.049 A 
ATOM     24  H   UNL A   1      43.956  27.271  27.673  1.00  0.00     0.167 HD
ATOM     25  C   UNL A   1      45.886  31.158  28.264  1.00  0.00     0.031 A 
ATOM     26  C   UNL A   1      43.875  24.543  27.041  1.00  0.00     0.031 A 
ATOM     27  C   UNL A   1      46.939  30.250  27.879  1.00  0.00     0.049 A 
ATOM     28  C   UNL A   1      45.295  24.981  26.854  1.00  0.00     0.074 A 
ATOM     29  C   UNL A   1      48.293  30.508  27.743  1.00  0.00     0.029 A 
ATOM     30  N   UNL A   1      46.757  28.912  27.556  1.00  0.00    -0.354 N 
ATOM     31  N   UNL A   1      45.824  26.163  27.056  1.00  0.00    -0.248 NA
ATOM     32  C   UNL A   1      46.240  23.962  26.385  1.00  0.00     0.031 C 
ATOM     33  C   UNL A   1      48.915  29.348  27.273  1.00  0.00     0.029 A 
ATOM     34  C   UNL A   1      47.966  28.341  27.190  1.00  0.00     0.049 A 
ATOM     35  H   UNL A   1      45.894  28.437  27.583  1.00  0.00     0.167 HD
ATOM     36  C   UNL A   1      47.174  26.027  26.760  1.00  0.00     0.074 A 
ATOM     37  C   UNL A   1      47.379  24.642  26.383  1.00  0.00     0.031 C 
ATOM     38  C   UNL A   1      48.154  26.963  26.803  1.00  0.00     0.031 A 
BRANCH  25  39
ATOM     39  C   UNL A   1      46.237  32.611  28.488  1.00  0.00    -0.014 A 
ATOM     40  C   UNL A   1      46.545  33.109  29.766  1.00  0.00     0.010 A 
ATOM     41  C   UNL A   1      46.277  33.490  27.389  1.00  0.00     0.010 A 
ATOM     42  C   UNL A   1      46.827  34.467  29.950  1.00  0.00     0.020 A 
ATOM     43  C   UNL A   1      46.590  34.842  27.564  1.00  0.00     0.020 A 
ATOM     44  C   UNL A   1      46.839  35.327  28.848  1.00  0.00     0.054 A 
BRANCH  44  45
ATOM     45  S   UNL A   1      47.190  37.087  29.118  1.00  0.00     0.124 S 
ATOM     46  O   UNL A   1      47.743  37.483  27.825  1.00  0.00    -0.237 OA
ATOM     47  O   UNL A   1      45.871  37.632  29.429  1.00  0.00    -0.237 OA
ATOM     48  O   UNL A   1      48.141  37.087  30.227  1.00  0.00    -0.744 OA
ENDBRANCH  44  45
ENDBRANCH  25  39
BRANCH  26  49
ATOM     49  C   UNL A   1      43.445  23.142  26.796  1.00  0.00    -0.014 A 
ATOM     50  C   UNL A   1      43.621  22.554  25.532  1.00  0.00     0.010 A 
ATOM     51  C   UNL A   1      42.917  22.367  27.846  1.00  0.00     0.010 A 
ATOM     52  C   UNL A   1      43.276  21.216  25.323  1.00  0.00     0.020 A 
ATOM     53  C   UNL A   1      42.603  21.021  27.650  1.00  0.00     0.020 A 
ATOM     54  C   UNL A   1      42.778  20.456  26.386  1.00  0.00     0.054 A 
BRANCH  54  55
ATOM     55  S   UNL A   1      42.409  18.703  26.107  1.00  0.00     0.124 S 
ATOM     56  O   UNL A   1      41.011  18.748  25.693  1.00  0.00    -0.237 OA
ATOM     57  O   UNL A   1      43.368  18.344  25.065  1.00  0.00    -0.237 OA
ATOM     58  O   UNL A   1      42.659  18.089  27.410  1.00  0.00    -0.744 OA
ENDBRANCH  54  55
ENDBRANCH  26  49
BRANCH  38  59
ATOM     59  C   UNL A   1      49.549  26.509  26.466  1.00  0.00    -0.014 A 
ATOM     60  C   UNL A   1      50.380  25.907  27.428  1.00  0.00     0.010 A 
ATOM     61  C   UNL A   1      50.022  26.659  25.149  1.00  0.00     0.010 A 
ATOM     62  C   UNL A   1      51.671  25.496  27.088  1.00  0.00     0.020 A 
ATOM     63  C   UNL A   1      51.300  26.218  24.797  1.00  0.00     0.020 A 
ATOM     64  C   UNL A   1      52.122  25.653  25.773  1.00  0.00     0.054 A 
BRANCH  64  65
ATOM     65  S   UNL A   1      53.786  25.073  25.348  1.00  0.00     0.124 S 
ATOM     66  O   UNL A   1      53.995  25.680  24.037  1.00  0.00    -0.237 OA
ATOM     67  O   UNL A   1      54.600  25.617  26.432  1.00  0.00    -0.237 OA
ATOM     68  O   UNL A   1      53.656  23.617  25.346  1.00  0.00    -0.744 OA
ENDBRANCH  64  65
ENDBRANCH  38  59
ENDBRANCH  12  13
ENDBRANCH   5   7
ENDBRANCH   2   3
ENDBRANCH   1   2
BRANCH   1  69
ATOM     69  C   UNL A   1      33.444  28.086  26.970  1.00  0.00     0.023 C 
BRANCH  69  70
ATOM     70  C   UNL A   1      32.112  27.792  26.315  1.00  0.00     0.116 C 
BRANCH  70  71
ATOM     71  N   UNL A   1      31.407  26.597  26.672  1.00  0.00    -0.356 N 
ATOM     72  C   UNL A   1      31.854  25.325  26.462  1.00  0.00     0.223 C 
ATOM     73  H   UNL A   1      30.529  26.703  27.105  1.00  0.00     0.163 HD
ATOM     74  O   UNL A   1      31.261  24.406  27.034  1.00  0.00    -0.275 OA
BRANCH  72  75
ATOM     75  C   UNL A   1      32.947  25.001  25.424  1.00  0.00     0.088 C 
BRANCH  75  76
ATOM     76  C   UNL A   1      34.435  24.914  25.946  1.00  0.00     0.070 C 
BRANCH  76  77
ATOM     77  C   UNL A   1      35.265  23.666  25.663  1.00  0.00     0.041 A 
ATOM     78  C   UNL A   1      36.158  23.617  24.590  1.00  0.00     0.024 A 
ATOM     79  N   UNL A   1      35.000  22.567  26.405  1.00  0.00    -0.261 NA
ATOM     80  C   UNL A   1      36.610  22.374  24.143  1.00  0.00     0.003 A 
ATOM     81  C   UNL A   1      35.457  21.375  25.957  1.00  0.00     0.111 A 
ATOM     82  C   UNL A   1      36.224  21.225  24.818  1.00  0.00     0.020 A 
ENDBRANCH  76  77
ENDBRANCH  75  76
BRANCH  75  83
ATOM     83  C   UNL A   1      32.688  25.728  24.076  1.00  0.00     0.018 C 
ATOM     84  C   UNL A   1      33.910  26.542  23.608  1.00  0.00     0.021 C 
ATOM     85  C   UNL A   1      32.326  24.875  22.851  1.00  0.00     0.141 C 
ATOM     86  C   UNL A   1      33.529  27.175  22.270  1.00  0.00     0.137 C 
ATOM     87  S   UNL A   1      32.405  26.029  21.486  1.00  0.00     0.150 S 
ATOM     88  O   UNL A   1      31.118  26.676  21.350  1.00  0.00    -0.229 OA
ATOM     89  O   UNL A   1      33.075  25.399  20.366  1.00  0.00    -0.229 OA
ENDBRANCH  75  83
ENDBRANCH  72  75
ENDBRANCH  70  71
ENDBRANCH  69  70
ENDBRANCH   1  69
TORSDOF 17
ENDMDL
MODEL 3
REMARK VINA RESULT:     -10.4      1.716      3.022
REMARK SMILES O=C(NCCCCNC(=O)[C@H](Cc1ccccn1)[C@H]1CCS(=O)(=O)C1)c1ccc(-c2c3nc(c(-c4ccc(S(=O)(=O)[O-])cc4)c4ccc([nH]4)c(-c4ccc(S(=O)(=O)[O-])cc4)c4nc(c(-c5ccc(S(=O)(=O)[O-])cc5)c5ccc2[nH]5)C=C4)C=C3)cc1
REMARK SMILES IDX 5 1 4 2 3 3 1 4 2 5 26 7 27 8 85 9 28 10 84 11 29 12 30 13
REMARK SMILES IDX 31 14 78 15 32 16 83 17 77 18 79 19 33 20 82 21 76 22 75 23
REMARK SMILES IDX 34 25 64 26 45 27 63 28 46 29 49 30 62 31 80 32 47 33 48 34
REMARK SMILES IDX 61 36 81 37 50 38 35 39 36 40 44 41 37 42 43 43 38 44 39 45
REMARK SMILES IDX 40 46 41 47 42 48 65 49 66 50 74 51 67 52 73 53 68 54 69 55
REMARK SMILES IDX 70 56 71 57 72 58 51 59 52 60 60 61 53 62 59 63 54 64 55 65
REMARK SMILES IDX 56 66 57 67 58 68 6 69 7 70 8 71 9 72 10 74 11 75 12 76
REMARK SMILES IDX 13 77 14 78 18 79 15 80 17 81 16 82 19 83 20 84 25 85 21 86
REMARK SMILES IDX 22 87 23 88 24 89
REMARK H PARENT 3 6 79 24 49 35 8 73
REMARK Flexibility Score: inf
ROOT
ATOM      1  C   UNL A   1      32.801  27.774  26.078  1.00  0.00     0.023 C 
ENDROOT
BRANCH   1   2
ATOM      2  C   UNL A   1      33.399  28.247  27.389  1.00  0.00     0.116 C 
BRANCH   2   3
ATOM      3  N   UNL A   1      33.309  29.687  27.607  1.00  0.00    -0.352 N 
ATOM      4  O   UNL A   1      34.034  31.748  28.207  1.00  0.00    -0.269 OA
ATOM      5  C   UNL A   1      34.295  30.568  28.002  1.00  0.00     0.251 C 
ATOM      6  H   UNL A   1      32.422  30.086  27.452  1.00  0.00     0.163 HD
BRANCH   5   7
ATOM      7  C   UNL A   1      35.657  30.043  28.223  1.00  0.00     0.039 A 
ATOM      8  C   UNL A   1      36.034  29.637  29.502  1.00  0.00     0.014 A 
ATOM      9  C   UNL A   1      36.591  30.090  27.187  1.00  0.00     0.014 A 
ATOM     10  C   UNL A   1      37.381  29.521  29.801  1.00  0.00     0.010 A 
ATOM     11  C   UNL A   1      37.934  29.825  27.464  1.00  0.00     0.010 A 
ATOM     12  C   UNL A   1      38.349  29.591  28.785  1.00  0.00    -0.014 A 
BRANCH  12  13
ATOM     13  C   UNL A   1      39.772  29.353  29.132  1.00  0.00     0.031 A 
ATOM     14  C   UNL A   1      40.603  30.393  29.836  1.00  0.00     0.074 A 
ATOM     15  C   UNL A   1      40.304  28.151  28.830  1.00  0.00     0.049 A 
ATOM     16  N   UNL A   1      41.856  30.324  30.212  1.00  0.00    -0.248 NA
ATOM     17  C   UNL A   1      39.954  31.675  30.153  1.00  0.00     0.031 C 
ATOM     18  C   UNL A   1      39.590  27.061  28.156  1.00  0.00     0.029 A 
ATOM     19  N   UNL A   1      41.548  27.631  29.069  1.00  0.00    -0.354 N 
ATOM     20  C   UNL A   1      42.156  31.560  30.777  1.00  0.00     0.074 A 
ATOM     21  C   UNL A   1      40.958  32.366  30.675  1.00  0.00     0.031 C 
ATOM     22  C   UNL A   1      40.380  25.983  28.103  1.00  0.00     0.029 A 
ATOM     23  C   UNL A   1      41.686  26.332  28.642  1.00  0.00     0.049 A 
ATOM     24  H   UNL A   1      42.272  28.138  29.504  1.00  0.00     0.167 HD
ATOM     25  C   UNL A   1      43.323  31.979  31.325  1.00  0.00     0.031 A 
ATOM     26  C   UNL A   1      42.752  25.513  28.652  1.00  0.00     0.031 A 
ATOM     27  C   UNL A   1      44.511  31.166  31.411  1.00  0.00     0.049 A 
ATOM     28  C   UNL A   1      44.044  26.020  29.216  1.00  0.00     0.074 A 
ATOM     29  C   UNL A   1      45.737  31.486  31.970  1.00  0.00     0.029 A 
ATOM     30  N   UNL A   1      44.628  29.875  30.912  1.00  0.00    -0.354 N 
ATOM     31  N   UNL A   1      44.302  27.184  29.761  1.00  0.00    -0.248 NA
ATOM     32  C   UNL A   1      45.188  25.102  29.165  1.00  0.00     0.031 C 
ATOM     33  C   UNL A   1      46.612  30.418  31.748  1.00  0.00     0.029 A 
ATOM     34  C   UNL A   1      45.912  29.398  31.121  1.00  0.00     0.049 A 
ATOM     35  H   UNL A   1      43.904  29.372  30.474  1.00  0.00     0.167 HD
ATOM     36  C   UNL A   1      45.637  27.133  30.141  1.00  0.00     0.074 A 
ATOM     37  C   UNL A   1      46.123  25.816  29.777  1.00  0.00     0.031 C 
ATOM     38  C   UNL A   1      46.388  28.089  30.741  1.00  0.00     0.031 A 
BRANCH  25  39
ATOM     39  C   UNL A   1      43.389  33.402  31.830  1.00  0.00    -0.014 A 
ATOM     40  C   UNL A   1      43.865  34.452  31.023  1.00  0.00     0.010 A 
ATOM     41  C   UNL A   1      42.946  33.696  33.133  1.00  0.00     0.010 A 
ATOM     42  C   UNL A   1      43.952  35.753  31.530  1.00  0.00     0.020 A 
ATOM     43  C   UNL A   1      43.002  35.001  33.633  1.00  0.00     0.020 A 
ATOM     44  C   UNL A   1      43.528  36.018  32.835  1.00  0.00     0.054 A 
BRANCH  44  45
ATOM     45  S   UNL A   1      43.670  37.711  33.473  1.00  0.00     0.124 S 
ATOM     46  O   UNL A   1      44.931  37.649  34.208  1.00  0.00    -0.237 OA
ATOM     47  O   UNL A   1      43.694  38.512  32.252  1.00  0.00    -0.237 OA
ATOM     48  O   UNL A   1      42.476  37.873  34.300  1.00  0.00    -0.744 OA
ENDBRANCH  44  45
ENDBRANCH  25  39
BRANCH  26  49
ATOM     49  C   UNL A   1      42.622  24.141  28.095  1.00  0.00    -0.014 A 
ATOM     50  C   UNL A   1      42.240  23.070  28.921  1.00  0.00     0.010 A 
ATOM     51  C   UNL A   1      42.816  23.912  26.719  1.00  0.00     0.010 A 
ATOM     52  C   UNL A   1      42.055  21.795  28.380  1.00  0.00     0.020 A 
ATOM     53  C   UNL A   1      42.599  22.647  26.170  1.00  0.00     0.020 A 
ATOM     54  C   UNL A   1      42.226  21.594  27.007  1.00  0.00     0.054 A 
BRANCH  54  55
ATOM     55  S   UNL A   1      41.906  19.947  26.320  1.00  0.00     0.124 S 
ATOM     56  O   UNL A   1      42.812  19.912  25.177  1.00  0.00    -0.237 OA
ATOM     57  O   UNL A   1      42.257  19.070  27.434  1.00  0.00    -0.237 OA
ATOM     58  O   UNL A   1      40.482  19.983  25.991  1.00  0.00    -0.744 OA
ENDBRANCH  54  55
ENDBRANCH  26  49
BRANCH  38  59
ATOM     59  C   UNL A   1      47.812  27.731  31.077  1.00  0.00    -0.014 A 
ATOM     60  C   UNL A   1      48.868  28.012  30.192  1.00  0.00     0.010 A 
ATOM     61  C   UNL A   1      48.097  27.133  32.318  1.00  0.00     0.010 A 
ATOM     62  C   UNL A   1      50.179  27.668  30.528  1.00  0.00     0.020 A 
ATOM     63  C   UNL A   1      49.411  26.820  32.672  1.00  0.00     0.020 A 
ATOM     64  C   UNL A   1      50.442  27.076  31.768  1.00  0.00     0.054 A 
BRANCH  64  65
ATOM     65  S   UNL A   1      52.159  26.679  32.197  1.00  0.00     0.124 S 
ATOM     66  O   UNL A   1      52.239  25.262  31.854  1.00  0.00    -0.237 OA
ATOM     67  O   UNL A   1      52.920  27.579  31.335  1.00  0.00    -0.237 OA
ATOM     68  O   UNL A   1      52.238  26.980  33.625  1.00  0.00    -0.744 OA
ENDBRANCH  64  65
ENDBRANCH  38  59
ENDBRANCH  12  13
ENDBRANCH   5   7
ENDBRANCH   2   3
ENDBRANCH   1   2
BRANCH   1  69
ATOM     69  C   UNL A   1      33.678  26.849  25.266  1.00  0.00     0.023 C 
BRANCH  69  70
ATOM     70  C   UNL A   1      33.717  25.399  25.697  1.00  0.00     0.116 C 
BRANCH  70  71
ATOM     71  N   UNL A   1      32.638  24.873  26.478  1.00  0.00    -0.356 N 
ATOM     72  C   UNL A   1      31.903  23.767  26.165  1.00  0.00     0.223 C 
ATOM     73  H   UNL A   1      32.407  25.349  27.309  1.00  0.00     0.163 HD
ATOM     74  O   UNL A   1      31.174  23.294  27.042  1.00  0.00    -0.275 OA
BRANCH  72  75
ATOM     75  C   UNL A   1      31.838  23.205  24.730  1.00  0.00     0.088 C 
BRANCH  75  76
ATOM     76  C   UNL A   1      30.748  23.814  23.765  1.00  0.00     0.070 C 
BRANCH  76  77
ATOM     77  C   UNL A   1      30.700  25.321  23.531  1.00  0.00     0.041 A 
ATOM     78  C   UNL A   1      29.730  26.120  24.142  1.00  0.00     0.024 A 
ATOM     79  N   UNL A   1      31.544  25.828  22.603  1.00  0.00    -0.261 NA
ATOM     80  C   UNL A   1      29.484  27.395  23.630  1.00  0.00     0.003 A 
ATOM     81  C   UNL A   1      31.291  27.070  22.129  1.00  0.00     0.111 A 
ATOM     82  C   UNL A   1      30.257  27.868  22.579  1.00  0.00     0.020 A 
ENDBRANCH  76  77
ENDBRANCH  75  76
BRANCH  75  83
ATOM     83  C   UNL A   1      32.053  21.666  24.711  1.00  0.00     0.018 C 
ATOM     84  C   UNL A   1      32.206  21.117  23.279  1.00  0.00     0.021 C 
ATOM     85  C   UNL A   1      33.270  21.095  25.453  1.00  0.00     0.141 C 
ATOM     86  C   UNL A   1      32.437  19.612  23.408  1.00  0.00     0.137 C 
ATOM     87  S   UNL A   1      33.317  19.380  24.945  1.00  0.00     0.150 S 
ATOM     88  O   UNL A   1      32.478  18.609  25.838  1.00  0.00    -0.229 OA
ATOM     89  O   UNL A   1      34.686  19.005  24.656  1.00  0.00    -0.229 OA
ENDBRANCH  75  83
ENDBRANCH  72  75
ENDBRANCH  70  71
ENDBRANCH  69  70
ENDBRANCH   1  69
TORSDOF 17
ENDMDL
