MODEL 1
REMARK VINA RESULT:     -11.6      0.000      0.000
REMARK SMILES CC1(C)NC(=O)N(CCC(=O)N2CCC[C@H]2C(=O)NCCCCNC(=O)c2ccc(-c3c4nc(c(-c5ccc(S(=O)(=O)[O-])cc5)c5ccc([nH]5)c(-c5ccc(S(=O)(=O)[O-])cc5)c5nc(c(-c6ccc(S(=O)(=O)[O-])cc6)c6ccc3[nH]6)C=C5)C=C4)cc2)C1=O
REMARK SMILES IDX 21 1 20 2 19 3 17 4 18 5 16 7 12 8 13 9 14 10 15 11 10 12
REMARK SMILES IDX 11 13 9 14 8 15 7 16 1 17 2 18 3 19 4 20 87 21 5 22 88 24
REMARK SMILES IDX 6 25 22 26 23 27 24 28 25 29 26 31 27 32 28 33 86 34 29 35
REMARK SMILES IDX 85 36 30 37 31 38 32 39 79 40 33 41 84 42 78 43 80 44 34 45
REMARK SMILES IDX 83 46 77 47 76 48 35 50 65 51 46 52 64 53 47 54 50 55 63 56
REMARK SMILES IDX 81 57 48 58 49 59 62 61 82 62 51 63 36 64 37 65 45 66 38 67
REMARK SMILES IDX 44 68 39 69 40 70 41 71 42 72 43 73 66 74 67 75 75 76 68 77
REMARK SMILES IDX 74 78 69 79 70 80 71 81 72 82 73 83 52 84 53 85 61 86 54 87
REMARK SMILES IDX 60 88 55 89 56 90 57 91 58 92 59 93
REMARK H PARENT 19 6 4 23 24 30 80 49 50 60
REMARK Flexibility Score: inf
ROOT
ATOM      1  C   UNL A   1      36.941  21.255  25.659  1.00  0.00     0.023 C 
ENDROOT
BRANCH   1   2
ATOM      2  C   UNL A   1      37.085  22.774  25.743  1.00  0.00     0.116 C 
BRANCH   2   3
ATOM      3  N   UNL A   1      37.169  23.328  24.421  1.00  0.00    -0.354 N 
ATOM      4  C   UNL A   1      36.142  23.374  23.546  1.00  0.00     0.242 C 
ATOM      5  O   UNL A   1      36.398  22.996  22.403  1.00  0.00    -0.273 OA
ATOM      6  H   UNL A   1      38.034  23.699  24.133  1.00  0.00     0.163 HD
BRANCH   4   7
ATOM      7  C   UNL A   1      34.744  23.848  23.955  1.00  0.00     0.174 C 
ATOM      8  N   UNL A   1      33.772  22.826  24.269  1.00  0.00    -0.331 N 
ATOM      9  C   UNL A   1      33.418  22.892  25.673  1.00  0.00     0.120 C 
ATOM     10  C   UNL A   1      33.734  24.315  26.119  1.00  0.00     0.024 C 
ATOM     11  C   UNL A   1      34.649  24.905  25.052  1.00  0.00     0.037 C 
BRANCH   8  12
ATOM     12  C   UNL A   1      33.037  22.093  23.357  1.00  0.00     0.225 C 
ATOM     13  O   UNL A   1      32.952  22.460  22.181  1.00  0.00    -0.275 OA
BRANCH  12  14
ATOM     14  C   UNL A   1      32.215  20.882  23.817  1.00  0.00     0.122 C 
BRANCH  14  15
ATOM     15  C   UNL A   1      32.506  19.492  23.224  1.00  0.00     0.140 C 
BRANCH  15  16
ATOM     16  N   UNL A   1      32.932  18.445  24.152  1.00  0.00    -0.262 N 
ATOM     17  C   UNL A   1      35.098  15.958  25.283  1.00  0.00     0.045 C 
ATOM     18  C   UNL A   1      33.649  16.382  25.102  1.00  0.00     0.115 C 
ATOM     19  C   UNL A   1      32.734  15.162  25.187  1.00  0.00     0.045 C 
ATOM     20  N   UNL A   1      33.297  17.387  26.079  1.00  0.00    -0.324 N 
ATOM     21  C   UNL A   1      33.451  17.216  23.807  1.00  0.00     0.255 C 
ATOM     22  C   UNL A   1      32.963  18.591  25.506  1.00  0.00     0.325 C 
ATOM     23  H   UNL A   1      33.297  17.227  27.051  1.00  0.00     0.166 HD
ATOM     24  O   UNL A   1      33.747  16.847  22.679  1.00  0.00    -0.272 OA
ATOM     25  O   UNL A   1      32.677  19.586  26.153  1.00  0.00    -0.248 OA
ENDBRANCH  15  16
ENDBRANCH  14  15
ENDBRANCH  12  14
ENDBRANCH   8  12
ENDBRANCH   4   7
ENDBRANCH   2   3
ENDBRANCH   1   2
BRANCH   1  26
ATOM     26  C   UNL A   1      38.207  20.530  25.187  1.00  0.00     0.023 C 
BRANCH  26  27
ATOM     27  C   UNL A   1      39.443  20.794  26.038  1.00  0.00     0.116 C 
BRANCH  27  28
ATOM     28  N   UNL A   1      40.370  19.672  26.026  1.00  0.00    -0.352 N 
ATOM     29  C   UNL A   1      41.726  19.678  26.196  1.00  0.00     0.251 C 
ATOM     30  H   UNL A   1      39.965  18.788  25.874  1.00  0.00     0.163 HD
ATOM     31  O   UNL A   1      42.374  18.647  26.064  1.00  0.00    -0.269 OA
BRANCH  29  32
ATOM     32  C   UNL A   1      42.383  20.957  26.494  1.00  0.00     0.039 A 
ATOM     33  C   UNL A   1      42.733  21.780  25.425  1.00  0.00     0.014 A 
ATOM     34  C   UNL A   1      42.572  21.361  27.818  1.00  0.00     0.014 A 
ATOM     35  C   UNL A   1      43.248  23.043  25.689  1.00  0.00     0.010 A 
ATOM     36  C   UNL A   1      43.017  22.651  28.077  1.00  0.00     0.010 A 
ATOM     37  C   UNL A   1      43.366  23.496  27.014  1.00  0.00    -0.014 A 
BRANCH  37  38
ATOM     38  C   UNL A   1      43.861  24.862  27.293  1.00  0.00     0.031 A 
ATOM     39  C   UNL A   1      45.312  25.190  27.081  1.00  0.00     0.074 A 
ATOM     40  C   UNL A   1      43.004  25.789  27.760  1.00  0.00     0.049 A 
ATOM     41  N   UNL A   1      45.928  26.330  27.251  1.00  0.00    -0.248 NA
ATOM     42  C   UNL A   1      46.189  24.092  26.642  1.00  0.00     0.031 C 
ATOM     43  C   UNL A   1      41.584  25.561  28.048  1.00  0.00     0.029 A 
ATOM     44  N   UNL A   1      43.196  27.111  28.067  1.00  0.00    -0.354 N 
ATOM     45  C   UNL A   1      47.261  26.085  26.948  1.00  0.00     0.074 A 
ATOM     46  C   UNL A   1      47.377  24.678  26.642  1.00  0.00     0.031 C 
ATOM     47  C   UNL A   1      41.027  26.714  28.452  1.00  0.00     0.029 A 
ATOM     48  C   UNL A   1      42.054  27.749  28.486  1.00  0.00     0.049 A 
ATOM     49  H   UNL A   1      44.070  27.559  27.995  1.00  0.00     0.167 HD
ATOM     50  C   UNL A   1      48.292  26.962  26.907  1.00  0.00     0.031 A 
ATOM     51  C   UNL A   1      41.858  29.030  28.856  1.00  0.00     0.031 A 
ATOM     52  C   UNL A   1      48.162  28.362  27.210  1.00  0.00     0.049 A 
ATOM     53  C   UNL A   1      43.021  29.982  28.804  1.00  0.00     0.074 A 
ATOM     54  C   UNL A   1      49.130  29.348  27.150  1.00  0.00     0.029 A 
ATOM     55  N   UNL A   1      46.991  28.974  27.632  1.00  0.00    -0.354 N 
ATOM     56  N   UNL A   1      44.261  29.749  28.444  1.00  0.00    -0.248 NA
ATOM     57  C   UNL A   1      42.754  31.372  29.194  1.00  0.00     0.031 C 
ATOM     58  C   UNL A   1      48.558  30.546  27.590  1.00  0.00     0.029 A 
ATOM     59  C   UNL A   1      47.217  30.320  27.863  1.00  0.00     0.049 A 
ATOM     60  H   UNL A   1      46.126  28.518  27.751  1.00  0.00     0.167 HD
ATOM     61  C   UNL A   1      44.918  30.971  28.541  1.00  0.00     0.074 A 
ATOM     62  C   UNL A   1      43.931  31.941  28.971  1.00  0.00     0.031 C 
ATOM     63  C   UNL A   1      46.220  31.265  28.299  1.00  0.00     0.031 A 
BRANCH  50  64
ATOM     64  C   UNL A   1      49.647  26.427  26.526  1.00  0.00    -0.014 A 
ATOM     65  C   UNL A   1      50.492  25.839  27.486  1.00  0.00     0.010 A 
ATOM     66  C   UNL A   1      50.068  26.478  25.185  1.00  0.00     0.010 A 
ATOM     67  C   UNL A   1      51.747  25.347  27.118  1.00  0.00     0.020 A 
ATOM     68  C   UNL A   1      51.310  25.959  24.807  1.00  0.00     0.020 A 
ATOM     69  C   UNL A   1      52.148  25.411  25.780  1.00  0.00     0.054 A 
BRANCH  69  70
ATOM     70  S   UNL A   1      53.769  24.735  25.328  1.00  0.00     0.124 S 
ATOM     71  O   UNL A   1      54.135  25.569  24.186  1.00  0.00    -0.237 OA
ATOM     72  O   UNL A   1      54.555  24.951  26.540  1.00  0.00    -0.237 OA
ATOM     73  O   UNL A   1      53.487  23.337  25.012  1.00  0.00    -0.744 OA
ENDBRANCH  69  70
ENDBRANCH  50  64
BRANCH  51  74
ATOM     74  C   UNL A   1      40.507  29.485  29.283  1.00  0.00    -0.014 A 
ATOM     75  C   UNL A   1      40.218  29.695  30.643  1.00  0.00     0.010 A 
ATOM     76  C   UNL A   1      39.502  29.721  28.327  1.00  0.00     0.010 A 
ATOM     77  C   UNL A   1      38.943  30.107  31.041  1.00  0.00     0.020 A 
ATOM     78  C   UNL A   1      38.234  30.163  28.719  1.00  0.00     0.020 A 
ATOM     79  C   UNL A   1      37.960  30.339  30.076  1.00  0.00     0.054 A 
BRANCH  79  80
ATOM     80  S   UNL A   1      36.324  30.911  30.614  1.00  0.00     0.124 S 
ATOM     81  O   UNL A   1      36.613  32.265  31.074  1.00  0.00    -0.237 OA
ATOM     82  O   UNL A   1      35.537  30.811  29.387  1.00  0.00    -0.237 OA
ATOM     83  O   UNL A   1      35.956  29.959  31.660  1.00  0.00    -0.744 OA
ENDBRANCH  79  80
ENDBRANCH  51  74
BRANCH  63  84
ATOM     84  C   UNL A   1      46.642  32.701  28.469  1.00  0.00    -0.014 A 
ATOM     85  C   UNL A   1      47.025  33.204  29.724  1.00  0.00     0.010 A 
ATOM     86  C   UNL A   1      46.686  33.547  27.346  1.00  0.00     0.010 A 
ATOM     87  C   UNL A   1      47.403  34.542  29.861  1.00  0.00     0.020 A 
ATOM     88  C   UNL A   1      47.095  34.876  27.473  1.00  0.00     0.020 A 
ATOM     89  C   UNL A   1      47.433  35.370  28.735  1.00  0.00     0.054 A 
BRANCH  89  90
ATOM     90  S   UNL A   1      47.950  37.096  28.934  1.00  0.00     0.124 S 
ATOM     91  O   UNL A   1      46.697  37.748  29.301  1.00  0.00    -0.237 OA
ATOM     92  O   UNL A   1      48.949  37.010  29.997  1.00  0.00    -0.237 OA
ATOM     93  O   UNL A   1      48.478  37.454  27.619  1.00  0.00    -0.744 OA
ENDBRANCH  89  90
ENDBRANCH  63  84
ENDBRANCH  37  38
ENDBRANCH  29  32
ENDBRANCH  27  28
ENDBRANCH  26  27
ENDBRANCH   1  26
TORSDOF 18
ENDMDL
MODEL 2
REMARK VINA RESULT:     -11.0      0.861      8.177
REMARK SMILES CC1(C)NC(=O)N(CCC(=O)N2CCC[C@H]2C(=O)NCCCCNC(=O)c2ccc(-c3c4nc(c(-c5ccc(S(=O)(=O)[O-])cc5)c5ccc([nH]5)c(-c5ccc(S(=O)(=O)[O-])cc5)c5nc(c(-c6ccc(S(=O)(=O)[O-])cc6)c6ccc3[nH]6)C=C5)C=C4)cc2)C1=O
REMARK SMILES IDX 21 1 20 2 19 3 17 4 18 5 16 7 12 8 13 9 14 10 15 11 10 12
REMARK SMILES IDX 11 13 9 14 8 15 7 16 1 17 2 18 3 19 4 20 87 21 5 22 88 24
REMARK SMILES IDX 6 25 22 26 23 27 24 28 25 29 26 31 27 32 28 33 86 34 29 35
REMARK SMILES IDX 85 36 30 37 31 38 32 39 79 40 33 41 84 42 78 43 80 44 34 45
REMARK SMILES IDX 83 46 77 47 76 48 35 50 65 51 46 52 64 53 47 54 50 55 63 56
REMARK SMILES IDX 81 57 48 58 49 59 62 61 82 62 51 63 36 64 37 65 45 66 38 67
REMARK SMILES IDX 44 68 39 69 40 70 41 71 42 72 43 73 66 74 67 75 75 76 68 77
REMARK SMILES IDX 74 78 69 79 70 80 71 81 72 82 73 83 52 84 53 85 61 86 54 87
REMARK SMILES IDX 60 88 55 89 56 90 57 91 58 92 59 93
REMARK H PARENT 19 6 4 23 24 30 80 49 50 60
REMARK Flexibility Score: inf
ROOT
ATOM      1  C   UNL A   1      36.636  21.011  25.550  1.00  0.00     0.023 C 
ENDROOT
BRANCH   1   2
ATOM      2  C   UNL A   1      36.728  22.522  25.752  1.00  0.00     0.116 C 
BRANCH   2   3
ATOM      3  N   UNL A   1      36.998  23.166  24.497  1.00  0.00    -0.354 N 
ATOM      4  C   UNL A   1      36.084  23.347  23.520  1.00  0.00     0.242 C 
ATOM      5  O   UNL A   1      36.448  23.037  22.386  1.00  0.00    -0.273 OA
ATOM      6  H   UNL A   1      37.912  23.496  24.338  1.00  0.00     0.163 HD
BRANCH   4   7
ATOM      7  C   UNL A   1      34.679  23.885  23.808  1.00  0.00     0.174 C 
ATOM      8  N   UNL A   1      33.666  22.916  24.158  1.00  0.00    -0.331 N 
ATOM      9  C   UNL A   1      33.241  23.115  25.530  1.00  0.00     0.120 C 
ATOM     10  C   UNL A   1      33.570  24.565  25.864  1.00  0.00     0.024 C 
ATOM     11  C   UNL A   1      34.555  25.038  24.801  1.00  0.00     0.037 C 
BRANCH   8  12
ATOM     12  C   UNL A   1      32.961  22.120  23.276  1.00  0.00     0.225 C 
ATOM     13  O   UNL A   1      32.845  22.449  22.091  1.00  0.00    -0.275 OA
BRANCH  12  14
ATOM     14  C   UNL A   1      32.209  20.882  23.780  1.00  0.00     0.122 C 
BRANCH  14  15
ATOM     15  C   UNL A   1      32.540  19.497  23.195  1.00  0.00     0.140 C 
BRANCH  15  16
ATOM     16  N   UNL A   1      32.966  18.459  24.133  1.00  0.00    -0.262 N 
ATOM     17  C   UNL A   1      35.079  15.918  25.241  1.00  0.00     0.045 C 
ATOM     18  C   UNL A   1      33.642  16.396  25.111  1.00  0.00     0.115 C 
ATOM     19  C   UNL A   1      32.684  15.216  25.272  1.00  0.00     0.045 C 
ATOM     20  N   UNL A   1      33.375  17.441  26.073  1.00  0.00    -0.324 N 
ATOM     21  C   UNL A   1      33.418  17.201  23.802  1.00  0.00     0.255 C 
ATOM     22  C   UNL A   1      33.063  18.641  25.480  1.00  0.00     0.325 C 
ATOM     23  H   UNL A   1      33.412  17.308  27.049  1.00  0.00     0.166 HD
ATOM     24  O   UNL A   1      33.648  16.789  22.674  1.00  0.00    -0.272 OA
ATOM     25  O   UNL A   1      32.846  19.664  26.110  1.00  0.00    -0.248 OA
ENDBRANCH  15  16
ENDBRANCH  14  15
ENDBRANCH  12  14
ENDBRANCH   8  12
ENDBRANCH   4   7
ENDBRANCH   2   3
ENDBRANCH   1   2
BRANCH   1  26
ATOM     26  C   UNL A   1      37.969  20.344  25.190  1.00  0.00     0.023 C 
BRANCH  26  27
ATOM     27  C   UNL A   1      39.133  20.724  26.095  1.00  0.00     0.116 C 
BRANCH  27  28
ATOM     28  N   UNL A   1      40.212  19.748  26.045  1.00  0.00    -0.352 N 
ATOM     29  C   UNL A   1      41.553  19.943  26.214  1.00  0.00     0.251 C 
ATOM     30  H   UNL A   1      39.936  18.820  25.864  1.00  0.00     0.163 HD
ATOM     31  O   UNL A   1      42.342  19.021  26.047  1.00  0.00    -0.269 OA
BRANCH  29  32
ATOM     32  C   UNL A   1      42.021  21.293  26.553  1.00  0.00     0.039 A 
ATOM     33  C   UNL A   1      42.340  21.564  27.882  1.00  0.00     0.014 A 
ATOM     34  C   UNL A   1      42.214  22.246  25.549  1.00  0.00     0.014 A 
ATOM     35  C   UNL A   1      42.895  22.796  28.204  1.00  0.00     0.010 A 
ATOM     36  C   UNL A   1      42.837  23.446  25.862  1.00  0.00     0.010 A 
ATOM     37  C   UNL A   1      43.172  23.732  27.194  1.00  0.00    -0.014 A 
BRANCH  37  38
ATOM     38  C   UNL A   1      43.815  25.022  27.529  1.00  0.00     0.031 A 
ATOM     39  C   UNL A   1      42.997  26.135  28.119  1.00  0.00     0.074 A 
ATOM     40  C   UNL A   1      45.127  25.188  27.275  1.00  0.00     0.049 A 
ATOM     41  N   UNL A   1      43.382  27.326  28.495  1.00  0.00    -0.248 NA
ATOM     42  C   UNL A   1      41.555  25.888  28.289  1.00  0.00     0.031 C 
ATOM     43  C   UNL A   1      46.004  24.187  26.658  1.00  0.00     0.029 A 
ATOM     44  N   UNL A   1      45.955  26.254  27.511  1.00  0.00    -0.354 N 
ATOM     45  C   UNL A   1      42.234  27.970  28.937  1.00  0.00     0.074 A 
ATOM     46  C   UNL A   1      41.129  27.063  28.729  1.00  0.00     0.031 C 
ATOM     47  C   UNL A   1      47.254  24.674  26.601  1.00  0.00     0.029 A 
ATOM     48  C   UNL A   1      47.259  26.029  27.141  1.00  0.00     0.049 A 
ATOM     49  H   UNL A   1      45.645  27.100  27.906  1.00  0.00     0.167 HD
ATOM     50  C   UNL A   1      42.116  29.200  29.490  1.00  0.00     0.031 A 
ATOM     51  C   UNL A   1      48.340  26.827  27.231  1.00  0.00     0.031 A 
ATOM     52  C   UNL A   1      43.226  30.092  29.696  1.00  0.00     0.049 A 
ATOM     53  C   UNL A   1      48.181  28.191  27.845  1.00  0.00     0.074 A 
ATOM     54  C   UNL A   1      43.227  31.340  30.293  1.00  0.00     0.029 A 
ATOM     55  N   UNL A   1      44.532  29.832  29.308  1.00  0.00    -0.354 N 
ATOM     56  N   UNL A   1      47.099  28.756  28.326  1.00  0.00    -0.248 NA
ATOM     57  C   UNL A   1      49.391  29.017  27.942  1.00  0.00     0.031 C 
ATOM     58  C   UNL A   1      44.524  31.858  30.217  1.00  0.00     0.029 A 
ATOM     59  C   UNL A   1      45.344  30.906  29.629  1.00  0.00     0.049 A 
ATOM     60  H   UNL A   1      44.837  29.005  28.869  1.00  0.00     0.167 HD
ATOM     61  C   UNL A   1      47.504  29.997  28.806  1.00  0.00     0.074 A 
ATOM     62  C   UNL A   1      48.932  30.087  28.577  1.00  0.00     0.031 C 
ATOM     63  C   UNL A   1      46.762  30.976  29.383  1.00  0.00     0.031 A 
BRANCH  50  64
ATOM     64  C   UNL A   1      40.740  29.650  29.903  1.00  0.00    -0.014 A 
ATOM     65  C   UNL A   1      40.340  29.617  31.253  1.00  0.00     0.010 A 
ATOM     66  C   UNL A   1      39.847  30.146  28.938  1.00  0.00     0.010 A 
ATOM     67  C   UNL A   1      39.059  30.038  31.621  1.00  0.00     0.020 A 
ATOM     68  C   UNL A   1      38.575  30.597  29.307  1.00  0.00     0.020 A 
ATOM     69  C   UNL A   1      38.185  30.525  30.645  1.00  0.00     0.054 A 
BRANCH  69  70
ATOM     70  S   UNL A   1      36.541  31.093  31.160  1.00  0.00     0.124 S 
ATOM     71  O   UNL A   1      35.880  31.303  29.874  1.00  0.00    -0.237 OA
ATOM     72  O   UNL A   1      36.044  29.965  31.944  1.00  0.00    -0.237 OA
ATOM     73  O   UNL A   1      36.816  32.307  31.923  1.00  0.00    -0.744 OA
ENDBRANCH  69  70
ENDBRANCH  50  64
BRANCH  51  74
ATOM     74  C   UNL A   1      49.664  26.349  26.747  1.00  0.00    -0.014 A 
ATOM     75  C   UNL A   1      50.005  26.439  25.386  1.00  0.00     0.010 A 
ATOM     76  C   UNL A   1      50.597  25.809  27.651  1.00  0.00     0.010 A 
ATOM     77  C   UNL A   1      51.244  25.974  24.934  1.00  0.00     0.020 A 
ATOM     78  C   UNL A   1      51.849  25.371  27.208  1.00  0.00     0.020 A 
ATOM     79  C   UNL A   1      52.157  25.443  25.848  1.00  0.00     0.054 A 
BRANCH  79  80
ATOM     80  S   UNL A   1      53.774  24.882  25.244  1.00  0.00     0.124 S 
ATOM     81  O   UNL A   1      53.929  25.665  24.023  1.00  0.00    -0.237 OA
ATOM     82  O   UNL A   1      54.663  25.242  26.346  1.00  0.00    -0.237 OA
ATOM     83  O   UNL A   1      53.585  23.446  25.048  1.00  0.00    -0.744 OA
ENDBRANCH  79  80
ENDBRANCH  51  74
BRANCH  63  84
ATOM     84  C   UNL A   1      47.491  32.216  29.829  1.00  0.00    -0.014 A 
ATOM     85  C   UNL A   1      47.986  32.339  31.139  1.00  0.00     0.010 A 
ATOM     86  C   UNL A   1      47.712  33.258  28.910  1.00  0.00     0.010 A 
ATOM     87  C   UNL A   1      48.650  33.502  31.535  1.00  0.00     0.020 A 
ATOM     88  C   UNL A   1      48.404  34.408  29.293  1.00  0.00     0.020 A 
ATOM     89  C   UNL A   1      48.852  34.531  30.609  1.00  0.00     0.054 A 
BRANCH  89  90
ATOM     90  S   UNL A   1      49.739  36.020  31.141  1.00  0.00     0.124 S 
ATOM     91  O   UNL A   1      49.975  35.745  32.555  1.00  0.00    -0.237 OA
ATOM     92  O   UNL A   1      50.927  36.007  30.290  1.00  0.00    -0.237 OA
ATOM     93  O   UNL A   1      48.795  37.102  30.865  1.00  0.00    -0.744 OA
ENDBRANCH  89  90
ENDBRANCH  63  84
ENDBRANCH  37  38
ENDBRANCH  29  32
ENDBRANCH  27  28
ENDBRANCH  26  27
ENDBRANCH   1  26
TORSDOF 18
ENDMDL
MODEL 3
REMARK VINA RESULT:     -10.9      2.332      3.261
REMARK SMILES CC1(C)NC(=O)N(CCC(=O)N2CCC[C@H]2C(=O)NCCCCNC(=O)c2ccc(-c3c4nc(c(-c5ccc(S(=O)(=O)[O-])cc5)c5ccc([nH]5)c(-c5ccc(S(=O)(=O)[O-])cc5)c5nc(c(-c6ccc(S(=O)(=O)[O-])cc6)c6ccc3[nH]6)C=C5)C=C4)cc2)C1=O
REMARK SMILES IDX 21 1 20 2 19 3 17 4 18 5 16 7 12 8 13 9 14 10 15 11 10 12
REMARK SMILES IDX 11 13 9 14 8 15 7 16 1 17 2 18 3 19 4 20 87 21 5 22 88 24
REMARK SMILES IDX 6 25 22 26 23 27 24 28 25 29 26 31 27 32 28 33 86 34 29 35
REMARK SMILES IDX 85 36 30 37 31 38 32 39 79 40 33 41 84 42 78 43 80 44 34 45
REMARK SMILES IDX 83 46 77 47 76 48 35 50 65 51 46 52 64 53 47 54 50 55 63 56
REMARK SMILES IDX 81 57 48 58 49 59 62 61 82 62 51 63 36 64 37 65 45 66 38 67
REMARK SMILES IDX 44 68 39 69 40 70 41 71 42 72 43 73 66 74 67 75 75 76 68 77
REMARK SMILES IDX 74 78 69 79 70 80 71 81 72 82 73 83 52 84 53 85 61 86 54 87
REMARK SMILES IDX 60 88 55 89 56 90 57 91 58 92 59 93
REMARK H PARENT 19 6 4 23 24 30 80 49 50 60
REMARK Flexibility Score: inf
ROOT
ATOM      1  C   UNL A   1      35.248  24.161  24.700  1.00  0.00     0.023 C 
ENDROOT
BRANCH   1   2
ATOM      2  C   UNL A   1      34.241  25.296  24.868  1.00  0.00     0.116 C 
BRANCH   2   3
ATOM      3  N   UNL A   1      33.893  25.833  23.583  1.00  0.00    -0.354 N 
ATOM      4  C   UNL A   1      33.039  25.246  22.717  1.00  0.00     0.242 C 
ATOM      5  O   UNL A   1      33.429  25.172  21.552  1.00  0.00    -0.273 OA
ATOM      6  H   UNL A   1      34.306  26.685  23.314  1.00  0.00     0.163 HD
BRANCH   4   7
ATOM      7  C   UNL A   1      31.681  24.693  23.160  1.00  0.00     0.174 C 
ATOM      8  N   UNL A   1      31.696  23.631  24.140  1.00  0.00    -0.331 N 
ATOM      9  C   UNL A   1      31.104  24.090  25.380  1.00  0.00     0.120 C 
ATOM     10  C   UNL A   1      30.199  25.258  25.005  1.00  0.00     0.024 C 
ATOM     11  C   UNL A   1      30.621  25.696  23.607  1.00  0.00     0.037 C 
BRANCH   8  12
ATOM     12  C   UNL A   1      31.933  22.293  23.887  1.00  0.00     0.225 C 
ATOM     13  O   UNL A   1      32.035  21.883  22.726  1.00  0.00    -0.275 OA
BRANCH  12  14
ATOM     14  C   UNL A   1      31.948  21.277  25.036  1.00  0.00     0.122 C 
BRANCH  14  15
ATOM     15  C   UNL A   1      33.289  20.844  25.655  1.00  0.00     0.140 C 
BRANCH  15  16
ATOM     16  N   UNL A   1      33.882  19.601  25.164  1.00  0.00    -0.262 N 
ATOM     17  C   UNL A   1      34.053  16.838  23.044  1.00  0.00     0.045 C 
ATOM     18  C   UNL A   1      34.229  17.351  24.464  1.00  0.00     0.115 C 
ATOM     19  C   UNL A   1      34.218  16.180  25.446  1.00  0.00     0.045 C 
ATOM     20  N   UNL A   1      35.444  18.128  24.567  1.00  0.00    -0.324 N 
ATOM     21  C   UNL A   1      33.197  18.459  24.810  1.00  0.00     0.255 C 
ATOM     22  C   UNL A   1      35.207  19.441  24.896  1.00  0.00     0.325 C 
ATOM     23  H   UNL A   1      36.344  17.756  24.418  1.00  0.00     0.166 HD
ATOM     24  O   UNL A   1      31.982  18.337  24.737  1.00  0.00    -0.272 OA
ATOM     25  O   UNL A   1      36.091  20.279  24.990  1.00  0.00    -0.248 OA
ENDBRANCH  15  16
ENDBRANCH  14  15
ENDBRANCH  12  14
ENDBRANCH   8  12
ENDBRANCH   4   7
ENDBRANCH   2   3
ENDBRANCH   1   2
BRANCH   1  26
ATOM     26  C   UNL A   1      35.659  23.486  26.014  1.00  0.00     0.023 C 
BRANCH  26  27
ATOM     27  C   UNL A   1      37.101  23.742  26.435  1.00  0.00     0.116 C 
BRANCH  27  28
ATOM     28  N   UNL A   1      37.948  22.575  26.241  1.00  0.00    -0.352 N 
ATOM     29  C   UNL A   1      39.305  22.471  26.357  1.00  0.00     0.251 C 
ATOM     30  H   UNL A   1      37.477  21.746  25.991  1.00  0.00     0.163 HD
ATOM     31  O   UNL A   1      39.876  21.427  26.067  1.00  0.00    -0.269 OA
BRANCH  29  32
ATOM     32  C   UNL A   1      40.057  23.654  26.792  1.00  0.00     0.039 A 
ATOM     33  C   UNL A   1      40.099  24.756  25.939  1.00  0.00     0.014 A 
ATOM     34  C   UNL A   1      40.642  23.692  28.061  1.00  0.00     0.014 A 
ATOM     35  C   UNL A   1      40.705  25.926  26.381  1.00  0.00     0.010 A 
ATOM     36  C   UNL A   1      41.180  24.884  28.525  1.00  0.00     0.010 A 
ATOM     37  C   UNL A   1      41.224  26.006  27.684  1.00  0.00    -0.014 A 
BRANCH  37  38
ATOM     38  C   UNL A   1      41.818  27.269  28.173  1.00  0.00     0.031 A 
ATOM     39  C   UNL A   1      43.308  27.457  28.141  1.00  0.00     0.074 A 
ATOM     40  C   UNL A   1      41.011  28.227  28.667  1.00  0.00     0.049 A 
ATOM     41  N   UNL A   1      44.013  28.495  28.506  1.00  0.00    -0.248 NA
ATOM     42  C   UNL A   1      44.115  26.324  27.655  1.00  0.00     0.031 C 
ATOM     43  C   UNL A   1      39.553  28.127  28.790  1.00  0.00     0.029 A 
ATOM     44  N   UNL A   1      41.300  29.477  29.150  1.00  0.00    -0.354 N 
ATOM     45  C   UNL A   1      45.339  28.140  28.302  1.00  0.00     0.074 A 
ATOM     46  C   UNL A   1      45.348  26.771  27.839  1.00  0.00     0.031 C 
ATOM     47  C   UNL A   1      39.073  29.282  29.278  1.00  0.00     0.029 A 
ATOM     48  C   UNL A   1      40.188  30.187  29.535  1.00  0.00     0.049 A 
ATOM     49  H   UNL A   1      42.216  29.831  29.216  1.00  0.00     0.167 HD
ATOM     50  C   UNL A   1      46.450  28.896  28.466  1.00  0.00     0.031 A 
ATOM     51  C   UNL A   1      40.080  31.432  30.038  1.00  0.00     0.031 A 
ATOM     52  C   UNL A   1      46.427  30.259  28.924  1.00  0.00     0.049 A 
ATOM     53  C   UNL A   1      41.330  32.250  30.213  1.00  0.00     0.074 A 
ATOM     54  C   UNL A   1      47.488  31.134  29.076  1.00  0.00     0.029 A 
ATOM     55  N   UNL A   1      45.284  30.946  29.306  1.00  0.00    -0.354 N 
ATOM     56  N   UNL A   1      42.573  31.922  29.946  1.00  0.00    -0.248 NA
ATOM     57  C   UNL A   1      41.163  33.608  30.743  1.00  0.00     0.031 C 
ATOM     58  C   UNL A   1      46.994  32.331  29.604  1.00  0.00     0.029 A 
ATOM     59  C   UNL A   1      45.616  32.225  29.719  1.00  0.00     0.049 A 
ATOM     60  H   UNL A   1      44.371  30.578  29.286  1.00  0.00     0.167 HD
ATOM     61  C   UNL A   1      43.333  33.046  30.253  1.00  0.00     0.074 A 
ATOM     62  C   UNL A   1      42.407  34.065  30.703  1.00  0.00     0.031 C 
ATOM     63  C   UNL A   1      44.676  33.219  30.172  1.00  0.00     0.031 A 
BRANCH  50  64
ATOM     64  C   UNL A   1      47.778  28.261  28.151  1.00  0.00    -0.014 A 
ATOM     65  C   UNL A   1      48.536  27.626  29.154  1.00  0.00     0.010 A 
ATOM     66  C   UNL A   1      48.261  28.264  26.831  1.00  0.00     0.010 A 
ATOM     67  C   UNL A   1      49.768  27.041  28.848  1.00  0.00     0.020 A 
ATOM     68  C   UNL A   1      49.478  27.653  26.514  1.00  0.00     0.020 A 
ATOM     69  C   UNL A   1      50.230  27.059  27.529  1.00  0.00     0.054 A 
BRANCH  69  70
ATOM     70  S   UNL A   1      51.817  26.263  27.157  1.00  0.00     0.124 S 
ATOM     71  O   UNL A   1      51.396  24.921  26.763  1.00  0.00    -0.237 OA
ATOM     72  O   UNL A   1      52.348  27.096  26.081  1.00  0.00    -0.237 OA
ATOM     73  O   UNL A   1      52.549  26.340  28.419  1.00  0.00    -0.744 OA
ENDBRANCH  69  70
ENDBRANCH  50  64
BRANCH  51  74
ATOM     74  C   UNL A   1      38.744  31.982  30.389  1.00  0.00    -0.014 A 
ATOM     75  C   UNL A   1      38.207  31.799  31.675  1.00  0.00     0.010 A 
ATOM     76  C   UNL A   1      38.001  32.705  29.437  1.00  0.00     0.010 A 
ATOM     77  C   UNL A   1      36.944  32.304  31.995  1.00  0.00     0.020 A 
ATOM     78  C   UNL A   1      36.751  33.239  29.762  1.00  0.00     0.020 A 
ATOM     79  C   UNL A   1      36.224  33.022  31.037  1.00  0.00     0.054 A 
BRANCH  79  80
ATOM     80  S   UNL A   1      34.603  33.702  31.488  1.00  0.00     0.124 S 
ATOM     81  O   UNL A   1      34.001  33.941  30.181  1.00  0.00    -0.237 OA
ATOM     82  O   UNL A   1      34.014  32.618  32.270  1.00  0.00    -0.237 OA
ATOM     83  O   UNL A   1      34.938  34.902  32.252  1.00  0.00    -0.744 OA
ENDBRANCH  79  80
ENDBRANCH  51  74
BRANCH  63  84
ATOM     84  C   UNL A   1      45.217  34.572  30.555  1.00  0.00    -0.014 A 
ATOM     85  C   UNL A   1      45.621  34.849  31.872  1.00  0.00     0.010 A 
ATOM     86  C   UNL A   1      45.353  35.567  29.571  1.00  0.00     0.010 A 
ATOM     87  C   UNL A   1      46.110  36.113  32.208  1.00  0.00     0.020 A 
ATOM     88  C   UNL A   1      45.873  36.822  29.896  1.00  0.00     0.020 A 
ATOM     89  C   UNL A   1      46.230  37.093  31.218  1.00  0.00     0.054 A 
BRANCH  89  90
ATOM     90  S   UNL A   1      46.890  38.718  31.673  1.00  0.00     0.124 S 
ATOM     91  O   UNL A   1      46.038  39.619  30.904  1.00  0.00    -0.237 OA
ATOM     92  O   UNL A   1      46.693  38.749  33.121  1.00  0.00    -0.237 OA
ATOM     93  O   UNL A   1      48.286  38.659  31.243  1.00  0.00    -0.744 OA
ENDBRANCH  89  90
ENDBRANCH  63  84
ENDBRANCH  37  38
ENDBRANCH  29  32
ENDBRANCH  27  28
ENDBRANCH  26  27
ENDBRANCH   1  26
TORSDOF 18
ENDMDL
