MODEL 1
REMARK VINA RESULT:     -12.2      0.000      0.000
REMARK SMILES O=C(C[C@H]1C[C@H]2CC[C@@H](C1)N2C(=O)NCc1ncn[nH]1)NCCCCNC(=O)c1ccc(-c2c3nc(c(-c4ccc(S(=O)(=O)[O-])cc4)c4ccc([nH]4)c(-c4ccc(S(=O)(=O)[O-])cc4)c4nc(c(-c5ccc(S(=O)(=O)[O-])cc5)c5ccc2[nH]5)C=C4)C=C3)cc1
REMARK SMILES IDX 23 1 22 2 21 3 1 4 2 5 3 7 4 8 5 9 10 10 6 11 9 12 7 13
REMARK SMILES IDX 11 14 8 15 12 16 13 17 14 18 15 20 16 21 17 22 20 23 18 24
REMARK SMILES IDX 19 25 24 27 25 28 26 29 27 30 28 32 29 33 30 34 88 35 31 36
REMARK SMILES IDX 87 37 32 38 33 39 34 40 81 41 35 42 86 43 80 44 82 45 36 46
REMARK SMILES IDX 85 47 79 48 78 49 37 51 67 52 48 53 66 54 49 55 52 56 65 57
REMARK SMILES IDX 83 58 50 59 51 60 64 62 84 63 53 64 38 65 39 66 47 67 40 68
REMARK SMILES IDX 46 69 41 70 42 71 43 72 44 73 45 74 68 75 69 76 77 77 70 78
REMARK SMILES IDX 76 79 71 80 72 81 73 82 74 83 75 84 54 85 55 86 63 87 56 88
REMARK SMILES IDX 62 89 57 90 58 91 59 92 60 93 61 94
REMARK H PARENT 21 6 14 19 20 26 26 31 82 50 52 61
REMARK Flexibility Score: inf
ROOT
ATOM      1  C   UNL A   1      37.970  21.785  25.522  1.00  0.00     0.023 C 
ENDROOT
BRANCH   1   2
ATOM      2  C   UNL A   1      36.615  21.065  25.585  1.00  0.00     0.116 C 
BRANCH   2   3
ATOM      3  N   UNL A   1      35.553  21.985  25.930  1.00  0.00    -0.356 N 
ATOM      4  O   UNL A   1      33.762  20.749  25.249  1.00  0.00    -0.275 OA
ATOM      5  C   UNL A   1      34.209  21.784  25.737  1.00  0.00     0.220 C 
ATOM      6  H   UNL A   1      35.819  22.837  26.345  1.00  0.00     0.163 HD
BRANCH   5   7
ATOM      7  C   UNL A   1      33.299  23.000  25.995  1.00  0.00     0.103 C 
BRANCH   7   8
ATOM      8  C   UNL A   1      33.577  24.387  25.352  1.00  0.00     0.002 C 
ATOM      9  C   UNL A   1      34.377  24.418  24.047  1.00  0.00     0.029 C 
ATOM     10  C   UNL A   1      32.272  25.228  25.136  1.00  0.00     0.029 C 
ATOM     11  C   UNL A   1      33.506  24.137  22.809  1.00  0.00     0.087 C 
ATOM     12  C   UNL A   1      31.623  25.125  23.715  1.00  0.00     0.087 C 
ATOM     13  C   UNL A   1      32.441  23.022  22.885  1.00  0.00     0.027 C 
ATOM     14  N   UNL A   1      32.642  25.289  22.678  1.00  0.00    -0.319 N 
ATOM     15  C   UNL A   1      31.170  23.695  23.428  1.00  0.00     0.027 C 
BRANCH  14  16
ATOM     16  C   UNL A   1      32.867  26.146  21.656  1.00  0.00     0.318 C 
ATOM     17  O   UNL A   1      33.156  25.728  20.530  1.00  0.00    -0.249 OA
ATOM     18  N   UNL A   1      32.723  27.470  21.763  1.00  0.00    -0.331 N 
ATOM     19  H   UNL A   1      32.984  27.952  20.945  1.00  0.00     0.165 HD
BRANCH  18  20
ATOM     20  C   UNL A   1      32.269  28.344  22.811  1.00  0.00     0.194 C 
BRANCH  20  21
ATOM     21  C   UNL A   1      30.915  28.840  22.465  1.00  0.00     0.143 A 
ATOM     22  N   UNL A   1      29.740  28.378  22.850  1.00  0.00    -0.218 NA
ATOM     23  N   UNL A   1      30.715  29.942  21.682  1.00  0.00    -0.262 N 
ATOM     24  C   UNL A   1      28.860  29.272  22.318  1.00  0.00     0.246 A 
ATOM     25  N   UNL A   1      29.407  30.227  21.564  1.00  0.00    -0.162 NA
ATOM     26  H   UNL A   1      31.436  30.461  21.259  1.00  0.00     0.192 HD
ENDBRANCH  20  21
ENDBRANCH  18  20
ENDBRANCH  14  16
ENDBRANCH   7   8
ENDBRANCH   5   7
ENDBRANCH   2   3
ENDBRANCH   1   2
BRANCH   1  27
ATOM     27  C   UNL A   1      37.980  23.284  25.865  1.00  0.00     0.023 C 
BRANCH  27  28
ATOM     28  C   UNL A   1      39.116  23.782  26.754  1.00  0.00     0.116 C 
BRANCH  28  29
ATOM     29  N   UNL A   1      40.248  24.257  25.983  1.00  0.00    -0.352 N 
ATOM     30  C   UNL A   1      41.011  25.392  26.123  1.00  0.00     0.251 C 
ATOM     31  H   UNL A   1      40.514  23.670  25.238  1.00  0.00     0.163 HD
ATOM     32  O   UNL A   1      41.809  25.677  25.234  1.00  0.00    -0.269 OA
BRANCH  30  33
ATOM     33  C   UNL A   1      40.878  26.287  27.302  1.00  0.00     0.039 A 
ATOM     34  C   UNL A   1      41.721  27.403  27.385  1.00  0.00     0.014 A 
ATOM     35  C   UNL A   1      39.995  26.021  28.352  1.00  0.00     0.014 A 
ATOM     36  C   UNL A   1      41.645  28.267  28.482  1.00  0.00     0.010 A 
ATOM     37  C   UNL A   1      39.876  26.919  29.418  1.00  0.00     0.010 A 
ATOM     38  C   UNL A   1      40.702  28.051  29.499  1.00  0.00    -0.014 A 
BRANCH  38  39
ATOM     39  C   UNL A   1      40.569  29.001  30.639  1.00  0.00     0.031 A 
ATOM     40  C   UNL A   1      41.433  28.859  31.865  1.00  0.00     0.074 A 
ATOM     41  C   UNL A   1      39.635  29.975  30.593  1.00  0.00     0.049 A 
ATOM     42  N   UNL A   1      41.421  29.565  32.970  1.00  0.00    -0.248 NA
ATOM     43  C   UNL A   1      42.428  27.776  31.856  1.00  0.00     0.031 C 
ATOM     44  C   UNL A   1      38.712  30.211  29.481  1.00  0.00     0.029 A 
ATOM     45  N   UNL A   1      39.303  30.943  31.510  1.00  0.00    -0.354 N 
ATOM     46  C   UNL A   1      42.394  29.005  33.790  1.00  0.00     0.074 A 
ATOM     47  C   UNL A   1      42.948  27.876  33.072  1.00  0.00     0.031 C 
ATOM     48  C   UNL A   1      37.931  31.263  29.774  1.00  0.00     0.029 A 
ATOM     49  C   UNL A   1      38.267  31.753  31.109  1.00  0.00     0.049 A 
ATOM     50  H   UNL A   1      39.764  31.047  32.375  1.00  0.00     0.167 HD
ATOM     51  C   UNL A   1      42.801  29.398  35.022  1.00  0.00     0.031 A 
ATOM     52  C   UNL A   1      37.644  32.766  31.741  1.00  0.00     0.031 A 
ATOM     53  C   UNL A   1      42.253  30.520  35.740  1.00  0.00     0.049 A 
ATOM     54  C   UNL A   1      38.099  33.174  33.116  1.00  0.00     0.074 A 
ATOM     55  C   UNL A   1      42.632  31.018  36.975  1.00  0.00     0.029 A 
ATOM     56  N   UNL A   1      41.209  31.315  35.293  1.00  0.00    -0.354 N 
ATOM     57  N   UNL A   1      39.057  32.662  33.851  1.00  0.00    -0.248 NA
ATOM     58  C   UNL A   1      37.395  34.303  33.740  1.00  0.00     0.031 C 
ATOM     59  C   UNL A   1      41.785  32.085  37.297  1.00  0.00     0.029 A 
ATOM     60  C   UNL A   1      40.917  32.288  36.237  1.00  0.00     0.049 A 
ATOM     61  H   UNL A   1      40.744  31.205  34.433  1.00  0.00     0.167 HD
ATOM     62  C   UNL A   1      39.087  33.423  35.015  1.00  0.00     0.074 A 
ATOM     63  C   UNL A   1      38.062  34.438  34.879  1.00  0.00     0.031 C 
ATOM     64  C   UNL A   1      39.894  33.293  36.096  1.00  0.00     0.031 A 
BRANCH  51  65
ATOM     65  C   UNL A   1      43.897  28.599  35.681  1.00  0.00    -0.014 A 
ATOM     66  C   UNL A   1      45.250  28.940  35.501  1.00  0.00     0.010 A 
ATOM     67  C   UNL A   1      43.570  27.523  36.525  1.00  0.00     0.010 A 
ATOM     68  C   UNL A   1      46.257  28.193  36.118  1.00  0.00     0.020 A 
ATOM     69  C   UNL A   1      44.573  26.789  37.167  1.00  0.00     0.020 A 
ATOM     70  C   UNL A   1      45.912  27.118  36.943  1.00  0.00     0.054 A 
BRANCH  70  71
ATOM     71  S   UNL A   1      47.239  26.176  37.745  1.00  0.00     0.124 S 
ATOM     72  O   UNL A   1      46.969  24.818  37.277  1.00  0.00    -0.237 OA
ATOM     73  O   UNL A   1      48.445  26.797  37.204  1.00  0.00    -0.237 OA
ATOM     74  O   UNL A   1      47.012  26.399  39.170  1.00  0.00    -0.744 OA
ENDBRANCH  70  71
ENDBRANCH  51  65
BRANCH  52  75
ATOM     75  C   UNL A   1      36.513  33.469  31.075  1.00  0.00    -0.014 A 
ATOM     76  C   UNL A   1      35.277  33.618  31.728  1.00  0.00     0.010 A 
ATOM     77  C   UNL A   1      36.674  34.007  29.784  1.00  0.00     0.010 A 
ATOM     78  C   UNL A   1      34.218  34.278  31.097  1.00  0.00     0.020 A 
ATOM     79  C   UNL A   1      35.626  34.691  29.162  1.00  0.00     0.020 A 
ATOM     80  C   UNL A   1      34.401  34.813  29.818  1.00  0.00     0.054 A 
BRANCH  80  81
ATOM     81  S   UNL A   1      33.032  35.714  29.039  1.00  0.00     0.124 S 
ATOM     82  O   UNL A   1      33.736  36.761  28.306  1.00  0.00    -0.237 OA
ATOM     83  O   UNL A   1      32.399  34.682  28.222  1.00  0.00    -0.237 OA
ATOM     84  O   UNL A   1      32.236  36.171  30.176  1.00  0.00    -0.744 OA
ENDBRANCH  80  81
ENDBRANCH  52  75
BRANCH  64  85
ATOM     85  C   UNL A   1      39.727  34.290  37.213  1.00  0.00    -0.014 A 
ATOM     86  C   UNL A   1      38.980  33.979  38.364  1.00  0.00     0.010 A 
ATOM     87  C   UNL A   1      40.371  35.538  37.130  1.00  0.00     0.010 A 
ATOM     88  C   UNL A   1      38.856  34.912  39.397  1.00  0.00     0.020 A 
ATOM     89  C   UNL A   1      40.271  36.462  38.174  1.00  0.00     0.020 A 
ATOM     90  C   UNL A   1      39.501  36.148  39.296  1.00  0.00     0.054 A 
BRANCH  90  91
ATOM     91  S   UNL A   1      39.360  37.324  40.669  1.00  0.00     0.124 S 
ATOM     92  O   UNL A   1      40.729  37.819  40.788  1.00  0.00    -0.237 OA
ATOM     93  O   UNL A   1      38.386  38.291  40.167  1.00  0.00    -0.237 OA
ATOM     94  O   UNL A   1      38.895  36.502  41.784  1.00  0.00    -0.744 OA
ENDBRANCH  90  91
ENDBRANCH  64  85
ENDBRANCH  38  39
ENDBRANCH  30  33
ENDBRANCH  28  29
ENDBRANCH  27  28
ENDBRANCH   1  27
TORSDOF 18
ENDMDL
MODEL 2
REMARK VINA RESULT:     -11.9      4.640     10.649
REMARK SMILES O=C(C[C@H]1C[C@H]2CC[C@@H](C1)N2C(=O)NCc1ncn[nH]1)NCCCCNC(=O)c1ccc(-c2c3nc(c(-c4ccc(S(=O)(=O)[O-])cc4)c4ccc([nH]4)c(-c4ccc(S(=O)(=O)[O-])cc4)c4nc(c(-c5ccc(S(=O)(=O)[O-])cc5)c5ccc2[nH]5)C=C4)C=C3)cc1
REMARK SMILES IDX 23 1 22 2 21 3 1 4 2 5 3 7 4 8 5 9 10 10 6 11 9 12 7 13
REMARK SMILES IDX 11 14 8 15 12 16 13 17 14 18 15 20 16 21 17 22 20 23 18 24
REMARK SMILES IDX 19 25 24 27 25 28 26 29 27 30 28 32 29 33 30 34 88 35 31 36
REMARK SMILES IDX 87 37 32 38 33 39 34 40 81 41 35 42 86 43 80 44 82 45 36 46
REMARK SMILES IDX 85 47 79 48 78 49 37 51 67 52 48 53 66 54 49 55 52 56 65 57
REMARK SMILES IDX 83 58 50 59 51 60 64 62 84 63 53 64 38 65 39 66 47 67 40 68
REMARK SMILES IDX 46 69 41 70 42 71 43 72 44 73 45 74 68 75 69 76 77 77 70 78
REMARK SMILES IDX 76 79 71 80 72 81 73 82 74 83 75 84 54 85 55 86 63 87 56 88
REMARK SMILES IDX 62 89 57 90 58 91 59 92 60 93 61 94
REMARK H PARENT 21 6 14 19 20 26 26 31 82 50 52 61
REMARK Flexibility Score: inf
ROOT
ATOM      1  C   UNL A   1      33.412  28.703  24.298  1.00  0.00     0.023 C 
ENDROOT
BRANCH   1   2
ATOM      2  C   UNL A   1      32.816  28.127  23.006  1.00  0.00     0.116 C 
BRANCH   2   3
ATOM      3  N   UNL A   1      33.318  26.794  22.750  1.00  0.00    -0.356 N 
ATOM      4  O   UNL A   1      31.554  25.958  21.571  1.00  0.00    -0.275 OA
ATOM      5  C   UNL A   1      32.667  25.797  22.067  1.00  0.00     0.220 C 
ATOM      6  H   UNL A   1      34.214  26.582  23.098  1.00  0.00     0.163 HD
BRANCH   5   7
ATOM      7  C   UNL A   1      33.324  24.404  22.113  1.00  0.00     0.103 C 
BRANCH   7   8
ATOM      8  C   UNL A   1      32.734  23.244  22.959  1.00  0.00     0.002 C 
ATOM      9  C   UNL A   1      33.649  22.059  23.279  1.00  0.00     0.029 C 
ATOM     10  C   UNL A   1      32.098  23.737  24.305  1.00  0.00     0.029 C 
ATOM     11  C   UNL A   1      34.569  22.328  24.484  1.00  0.00     0.087 C 
ATOM     12  C   UNL A   1      33.029  23.671  25.562  1.00  0.00     0.087 C 
ATOM     13  C   UNL A   1      35.239  23.712  24.616  1.00  0.00     0.027 C 
ATOM     14  N   UNL A   1      33.694  22.370  25.634  1.00  0.00    -0.319 N 
ATOM     15  C   UNL A   1      34.238  24.587  25.389  1.00  0.00     0.027 C 
BRANCH  14  16
ATOM     16  C   UNL A   1      33.741  21.345  26.514  1.00  0.00     0.318 C 
ATOM     17  O   UNL A   1      34.227  21.497  27.640  1.00  0.00    -0.249 OA
ATOM     18  N   UNL A   1      33.212  20.142  26.270  1.00  0.00    -0.331 N 
ATOM     19  H   UNL A   1      33.386  19.493  26.989  1.00  0.00     0.165 HD
BRANCH  18  20
ATOM     20  C   UNL A   1      32.444  19.591  25.187  1.00  0.00     0.194 C 
BRANCH  20  21
ATOM     21  C   UNL A   1      33.051  18.300  24.781  1.00  0.00     0.143 A 
ATOM     22  N   UNL A   1      34.285  18.055  24.382  1.00  0.00    -0.218 NA
ATOM     23  N   UNL A   1      32.361  17.121  24.817  1.00  0.00    -0.262 N 
ATOM     24  C   UNL A   1      34.307  16.699  24.243  1.00  0.00     0.246 A 
ATOM     25  N   UNL A   1      33.142  16.087  24.463  1.00  0.00    -0.162 NA
ATOM     26  H   UNL A   1      31.413  17.040  25.070  1.00  0.00     0.192 HD
ENDBRANCH  20  21
ENDBRANCH  18  20
ENDBRANCH  14  16
ENDBRANCH   7   8
ENDBRANCH   5   7
ENDBRANCH   2   3
ENDBRANCH   1   2
BRANCH   1  27
ATOM     27  C   UNL A   1      32.967  28.055  25.620  1.00  0.00     0.023 C 
BRANCH  27  28
ATOM     28  C   UNL A   1      33.818  28.347  26.853  1.00  0.00     0.116 C 
BRANCH  28  29
ATOM     29  N   UNL A   1      33.679  29.718  27.303  1.00  0.00    -0.352 N 
ATOM     30  C   UNL A   1      34.525  30.502  28.051  1.00  0.00     0.251 C 
ATOM     31  H   UNL A   1      32.843  30.160  27.027  1.00  0.00     0.163 HD
ATOM     32  O   UNL A   1      34.111  31.583  28.466  1.00  0.00    -0.269 OA
BRANCH  30  33
ATOM     33  C   UNL A   1      35.906  30.070  28.387  1.00  0.00     0.039 A 
ATOM     34  C   UNL A   1      36.884  30.138  27.387  1.00  0.00     0.014 A 
ATOM     35  C   UNL A   1      36.245  29.541  29.636  1.00  0.00     0.014 A 
ATOM     36  C   UNL A   1      38.196  29.728  27.650  1.00  0.00     0.010 A 
ATOM     37  C   UNL A   1      37.569  29.190  29.918  1.00  0.00     0.010 A 
ATOM     38  C   UNL A   1      38.560  29.275  28.928  1.00  0.00    -0.014 A 
BRANCH  38  39
ATOM     39  C   UNL A   1      39.969  28.898  29.237  1.00  0.00     0.031 A 
ATOM     40  C   UNL A   1      40.909  29.887  29.875  1.00  0.00     0.074 A 
ATOM     41  C   UNL A   1      40.421  27.671  28.904  1.00  0.00     0.049 A 
ATOM     42  N   UNL A   1      42.178  29.748  30.171  1.00  0.00    -0.248 NA
ATOM     43  C   UNL A   1      40.357  31.209  30.210  1.00  0.00     0.031 C 
ATOM     44  C   UNL A   1      39.629  26.624  28.256  1.00  0.00     0.029 A 
ATOM     45  N   UNL A   1      41.662  27.101  29.056  1.00  0.00    -0.354 N 
ATOM     46  C   UNL A   1      42.579  30.964  30.713  1.00  0.00     0.074 A 
ATOM     47  C   UNL A   1      41.429  31.842  30.667  1.00  0.00     0.031 C 
ATOM     48  C   UNL A   1      40.396  25.535  28.082  1.00  0.00     0.029 A 
ATOM     49  C   UNL A   1      41.745  25.819  28.566  1.00  0.00     0.049 A 
ATOM     50  H   UNL A   1      42.421  27.567  29.477  1.00  0.00     0.167 HD
ATOM     51  C   UNL A   1      43.788  31.316  31.216  1.00  0.00     0.031 A 
ATOM     52  C   UNL A   1      42.787  24.967  28.498  1.00  0.00     0.031 A 
ATOM     53  C   UNL A   1      44.935  30.446  31.262  1.00  0.00     0.049 A 
ATOM     54  C   UNL A   1      44.125  25.385  29.044  1.00  0.00     0.074 A 
ATOM     55  C   UNL A   1      46.188  30.704  31.792  1.00  0.00     0.029 A 
ATOM     56  N   UNL A   1      44.972  29.155  30.761  1.00  0.00    -0.354 N 
ATOM     57  N   UNL A   1      44.467  26.523  29.600  1.00  0.00    -0.248 NA
ATOM     58  C   UNL A   1      45.213  24.401  28.963  1.00  0.00     0.031 C 
ATOM     59  C   UNL A   1      46.999  29.585  31.567  1.00  0.00     0.029 A 
ATOM     60  C   UNL A   1      46.233  28.610  30.949  1.00  0.00     0.049 A 
ATOM     61  H   UNL A   1      44.216  28.693  30.333  1.00  0.00     0.167 HD
ATOM     62  C   UNL A   1      45.804  26.382  29.957  1.00  0.00     0.074 A 
ATOM     63  C   UNL A   1      46.203  25.045  29.567  1.00  0.00     0.031 C 
ATOM     64  C   UNL A   1      46.624  27.279  30.556  1.00  0.00     0.031 A 
BRANCH  51  65
ATOM     65  C   UNL A   1      43.936  32.717  31.754  1.00  0.00    -0.014 A 
ATOM     66  C   UNL A   1      44.416  33.759  30.941  1.00  0.00     0.010 A 
ATOM     67  C   UNL A   1      43.548  33.005  33.075  1.00  0.00     0.010 A 
ATOM     68  C   UNL A   1      44.547  35.053  31.451  1.00  0.00     0.020 A 
ATOM     69  C   UNL A   1      43.650  34.304  33.582  1.00  0.00     0.020 A 
ATOM     70  C   UNL A   1      44.168  35.317  32.771  1.00  0.00     0.054 A 
BRANCH  70  71
ATOM     71  S   UNL A   1      44.332  37.009  33.402  1.00  0.00     0.124 S 
ATOM     72  O   UNL A   1      44.911  37.704  32.253  1.00  0.00    -0.237 OA
ATOM     73  O   UNL A   1      42.953  37.368  33.722  1.00  0.00    -0.237 OA
ATOM     74  O   UNL A   1      45.219  36.867  34.554  1.00  0.00    -0.744 OA
ENDBRANCH  70  71
ENDBRANCH  51  65
BRANCH  52  75
ATOM     75  C   UNL A   1      42.604  23.623  27.882  1.00  0.00    -0.014 A 
ATOM     76  C   UNL A   1      43.005  23.381  26.557  1.00  0.00     0.010 A 
ATOM     77  C   UNL A   1      42.038  22.573  28.629  1.00  0.00     0.010 A 
ATOM     78  C   UNL A   1      42.831  22.118  25.984  1.00  0.00     0.020 A 
ATOM     79  C   UNL A   1      41.886  21.302  28.068  1.00  0.00     0.020 A 
ATOM     80  C   UNL A   1      42.274  21.085  26.745  1.00  0.00     0.054 A 
BRANCH  80  81
ATOM     81  S   UNL A   1      42.106  19.438  26.001  1.00  0.00     0.124 S 
ATOM     82  O   UNL A   1      40.663  19.336  25.813  1.00  0.00    -0.237 OA
ATOM     83  O   UNL A   1      42.898  19.561  24.780  1.00  0.00    -0.237 OA
ATOM     84  O   UNL A   1      42.671  18.549  27.014  1.00  0.00    -0.744 OA
ENDBRANCH  80  81
ENDBRANCH  52  75
BRANCH  64  85
ATOM     85  C   UNL A   1      48.033  26.840  30.860  1.00  0.00    -0.014 A 
ATOM     86  C   UNL A   1      49.077  27.048  29.940  1.00  0.00     0.010 A 
ATOM     87  C   UNL A   1      48.324  26.257  32.106  1.00  0.00     0.010 A 
ATOM     88  C   UNL A   1      50.380  26.652  30.250  1.00  0.00     0.020 A 
ATOM     89  C   UNL A   1      49.631  25.884  32.430  1.00  0.00     0.020 A 
ATOM     90  C   UNL A   1      50.649  26.071  31.494  1.00  0.00     0.054 A 
BRANCH  90  91
ATOM     91  S   UNL A   1      52.357  25.604  31.890  1.00  0.00     0.124 S 
ATOM     92  O   UNL A   1      52.231  24.170  32.135  1.00  0.00    -0.237 OA
ATOM     93  O   UNL A   1      53.081  25.972  30.675  1.00  0.00    -0.237 OA
ATOM     94  O   UNL A   1      52.674  26.413  33.065  1.00  0.00    -0.744 OA
ENDBRANCH  90  91
ENDBRANCH  64  85
ENDBRANCH  38  39
ENDBRANCH  30  33
ENDBRANCH  28  29
ENDBRANCH  27  28
ENDBRANCH   1  27
TORSDOF 18
ENDMDL
MODEL 3
REMARK VINA RESULT:     -11.8      3.376      4.098
REMARK SMILES O=C(C[C@H]1C[C@H]2CC[C@@H](C1)N2C(=O)NCc1ncn[nH]1)NCCCCNC(=O)c1ccc(-c2c3nc(c(-c4ccc(S(=O)(=O)[O-])cc4)c4ccc([nH]4)c(-c4ccc(S(=O)(=O)[O-])cc4)c4nc(c(-c5ccc(S(=O)(=O)[O-])cc5)c5ccc2[nH]5)C=C4)C=C3)cc1
REMARK SMILES IDX 23 1 22 2 21 3 1 4 2 5 3 7 4 8 5 9 10 10 6 11 9 12 7 13
REMARK SMILES IDX 11 14 8 15 12 16 13 17 14 18 15 20 16 21 17 22 20 23 18 24
REMARK SMILES IDX 19 25 24 27 25 28 26 29 27 30 28 32 29 33 30 34 88 35 31 36
REMARK SMILES IDX 87 37 32 38 33 39 34 40 81 41 35 42 86 43 80 44 82 45 36 46
REMARK SMILES IDX 85 47 79 48 78 49 37 51 67 52 48 53 66 54 49 55 52 56 65 57
REMARK SMILES IDX 83 58 50 59 51 60 64 62 84 63 53 64 38 65 39 66 47 67 40 68
REMARK SMILES IDX 46 69 41 70 42 71 43 72 44 73 45 74 68 75 69 76 77 77 70 78
REMARK SMILES IDX 76 79 71 80 72 81 73 82 74 83 75 84 54 85 55 86 63 87 56 88
REMARK SMILES IDX 62 89 57 90 58 91 59 92 60 93 61 94
REMARK H PARENT 21 6 14 19 20 26 26 31 82 50 52 61
REMARK Flexibility Score: inf
ROOT
ATOM      1  C   UNL A   1      35.427  21.868  24.271  1.00  0.00     0.023 C 
ENDROOT
BRANCH   1   2
ATOM      2  C   UNL A   1      33.979  21.371  24.382  1.00  0.00     0.116 C 
BRANCH   2   3
ATOM      3  N   UNL A   1      33.081  22.456  24.718  1.00  0.00    -0.356 N 
ATOM      4  O   UNL A   1      33.018  22.194  26.982  1.00  0.00    -0.275 OA
ATOM      5  C   UNL A   1      32.650  22.795  25.975  1.00  0.00     0.220 C 
ATOM      6  H   UNL A   1      32.748  23.005  23.971  1.00  0.00     0.163 HD
BRANCH   5   7
ATOM      7  C   UNL A   1      31.533  23.855  26.045  1.00  0.00     0.103 C 
BRANCH   7   8
ATOM      8  C   UNL A   1      31.839  25.355  26.311  1.00  0.00     0.002 C 
ATOM      9  C   UNL A   1      32.998  25.993  25.539  1.00  0.00     0.029 C 
ATOM     10  C   UNL A   1      30.580  26.272  26.129  1.00  0.00     0.029 C 
ATOM     11  C   UNL A   1      32.595  26.435  24.121  1.00  0.00     0.087 C 
ATOM     12  C   UNL A   1      30.425  26.946  24.725  1.00  0.00     0.087 C 
ATOM     13  C   UNL A   1      31.695  25.507  23.278  1.00  0.00     0.027 C 
ATOM     14  N   UNL A   1      31.690  27.547  24.308  1.00  0.00    -0.319 N 
ATOM     15  C   UNL A   1      30.250  25.892  23.635  1.00  0.00     0.027 C 
BRANCH  14  16
ATOM     16  C   UNL A   1      32.124  28.787  23.988  1.00  0.00     0.318 C 
ATOM     17  O   UNL A   1      33.140  29.259  24.510  1.00  0.00    -0.249 OA
ATOM     18  N   UNL A   1      31.548  29.549  23.053  1.00  0.00    -0.331 N 
ATOM     19  H   UNL A   1      31.950  30.445  22.986  1.00  0.00     0.165 HD
BRANCH  18  20
ATOM     20  C   UNL A   1      30.471  29.344  22.122  1.00  0.00     0.194 C 
BRANCH  20  21
ATOM     21  C   UNL A   1      29.233  29.929  22.691  1.00  0.00     0.143 A 
ATOM     22  N   UNL A   1      28.991  31.179  23.036  1.00  0.00    -0.218 NA
ATOM     23  N   UNL A   1      28.101  29.193  22.897  1.00  0.00    -0.262 N 
ATOM     24  C   UNL A   1      27.676  31.159  23.393  1.00  0.00     0.246 A 
ATOM     25  N   UNL A   1      27.098  29.957  23.360  1.00  0.00    -0.162 NA
ATOM     26  H   UNL A   1      28.029  28.225  22.728  1.00  0.00     0.192 HD
ENDBRANCH  20  21
ENDBRANCH  18  20
ENDBRANCH  14  16
ENDBRANCH   7   8
ENDBRANCH   5   7
ENDBRANCH   2   3
ENDBRANCH   1   2
BRANCH   1  27
ATOM     27  C   UNL A   1      35.658  23.382  24.411  1.00  0.00     0.023 C 
BRANCH  27  28
ATOM     28  C   UNL A   1      36.631  23.835  25.497  1.00  0.00     0.116 C 
BRANCH  28  29
ATOM     29  N   UNL A   1      37.679  22.862  25.734  1.00  0.00    -0.352 N 
ATOM     30  C   UNL A   1      38.937  23.017  26.265  1.00  0.00     0.251 C 
ATOM     31  H   UNL A   1      37.452  21.939  25.473  1.00  0.00     0.163 HD
ATOM     32  O   UNL A   1      39.722  22.074  26.200  1.00  0.00    -0.269 OA
BRANCH  30  33
ATOM     33  C   UNL A   1      39.376  24.293  26.888  1.00  0.00     0.039 A 
ATOM     34  C   UNL A   1      38.999  24.547  28.213  1.00  0.00     0.014 A 
ATOM     35  C   UNL A   1      40.089  25.267  26.184  1.00  0.00     0.014 A 
ATOM     36  C   UNL A   1      39.374  25.740  28.839  1.00  0.00     0.010 A 
ATOM     37  C   UNL A   1      40.517  26.432  26.829  1.00  0.00     0.010 A 
ATOM     38  C   UNL A   1      40.162  26.685  28.163  1.00  0.00    -0.014 A 
BRANCH  38  39
ATOM     39  C   UNL A   1      40.622  27.930  28.842  1.00  0.00     0.031 A 
ATOM     40  C   UNL A   1      41.998  28.012  29.450  1.00  0.00     0.074 A 
ATOM     41  C   UNL A   1      39.783  28.981  28.952  1.00  0.00     0.049 A 
ATOM     42  N   UNL A   1      42.548  28.996  30.119  1.00  0.00    -0.248 NA
ATOM     43  C   UNL A   1      42.863  26.832  29.301  1.00  0.00     0.031 C 
ATOM     44  C   UNL A   1      38.414  29.029  28.435  1.00  0.00     0.029 A 
ATOM     45  N   UNL A   1      39.957  30.209  29.544  1.00  0.00    -0.354 N 
ATOM     46  C   UNL A   1      43.814  28.550  30.481  1.00  0.00     0.074 A 
ATOM     47  C   UNL A   1      43.936  27.193  29.992  1.00  0.00     0.031 C 
ATOM     48  C   UNL A   1      37.879  30.228  28.718  1.00  0.00     0.029 A 
ATOM     49  C   UNL A   1      38.849  31.020  29.471  1.00  0.00     0.049 A 
ATOM     50  H   UNL A   1      40.797  30.483  29.980  1.00  0.00     0.167 HD
ATOM     51  C   UNL A   1      44.794  29.211  31.147  1.00  0.00     0.031 A 
ATOM     52  C   UNL A   1      38.626  32.254  29.962  1.00  0.00     0.031 A 
ATOM     53  C   UNL A   1      44.677  30.561  31.635  1.00  0.00     0.049 A 
ATOM     54  C   UNL A   1      39.719  32.962  30.715  1.00  0.00     0.074 A 
ATOM     55  C   UNL A   1      45.632  31.326  32.283  1.00  0.00     0.029 A 
ATOM     56  N   UNL A   1      43.539  31.346  31.533  1.00  0.00    -0.354 N 
ATOM     57  N   UNL A   1      40.928  32.540  30.999  1.00  0.00    -0.248 NA
ATOM     58  C   UNL A   1      39.422  34.317  31.202  1.00  0.00     0.031 C 
ATOM     59  C   UNL A   1      45.056  32.557  32.617  1.00  0.00     0.029 A 
ATOM     60  C   UNL A   1      43.761  32.580  32.125  1.00  0.00     0.049 A 
ATOM     61  H   UNL A   1      42.698  31.069  31.105  1.00  0.00     0.167 HD
ATOM     62  C   UNL A   1      41.544  33.588  31.678  1.00  0.00     0.074 A 
ATOM     63  C   UNL A   1      40.579  34.666  31.748  1.00  0.00     0.031 C 
ATOM     64  C   UNL A   1      42.796  33.648  32.194  1.00  0.00     0.031 A 
BRANCH  51  65
ATOM     65  C   UNL A   1      46.086  28.475  31.394  1.00  0.00    -0.014 A 
ATOM     66  C   UNL A   1      46.251  27.662  32.530  1.00  0.00     0.010 A 
ATOM     67  C   UNL A   1      47.131  28.560  30.457  1.00  0.00     0.010 A 
ATOM     68  C   UNL A   1      47.453  26.983  32.747  1.00  0.00     0.020 A 
ATOM     69  C   UNL A   1      48.326  27.860  30.656  1.00  0.00     0.020 A 
ATOM     70  C   UNL A   1      48.485  27.091  31.811  1.00  0.00     0.054 A 
BRANCH  70  71
ATOM     71  S   UNL A   1      50.029  26.185  32.109  1.00  0.00     0.124 S 
ATOM     72  O   UNL A   1      49.694  25.405  33.299  1.00  0.00    -0.237 OA
ATOM     73  O   UNL A   1      50.192  25.415  30.880  1.00  0.00    -0.237 OA
ATOM     74  O   UNL A   1      51.017  27.241  32.316  1.00  0.00    -0.744 OA
ENDBRANCH  70  71
ENDBRANCH  51  65
BRANCH  52  75
ATOM     75  C   UNL A   1      37.301  32.904  29.757  1.00  0.00    -0.014 A 
ATOM     76  C   UNL A   1      36.407  33.062  30.829  1.00  0.00     0.010 A 
ATOM     77  C   UNL A   1      36.936  33.381  28.484  1.00  0.00     0.010 A 
ATOM     78  C   UNL A   1      35.164  33.671  30.631  1.00  0.00     0.020 A 
ATOM     79  C   UNL A   1      35.706  34.014  28.288  1.00  0.00     0.020 A 
ATOM     80  C   UNL A   1      34.823  34.146  29.361  1.00  0.00     0.054 A 
BRANCH  80  81
ATOM     81  S   UNL A   1      33.229  34.983  29.135  1.00  0.00     0.124 S 
ATOM     82  O   UNL A   1      33.643  36.323  28.733  1.00  0.00    -0.237 OA
ATOM     83  O   UNL A   1      32.592  34.176  28.097  1.00  0.00    -0.237 OA
ATOM     84  O   UNL A   1      32.606  34.889  30.454  1.00  0.00    -0.744 OA
ENDBRANCH  80  81
ENDBRANCH  52  75
BRANCH  64  85
ATOM     85  C   UNL A   1      43.214  34.935  32.855  1.00  0.00    -0.014 A 
ATOM     86  C   UNL A   1      43.723  36.010  32.104  1.00  0.00     0.010 A 
ATOM     87  C   UNL A   1      43.044  35.089  34.243  1.00  0.00     0.010 A 
ATOM     88  C   UNL A   1      44.085  37.203  32.735  1.00  0.00     0.020 A 
ATOM     89  C   UNL A   1      43.381  36.290  34.873  1.00  0.00     0.020 A 
ATOM     90  C   UNL A   1      43.913  37.336  34.116  1.00  0.00     0.054 A 
BRANCH  90  91
ATOM     91  S   UNL A   1      44.350  38.909  34.905  1.00  0.00     0.124 S 
ATOM     92  O   UNL A   1      45.758  39.050  34.544  1.00  0.00    -0.237 OA
ATOM     93  O   UNL A   1      43.440  39.855  34.263  1.00  0.00    -0.237 OA
ATOM     94  O   UNL A   1      44.090  38.671  36.323  1.00  0.00    -0.744 OA
ENDBRANCH  90  91
ENDBRANCH  64  85
ENDBRANCH  38  39
ENDBRANCH  30  33
ENDBRANCH  28  29
ENDBRANCH  27  28
ENDBRANCH   1  27
TORSDOF 18
ENDMDL
