MODEL 1
REMARK VINA RESULT:     -14.0      0.000      0.000
REMARK SMILES Cc1ccccc1-c1c(Cl)ccc2c1C=C(C(=O)NCCCCNC(=O)c1ccc(-c3c4nc(c(-c5ccc(S(=O)(=O)[O-])cc5)c5ccc([nH]5)c(-c5ccc(S(=O)(=O)[O-])cc5)c5nc(c(-c6ccc(S(=O)(=O)[O-])cc6)c6ccc3[nH]6)C=C5)C=C4)cc1)[C@@H](C(F)(F)F)O2
REMARK SMILES IDX 22 1 21 2 20 3 19 4 17 5 18 6 16 8 8 9 9 10 14 11 10 12
REMARK SMILES IDX 11 13 13 14 15 15 12 16 92 17 87 18 7 19 1 20 2 21 3 22 4 23
REMARK SMILES IDX 6 24 5 25 88 26 89 27 90 28 91 29 23 30 24 31 25 32 26 34
REMARK SMILES IDX 27 35 28 36 86 37 29 38 85 39 30 40 31 41 32 42 79 43 33 44
REMARK SMILES IDX 84 45 78 46 80 47 34 48 83 49 77 50 76 51 35 53 65 54 46 55
REMARK SMILES IDX 64 56 47 57 50 58 63 59 81 60 48 61 49 62 62 64 82 65 51 66
REMARK SMILES IDX 36 67 37 68 45 69 38 70 44 71 39 72 40 73 41 74 42 75 43 76
REMARK SMILES IDX 66 77 67 78 75 79 68 80 74 81 69 82 70 83 71 84 72 85 73 86
REMARK SMILES IDX 52 87 53 88 61 89 54 90 60 91 55 92 56 93 57 94 58 95 59 96
REMARK H PARENT 19 7 24 33 80 52 50 63
REMARK Flexibility Score: inf
ROOT
ATOM      1  C   UNL A   1      33.061  29.853  27.270  1.00  0.00     0.023 C 
ENDROOT
BRANCH   1   2
ATOM      2  C   UNL A   1      32.228  28.769  26.573  1.00  0.00     0.023 C 
BRANCH   2   3
ATOM      3  C   UNL A   1      31.750  29.095  25.149  1.00  0.00     0.116 C 
BRANCH   3   4
ATOM      4  N   UNL A   1      32.870  29.252  24.238  1.00  0.00    -0.352 N 
ATOM      5  C   UNL A   1      33.679  28.395  23.581  1.00  0.00     0.251 C 
ATOM      6  O   UNL A   1      34.706  28.874  23.091  1.00  0.00    -0.270 OA
ATOM      7  H   UNL A   1      33.089  30.196  24.060  1.00  0.00     0.163 HD
BRANCH   5   8
ATOM      8  C   UNL A   1      33.372  26.959  23.319  1.00  0.00     0.067 C 
ATOM      9  C   UNL A   1      33.598  24.115  25.711  1.00  0.00     0.012 A 
ATOM     10  C   UNL A   1      32.694  23.619  26.685  1.00  0.00     0.049 A 
ATOM     11  C   UNL A   1      33.100  25.073  24.786  1.00  0.00     0.027 A 
ATOM     12  Cl  UNL A   1      33.200  22.540  27.947  1.00  0.00    -0.084 Cl
ATOM     13  C   UNL A   1      31.346  23.990  26.695  1.00  0.00     0.025 A 
ATOM     14  C   UNL A   1      31.714  25.353  24.756  1.00  0.00     0.128 A 
ATOM     15  C   UNL A   1      33.981  26.023  24.064  1.00  0.00     0.026 C 
ATOM     16  C   UNL A   1      30.848  24.825  25.705  1.00  0.00     0.049 A 
ATOM     17  O   UNL A   1      31.121  26.206  23.855  1.00  0.00    -0.475 OA
ATOM     18  C   UNL A   1      31.980  26.688  22.800  1.00  0.00     0.314 C 
BRANCH   9  19
ATOM     19  C   UNL A   1      34.964  23.536  25.602  1.00  0.00    -0.013 A 
ATOM     20  C   UNL A   1      34.290  21.439  24.271  1.00  0.00     0.045 C 
ATOM     21  C   UNL A   1      35.292  22.328  24.953  1.00  0.00    -0.043 A 
ATOM     22  C   UNL A   1      36.635  21.899  24.920  1.00  0.00     0.004 A 
ATOM     23  C   UNL A   1      37.658  22.671  25.468  1.00  0.00     0.000 A 
ATOM     24  C   UNL A   1      36.025  24.295  26.154  1.00  0.00     0.009 A 
ATOM     25  C   UNL A   1      37.354  23.879  26.076  1.00  0.00     0.001 A 
ENDBRANCH   9  19
BRANCH  18  26
ATOM     26  C   UNL A   1      31.957  25.761  21.575  1.00  0.00     0.429 C 
ATOM     27  F   UNL A   1      33.168  25.737  20.959  1.00  0.00    -0.167 F 
ATOM     28  F   UNL A   1      31.683  24.479  21.927  1.00  0.00    -0.167 F 
ATOM     29  F   UNL A   1      31.049  26.120  20.640  1.00  0.00    -0.167 F 
ENDBRANCH  18  26
ENDBRANCH   5   8
ENDBRANCH   3   4
ENDBRANCH   2   3
ENDBRANCH   1   2
BRANCH   1  30
ATOM     30  C   UNL A   1      34.566  29.604  27.279  1.00  0.00     0.116 C 
BRANCH  30  31
ATOM     31  N   UNL A   1      35.357  30.815  27.401  1.00  0.00    -0.352 N 
ATOM     32  C   UNL A   1      36.538  30.983  28.106  1.00  0.00     0.251 C 
ATOM     33  H   UNL A   1      35.016  31.608  26.929  1.00  0.00     0.163 HD
ATOM     34  O   UNL A   1      36.888  32.070  28.533  1.00  0.00    -0.269 OA
BRANCH  32  35
ATOM     35  C   UNL A   1      37.451  29.820  28.171  1.00  0.00     0.039 A 
ATOM     36  C   UNL A   1      37.428  29.052  29.343  1.00  0.00     0.014 A 
ATOM     37  C   UNL A   1      38.454  29.642  27.225  1.00  0.00     0.014 A 
ATOM     38  C   UNL A   1      38.506  28.224  29.651  1.00  0.00     0.010 A 
ATOM     39  C   UNL A   1      39.563  28.894  27.571  1.00  0.00     0.010 A 
ATOM     40  C   UNL A   1      39.608  28.216  28.800  1.00  0.00    -0.014 A 
BRANCH  40  41
ATOM     41  C   UNL A   1      40.891  27.594  29.110  1.00  0.00     0.031 A 
ATOM     42  C   UNL A   1      41.152  26.185  28.732  1.00  0.00     0.074 A 
ATOM     43  C   UNL A   1      41.911  28.357  29.560  1.00  0.00     0.049 A 
ATOM     44  N   UNL A   1      42.128  25.468  29.184  1.00  0.00    -0.248 NA
ATOM     45  C   UNL A   1      40.273  25.447  27.830  1.00  0.00     0.031 C 
ATOM     46  C   UNL A   1      43.334  28.033  29.493  1.00  0.00     0.029 A 
ATOM     47  N   UNL A   1      41.861  29.492  30.371  1.00  0.00    -0.354 N 
ATOM     48  C   UNL A   1      42.211  24.344  28.391  1.00  0.00     0.074 A 
ATOM     49  C   UNL A   1      40.969  24.321  27.655  1.00  0.00     0.031 C 
ATOM     50  C   UNL A   1      43.976  28.727  30.443  1.00  0.00     0.029 A 
ATOM     51  C   UNL A   1      42.961  29.397  31.240  1.00  0.00     0.049 A 
ATOM     52  H   UNL A   1      41.192  30.214  30.339  1.00  0.00     0.167 HD
ATOM     53  C   UNL A   1      43.386  23.654  28.317  1.00  0.00     0.031 A 
ATOM     54  C   UNL A   1      42.875  29.348  32.601  1.00  0.00     0.031 A 
ATOM     55  C   UNL A   1      44.371  24.147  29.283  1.00  0.00     0.049 A 
ATOM     56  C   UNL A   1      43.550  28.130  33.188  1.00  0.00     0.074 A 
ATOM     57  C   UNL A   1      45.509  24.929  29.161  1.00  0.00     0.029 A 
ATOM     58  N   UNL A   1      44.102  24.057  30.644  1.00  0.00    -0.354 N 
ATOM     59  N   UNL A   1      43.896  27.088  32.485  1.00  0.00    -0.248 NA
ATOM     60  C   UNL A   1      43.844  27.962  34.608  1.00  0.00     0.031 C 
ATOM     61  C   UNL A   1      45.877  25.374  30.457  1.00  0.00     0.029 A 
ATOM     62  C   UNL A   1      44.980  24.842  31.368  1.00  0.00     0.049 A 
ATOM     63  H   UNL A   1      43.385  23.511  31.039  1.00  0.00     0.167 HD
ATOM     64  C   UNL A   1      44.439  26.136  33.303  1.00  0.00     0.074 A 
ATOM     65  C   UNL A   1      44.393  26.733  34.625  1.00  0.00     0.031 C 
ATOM     66  C   UNL A   1      44.867  24.934  32.818  1.00  0.00     0.031 A 
BRANCH  53  67
ATOM     67  C   UNL A   1      43.748  22.735  27.159  1.00  0.00    -0.014 A 
ATOM     68  C   UNL A   1      42.889  21.668  26.817  1.00  0.00     0.010 A 
ATOM     69  C   UNL A   1      44.945  22.809  26.423  1.00  0.00     0.010 A 
ATOM     70  C   UNL A   1      43.251  20.680  25.885  1.00  0.00     0.020 A 
ATOM     71  C   UNL A   1      45.336  21.817  25.511  1.00  0.00     0.020 A 
ATOM     72  C   UNL A   1      44.492  20.745  25.258  1.00  0.00     0.054 A 
BRANCH  72  73
ATOM     73  S   UNL A   1      44.993  19.423  24.127  1.00  0.00     0.124 S 
ATOM     74  O   UNL A   1      46.448  19.437  24.248  1.00  0.00    -0.237 OA
ATOM     75  O   UNL A   1      44.322  18.256  24.691  1.00  0.00    -0.237 OA
ATOM     76  O   UNL A   1      44.480  19.864  22.829  1.00  0.00    -0.744 OA
ENDBRANCH  72  73
ENDBRANCH  53  67
BRANCH  54  77
ATOM     77  C   UNL A   1      41.666  30.009  33.159  1.00  0.00    -0.014 A 
ATOM     78  C   UNL A   1      41.655  31.421  33.176  1.00  0.00     0.010 A 
ATOM     79  C   UNL A   1      40.444  29.314  33.202  1.00  0.00     0.010 A 
ATOM     80  C   UNL A   1      40.456  32.118  33.032  1.00  0.00     0.020 A 
ATOM     81  C   UNL A   1      39.238  30.015  33.070  1.00  0.00     0.020 A 
ATOM     82  C   UNL A   1      39.263  31.404  32.908  1.00  0.00     0.054 A 
BRANCH  82  83
ATOM     83  S   UNL A   1      37.796  32.299  32.314  1.00  0.00     0.124 S 
ATOM     84  O   UNL A   1      37.324  32.966  33.522  1.00  0.00    -0.237 OA
ATOM     85  O   UNL A   1      38.378  33.175  31.297  1.00  0.00    -0.237 OA
ATOM     86  O   UNL A   1      36.938  31.234  31.802  1.00  0.00    -0.744 OA
ENDBRANCH  82  83
ENDBRANCH  54  77
BRANCH  66  87
ATOM     87  C   UNL A   1      45.296  23.751  33.650  1.00  0.00    -0.014 A 
ATOM     88  C   UNL A   1      46.567  23.620  34.232  1.00  0.00     0.010 A 
ATOM     89  C   UNL A   1      44.334  22.766  33.979  1.00  0.00     0.010 A 
ATOM     90  C   UNL A   1      46.883  22.526  35.049  1.00  0.00     0.020 A 
ATOM     91  C   UNL A   1      44.627  21.694  34.827  1.00  0.00     0.020 A 
ATOM     92  C   UNL A   1      45.913  21.566  35.338  1.00  0.00     0.054 A 
BRANCH  92  93
ATOM     93  S   UNL A   1      46.308  20.192  36.449  1.00  0.00     0.124 S 
ATOM     94  O   UNL A   1      45.803  20.685  37.728  1.00  0.00    -0.237 OA
ATOM     95  O   UNL A   1      45.562  19.075  35.871  1.00  0.00    -0.237 OA
ATOM     96  O   UNL A   1      47.761  20.079  36.348  1.00  0.00    -0.744 OA
ENDBRANCH  92  93
ENDBRANCH  66  87
ENDBRANCH  40  41
ENDBRANCH  32  35
ENDBRANCH  30  31
ENDBRANCH   1  30
TORSDOF 16
ENDMDL
MODEL 2
REMARK VINA RESULT:     -13.8      4.523     11.052
REMARK SMILES Cc1ccccc1-c1c(Cl)ccc2c1C=C(C(=O)NCCCCNC(=O)c1ccc(-c3c4nc(c(-c5ccc(S(=O)(=O)[O-])cc5)c5ccc([nH]5)c(-c5ccc(S(=O)(=O)[O-])cc5)c5nc(c(-c6ccc(S(=O)(=O)[O-])cc6)c6ccc3[nH]6)C=C5)C=C4)cc1)[C@@H](C(F)(F)F)O2
REMARK SMILES IDX 22 1 21 2 20 3 19 4 17 5 18 6 16 8 8 9 9 10 14 11 10 12
REMARK SMILES IDX 11 13 13 14 15 15 12 16 92 17 87 18 7 19 1 20 2 21 3 22 4 23
REMARK SMILES IDX 6 24 5 25 88 26 89 27 90 28 91 29 23 30 24 31 25 32 26 34
REMARK SMILES IDX 27 35 28 36 86 37 29 38 85 39 30 40 31 41 32 42 79 43 33 44
REMARK SMILES IDX 84 45 78 46 80 47 34 48 83 49 77 50 76 51 35 53 65 54 46 55
REMARK SMILES IDX 64 56 47 57 50 58 63 59 81 60 48 61 49 62 62 64 82 65 51 66
REMARK SMILES IDX 36 67 37 68 45 69 38 70 44 71 39 72 40 73 41 74 42 75 43 76
REMARK SMILES IDX 66 77 67 78 75 79 68 80 74 81 69 82 70 83 71 84 72 85 73 86
REMARK SMILES IDX 52 87 53 88 61 89 54 90 60 91 55 92 56 93 57 94 58 95 59 96
REMARK H PARENT 19 7 24 33 80 52 50 63
REMARK Flexibility Score: inf
ROOT
ATOM      1  C   UNL A   1      37.800  22.346  25.213  1.00  0.00     0.023 C 
ENDROOT
BRANCH   1   2
ATOM      2  C   UNL A   1      36.628  22.656  24.273  1.00  0.00     0.023 C 
BRANCH   2   3
ATOM      3  C   UNL A   1      35.300  21.952  24.593  1.00  0.00     0.116 C 
BRANCH   3   4
ATOM      4  N   UNL A   1      34.995  22.018  26.010  1.00  0.00    -0.352 N 
ATOM      5  C   UNL A   1      34.214  22.815  26.771  1.00  0.00     0.251 C 
ATOM      6  O   UNL A   1      34.393  22.756  27.991  1.00  0.00    -0.270 OA
ATOM      7  H   UNL A   1      35.461  21.328  26.535  1.00  0.00     0.163 HD
BRANCH   5   8
ATOM      8  C   UNL A   1      33.102  23.664  26.257  1.00  0.00     0.067 C 
ATOM      9  C   UNL A   1      33.369  26.833  24.322  1.00  0.00     0.012 A 
ATOM     10  C   UNL A   1      33.543  27.088  22.937  1.00  0.00     0.049 A 
ATOM     11  C   UNL A   1      33.056  25.500  24.705  1.00  0.00     0.027 A 
ATOM     12  Cl  UNL A   1      34.046  28.639  22.343  1.00  0.00    -0.084 Cl
ATOM     13  C   UNL A   1      33.339  26.095  21.973  1.00  0.00     0.025 A 
ATOM     14  C   UNL A   1      32.758  24.543  23.707  1.00  0.00     0.128 A 
ATOM     15  C   UNL A   1      33.325  24.974  26.065  1.00  0.00     0.026 C 
ATOM     16  C   UNL A   1      32.907  24.834  22.357  1.00  0.00     0.049 A 
ATOM     17  O   UNL A   1      32.373  23.250  23.972  1.00  0.00    -0.475 OA
ATOM     18  C   UNL A   1      32.116  22.952  25.361  1.00  0.00     0.314 C 
BRANCH   9  19
ATOM     19  C   UNL A   1      33.385  27.959  25.293  1.00  0.00    -0.013 A 
ATOM     20  C   UNL A   1      31.091  28.934  24.652  1.00  0.00     0.045 C 
ATOM     21  C   UNL A   1      32.362  28.916  25.454  1.00  0.00    -0.043 A 
ATOM     22  C   UNL A   1      32.507  29.931  26.422  1.00  0.00     0.004 A 
ATOM     23  C   UNL A   1      33.616  29.980  27.264  1.00  0.00     0.000 A 
ATOM     24  C   UNL A   1      34.502  28.039  26.160  1.00  0.00     0.009 A 
ATOM     25  C   UNL A   1      34.611  29.024  27.141  1.00  0.00     0.001 A 
ENDBRANCH   9  19
BRANCH  18  26
ATOM     26  C   UNL A   1      30.650  23.214  25.740  1.00  0.00     0.429 C 
ATOM     27  F   UNL A   1      30.565  24.022  26.829  1.00  0.00    -0.167 F 
ATOM     28  F   UNL A   1      29.984  23.848  24.742  1.00  0.00    -0.167 F 
ATOM     29  F   UNL A   1      29.957  22.090  26.031  1.00  0.00    -0.167 F 
ENDBRANCH  18  26
ENDBRANCH   5   8
ENDBRANCH   3   4
ENDBRANCH   2   3
ENDBRANCH   1   2
BRANCH   1  30
ATOM     30  C   UNL A   1      38.211  23.493  26.131  1.00  0.00     0.116 C 
BRANCH  30  31
ATOM     31  N   UNL A   1      39.248  23.136  27.082  1.00  0.00    -0.352 N 
ATOM     32  C   UNL A   1      40.213  23.967  27.628  1.00  0.00     0.251 C 
ATOM     33  H   UNL A   1      39.270  22.195  27.371  1.00  0.00     0.163 HD
ATOM     34  O   UNL A   1      41.282  23.540  28.033  1.00  0.00    -0.269 OA
BRANCH  32  35
ATOM     35  C   UNL A   1      39.827  25.376  27.866  1.00  0.00     0.039 A 
ATOM     36  C   UNL A   1      40.288  26.329  26.948  1.00  0.00     0.014 A 
ATOM     37  C   UNL A   1      39.248  25.768  29.068  1.00  0.00     0.014 A 
ATOM     38  C   UNL A   1      40.325  27.676  27.307  1.00  0.00     0.010 A 
ATOM     39  C   UNL A   1      39.370  27.087  29.459  1.00  0.00     0.010 A 
ATOM     40  C   UNL A   1      39.943  28.035  28.597  1.00  0.00    -0.014 A 
BRANCH  40  41
ATOM     41  C   UNL A   1      40.155  29.353  29.187  1.00  0.00     0.031 A 
ATOM     42  C   UNL A   1      39.110  30.399  29.080  1.00  0.00     0.074 A 
ATOM     43  C   UNL A   1      41.213  29.557  30.002  1.00  0.00     0.049 A 
ATOM     44  N   UNL A   1      39.295  31.654  29.326  1.00  0.00    -0.248 NA
ATOM     45  C   UNL A   1      37.756  30.100  28.624  1.00  0.00     0.031 C 
ATOM     46  C   UNL A   1      41.345  30.607  31.009  1.00  0.00     0.029 A 
ATOM     47  N   UNL A   1      42.486  28.987  29.940  1.00  0.00    -0.354 N 
ATOM     48  C   UNL A   1      38.051  32.242  29.407  1.00  0.00     0.074 A 
ATOM     49  C   UNL A   1      37.146  31.267  28.843  1.00  0.00     0.031 C 
ATOM     50  C   UNL A   1      42.648  30.815  31.242  1.00  0.00     0.029 A 
ATOM     51  C   UNL A   1      43.386  30.011  30.283  1.00  0.00     0.049 A 
ATOM     52  H   UNL A   1      42.707  28.056  29.706  1.00  0.00     0.167 HD
ATOM     53  C   UNL A   1      37.898  33.410  30.096  1.00  0.00     0.031 A 
ATOM     54  C   UNL A   1      44.381  30.473  29.472  1.00  0.00     0.031 A 
ATOM     55  C   UNL A   1      39.186  33.972  30.511  1.00  0.00     0.049 A 
ATOM     56  C   UNL A   1      44.299  31.964  29.235  1.00  0.00     0.074 A 
ATOM     57  C   UNL A   1      39.847  34.030  31.729  1.00  0.00     0.029 A 
ATOM     58  N   UNL A   1      40.110  34.357  29.546  1.00  0.00    -0.354 N 
ATOM     59  N   UNL A   1      43.240  32.678  29.499  1.00  0.00    -0.248 NA
ATOM     60  C   UNL A   1      45.369  32.759  28.640  1.00  0.00     0.031 C 
ATOM     61  C   UNL A   1      41.200  34.379  31.478  1.00  0.00     0.029 A 
ATOM     62  C   UNL A   1      41.354  34.558  30.114  1.00  0.00     0.049 A 
ATOM     63  H   UNL A   1      39.906  34.471  28.590  1.00  0.00     0.167 HD
ATOM     64  C   UNL A   1      43.456  33.978  29.133  1.00  0.00     0.074 A 
ATOM     65  C   UNL A   1      44.808  33.982  28.608  1.00  0.00     0.031 C 
ATOM     66  C   UNL A   1      42.493  34.934  29.286  1.00  0.00     0.031 A 
BRANCH  53  67
ATOM     67  C   UNL A   1      36.566  33.884  30.660  1.00  0.00    -0.014 A 
ATOM     68  C   UNL A   1      35.485  34.131  29.787  1.00  0.00     0.010 A 
ATOM     69  C   UNL A   1      36.333  34.185  32.015  1.00  0.00     0.010 A 
ATOM     70  C   UNL A   1      34.294  34.741  30.219  1.00  0.00     0.020 A 
ATOM     71  C   UNL A   1      35.163  34.821  32.459  1.00  0.00     0.020 A 
ATOM     72  C   UNL A   1      34.154  35.112  31.553  1.00  0.00     0.054 A 
BRANCH  72  73
ATOM     73  S   UNL A   1      32.656  35.979  32.087  1.00  0.00     0.124 S 
ATOM     74  O   UNL A   1      32.185  36.588  30.846  1.00  0.00    -0.237 OA
ATOM     75  O   UNL A   1      31.834  34.893  32.611  1.00  0.00    -0.237 OA
ATOM     76  O   UNL A   1      33.143  36.927  33.090  1.00  0.00    -0.744 OA
ENDBRANCH  72  73
ENDBRANCH  53  67
BRANCH  54  77
ATOM     77  C   UNL A   1      44.880  29.477  28.488  1.00  0.00    -0.014 A 
ATOM     78  C   UNL A   1      45.780  28.499  28.964  1.00  0.00     0.010 A 
ATOM     79  C   UNL A   1      44.144  29.219  27.317  1.00  0.00     0.010 A 
ATOM     80  C   UNL A   1      45.794  27.221  28.404  1.00  0.00     0.020 A 
ATOM     81  C   UNL A   1      44.166  27.938  26.748  1.00  0.00     0.020 A 
ATOM     82  C   UNL A   1      44.932  26.932  27.344  1.00  0.00     0.054 A 
BRANCH  82  83
ATOM     83  S   UNL A   1      44.671  25.185  26.916  1.00  0.00     0.124 S 
ATOM     84  O   UNL A   1      44.460  24.569  28.222  1.00  0.00    -0.237 OA
ATOM     85  O   UNL A   1      43.489  25.265  26.059  1.00  0.00    -0.237 OA
ATOM     86  O   UNL A   1      45.910  24.817  26.237  1.00  0.00    -0.744 OA
ENDBRANCH  82  83
ENDBRANCH  54  77
BRANCH  66  87
ATOM     87  C   UNL A   1      42.554  36.340  28.743  1.00  0.00    -0.014 A 
ATOM     88  C   UNL A   1      43.290  37.379  29.334  1.00  0.00     0.010 A 
ATOM     89  C   UNL A   1      41.943  36.615  27.496  1.00  0.00     0.010 A 
ATOM     90  C   UNL A   1      43.359  38.649  28.744  1.00  0.00     0.020 A 
ATOM     91  C   UNL A   1      42.041  37.865  26.878  1.00  0.00     0.020 A 
ATOM     92  C   UNL A   1      42.731  38.886  27.521  1.00  0.00     0.054 A 
BRANCH  92  93
ATOM     93  S   UNL A   1      42.880  40.509  26.731  1.00  0.00     0.124 S 
ATOM     94  O   UNL A   1      41.513  40.748  26.275  1.00  0.00    -0.237 OA
ATOM     95  O   UNL A   1      43.334  41.367  27.824  1.00  0.00    -0.237 OA
ATOM     96  O   UNL A   1      43.866  40.284  25.677  1.00  0.00    -0.744 OA
ENDBRANCH  92  93
ENDBRANCH  66  87
ENDBRANCH  40  41
ENDBRANCH  32  35
ENDBRANCH  30  31
ENDBRANCH   1  30
TORSDOF 16
ENDMDL
MODEL 3
REMARK VINA RESULT:     -12.9      4.329     10.160
REMARK SMILES Cc1ccccc1-c1c(Cl)ccc2c1C=C(C(=O)NCCCCNC(=O)c1ccc(-c3c4nc(c(-c5ccc(S(=O)(=O)[O-])cc5)c5ccc([nH]5)c(-c5ccc(S(=O)(=O)[O-])cc5)c5nc(c(-c6ccc(S(=O)(=O)[O-])cc6)c6ccc3[nH]6)C=C5)C=C4)cc1)[C@@H](C(F)(F)F)O2
REMARK SMILES IDX 22 1 21 2 20 3 19 4 17 5 18 6 16 8 8 9 9 10 14 11 10 12
REMARK SMILES IDX 11 13 13 14 15 15 12 16 92 17 87 18 7 19 1 20 2 21 3 22 4 23
REMARK SMILES IDX 6 24 5 25 88 26 89 27 90 28 91 29 23 30 24 31 25 32 26 34
REMARK SMILES IDX 27 35 28 36 86 37 29 38 85 39 30 40 31 41 32 42 79 43 33 44
REMARK SMILES IDX 84 45 78 46 80 47 34 48 83 49 77 50 76 51 35 53 65 54 46 55
REMARK SMILES IDX 64 56 47 57 50 58 63 59 81 60 48 61 49 62 62 64 82 65 51 66
REMARK SMILES IDX 36 67 37 68 45 69 38 70 44 71 39 72 40 73 41 74 42 75 43 76
REMARK SMILES IDX 66 77 67 78 75 79 68 80 74 81 69 82 70 83 71 84 72 85 73 86
REMARK SMILES IDX 52 87 53 88 61 89 54 90 60 91 55 92 56 93 57 94 58 95 59 96
REMARK H PARENT 19 7 24 33 80 52 50 63
REMARK Flexibility Score: inf
ROOT
ATOM      1  C   UNL A   1      40.134  25.345  26.399  1.00  0.00     0.023 C 
ENDROOT
BRANCH   1   2
ATOM      2  C   UNL A   1      39.605  23.963  26.807  1.00  0.00     0.023 C 
BRANCH   2   3
ATOM      3  C   UNL A   1      38.079  23.783  26.765  1.00  0.00     0.116 C 
BRANCH   3   4
ATOM      4  N   UNL A   1      37.581  23.817  25.401  1.00  0.00    -0.352 N 
ATOM      5  C   UNL A   1      36.367  23.643  24.836  1.00  0.00     0.251 C 
ATOM      6  O   UNL A   1      36.349  23.480  23.613  1.00  0.00    -0.270 OA
ATOM      7  H   UNL A   1      38.285  24.010  24.741  1.00  0.00     0.163 HD
BRANCH   5   8
ATOM      8  C   UNL A   1      35.066  23.738  25.558  1.00  0.00     0.067 C 
ATOM      9  C   UNL A   1      32.169  25.928  24.741  1.00  0.00     0.012 A 
ATOM     10  C   UNL A   1      31.089  25.776  23.833  1.00  0.00     0.049 A 
ATOM     11  C   UNL A   1      32.978  24.786  24.991  1.00  0.00     0.027 A 
ATOM     12  Cl  UNL A   1      30.100  27.115  23.346  1.00  0.00    -0.084 Cl
ATOM     13  C   UNL A   1      30.775  24.538  23.263  1.00  0.00     0.025 A 
ATOM     14  C   UNL A   1      32.578  23.528  24.481  1.00  0.00     0.128 A 
ATOM     15  C   UNL A   1      34.371  24.884  25.488  1.00  0.00     0.026 C 
ATOM     16  C   UNL A   1      31.495  23.407  23.620  1.00  0.00     0.049 A 
ATOM     17  O   UNL A   1      33.247  22.352  24.724  1.00  0.00    -0.475 OA
ATOM     18  C   UNL A   1      34.314  22.435  25.694  1.00  0.00     0.314 C 
BRANCH   9  19
ATOM     19  C   UNL A   1      32.338  27.204  25.487  1.00  0.00    -0.013 A 
ATOM     20  C   UNL A   1      33.804  28.381  23.729  1.00  0.00     0.045 C 
ATOM     21  C   UNL A   1      33.074  28.321  25.041  1.00  0.00    -0.043 A 
ATOM     22  C   UNL A   1      33.147  29.473  25.852  1.00  0.00     0.004 A 
ATOM     23  C   UNL A   1      32.461  29.555  27.062  1.00  0.00     0.000 A 
ATOM     24  C   UNL A   1      31.658  27.315  26.724  1.00  0.00     0.009 A 
ATOM     25  C   UNL A   1      31.704  28.478  27.494  1.00  0.00     0.001 A 
ENDBRANCH   9  19
BRANCH  18  26
ATOM     26  C   UNL A   1      33.812  22.168  27.121  1.00  0.00     0.429 C 
ATOM     27  F   UNL A   1      32.484  22.434  27.228  1.00  0.00    -0.167 F 
ATOM     28  F   UNL A   1      33.969  20.865  27.468  1.00  0.00    -0.167 F 
ATOM     29  F   UNL A   1      34.437  22.909  28.063  1.00  0.00    -0.167 F 
ENDBRANCH  18  26
ENDBRANCH   5   8
ENDBRANCH   3   4
ENDBRANCH   2   3
ENDBRANCH   1   2
BRANCH   1  30
ATOM     30  C   UNL A   1      41.531  25.677  26.912  1.00  0.00     0.116 C 
BRANCH  30  31
ATOM     31  N   UNL A   1      42.345  26.405  25.956  1.00  0.00    -0.352 N 
ATOM     32  C   UNL A   1      42.190  27.720  25.546  1.00  0.00     0.251 C 
ATOM     33  H   UNL A   1      43.093  25.909  25.553  1.00  0.00     0.163 HD
ATOM     34  O   UNL A   1      42.589  28.111  24.462  1.00  0.00    -0.269 OA
BRANCH  32  35
ATOM     35  C   UNL A   1      41.678  28.679  26.550  1.00  0.00     0.039 A 
ATOM     36  C   UNL A   1      42.619  29.295  27.386  1.00  0.00     0.014 A 
ATOM     37  C   UNL A   1      40.317  28.777  26.818  1.00  0.00     0.014 A 
ATOM     38  C   UNL A   1      42.208  29.869  28.588  1.00  0.00     0.010 A 
ATOM     39  C   UNL A   1      39.921  29.262  28.050  1.00  0.00     0.010 A 
ATOM     40  C   UNL A   1      40.867  29.772  28.952  1.00  0.00    -0.014 A 
BRANCH  40  41
ATOM     41  C   UNL A   1      40.340  30.107  30.271  1.00  0.00     0.031 A 
ATOM     42  C   UNL A   1      39.681  31.413  30.506  1.00  0.00     0.074 A 
ATOM     43  C   UNL A   1      40.271  29.151  31.224  1.00  0.00     0.049 A 
ATOM     44  N   UNL A   1      39.424  31.910  31.672  1.00  0.00    -0.248 NA
ATOM     45  C   UNL A   1      39.303  32.301  29.411  1.00  0.00     0.031 C 
ATOM     46  C   UNL A   1      39.399  29.153  32.395  1.00  0.00     0.029 A 
ATOM     47  N   UNL A   1      41.135  28.077  31.448  1.00  0.00    -0.354 N 
ATOM     48  C   UNL A   1      38.560  32.967  31.482  1.00  0.00     0.074 A 
ATOM     49  C   UNL A   1      38.618  33.241  30.066  1.00  0.00     0.031 C 
ATOM     50  C   UNL A   1      39.939  28.362  33.333  1.00  0.00     0.029 A 
ATOM     51  C   UNL A   1      41.245  27.953  32.843  1.00  0.00     0.049 A 
ATOM     52  H   UNL A   1      41.575  27.519  30.766  1.00  0.00     0.167 HD
ATOM     53  C   UNL A   1      37.762  33.381  32.510  1.00  0.00     0.031 A 
ATOM     54  C   UNL A   1      42.413  28.056  33.543  1.00  0.00     0.031 A 
ATOM     55  C   UNL A   1      38.100  32.710  33.768  1.00  0.00     0.049 A 
ATOM     56  C   UNL A   1      42.357  29.112  34.623  1.00  0.00     0.074 A 
ATOM     57  C   UNL A   1      37.497  31.694  34.493  1.00  0.00     0.029 A 
ATOM     58  N   UNL A   1      39.361  32.894  34.325  1.00  0.00    -0.354 N 
ATOM     59  N   UNL A   1      41.436  30.033  34.684  1.00  0.00    -0.248 NA
ATOM     60  C   UNL A   1      43.350  29.251  35.684  1.00  0.00     0.031 C 
ATOM     61  C   UNL A   1      38.436  31.215  35.443  1.00  0.00     0.029 A 
ATOM     62  C   UNL A   1      39.599  31.956  35.313  1.00  0.00     0.049 A 
ATOM     63  H   UNL A   1      39.996  33.595  34.056  1.00  0.00     0.167 HD
ATOM     64  C   UNL A   1      41.682  30.865  35.741  1.00  0.00     0.074 A 
ATOM     65  C   UNL A   1      42.889  30.329  36.344  1.00  0.00     0.031 C 
ATOM     66  C   UNL A   1      40.875  31.931  36.017  1.00  0.00     0.031 A 
BRANCH  53  67
ATOM     67  C   UNL A   1      36.474  34.166  32.309  1.00  0.00    -0.014 A 
ATOM     68  C   UNL A   1      36.005  35.015  33.334  1.00  0.00     0.010 A 
ATOM     69  C   UNL A   1      35.638  34.056  31.182  1.00  0.00     0.010 A 
ATOM     70  C   UNL A   1      34.737  35.622  33.286  1.00  0.00     0.020 A 
ATOM     71  C   UNL A   1      34.358  34.630  31.130  1.00  0.00     0.020 A 
ATOM     72  C   UNL A   1      33.906  35.399  32.193  1.00  0.00     0.054 A 
BRANCH  72  73
ATOM     73  S   UNL A   1      32.240  36.108  32.176  1.00  0.00     0.124 S 
ATOM     74  O   UNL A   1      32.083  36.514  30.782  1.00  0.00    -0.237 OA
ATOM     75  O   UNL A   1      31.415  34.983  32.604  1.00  0.00    -0.237 OA
ATOM     76  O   UNL A   1      32.324  37.213  33.132  1.00  0.00    -0.744 OA
ENDBRANCH  72  73
ENDBRANCH  53  67
BRANCH  54  77
ATOM     77  C   UNL A   1      43.625  27.692  32.763  1.00  0.00    -0.014 A 
ATOM     78  C   UNL A   1      43.999  26.331  32.755  1.00  0.00     0.010 A 
ATOM     79  C   UNL A   1      44.069  28.531  31.725  1.00  0.00     0.010 A 
ATOM     80  C   UNL A   1      44.625  25.778  31.638  1.00  0.00     0.020 A 
ATOM     81  C   UNL A   1      44.708  27.977  30.607  1.00  0.00     0.020 A 
ATOM     82  C   UNL A   1      44.909  26.595  30.543  1.00  0.00     0.054 A 
BRANCH  82  83
ATOM     83  S   UNL A   1      45.332  25.787  28.969  1.00  0.00     0.124 S 
ATOM     84  O   UNL A   1      44.711  26.669  27.987  1.00  0.00    -0.237 OA
ATOM     85  O   UNL A   1      46.794  25.816  29.007  1.00  0.00    -0.237 OA
ATOM     86  O   UNL A   1      44.731  24.463  29.100  1.00  0.00    -0.744 OA
ENDBRANCH  82  83
ENDBRANCH  54  77
BRANCH  66  87
ATOM     87  C   UNL A   1      41.160  33.013  37.028  1.00  0.00    -0.014 A 
ATOM     88  C   UNL A   1      42.173  33.974  36.886  1.00  0.00     0.010 A 
ATOM     89  C   UNL A   1      40.285  33.162  38.131  1.00  0.00     0.010 A 
ATOM     90  C   UNL A   1      42.346  34.995  37.831  1.00  0.00     0.020 A 
ATOM     91  C   UNL A   1      40.422  34.201  39.056  1.00  0.00     0.020 A 
ATOM     92  C   UNL A   1      41.472  35.100  38.913  1.00  0.00     0.054 A 
BRANCH  92  93
ATOM     93  S   UNL A   1      41.659  36.461  40.093  1.00  0.00     0.124 S 
ATOM     94  O   UNL A   1      41.257  37.613  39.290  1.00  0.00    -0.237 OA
ATOM     95  O   UNL A   1      40.737  36.095  41.167  1.00  0.00    -0.237 OA
ATOM     96  O   UNL A   1      43.074  36.408  40.453  1.00  0.00    -0.744 OA
ENDBRANCH  92  93
ENDBRANCH  66  87
ENDBRANCH  40  41
ENDBRANCH  32  35
ENDBRANCH  30  31
ENDBRANCH   1  30
TORSDOF 16
ENDMDL
