MODEL 1
REMARK VINA RESULT:     -11.5      0.000      0.000
REMARK SMILES Cc1cc(-c2cc(C(=O)NCCCCNC(=O)c3ccc(-c4c5nc(c(-c6ccc(S(=O)(=O)[O-])cc6)c6ccc([nH]6)c(-c6ccc(S(=O)(=O)[O-])cc6)c6nc(c(-c7ccc(S(=O)(=O)[O-])cc7)c7ccc4[nH]7)C=C6)C=C5)cc3)c[nH]c2=O)ccc1Cl
REMARK SMILES IDX 13 1 12 2 11 3 10 4 8 5 9 6 7 8 5 9 6 10 80 11 79 12 81 13
REMARK SMILES IDX 78 14 4 16 1 17 2 18 3 19 84 20 83 21 85 22 82 23 14 24
REMARK SMILES IDX 15 25 16 26 17 28 18 29 19 30 77 31 20 32 76 33 21 34 22 35
REMARK SMILES IDX 23 36 70 37 24 38 75 39 69 40 71 41 25 42 74 43 68 44 67 45
REMARK SMILES IDX 26 47 56 48 37 49 55 50 38 51 41 52 54 53 72 54 39 55 40 56
REMARK SMILES IDX 53 58 73 59 42 60 27 61 28 62 36 63 29 64 35 65 30 66 31 67
REMARK SMILES IDX 32 68 33 69 34 70 57 71 58 72 66 73 59 74 65 75 60 76 61 77
REMARK SMILES IDX 62 78 63 79 64 80 43 81 44 82 52 83 45 84 51 85 46 86 47 87
REMARK SMILES IDX 48 88 49 89 50 90
REMARK H PARENT 10 7 79 15 15 27 71 46 41 57
REMARK Flexibility Score: inf
ROOT
ATOM      1  C   UNL A   1      34.031  28.199  25.509  1.00  0.00     0.023 C 
ENDROOT
BRANCH   1   2
ATOM      2  C   UNL A   1      33.320  29.236  24.632  1.00  0.00     0.023 C 
BRANCH   2   3
ATOM      3  C   UNL A   1      33.332  28.900  23.138  1.00  0.00     0.116 C 
BRANCH   3   4
ATOM      4  N   UNL A   1      31.985  28.670  22.655  1.00  0.00    -0.352 N 
ATOM      5  C   UNL A   1      31.042  27.731  22.935  1.00  0.00     0.252 C 
ATOM      6  O   UNL A   1      29.982  27.807  22.306  1.00  0.00    -0.269 OA
ATOM      7  H   UNL A   1      31.692  29.329  21.984  1.00  0.00     0.163 HD
BRANCH   5   8
ATOM      8  C   UNL A   1      31.213  26.679  23.993  1.00  0.00     0.056 A 
ATOM      9  C   UNL A   1      32.387  24.814  25.064  1.00  0.00     0.048 A 
ATOM     10  C   UNL A   1      32.187  25.607  23.994  1.00  0.00     0.029 A 
ATOM     11  C   UNL A   1      31.453  24.931  26.229  1.00  0.00     0.255 A 
ATOM     12  N   UNL A   1      30.482  25.901  26.110  1.00  0.00    -0.328 N 
ATOM     13  O   UNL A   1      31.526  24.208  27.216  1.00  0.00    -0.269 OA
ATOM     14  C   UNL A   1      30.375  26.761  25.042  1.00  0.00     0.099 A 
ATOM     15  H   UNL A   1      29.822  25.983  26.836  1.00  0.00     0.169 HD
BRANCH   9  16
ATOM     16  C   UNL A   1      33.515  23.874  25.043  1.00  0.00    -0.012 A 
ATOM     17  C   UNL A   1      37.201  23.772  25.988  1.00  0.00     0.046 C 
ATOM     18  C   UNL A   1      35.846  23.329  25.514  1.00  0.00    -0.032 A 
ATOM     19  C   UNL A   1      34.793  24.261  25.460  1.00  0.00     0.014 A 
ATOM     20  C   UNL A   1      35.599  22.002  25.124  1.00  0.00     0.044 A 
ATOM     21  C   UNL A   1      34.330  21.614  24.694  1.00  0.00     0.021 A 
ATOM     22  Cl  UNL A   1      36.839  20.800  25.166  1.00  0.00    -0.084 Cl
ATOM     23  C   UNL A   1      33.292  22.544  24.655  1.00  0.00     0.010 A 
ENDBRANCH   9  16
ENDBRANCH   5   8
ENDBRANCH   3   4
ENDBRANCH   2   3
ENDBRANCH   1   2
BRANCH   1  24
ATOM     24  C   UNL A   1      33.758  28.331  27.004  1.00  0.00     0.116 C 
BRANCH  24  25
ATOM     25  N   UNL A   1      33.561  29.706  27.432  1.00  0.00    -0.352 N 
ATOM     26  C   UNL A   1      34.445  30.534  28.085  1.00  0.00     0.251 C 
ATOM     27  H   UNL A   1      32.680  30.096  27.230  1.00  0.00     0.163 HD
ATOM     28  O   UNL A   1      34.082  31.631  28.479  1.00  0.00    -0.269 OA
BRANCH  26  29
ATOM     29  C   UNL A   1      35.824  30.061  28.338  1.00  0.00     0.039 A 
ATOM     30  C   UNL A   1      36.763  30.148  27.308  1.00  0.00     0.014 A 
ATOM     31  C   UNL A   1      36.192  29.555  29.587  1.00  0.00     0.014 A 
ATOM     32  C   UNL A   1      38.085  29.770  27.547  1.00  0.00     0.010 A 
ATOM     33  C   UNL A   1      37.525  29.254  29.846  1.00  0.00     0.010 A 
ATOM     34  C   UNL A   1      38.482  29.345  28.826  1.00  0.00    -0.014 A 
BRANCH  34  35
ATOM     35  C   UNL A   1      39.891  28.961  29.101  1.00  0.00     0.031 A 
ATOM     36  C   UNL A   1      40.835  29.958  29.719  1.00  0.00     0.074 A 
ATOM     37  C   UNL A   1      40.328  27.733  28.762  1.00  0.00     0.049 A 
ATOM     38  N   UNL A   1      42.104  29.823  30.007  1.00  0.00    -0.248 NA
ATOM     39  C   UNL A   1      40.288  31.290  30.030  1.00  0.00     0.031 C 
ATOM     40  C   UNL A   1      39.526  26.694  28.111  1.00  0.00     0.029 A 
ATOM     41  N   UNL A   1      41.562  27.149  28.916  1.00  0.00    -0.354 N 
ATOM     42  C   UNL A   1      42.505  31.048  30.527  1.00  0.00     0.074 A 
ATOM     43  C   UNL A   1      41.366  31.935  30.450  1.00  0.00     0.031 C 
ATOM     44  C   UNL A   1      40.279  25.595  27.945  1.00  0.00     0.029 A 
ATOM     45  C   UNL A   1      41.624  25.859  28.446  1.00  0.00     0.049 A 
ATOM     46  H   UNL A   1      42.329  27.613  29.323  1.00  0.00     0.167 HD
ATOM     47  C   UNL A   1      43.704  31.397  31.053  1.00  0.00     0.031 A 
ATOM     48  C   UNL A   1      42.650  24.985  28.422  1.00  0.00     0.031 A 
ATOM     49  C   UNL A   1      44.835  30.512  31.134  1.00  0.00     0.049 A 
ATOM     50  C   UNL A   1      43.972  25.395  29.016  1.00  0.00     0.074 A 
ATOM     51  C   UNL A   1      46.087  30.761  31.669  1.00  0.00     0.029 A 
ATOM     52  N   UNL A   1      44.849  29.204  30.676  1.00  0.00    -0.354 N 
ATOM     53  N   UNL A   1      44.317  26.543  29.547  1.00  0.00    -0.248 NA
ATOM     54  C   UNL A   1      45.033  24.378  29.033  1.00  0.00     0.031 C 
ATOM     55  C   UNL A   1      46.870  29.613  31.499  1.00  0.00     0.029 A 
ATOM     56  C   UNL A   1      46.086  28.632  30.913  1.00  0.00     0.049 A 
ATOM     57  H   UNL A   1      44.089  28.748  30.245  1.00  0.00     0.167 HD
ATOM     58  C   UNL A   1      45.624  26.377  29.992  1.00  0.00     0.074 A 
ATOM     59  C   UNL A   1      45.998  25.011  29.683  1.00  0.00     0.031 C 
ATOM     60  C   UNL A   1      46.441  27.270  30.604  1.00  0.00     0.031 A 
BRANCH  47  61
ATOM     61  C   UNL A   1      43.842  32.797  31.595  1.00  0.00    -0.014 A 
ATOM     62  C   UNL A   1      44.168  33.869  30.744  1.00  0.00     0.010 A 
ATOM     63  C   UNL A   1      43.613  33.052  32.959  1.00  0.00     0.010 A 
ATOM     64  C   UNL A   1      44.303  35.163  31.253  1.00  0.00     0.020 A 
ATOM     65  C   UNL A   1      43.717  34.351  33.467  1.00  0.00     0.020 A 
ATOM     66  C   UNL A   1      44.079  35.395  32.612  1.00  0.00     0.054 A 
BRANCH  66  67
ATOM     67  S   UNL A   1      44.235  37.090  33.240  1.00  0.00     0.124 S 
ATOM     68  O   UNL A   1      44.627  37.821  32.037  1.00  0.00    -0.237 OA
ATOM     69  O   UNL A   1      42.891  37.373  33.735  1.00  0.00    -0.237 OA
ATOM     70  O   UNL A   1      45.266  36.986  34.269  1.00  0.00    -0.744 OA
ENDBRANCH  66  67
ENDBRANCH  47  61
BRANCH  48  71
ATOM     71  C   UNL A   1      42.465  23.631  27.830  1.00  0.00    -0.014 A 
ATOM     72  C   UNL A   1      41.922  22.580  28.590  1.00  0.00     0.010 A 
ATOM     73  C   UNL A   1      42.840  23.386  26.496  1.00  0.00     0.010 A 
ATOM     74  C   UNL A   1      41.790  21.301  28.039  1.00  0.00     0.020 A 
ATOM     75  C   UNL A   1      42.681  22.117  25.932  1.00  0.00     0.020 A 
ATOM     76  C   UNL A   1      42.172  21.078  26.713  1.00  0.00     0.054 A 
BRANCH  76  77
ATOM     77  S   UNL A   1      41.965  19.419  26.009  1.00  0.00     0.124 S 
ATOM     78  O   UNL A   1      42.783  19.497  24.803  1.00  0.00    -0.237 OA
ATOM     79  O   UNL A   1      42.480  18.558  27.069  1.00  0.00    -0.237 OA
ATOM     80  O   UNL A   1      40.525  19.322  25.783  1.00  0.00    -0.744 OA
ENDBRANCH  76  77
ENDBRANCH  48  71
BRANCH  60  81
ATOM     81  C   UNL A   1      47.800  26.783  31.031  1.00  0.00    -0.014 A 
ATOM     82  C   UNL A   1      48.924  26.905  30.195  1.00  0.00     0.010 A 
ATOM     83  C   UNL A   1      47.956  26.212  32.308  1.00  0.00     0.010 A 
ATOM     84  C   UNL A   1      50.167  26.419  30.607  1.00  0.00     0.020 A 
ATOM     85  C   UNL A   1      49.204  25.754  32.737  1.00  0.00     0.020 A 
ATOM     86  C   UNL A   1      50.298  25.841  31.875  1.00  0.00     0.054 A 
BRANCH  86  87
ATOM     87  S   UNL A   1      51.923  25.225  32.393  1.00  0.00     0.124 S 
ATOM     88  O   UNL A   1      52.800  25.790  31.371  1.00  0.00    -0.237 OA
ATOM     89  O   UNL A   1      52.069  25.794  33.730  1.00  0.00    -0.237 OA
ATOM     90  O   UNL A   1      51.773  23.773  32.353  1.00  0.00    -0.744 OA
ENDBRANCH  86  87
ENDBRANCH  60  81
ENDBRANCH  34  35
ENDBRANCH  26  29
ENDBRANCH  24  25
ENDBRANCH   1  24
TORSDOF 15
ENDMDL
MODEL 2
REMARK VINA RESULT:     -11.3      3.380      6.158
REMARK SMILES Cc1cc(-c2cc(C(=O)NCCCCNC(=O)c3ccc(-c4c5nc(c(-c6ccc(S(=O)(=O)[O-])cc6)c6ccc([nH]6)c(-c6ccc(S(=O)(=O)[O-])cc6)c6nc(c(-c7ccc(S(=O)(=O)[O-])cc7)c7ccc4[nH]7)C=C6)C=C5)cc3)c[nH]c2=O)ccc1Cl
REMARK SMILES IDX 13 1 12 2 11 3 10 4 8 5 9 6 7 8 5 9 6 10 80 11 79 12 81 13
REMARK SMILES IDX 78 14 4 16 1 17 2 18 3 19 84 20 83 21 85 22 82 23 14 24
REMARK SMILES IDX 15 25 16 26 17 28 18 29 19 30 77 31 20 32 76 33 21 34 22 35
REMARK SMILES IDX 23 36 70 37 24 38 75 39 69 40 71 41 25 42 74 43 68 44 67 45
REMARK SMILES IDX 26 47 56 48 37 49 55 50 38 51 41 52 54 53 72 54 39 55 40 56
REMARK SMILES IDX 53 58 73 59 42 60 27 61 28 62 36 63 29 64 35 65 30 66 31 67
REMARK SMILES IDX 32 68 33 69 34 70 57 71 58 72 66 73 59 74 65 75 60 76 61 77
REMARK SMILES IDX 62 78 63 79 64 80 43 81 44 82 52 83 45 84 51 85 46 86 47 87
REMARK SMILES IDX 48 88 49 89 50 90
REMARK H PARENT 10 7 79 15 15 27 71 46 41 57
REMARK Flexibility Score: inf
ROOT
ATOM      1  C   UNL A   1      35.653  33.423  28.632  1.00  0.00     0.023 C 
ENDROOT
BRANCH   1   2
ATOM      2  C   UNL A   1      37.159  33.430  28.918  1.00  0.00     0.023 C 
BRANCH   2   3
ATOM      3  C   UNL A   1      37.526  32.966  30.330  1.00  0.00     0.116 C 
BRANCH   3   4
ATOM      4  N   UNL A   1      37.349  34.042  31.284  1.00  0.00    -0.352 N 
ATOM      5  C   UNL A   1      37.396  34.101  32.643  1.00  0.00     0.252 C 
ATOM      6  O   UNL A   1      37.162  35.200  33.156  1.00  0.00    -0.269 OA
ATOM      7  H   UNL A   1      37.152  34.910  30.862  1.00  0.00     0.163 HD
BRANCH   5   8
ATOM      8  C   UNL A   1      37.773  32.933  33.507  1.00  0.00     0.056 A 
ATOM      9  C   UNL A   1      39.138  30.983  34.089  1.00  0.00     0.048 A 
ATOM     10  C   UNL A   1      38.731  31.896  33.186  1.00  0.00     0.029 A 
ATOM     11  C   UNL A   1      38.448  30.931  35.418  1.00  0.00     0.255 A 
ATOM     12  N   UNL A   1      37.471  31.882  35.611  1.00  0.00    -0.328 N 
ATOM     13  O   UNL A   1      38.715  30.095  36.273  1.00  0.00    -0.269 OA
ATOM     14  C   UNL A   1      37.155  32.863  34.700  1.00  0.00     0.099 A 
ATOM     15  H   UNL A   1      36.965  31.857  36.454  1.00  0.00     0.169 HD
BRANCH   9  16
ATOM     16  C   UNL A   1      40.243  30.084  33.732  1.00  0.00    -0.012 A 
ATOM     17  C   UNL A   1      43.972  29.695  34.393  1.00  0.00     0.046 C 
ATOM     18  C   UNL A   1      42.584  29.415  33.890  1.00  0.00    -0.032 A 
ATOM     19  C   UNL A   1      41.550  30.327  34.169  1.00  0.00     0.014 A 
ATOM     20  C   UNL A   1      42.288  28.258  33.151  1.00  0.00     0.044 A 
ATOM     21  C   UNL A   1      40.989  28.016  32.701  1.00  0.00     0.021 A 
ATOM     22  Cl  UNL A   1      43.502  27.089  32.772  1.00  0.00    -0.084 Cl
ATOM     23  C   UNL A   1      39.971  28.924  32.991  1.00  0.00     0.010 A 
ENDBRANCH   9  16
ENDBRANCH   5   8
ENDBRANCH   3   4
ENDBRANCH   2   3
ENDBRANCH   1   2
BRANCH   1  24
ATOM     24  C   UNL A   1      34.847  32.443  29.478  1.00  0.00     0.116 C 
BRANCH  24  25
ATOM     25  N   UNL A   1      34.098  31.481  28.685  1.00  0.00    -0.352 N 
ATOM     26  C   UNL A   1      34.548  30.320  28.100  1.00  0.00     0.251 C 
ATOM     27  H   UNL A   1      33.145  31.689  28.547  1.00  0.00     0.163 HD
ATOM     28  O   UNL A   1      33.814  29.678  27.366  1.00  0.00    -0.269 OA
BRANCH  26  29
ATOM     29  C   UNL A   1      35.941  29.884  28.341  1.00  0.00     0.039 A 
ATOM     30  C   UNL A   1      36.877  30.029  27.314  1.00  0.00     0.014 A 
ATOM     31  C   UNL A   1      36.325  29.356  29.576  1.00  0.00     0.014 A 
ATOM     32  C   UNL A   1      38.210  29.687  27.544  1.00  0.00     0.010 A 
ATOM     33  C   UNL A   1      37.667  29.090  29.828  1.00  0.00     0.010 A 
ATOM     34  C   UNL A   1      38.621  29.239  28.811  1.00  0.00    -0.014 A 
BRANCH  34  35
ATOM     35  C   UNL A   1      40.041  28.893  29.077  1.00  0.00     0.031 A 
ATOM     36  C   UNL A   1      40.965  29.918  29.681  1.00  0.00     0.074 A 
ATOM     37  C   UNL A   1      40.507  27.674  28.741  1.00  0.00     0.049 A 
ATOM     38  N   UNL A   1      42.238  29.817  29.959  1.00  0.00    -0.248 NA
ATOM     39  C   UNL A   1      40.386  31.237  29.989  1.00  0.00     0.031 C 
ATOM     40  C   UNL A   1      39.725  26.612  28.102  1.00  0.00     0.029 A 
ATOM     41  N   UNL A   1      41.756  27.123  28.888  1.00  0.00    -0.354 N 
ATOM     42  C   UNL A   1      42.613  31.055  30.469  1.00  0.00     0.074 A 
ATOM     43  C   UNL A   1      41.451  31.911  30.397  1.00  0.00     0.031 C 
ATOM     44  C   UNL A   1      40.505  25.531  27.936  1.00  0.00     0.029 A 
ATOM     45  C   UNL A   1      41.847  25.832  28.425  1.00  0.00     0.049 A 
ATOM     46  H   UNL A   1      42.514  27.608  29.286  1.00  0.00     0.167 HD
ATOM     47  C   UNL A   1      43.806  31.437  30.983  1.00  0.00     0.031 A 
ATOM     48  C   UNL A   1      42.895  24.984  28.397  1.00  0.00     0.031 A 
ATOM     49  C   UNL A   1      44.961  30.581  31.059  1.00  0.00     0.049 A 
ATOM     50  C   UNL A   1      44.210  25.431  28.978  1.00  0.00     0.074 A 
ATOM     51  C   UNL A   1      46.210  30.865  31.582  1.00  0.00     0.029 A 
ATOM     52  N   UNL A   1      45.004  29.271  30.608  1.00  0.00    -0.354 N 
ATOM     53  N   UNL A   1      44.530  26.591  29.500  1.00  0.00    -0.248 NA
ATOM     54  C   UNL A   1      45.297  24.442  28.991  1.00  0.00     0.031 C 
ATOM     55  C   UNL A   1      47.021  29.736  31.412  1.00  0.00     0.029 A 
ATOM     56  C   UNL A   1      46.257  28.733  30.839  1.00  0.00     0.049 A 
ATOM     57  H   UNL A   1      44.253  28.794  30.186  1.00  0.00     0.167 HD
ATOM     58  C   UNL A   1      45.845  26.460  29.935  1.00  0.00     0.074 A 
ATOM     59  C   UNL A   1      46.251  25.103  29.630  1.00  0.00     0.031 C 
ATOM     60  C   UNL A   1      46.644  27.378  30.535  1.00  0.00     0.031 A 
BRANCH  47  61
ATOM     61  C   UNL A   1      43.913  32.843  31.516  1.00  0.00    -0.014 A 
ATOM     62  C   UNL A   1      43.581  33.133  32.852  1.00  0.00     0.010 A 
ATOM     63  C   UNL A   1      44.380  33.879  30.687  1.00  0.00     0.010 A 
ATOM     64  C   UNL A   1      43.674  34.439  33.338  1.00  0.00     0.020 A 
ATOM     65  C   UNL A   1      44.504  35.182  31.179  1.00  0.00     0.020 A 
ATOM     66  C   UNL A   1      44.133  35.456  32.498  1.00  0.00     0.054 A 
BRANCH  66  67
ATOM     67  S   UNL A   1      44.269  37.138  33.165  1.00  0.00     0.124 S 
ATOM     68  O   UNL A   1      43.803  37.946  32.039  1.00  0.00    -0.237 OA
ATOM     69  O   UNL A   1      43.375  37.097  34.319  1.00  0.00    -0.237 OA
ATOM     70  O   UNL A   1      45.688  37.272  33.482  1.00  0.00    -0.744 OA
ENDBRANCH  66  67
ENDBRANCH  47  61
BRANCH  48  71
ATOM     71  C   UNL A   1      42.739  23.623  27.814  1.00  0.00    -0.014 A 
ATOM     72  C   UNL A   1      43.252  23.320  26.540  1.00  0.00     0.010 A 
ATOM     73  C   UNL A   1      42.065  22.620  28.534  1.00  0.00     0.010 A 
ATOM     74  C   UNL A   1      43.065  22.051  25.983  1.00  0.00     0.020 A 
ATOM     75  C   UNL A   1      41.902  21.341  27.993  1.00  0.00     0.020 A 
ATOM     76  C   UNL A   1      42.389  21.070  26.713  1.00  0.00     0.054 A 
BRANCH  76  77
ATOM     77  S   UNL A   1      42.182  19.421  25.984  1.00  0.00     0.124 S 
ATOM     78  O   UNL A   1      40.735  19.346  25.811  1.00  0.00    -0.237 OA
ATOM     79  O   UNL A   1      42.963  19.519  24.754  1.00  0.00    -0.237 OA
ATOM     80  O   UNL A   1      42.739  18.529  26.998  1.00  0.00    -0.744 OA
ENDBRANCH  76  77
ENDBRANCH  48  71
BRANCH  60  81
ATOM     81  C   UNL A   1      48.019  26.928  30.953  1.00  0.00    -0.014 A 
ATOM     82  C   UNL A   1      49.152  27.182  30.159  1.00  0.00     0.010 A 
ATOM     83  C   UNL A   1      48.179  26.257  32.180  1.00  0.00     0.010 A 
ATOM     84  C   UNL A   1      50.410  26.728  30.560  1.00  0.00     0.020 A 
ATOM     85  C   UNL A   1      49.441  25.831  32.600  1.00  0.00     0.020 A 
ATOM     86  C   UNL A   1      50.546  26.049  31.776  1.00  0.00     0.054 A 
BRANCH  86  87
ATOM     87  S   UNL A   1      52.191  25.478  32.281  1.00  0.00     0.124 S 
ATOM     88  O   UNL A   1      52.964  25.659  31.055  1.00  0.00    -0.237 OA
ATOM     89  O   UNL A   1      52.524  26.388  33.374  1.00  0.00    -0.237 OA
ATOM     90  O   UNL A   1      51.969  24.090  32.680  1.00  0.00    -0.744 OA
ENDBRANCH  86  87
ENDBRANCH  60  81
ENDBRANCH  34  35
ENDBRANCH  26  29
ENDBRANCH  24  25
ENDBRANCH   1  24
TORSDOF 15
ENDMDL
MODEL 3
REMARK VINA RESULT:     -11.1      2.714      3.363
REMARK SMILES Cc1cc(-c2cc(C(=O)NCCCCNC(=O)c3ccc(-c4c5nc(c(-c6ccc(S(=O)(=O)[O-])cc6)c6ccc([nH]6)c(-c6ccc(S(=O)(=O)[O-])cc6)c6nc(c(-c7ccc(S(=O)(=O)[O-])cc7)c7ccc4[nH]7)C=C6)C=C5)cc3)c[nH]c2=O)ccc1Cl
REMARK SMILES IDX 13 1 12 2 11 3 10 4 8 5 9 6 7 8 5 9 6 10 80 11 79 12 81 13
REMARK SMILES IDX 78 14 4 16 1 17 2 18 3 19 84 20 83 21 85 22 82 23 14 24
REMARK SMILES IDX 15 25 16 26 17 28 18 29 19 30 77 31 20 32 76 33 21 34 22 35
REMARK SMILES IDX 23 36 70 37 24 38 75 39 69 40 71 41 25 42 74 43 68 44 67 45
REMARK SMILES IDX 26 47 56 48 37 49 55 50 38 51 41 52 54 53 72 54 39 55 40 56
REMARK SMILES IDX 53 58 73 59 42 60 27 61 28 62 36 63 29 64 35 65 30 66 31 67
REMARK SMILES IDX 32 68 33 69 34 70 57 71 58 72 66 73 59 74 65 75 60 76 61 77
REMARK SMILES IDX 62 78 63 79 64 80 43 81 44 82 52 83 45 84 51 85 46 86 47 87
REMARK SMILES IDX 48 88 49 89 50 90
REMARK H PARENT 10 7 79 15 15 27 71 46 41 57
REMARK Flexibility Score: inf
ROOT
ATOM      1  C   UNL A   1      33.480  27.632  25.288  1.00  0.00     0.023 C 
ENDROOT
BRANCH   1   2
ATOM      2  C   UNL A   1      33.689  27.948  23.803  1.00  0.00     0.023 C 
BRANCH   2   3
ATOM      3  C   UNL A   1      32.405  27.899  22.969  1.00  0.00     0.116 C 
BRANCH   3   4
ATOM      4  N   UNL A   1      32.619  27.158  21.743  1.00  0.00    -0.352 N 
ATOM      5  C   UNL A   1      32.910  25.855  21.479  1.00  0.00     0.252 C 
ATOM      6  O   UNL A   1      33.062  25.553  20.291  1.00  0.00    -0.269 OA
ATOM      7  H   UNL A   1      32.538  27.712  20.932  1.00  0.00     0.163 HD
BRANCH   5   8
ATOM      8  C   UNL A   1      32.988  24.796  22.540  1.00  0.00     0.056 A 
ATOM      9  C   UNL A   1      34.181  23.384  24.149  1.00  0.00     0.048 A 
ATOM     10  C   UNL A   1      34.193  24.199  23.077  1.00  0.00     0.029 A 
ATOM     11  C   UNL A   1      32.859  22.941  24.697  1.00  0.00     0.255 A 
ATOM     12  N   UNL A   1      31.753  23.465  24.065  1.00  0.00    -0.328 N 
ATOM     13  O   UNL A   1      32.756  22.153  25.631  1.00  0.00    -0.269 OA
ATOM     14  C   UNL A   1      31.810  24.377  23.037  1.00  0.00     0.099 A 
ATOM     15  H   UNL A   1      30.866  23.167  24.368  1.00  0.00     0.169 HD
BRANCH   9  16
ATOM     16  C   UNL A   1      35.462  22.970  24.734  1.00  0.00    -0.012 A 
ATOM     17  C   UNL A   1      37.749  19.929  24.810  1.00  0.00     0.046 C 
ATOM     18  C   UNL A   1      37.231  21.318  25.046  1.00  0.00    -0.032 A 
ATOM     19  C   UNL A   1      35.964  21.678  24.550  1.00  0.00     0.014 A 
ATOM     20  C   UNL A   1      37.981  22.277  25.747  1.00  0.00     0.044 A 
ATOM     21  C   UNL A   1      37.481  23.564  25.946  1.00  0.00     0.021 A 
ATOM     22  Cl  UNL A   1      39.546  21.913  26.383  1.00  0.00    -0.084 Cl
ATOM     23  C   UNL A   1      36.228  23.910  25.441  1.00  0.00     0.010 A 
ENDBRANCH   9  16
ENDBRANCH   5   8
ENDBRANCH   3   4
ENDBRANCH   2   3
ENDBRANCH   1   2
BRANCH   1  24
ATOM     24  C   UNL A   1      34.372  28.421  26.241  1.00  0.00     0.116 C 
BRANCH  24  25
ATOM     25  N   UNL A   1      33.864  29.751  26.534  1.00  0.00    -0.352 N 
ATOM     26  C   UNL A   1      34.362  30.682  27.417  1.00  0.00     0.251 C 
ATOM     27  H   UNL A   1      33.058  30.021  26.037  1.00  0.00     0.163 HD
ATOM     28  O   UNL A   1      33.748  31.715  27.631  1.00  0.00    -0.269 OA
BRANCH  26  29
ATOM     29  C   UNL A   1      35.626  30.395  28.130  1.00  0.00     0.039 A 
ATOM     30  C   UNL A   1      35.579  29.636  29.301  1.00  0.00     0.014 A 
ATOM     31  C   UNL A   1      36.850  30.854  27.635  1.00  0.00     0.014 A 
ATOM     32  C   UNL A   1      36.766  29.297  29.951  1.00  0.00     0.010 A 
ATOM     33  C   UNL A   1      38.035  30.449  28.240  1.00  0.00     0.010 A 
ATOM     34  C   UNL A   1      38.006  29.678  29.411  1.00  0.00    -0.014 A 
BRANCH  34  35
ATOM     35  C   UNL A   1      39.279  29.306  30.080  1.00  0.00     0.031 A 
ATOM     36  C   UNL A   1      39.733  30.055  31.305  1.00  0.00     0.074 A 
ATOM     37  C   UNL A   1      40.042  28.322  29.566  1.00  0.00     0.049 A 
ATOM     38  N   UNL A   1      40.823  29.899  32.010  1.00  0.00    -0.248 NA
ATOM     39  C   UNL A   1      38.858  31.139  31.785  1.00  0.00     0.031 C 
ATOM     40  C   UNL A   1      39.738  27.555  28.355  1.00  0.00     0.029 A 
ATOM     41  N   UNL A   1      41.236  27.799  29.997  1.00  0.00    -0.354 N 
ATOM     42  C   UNL A   1      40.768  30.864  33.010  1.00  0.00     0.074 A 
ATOM     43  C   UNL A   1      39.573  31.644  32.779  1.00  0.00     0.031 C 
ATOM     44  C   UNL A   1      40.705  26.645  28.156  1.00  0.00     0.029 A 
ATOM     45  C   UNL A   1      41.713  26.783  29.202  1.00  0.00     0.049 A 
ATOM     46  H   UNL A   1      41.707  28.122  30.799  1.00  0.00     0.167 HD
ATOM     47  C   UNL A   1      41.615  31.063  34.047  1.00  0.00     0.031 A 
ATOM     48  C   UNL A   1      42.836  26.045  29.305  1.00  0.00     0.031 A 
ATOM     49  C   UNL A   1      42.801  30.282  34.278  1.00  0.00     0.049 A 
ATOM     50  C   UNL A   1      43.761  26.282  30.470  1.00  0.00     0.074 A 
ATOM     51  C   UNL A   1      43.715  30.388  35.312  1.00  0.00     0.029 A 
ATOM     52  N   UNL A   1      43.233  29.242  33.468  1.00  0.00    -0.354 N 
ATOM     53  N   UNL A   1      43.665  27.168  31.432  1.00  0.00    -0.248 NA
ATOM     54  C   UNL A   1      44.931  25.400  30.575  1.00  0.00     0.031 C 
ATOM     55  C   UNL A   1      44.720  29.436  35.106  1.00  0.00     0.029 A 
ATOM     56  C   UNL A   1      44.399  28.700  33.977  1.00  0.00     0.049 A 
ATOM     57  H   UNL A   1      42.776  28.935  32.652  1.00  0.00     0.167 HD
ATOM     58  C   UNL A   1      44.743  26.927  32.277  1.00  0.00     0.074 A 
ATOM     59  C   UNL A   1      45.465  25.801  31.719  1.00  0.00     0.031 C 
ATOM     60  C   UNL A   1      45.103  27.576  33.413  1.00  0.00     0.031 A 
BRANCH  47  61
ATOM     61  C   UNL A   1      41.276  32.165  35.018  1.00  0.00    -0.014 A 
ATOM     62  C   UNL A   1      41.719  33.482  34.795  1.00  0.00     0.010 A 
ATOM     63  C   UNL A   1      40.481  31.893  36.146  1.00  0.00     0.010 A 
ATOM     64  C   UNL A   1      41.409  34.498  35.703  1.00  0.00     0.020 A 
ATOM     65  C   UNL A   1      40.143  32.913  37.040  1.00  0.00     0.020 A 
ATOM     66  C   UNL A   1      40.624  34.206  36.821  1.00  0.00     0.054 A 
BRANCH  66  67
ATOM     67  S   UNL A   1      40.214  35.550  37.968  1.00  0.00     0.124 S 
ATOM     68  O   UNL A   1      39.922  36.649  37.050  1.00  0.00    -0.237 OA
ATOM     69  O   UNL A   1      39.064  35.015  38.691  1.00  0.00    -0.237 OA
ATOM     70  O   UNL A   1      41.428  35.710  38.764  1.00  0.00    -0.744 OA
ENDBRANCH  66  67
ENDBRANCH  47  61
BRANCH  48  71
ATOM     71  C   UNL A   1      43.140  25.002  28.287  1.00  0.00    -0.014 A 
ATOM     72  C   UNL A   1      42.654  23.690  28.431  1.00  0.00     0.010 A 
ATOM     73  C   UNL A   1      43.929  25.317  27.166  1.00  0.00     0.010 A 
ATOM     74  C   UNL A   1      42.979  22.706  27.492  1.00  0.00     0.020 A 
ATOM     75  C   UNL A   1      44.230  24.344  26.209  1.00  0.00     0.020 A 
ATOM     76  C   UNL A   1      43.767  23.040  26.387  1.00  0.00     0.054 A 
BRANCH  76  77
ATOM     77  S   UNL A   1      44.153  21.755  25.165  1.00  0.00     0.124 S 
ATOM     78  O   UNL A   1      43.992  22.476  23.907  1.00  0.00    -0.237 OA
ATOM     79  O   UNL A   1      45.522  21.387  25.514  1.00  0.00    -0.237 OA
ATOM     80  O   UNL A   1      43.152  20.724  25.429  1.00  0.00    -0.744 OA
ENDBRANCH  76  77
ENDBRANCH  48  71
BRANCH  60  81
ATOM     81  C   UNL A   1      46.299  27.047  34.160  1.00  0.00    -0.014 A 
ATOM     82  C   UNL A   1      47.598  27.523  33.905  1.00  0.00     0.010 A 
ATOM     83  C   UNL A   1      46.111  26.070  35.155  1.00  0.00     0.010 A 
ATOM     84  C   UNL A   1      48.691  26.994  34.594  1.00  0.00     0.020 A 
ATOM     85  C   UNL A   1      47.199  25.562  35.870  1.00  0.00     0.020 A 
ATOM     86  C   UNL A   1      48.485  26.012  35.569  1.00  0.00     0.054 A 
BRANCH  86  87
ATOM     87  S   UNL A   1      49.919  25.347  36.459  1.00  0.00     0.124 S 
ATOM     88  O   UNL A   1      49.303  24.824  37.676  1.00  0.00    -0.237 OA
ATOM     89  O   UNL A   1      50.433  24.341  35.532  1.00  0.00    -0.237 OA
ATOM     90  O   UNL A   1      50.781  26.511  36.646  1.00  0.00    -0.744 OA
ENDBRANCH  86  87
ENDBRANCH  60  81
ENDBRANCH  34  35
ENDBRANCH  26  29
ENDBRANCH  24  25
ENDBRANCH   1  24
TORSDOF 15
ENDMDL
