MODEL 1
REMARK VINA RESULT:      -9.4      0.000      0.000
REMARK SMILES CC(=O)[C@H]1CC(C)=C(C)C[C@@H]1C(=O)NCCCCNC(=O)c1ccc(-c2c3nc(c(-c4ccc(S(=O)(=O)[O-])cc4)c4ccc([nH]4)c(-c4ccc(S(=O)(=O)[O-])cc4)c4nc(c(-c5ccc(S(=O)(=O)[O-])cc5)c5ccc2[nH]5)C=C4)C=C3)cc1
REMARK SMILES IDX 17 1 16 2 15 3 14 4 12 5 13 6 11 8 4 9 5 10 6 11 10 12 7 13
REMARK SMILES IDX 8 14 9 15 2 16 1 17 3 18 18 19 19 20 20 21 21 23 22 24 23 25
REMARK SMILES IDX 81 26 24 27 80 28 25 29 26 30 27 31 74 32 28 33 79 34 73 35
REMARK SMILES IDX 75 36 29 37 78 38 72 39 71 40 30 42 60 43 41 44 59 45 42 46
REMARK SMILES IDX 45 47 58 48 76 49 43 50 44 51 57 53 77 54 46 55 31 56 32 57
REMARK SMILES IDX 40 58 33 59 39 60 34 61 35 62 36 63 37 64 38 65 61 66 62 67
REMARK SMILES IDX 70 68 63 69 69 70 64 71 65 72 66 73 67 74 68 75 47 76 48 77
REMARK SMILES IDX 56 78 49 79 55 80 50 81 51 82 52 83 53 84 54 85
REMARK H PARENT 14 7 19 22 75 41 45 52
REMARK Flexibility Score: inf
ROOT
ATOM      1  C   UNL A   1      42.223  22.509  27.181  1.00  0.00     0.023 C 
ENDROOT
BRANCH   1   2
ATOM      2  C   UNL A   1      42.827  23.654  28.001  1.00  0.00     0.023 C 
BRANCH   2   3
ATOM      3  C   UNL A   1      44.311  23.481  28.316  1.00  0.00     0.116 C 
BRANCH   3   4
ATOM      4  N   UNL A   1      45.042  22.793  27.266  1.00  0.00    -0.356 N 
ATOM      5  C   UNL A   1      45.923  23.137  26.303  1.00  0.00     0.224 C 
ATOM      6  O   UNL A   1      46.430  22.176  25.702  1.00  0.00    -0.275 OA
ATOM      7  H   UNL A   1      44.842  21.828  27.253  1.00  0.00     0.163 HD
BRANCH   5   8
ATOM      8  C   UNL A   1      46.335  24.554  25.865  1.00  0.00     0.093 C 
ATOM      9  C   UNL A   1      47.013  25.483  26.876  1.00  0.00     0.072 C 
ATOM     10  C   UNL A   1      46.758  26.975  26.600  1.00  0.00     0.043 C 
ATOM     11  C   UNL A   1      45.315  27.304  26.336  1.00  0.00    -0.074 C 
ATOM     12  C   UNL A   1      45.121  25.154  25.105  1.00  0.00     0.045 C 
ATOM     13  C   UNL A   1      44.836  28.610  26.908  1.00  0.00     0.039 C 
ATOM     14  C   UNL A   1      44.566  26.467  25.595  1.00  0.00    -0.074 C 
ATOM     15  C   UNL A   1      43.165  26.779  25.137  1.00  0.00     0.039 C 
BRANCH   9  16
ATOM     16  C   UNL A   1      48.541  25.274  26.937  1.00  0.00     0.134 C 
ATOM     17  C   UNL A   1      49.463  26.235  26.219  1.00  0.00     0.088 C 
ATOM     18  O   UNL A   1      49.030  24.293  27.505  1.00  0.00    -0.300 OA
ENDBRANCH   9  16
ENDBRANCH   5   8
ENDBRANCH   3   4
ENDBRANCH   2   3
ENDBRANCH   1   2
BRANCH   1  19
ATOM     19  C   UNL A   1      40.914  21.931  27.716  1.00  0.00     0.116 C 
BRANCH  19  20
ATOM     20  N   UNL A   1      39.846  21.847  26.732  1.00  0.00    -0.352 N 
ATOM     21  C   UNL A   1      39.011  22.866  26.328  1.00  0.00     0.251 C 
ATOM     22  H   UNL A   1      39.705  20.968  26.309  1.00  0.00     0.163 HD
ATOM     23  O   UNL A   1      38.087  22.655  25.550  1.00  0.00    -0.269 OA
BRANCH  21  24
ATOM     24  C   UNL A   1      39.224  24.210  26.903  1.00  0.00     0.039 A 
ATOM     25  C   UNL A   1      38.828  24.451  28.220  1.00  0.00     0.014 A 
ATOM     26  C   UNL A   1      39.907  25.185  26.173  1.00  0.00     0.014 A 
ATOM     27  C   UNL A   1      39.190  25.650  28.836  1.00  0.00     0.010 A 
ATOM     28  C   UNL A   1      40.322  26.350  26.808  1.00  0.00     0.010 A 
ATOM     29  C   UNL A   1      39.977  26.590  28.147  1.00  0.00    -0.014 A 
BRANCH  29  30
ATOM     30  C   UNL A   1      40.463  27.822  28.816  1.00  0.00     0.031 A 
ATOM     31  C   UNL A   1      41.857  27.877  29.373  1.00  0.00     0.074 A 
ATOM     32  C   UNL A   1      39.624  28.865  28.986  1.00  0.00     0.049 A 
ATOM     33  N   UNL A   1      42.443  28.842  30.035  1.00  0.00    -0.248 NA
ATOM     34  C   UNL A   1      42.693  26.680  29.187  1.00  0.00     0.031 C 
ATOM     35  C   UNL A   1      38.230  28.917  28.532  1.00  0.00     0.029 A 
ATOM     36  N   UNL A   1      39.820  30.081  29.591  1.00  0.00    -0.354 N 
ATOM     37  C   UNL A   1      43.705  28.362  30.362  1.00  0.00     0.074 A 
ATOM     38  C   UNL A   1      43.783  27.004  29.867  1.00  0.00     0.031 C 
ATOM     39  C   UNL A   1      37.710  30.115  28.847  1.00  0.00     0.029 A 
ATOM     40  C   UNL A   1      38.716  30.902  29.552  1.00  0.00     0.049 A 
ATOM     41  H   UNL A   1      40.670  30.342  30.012  1.00  0.00     0.167 HD
ATOM     42  C   UNL A   1      44.717  28.998  30.999  1.00  0.00     0.031 A 
ATOM     43  C   UNL A   1      38.537  32.148  30.029  1.00  0.00     0.031 A 
ATOM     44  C   UNL A   1      44.644  30.354  31.473  1.00  0.00     0.049 A 
ATOM     45  C   UNL A   1      39.677  32.840  30.725  1.00  0.00     0.074 A 
ATOM     46  C   UNL A   1      45.635  31.111  32.073  1.00  0.00     0.029 A 
ATOM     47  N   UNL A   1      43.515  31.155  31.401  1.00  0.00    -0.354 N 
ATOM     48  N   UNL A   1      40.888  32.393  30.963  1.00  0.00    -0.248 NA
ATOM     49  C   UNL A   1      39.430  34.205  31.206  1.00  0.00     0.031 C 
ATOM     50  C   UNL A   1      45.093  32.359  32.399  1.00  0.00     0.029 A 
ATOM     51  C   UNL A   1      43.777  32.394  31.962  1.00  0.00     0.049 A 
ATOM     52  H   UNL A   1      42.654  30.884  31.010  1.00  0.00     0.167 HD
ATOM     53  C   UNL A   1      41.556  33.434  31.597  1.00  0.00     0.074 A 
ATOM     54  C   UNL A   1      40.618  34.534  31.696  1.00  0.00     0.031 C 
ATOM     55  C   UNL A   1      42.833  33.477  32.052  1.00  0.00     0.031 A 
BRANCH  42  56
ATOM     56  C   UNL A   1      45.988  28.222  31.221  1.00  0.00    -0.014 A 
ATOM     57  C   UNL A   1      47.003  28.201  30.247  1.00  0.00     0.010 A 
ATOM     58  C   UNL A   1      46.173  27.511  32.419  1.00  0.00     0.010 A 
ATOM     59  C   UNL A   1      48.157  27.439  30.446  1.00  0.00     0.020 A 
ATOM     60  C   UNL A   1      47.338  26.769  32.633  1.00  0.00     0.020 A 
ATOM     61  C   UNL A   1      48.313  26.720  31.634  1.00  0.00     0.054 A 
BRANCH  61  62
ATOM     62  S   UNL A   1      49.819  25.736  31.867  1.00  0.00     0.124 S 
ATOM     63  O   UNL A   1      50.032  25.196  30.526  1.00  0.00    -0.237 OA
ATOM     64  O   UNL A   1      50.792  26.734  32.303  1.00  0.00    -0.237 OA
ATOM     65  O   UNL A   1      49.438  24.756  32.880  1.00  0.00    -0.744 OA
ENDBRANCH  61  62
ENDBRANCH  42  56
BRANCH  43  66
ATOM     66  C   UNL A   1      37.235  32.841  29.831  1.00  0.00    -0.014 A 
ATOM     67  C   UNL A   1      36.334  32.972  30.903  1.00  0.00     0.010 A 
ATOM     68  C   UNL A   1      36.894  33.385  28.580  1.00  0.00     0.010 A 
ATOM     69  C   UNL A   1      35.109  33.620  30.724  1.00  0.00     0.020 A 
ATOM     70  C   UNL A   1      35.679  34.055  28.404  1.00  0.00     0.020 A 
ATOM     71  C   UNL A   1      34.789  34.159  29.475  1.00  0.00     0.054 A 
BRANCH  71  72
ATOM     72  S   UNL A   1      33.218  35.046  29.279  1.00  0.00     0.124 S 
ATOM     73  O   UNL A   1      32.645  34.947  30.616  1.00  0.00    -0.237 OA
ATOM     74  O   UNL A   1      33.655  36.380  28.874  1.00  0.00    -0.237 OA
ATOM     75  O   UNL A   1      32.526  34.285  28.240  1.00  0.00    -0.744 OA
ENDBRANCH  71  72
ENDBRANCH  43  66
BRANCH  55  76
ATOM     76  C   UNL A   1      43.302  34.765  32.670  1.00  0.00    -0.014 A 
ATOM     77  C   UNL A   1      43.805  35.811  31.877  1.00  0.00     0.010 A 
ATOM     78  C   UNL A   1      43.184  34.949  34.059  1.00  0.00     0.010 A 
ATOM     79  C   UNL A   1      44.210  37.011  32.468  1.00  0.00     0.020 A 
ATOM     80  C   UNL A   1      43.565  36.157  34.650  1.00  0.00     0.020 A 
ATOM     81  C   UNL A   1      44.088  37.175  33.851  1.00  0.00     0.054 A 
BRANCH  81  82
ATOM     82  S   UNL A   1      44.573  38.759  34.591  1.00  0.00     0.124 S 
ATOM     83  O   UNL A   1      43.663  39.692  33.934  1.00  0.00    -0.237 OA
ATOM     84  O   UNL A   1      44.327  38.539  36.015  1.00  0.00    -0.237 OA
ATOM     85  O   UNL A   1      45.980  38.896  34.222  1.00  0.00    -0.744 OA
ENDBRANCH  81  82
ENDBRANCH  55  76
ENDBRANCH  29  30
ENDBRANCH  21  24
ENDBRANCH  19  20
ENDBRANCH   1  19
TORSDOF 15
ENDMDL
MODEL 2
REMARK VINA RESULT:      -9.2      3.540     10.712
REMARK SMILES CC(=O)[C@H]1CC(C)=C(C)C[C@@H]1C(=O)NCCCCNC(=O)c1ccc(-c2c3nc(c(-c4ccc(S(=O)(=O)[O-])cc4)c4ccc([nH]4)c(-c4ccc(S(=O)(=O)[O-])cc4)c4nc(c(-c5ccc(S(=O)(=O)[O-])cc5)c5ccc2[nH]5)C=C4)C=C3)cc1
REMARK SMILES IDX 17 1 16 2 15 3 14 4 12 5 13 6 11 8 4 9 5 10 6 11 10 12 7 13
REMARK SMILES IDX 8 14 9 15 2 16 1 17 3 18 18 19 19 20 20 21 21 23 22 24 23 25
REMARK SMILES IDX 81 26 24 27 80 28 25 29 26 30 27 31 74 32 28 33 79 34 73 35
REMARK SMILES IDX 75 36 29 37 78 38 72 39 71 40 30 42 60 43 41 44 59 45 42 46
REMARK SMILES IDX 45 47 58 48 76 49 43 50 44 51 57 53 77 54 46 55 31 56 32 57
REMARK SMILES IDX 40 58 33 59 39 60 34 61 35 62 36 63 37 64 38 65 61 66 62 67
REMARK SMILES IDX 70 68 63 69 69 70 64 71 65 72 66 73 67 74 68 75 47 76 48 77
REMARK SMILES IDX 56 78 49 79 55 80 50 81 51 82 52 83 53 84 54 85
REMARK H PARENT 14 7 19 22 75 41 45 52
REMARK Flexibility Score: inf
ROOT
ATOM      1  C   UNL A   1      32.039  27.916  26.956  1.00  0.00     0.023 C 
ENDROOT
BRANCH   1   2
ATOM      2  C   UNL A   1      31.668  27.869  25.469  1.00  0.00     0.023 C 
BRANCH   2   3
ATOM      3  C   UNL A   1      31.452  26.459  24.924  1.00  0.00     0.116 C 
BRANCH   3   4
ATOM      4  N   UNL A   1      31.938  25.421  25.816  1.00  0.00    -0.356 N 
ATOM      5  C   UNL A   1      33.002  24.591  25.860  1.00  0.00     0.224 C 
ATOM      6  O   UNL A   1      33.109  23.947  26.915  1.00  0.00    -0.275 OA
ATOM      7  H   UNL A   1      31.337  25.287  26.585  1.00  0.00     0.163 HD
BRANCH   5   8
ATOM      8  C   UNL A   1      34.053  24.346  24.762  1.00  0.00     0.093 C 
ATOM      9  C   UNL A   1      33.998  23.051  23.946  1.00  0.00     0.072 C 
ATOM     10  C   UNL A   1      35.372  22.600  23.423  1.00  0.00     0.043 C 
ATOM     11  C   UNL A   1      36.455  22.622  24.467  1.00  0.00    -0.074 C 
ATOM     12  C   UNL A   1      35.433  24.693  25.384  1.00  0.00     0.045 C 
ATOM     13  C   UNL A   1      37.447  21.494  24.390  1.00  0.00     0.039 C 
ATOM     14  C   UNL A   1      36.503  23.632  25.355  1.00  0.00    -0.074 C 
ATOM     15  C   UNL A   1      37.632  23.836  26.331  1.00  0.00     0.039 C 
BRANCH   9  16
ATOM     16  C   UNL A   1      33.048  23.158  22.734  1.00  0.00     0.134 C 
ATOM     17  C   UNL A   1      31.556  23.006  22.930  1.00  0.00     0.088 C 
ATOM     18  O   UNL A   1      33.487  23.294  21.588  1.00  0.00    -0.300 OA
ENDBRANCH   9  16
ENDBRANCH   5   8
ENDBRANCH   3   4
ENDBRANCH   2   3
ENDBRANCH   1   2
BRANCH   1  19
ATOM     19  C   UNL A   1      33.386  28.559  27.282  1.00  0.00     0.116 C 
BRANCH  19  20
ATOM     20  N   UNL A   1      33.316  29.979  27.592  1.00  0.00    -0.352 N 
ATOM     21  C   UNL A   1      34.327  30.766  28.098  1.00  0.00     0.251 C 
ATOM     22  H   UNL A   1      32.454  30.424  27.420  1.00  0.00     0.163 HD
ATOM     23  O   UNL A   1      34.125  31.937  28.401  1.00  0.00    -0.269 OA
BRANCH  21  24
ATOM     24  C   UNL A   1      35.648  30.145  28.321  1.00  0.00     0.039 A 
ATOM     25  C   UNL A   1      36.578  30.145  27.280  1.00  0.00     0.014 A 
ATOM     26  C   UNL A   1      35.993  29.666  29.587  1.00  0.00     0.014 A 
ATOM     27  C   UNL A   1      37.888  29.733  27.532  1.00  0.00     0.010 A 
ATOM     28  C   UNL A   1      37.313  29.318  29.851  1.00  0.00     0.010 A 
ATOM     29  C   UNL A   1      38.275  29.358  28.830  1.00  0.00    -0.014 A 
BRANCH  29  30
ATOM     30  C   UNL A   1      39.686  29.019  29.144  1.00  0.00     0.031 A 
ATOM     31  C   UNL A   1      40.579  30.040  29.790  1.00  0.00     0.074 A 
ATOM     32  C   UNL A   1      40.181  27.819  28.780  1.00  0.00     0.049 A 
ATOM     33  N   UNL A   1      41.849  29.950  30.093  1.00  0.00    -0.248 NA
ATOM     34  C   UNL A   1      39.974  31.341  30.113  1.00  0.00     0.031 C 
ATOM     35  C   UNL A   1      39.427  26.758  28.103  1.00  0.00     0.029 A 
ATOM     36  N   UNL A   1      41.439  27.288  28.925  1.00  0.00    -0.354 N 
ATOM     37  C   UNL A   1      42.199  31.186  30.621  1.00  0.00     0.074 A 
ATOM     38  C   UNL A   1      41.021  32.024  30.554  1.00  0.00     0.031 C 
ATOM     39  C   UNL A   1      40.229  25.695  27.921  1.00  0.00     0.029 A 
ATOM     40  C   UNL A   1      41.559  26.008  28.435  1.00  0.00     0.049 A 
ATOM     41  H   UNL A   1      42.184  27.777  29.340  1.00  0.00     0.167 HD
ATOM     42  C   UNL A   1      43.388  31.585  31.134  1.00  0.00     0.031 A 
ATOM     43  C   UNL A   1      42.619  25.179  28.407  1.00  0.00     0.031 A 
ATOM     44  C   UNL A   1      44.552  30.745  31.216  1.00  0.00     0.049 A 
ATOM     45  C   UNL A   1      43.927  25.640  28.990  1.00  0.00     0.074 A 
ATOM     46  C   UNL A   1      45.784  31.033  31.777  1.00  0.00     0.029 A 
ATOM     47  N   UNL A   1      44.628  29.451  30.724  1.00  0.00    -0.354 N 
ATOM     48  N   UNL A   1      44.219  26.791  29.549  1.00  0.00    -0.248 NA
ATOM     49  C   UNL A   1      45.044  24.687  28.950  1.00  0.00     0.031 C 
ATOM     50  C   UNL A   1      46.618  29.926  31.589  1.00  0.00     0.029 A 
ATOM     51  C   UNL A   1      45.891  28.932  30.951  1.00  0.00     0.049 A 
ATOM     52  H   UNL A   1      43.892  28.972  30.279  1.00  0.00     0.167 HD
ATOM     53  C   UNL A   1      45.545  26.689  29.952  1.00  0.00     0.074 A 
ATOM     54  C   UNL A   1      45.995  25.362  29.581  1.00  0.00     0.031 C 
ATOM     55  C   UNL A   1      46.320  27.610  30.576  1.00  0.00     0.031 A 
BRANCH  42  56
ATOM     56  C   UNL A   1      43.480  33.000  31.639  1.00  0.00    -0.014 A 
ATOM     57  C   UNL A   1      43.927  34.040  30.803  1.00  0.00     0.010 A 
ATOM     58  C   UNL A   1      43.108  33.296  32.963  1.00  0.00     0.010 A 
ATOM     59  C   UNL A   1      44.052  35.340  31.299  1.00  0.00     0.020 A 
ATOM     60  C   UNL A   1      43.207  34.601  33.453  1.00  0.00     0.020 A 
ATOM     61  C   UNL A   1      43.700  35.611  32.623  1.00  0.00     0.054 A 
BRANCH  61  62
ATOM     62  S   UNL A   1      43.875  37.307  33.243  1.00  0.00     0.124 S 
ATOM     63  O   UNL A   1      42.722  37.418  34.133  1.00  0.00    -0.237 OA
ATOM     64  O   UNL A   1      45.177  37.276  33.905  1.00  0.00    -0.237 OA
ATOM     65  O   UNL A   1      43.812  38.125  32.035  1.00  0.00    -0.744 OA
ENDBRANCH  61  62
ENDBRANCH  42  56
BRANCH  43  66
ATOM     66  C   UNL A   1      42.480  23.812  27.838  1.00  0.00    -0.014 A 
ATOM     67  C   UNL A   1      42.183  22.723  28.676  1.00  0.00     0.010 A 
ATOM     68  C   UNL A   1      42.628  23.591  26.457  1.00  0.00     0.010 A 
ATOM     69  C   UNL A   1      42.053  21.436  28.148  1.00  0.00     0.020 A 
ATOM     70  C   UNL A   1      42.474  22.308  25.921  1.00  0.00     0.020 A 
ATOM     71  C   UNL A   1      42.197  21.237  26.773  1.00  0.00     0.054 A 
BRANCH  71  72
ATOM     72  S   UNL A   1      41.968  19.567  26.100  1.00  0.00     0.124 S 
ATOM     73  O   UNL A   1      42.444  18.730  27.196  1.00  0.00    -0.237 OA
ATOM     74  O   UNL A   1      40.529  19.522  25.846  1.00  0.00    -0.237 OA
ATOM     75  O   UNL A   1      42.803  19.566  24.901  1.00  0.00    -0.744 OA
ENDBRANCH  71  72
ENDBRANCH  43  66
BRANCH  55  76
ATOM     76  C   UNL A   1      47.725  27.204  30.928  1.00  0.00    -0.014 A 
ATOM     77  C   UNL A   1      48.803  27.501  30.076  1.00  0.00     0.010 A 
ATOM     78  C   UNL A   1      47.974  26.567  32.158  1.00  0.00     0.010 A 
ATOM     79  C   UNL A   1      50.105  27.140  30.436  1.00  0.00     0.020 A 
ATOM     80  C   UNL A   1      49.277  26.227  32.530  1.00  0.00     0.020 A 
ATOM     81  C   UNL A   1      50.332  26.505  31.660  1.00  0.00     0.054 A 
BRANCH  81  82
ATOM     82  S   UNL A   1      52.035  26.090  32.128  1.00  0.00     0.124 S 
ATOM     83  O   UNL A   1      52.609  25.675  30.851  1.00  0.00    -0.237 OA
ATOM     84  O   UNL A   1      52.540  27.353  32.662  1.00  0.00    -0.237 OA
ATOM     85  O   UNL A   1      51.873  25.025  33.114  1.00  0.00    -0.744 OA
ENDBRANCH  81  82
ENDBRANCH  55  76
ENDBRANCH  29  30
ENDBRANCH  21  24
ENDBRANCH  19  20
ENDBRANCH   1  19
TORSDOF 15
ENDMDL
MODEL 3
REMARK VINA RESULT:      -9.2      4.238     11.059
REMARK SMILES CC(=O)[C@H]1CC(C)=C(C)C[C@@H]1C(=O)NCCCCNC(=O)c1ccc(-c2c3nc(c(-c4ccc(S(=O)(=O)[O-])cc4)c4ccc([nH]4)c(-c4ccc(S(=O)(=O)[O-])cc4)c4nc(c(-c5ccc(S(=O)(=O)[O-])cc5)c5ccc2[nH]5)C=C4)C=C3)cc1
REMARK SMILES IDX 17 1 16 2 15 3 14 4 12 5 13 6 11 8 4 9 5 10 6 11 10 12 7 13
REMARK SMILES IDX 8 14 9 15 2 16 1 17 3 18 18 19 19 20 20 21 21 23 22 24 23 25
REMARK SMILES IDX 81 26 24 27 80 28 25 29 26 30 27 31 74 32 28 33 79 34 73 35
REMARK SMILES IDX 75 36 29 37 78 38 72 39 71 40 30 42 60 43 41 44 59 45 42 46
REMARK SMILES IDX 45 47 58 48 76 49 43 50 44 51 57 53 77 54 46 55 31 56 32 57
REMARK SMILES IDX 40 58 33 59 39 60 34 61 35 62 36 63 37 64 38 65 61 66 62 67
REMARK SMILES IDX 70 68 63 69 69 70 64 71 65 72 66 73 67 74 68 75 47 76 48 77
REMARK SMILES IDX 56 78 49 79 55 80 50 81 51 82 52 83 53 84 54 85
REMARK H PARENT 14 7 19 22 75 41 45 52
REMARK Flexibility Score: inf
ROOT
ATOM      1  C   UNL A   1      32.395  28.075  26.379  1.00  0.00     0.023 C 
ENDROOT
BRANCH   1   2
ATOM      2  C   UNL A   1      32.030  26.591  26.492  1.00  0.00     0.023 C 
BRANCH   2   3
ATOM      3  C   UNL A   1      30.594  26.268  26.089  1.00  0.00     0.116 C 
BRANCH   3   4
ATOM      4  N   UNL A   1      30.453  24.960  25.473  1.00  0.00    -0.356 N 
ATOM      5  C   UNL A   1      30.932  24.343  24.373  1.00  0.00     0.224 C 
ATOM      6  O   UNL A   1      30.668  23.132  24.306  1.00  0.00    -0.275 OA
ATOM      7  H   UNL A   1      29.854  24.374  25.991  1.00  0.00     0.163 HD
BRANCH   5   8
ATOM      8  C   UNL A   1      31.727  24.968  23.212  1.00  0.00     0.093 C 
ATOM      9  C   UNL A   1      33.245  25.120  23.339  1.00  0.00     0.072 C 
ATOM     10  C   UNL A   1      33.811  26.297  22.525  1.00  0.00     0.043 C 
ATOM     11  C   UNL A   1      33.048  27.581  22.706  1.00  0.00    -0.074 C 
ATOM     12  C   UNL A   1      30.954  26.245  22.783  1.00  0.00     0.045 C 
ATOM     13  C   UNL A   1      33.887  28.829  22.743  1.00  0.00     0.039 C 
ATOM     14  C   UNL A   1      31.705  27.551  22.780  1.00  0.00    -0.074 C 
ATOM     15  C   UNL A   1      30.840  28.785  22.796  1.00  0.00     0.039 C 
BRANCH   9  16
ATOM     16  C   UNL A   1      34.004  23.847  22.909  1.00  0.00     0.134 C 
ATOM     17  C   UNL A   1      35.082  23.273  23.802  1.00  0.00     0.088 C 
ATOM     18  O   UNL A   1      33.800  23.321  21.811  1.00  0.00    -0.300 OA
ENDBRANCH   9  16
ENDBRANCH   5   8
ENDBRANCH   3   4
ENDBRANCH   2   3
ENDBRANCH   1   2
BRANCH   1  19
ATOM     19  C   UNL A   1      33.553  28.541  27.261  1.00  0.00     0.116 C 
BRANCH  19  20
ATOM     20  N   UNL A   1      33.471  29.933  27.676  1.00  0.00    -0.352 N 
ATOM     21  C   UNL A   1      34.476  30.690  28.237  1.00  0.00     0.251 C 
ATOM     22  H   UNL A   1      32.605  30.382  27.540  1.00  0.00     0.163 HD
ATOM     23  O   UNL A   1      34.264  31.833  28.627  1.00  0.00    -0.269 OA
BRANCH  21  24
ATOM     24  C   UNL A   1      35.804  30.067  28.409  1.00  0.00     0.039 A 
ATOM     25  C   UNL A   1      36.707  30.097  27.344  1.00  0.00     0.014 A 
ATOM     26  C   UNL A   1      36.183  29.555  29.652  1.00  0.00     0.014 A 
ATOM     27  C   UNL A   1      38.024  29.683  27.551  1.00  0.00     0.010 A 
ATOM     28  C   UNL A   1      37.510  29.204  29.872  1.00  0.00     0.010 A 
ATOM     29  C   UNL A   1      38.445  29.273  28.828  1.00  0.00    -0.014 A 
BRANCH  29  30
ATOM     30  C   UNL A   1      39.864  28.930  29.096  1.00  0.00     0.031 A 
ATOM     31  C   UNL A   1      40.783  29.951  29.705  1.00  0.00     0.074 A 
ATOM     32  C   UNL A   1      40.341  27.725  28.724  1.00  0.00     0.049 A 
ATOM     33  N   UNL A   1      42.063  29.857  29.965  1.00  0.00    -0.248 NA
ATOM     34  C   UNL A   1      40.195  31.257  30.040  1.00  0.00     0.031 C 
ATOM     35  C   UNL A   1      39.560  26.664  28.080  1.00  0.00     0.029 A 
ATOM     36  N   UNL A   1      41.601  27.190  28.830  1.00  0.00    -0.354 N 
ATOM     37  C   UNL A   1      42.435  31.095  30.473  1.00  0.00     0.074 A 
ATOM     38  C   UNL A   1      41.259  31.938  30.440  1.00  0.00     0.031 C 
ATOM     39  C   UNL A   1      40.351  25.596  27.878  1.00  0.00     0.029 A 
ATOM     40  C   UNL A   1      41.698  25.906  28.345  1.00  0.00     0.049 A 
ATOM     41  H   UNL A   1      42.362  27.678  29.216  1.00  0.00     0.167 HD
ATOM     42  C   UNL A   1      43.642  31.492  30.943  1.00  0.00     0.031 A 
ATOM     43  C   UNL A   1      42.754  25.072  28.286  1.00  0.00     0.031 A 
ATOM     44  C   UNL A   1      44.805  30.647  30.991  1.00  0.00     0.049 A 
ATOM     45  C   UNL A   1      44.083  25.530  28.822  1.00  0.00     0.074 A 
ATOM     46  C   UNL A   1      46.056  30.933  31.507  1.00  0.00     0.029 A 
ATOM     47  N   UNL A   1      44.859  29.350  30.505  1.00  0.00    -0.354 N 
ATOM     48  N   UNL A   1      44.398  26.684  29.363  1.00  0.00    -0.248 NA
ATOM     49  C   UNL A   1      45.193  24.572  28.750  1.00  0.00     0.031 C 
ATOM     50  C   UNL A   1      46.879  29.821  31.298  1.00  0.00     0.029 A 
ATOM     51  C   UNL A   1      46.127  28.827  30.692  1.00  0.00     0.049 A 
ATOM     52  H   UNL A   1      44.106  28.871  30.088  1.00  0.00     0.167 HD
ATOM     53  C   UNL A   1      45.737  26.578  29.720  1.00  0.00     0.074 A 
ATOM     54  C   UNL A   1      46.168  25.247  29.344  1.00  0.00     0.031 C 
ATOM     55  C   UNL A   1      46.537  27.500  30.312  1.00  0.00     0.031 A 
BRANCH  42  56
ATOM     56  C   UNL A   1      43.758  32.910  31.435  1.00  0.00    -0.014 A 
ATOM     57  C   UNL A   1      44.325  33.913  30.627  1.00  0.00     0.010 A 
ATOM     58  C   UNL A   1      43.288  33.246  32.717  1.00  0.00     0.010 A 
ATOM     59  C   UNL A   1      44.469  35.215  31.114  1.00  0.00     0.020 A 
ATOM     60  C   UNL A   1      43.406  34.554  33.196  1.00  0.00     0.020 A 
ATOM     61  C   UNL A   1      44.017  35.524  32.399  1.00  0.00     0.054 A 
BRANCH  61  62
ATOM     62  S   UNL A   1      44.218  37.221  33.009  1.00  0.00     0.124 S 
ATOM     63  O   UNL A   1      43.469  37.177  34.262  1.00  0.00    -0.237 OA
ATOM     64  O   UNL A   1      45.667  37.344  33.148  1.00  0.00    -0.237 OA
ATOM     65  O   UNL A   1      43.623  38.040  31.956  1.00  0.00    -0.744 OA
ENDBRANCH  61  62
ENDBRANCH  42  56
BRANCH  43  66
ATOM     66  C   UNL A   1      42.590  23.702  27.731  1.00  0.00    -0.014 A 
ATOM     67  C   UNL A   1      42.215  22.638  28.571  1.00  0.00     0.010 A 
ATOM     68  C   UNL A   1      42.790  23.453  26.362  1.00  0.00     0.010 A 
ATOM     69  C   UNL A   1      42.060  21.348  28.056  1.00  0.00     0.020 A 
ATOM     70  C   UNL A   1      42.613  22.169  25.839  1.00  0.00     0.020 A 
ATOM     71  C   UNL A   1      42.259  21.121  26.692  1.00  0.00     0.054 A 
BRANCH  71  72
ATOM     72  S   UNL A   1      41.998  19.450  26.034  1.00  0.00     0.124 S 
ATOM     73  O   UNL A   1      42.836  19.460  24.841  1.00  0.00    -0.237 OA
ATOM     74  O   UNL A   1      42.463  18.602  27.130  1.00  0.00    -0.237 OA
ATOM     75  O   UNL A   1      40.558  19.402  25.790  1.00  0.00    -0.744 OA
ENDBRANCH  71  72
ENDBRANCH  43  66
BRANCH  55  76
ATOM     76  C   UNL A   1      47.951  27.090  30.619  1.00  0.00    -0.014 A 
ATOM     77  C   UNL A   1      48.995  27.344  29.713  1.00  0.00     0.010 A 
ATOM     78  C   UNL A   1      48.245  26.493  31.859  1.00  0.00     0.010 A 
ATOM     79  C   UNL A   1      50.307  26.980  30.030  1.00  0.00     0.020 A 
ATOM     80  C   UNL A   1      49.559  26.151  32.188  1.00  0.00     0.020 A 
ATOM     81  C   UNL A   1      50.579  26.385  31.265  1.00  0.00     0.054 A 
BRANCH  81  82
ATOM     82  S   UNL A   1      52.297  25.967  31.676  1.00  0.00     0.124 S 
ATOM     83  O   UNL A   1      52.615  26.960  32.698  1.00  0.00    -0.237 OA
ATOM     84  O   UNL A   1      52.189  24.589  32.151  1.00  0.00    -0.237 OA
ATOM     85  O   UNL A   1      53.004  26.128  30.408  1.00  0.00    -0.744 OA
ENDBRANCH  81  82
ENDBRANCH  55  76
ENDBRANCH  29  30
ENDBRANCH  21  24
ENDBRANCH  19  20
ENDBRANCH   1  19
TORSDOF 15
ENDMDL
