MODEL 1
REMARK VINA RESULT:     -11.6      0.000      0.000
REMARK SMILES Cc1sc(-c2ccco2)nc1C(=O)N[C@@H](C(=O)NCCCCNC(=O)c1ccc(-c2c3nc(c(-c4ccc(S(=O)(=O)[O-])cc4)c4ccc([nH]4)c(-c4ccc(S(=O)(=O)[O-])cc4)c4nc(c(-c5ccc(S(=O)(=O)[O-])cc5)c5ccc2[nH]5)C=C4)C=C3)cc1)C(C)C
REMARK SMILES IDX 20 1 19 2 18 3 16 4 17 5 15 7 14 8 12 9 13 10 11 12 1 13
REMARK SMILES IDX 2 14 3 15 4 16 10 17 5 18 6 19 9 20 7 21 8 22 86 23 87 24
REMARK SMILES IDX 88 25 21 26 22 27 23 28 24 29 25 31 26 32 27 33 85 34 28 35
REMARK SMILES IDX 84 36 29 37 30 38 31 39 78 40 32 41 83 42 77 43 79 44 33 45
REMARK SMILES IDX 82 46 76 47 75 48 34 50 64 51 45 52 63 53 46 54 49 55 62 56
REMARK SMILES IDX 80 57 47 58 48 59 61 61 81 62 50 63 35 64 36 65 44 66 37 67
REMARK SMILES IDX 43 68 38 69 39 70 40 71 41 72 42 73 65 74 66 75 74 76 67 77
REMARK SMILES IDX 73 78 68 79 69 80 70 81 71 82 72 83 51 84 52 85 60 86 53 87
REMARK SMILES IDX 59 88 54 89 55 90 56 91 57 92 58 93
REMARK H PARENT 18 6 14 11 23 30 79 49 49 60
REMARK Flexibility Score: inf
ROOT
ATOM      1  C   UNL A   1      33.291  29.877  27.302  1.00  0.00     0.023 C 
ENDROOT
BRANCH   1   2
ATOM      2  C   UNL A   1      32.733  29.171  26.070  1.00  0.00     0.116 C 
BRANCH   2   3
ATOM      3  N   UNL A   1      33.575  29.384  24.909  1.00  0.00    -0.354 N 
ATOM      4  C   UNL A   1      33.570  28.782  23.682  1.00  0.00     0.242 C 
ATOM      5  O   UNL A   1      34.445  29.127  22.886  1.00  0.00    -0.273 OA
ATOM      6  H   UNL A   1      34.264  30.078  25.023  1.00  0.00     0.163 HD
BRANCH   4   7
ATOM      7  C   UNL A   1      32.408  27.836  23.271  1.00  0.00     0.174 C 
BRANCH   7   8
ATOM      8  N   UNL A   1      32.666  27.194  21.999  1.00  0.00    -0.339 N 
ATOM      9  C   UNL A   1      32.865  25.896  21.601  1.00  0.00     0.271 C 
ATOM     10  O   UNL A   1      33.053  25.798  20.382  1.00  0.00    -0.267 OA
ATOM     11  H   UNL A   1      32.707  27.833  21.251  1.00  0.00     0.164 HD
BRANCH   9  12
ATOM     12  C   UNL A   1      32.893  24.669  22.458  1.00  0.00     0.142 A 
ATOM     13  C   UNL A   1      30.460  23.873  23.320  1.00  0.00     0.059 C 
ATOM     14  C   UNL A   1      31.933  23.858  23.084  1.00  0.00     0.035 A 
ATOM     15  S   UNL A   1      32.703  22.455  23.763  1.00  0.00    -0.115 S 
ATOM     16  C   UNL A   1      34.219  23.157  23.505  1.00  0.00     0.160 A 
ATOM     17  N   UNL A   1      34.208  24.264  22.811  1.00  0.00    -0.227 NA
BRANCH  16  18
ATOM     18  C   UNL A   1      35.387  22.581  24.092  1.00  0.00     0.162 A 
ATOM     19  C   UNL A   1      36.656  22.473  23.546  1.00  0.00     0.053 A 
ATOM     20  O   UNL A   1      35.425  22.122  25.385  1.00  0.00    -0.462 OA
ATOM     21  C   UNL A   1      37.501  21.955  24.557  1.00  0.00     0.043 A 
ATOM     22  C   UNL A   1      36.698  21.739  25.649  1.00  0.00     0.196 A 
ENDBRANCH  16  18
ENDBRANCH   9  12
ENDBRANCH   7   8
BRANCH   7  23
ATOM     23  C   UNL A   1      31.014  28.511  23.330  1.00  0.00     0.015 C 
ATOM     24  C   UNL A   1      30.748  29.408  22.113  1.00  0.00     0.010 C 
ATOM     25  C   UNL A   1      29.911  27.441  23.383  1.00  0.00     0.010 C 
ENDBRANCH   7  23
ENDBRANCH   4   7
ENDBRANCH   2   3
ENDBRANCH   1   2
BRANCH   1  26
ATOM     26  C   UNL A   1      34.765  30.257  27.161  1.00  0.00     0.023 C 
BRANCH  26  27
ATOM     27  C   UNL A   1      35.727  29.386  27.963  1.00  0.00     0.116 C 
BRANCH  27  28
ATOM     28  N   UNL A   1      35.586  29.557  29.401  1.00  0.00    -0.352 N 
ATOM     29  C   UNL A   1      36.570  29.541  30.361  1.00  0.00     0.251 C 
ATOM     30  H   UNL A   1      34.669  29.702  29.728  1.00  0.00     0.163 HD
ATOM     31  O   UNL A   1      36.274  29.565  31.553  1.00  0.00    -0.269 OA
BRANCH  29  32
ATOM     32  C   UNL A   1      37.984  29.459  29.944  1.00  0.00     0.039 A 
ATOM     33  C   UNL A   1      38.927  28.948  30.839  1.00  0.00     0.014 A 
ATOM     34  C   UNL A   1      38.368  29.838  28.654  1.00  0.00     0.014 A 
ATOM     35  C   UNL A   1      40.243  28.756  30.418  1.00  0.00     0.010 A 
ATOM     36  C   UNL A   1      39.660  29.572  28.213  1.00  0.00     0.010 A 
ATOM     37  C   UNL A   1      40.613  29.029  29.089  1.00  0.00    -0.014 A 
BRANCH  37  38
ATOM     38  C   UNL A   1      41.987  28.747  28.599  1.00  0.00     0.031 A 
ATOM     39  C   UNL A   1      42.358  27.359  28.150  1.00  0.00     0.074 A 
ATOM     40  C   UNL A   1      42.916  29.723  28.613  1.00  0.00     0.049 A 
ATOM     41  N   UNL A   1      43.515  26.909  27.736  1.00  0.00    -0.248 NA
ATOM     42  C   UNL A   1      41.300  26.337  28.194  1.00  0.00     0.031 C 
ATOM     43  C   UNL A   1      42.695  31.098  29.066  1.00  0.00     0.029 A 
ATOM     44  N   UNL A   1      44.238  29.708  28.242  1.00  0.00    -0.354 N 
ATOM     45  C   UNL A   1      43.328  25.555  27.485  1.00  0.00     0.074 A 
ATOM     46  C   UNL A   1      41.962  25.244  27.846  1.00  0.00     0.031 C 
ATOM     47  C   UNL A   1      43.830  31.799  28.917  1.00  0.00     0.029 A 
ATOM     48  C   UNL A   1      44.872  30.917  28.402  1.00  0.00     0.049 A 
ATOM     49  H   UNL A   1      44.690  28.905  27.894  1.00  0.00     0.167 HD
ATOM     50  C   UNL A   1      44.206  24.655  26.980  1.00  0.00     0.031 A 
ATOM     51  C   UNL A   1      46.149  31.278  28.168  1.00  0.00     0.031 A 
ATOM     52  C   UNL A   1      45.562  24.969  26.616  1.00  0.00     0.049 A 
ATOM     53  C   UNL A   1      47.110  30.256  27.623  1.00  0.00     0.074 A 
ATOM     54  C   UNL A   1      46.513  24.140  26.047  1.00  0.00     0.029 A 
ATOM     55  N   UNL A   1      46.163  26.207  26.789  1.00  0.00    -0.354 N 
ATOM     56  N   UNL A   1      46.894  28.996  27.327  1.00  0.00    -0.248 NA
ATOM     57  C   UNL A   1      48.484  30.709  27.365  1.00  0.00     0.031 C 
ATOM     58  C   UNL A   1      47.706  24.860  25.930  1.00  0.00     0.029 A 
ATOM     59  C   UNL A   1      47.480  26.157  26.362  1.00  0.00     0.049 A 
ATOM     60  H   UNL A   1      45.719  27.004  27.159  1.00  0.00     0.167 HD
ATOM     61  C   UNL A   1      48.097  28.513  26.822  1.00  0.00     0.074 A 
ATOM     62  C   UNL A   1      49.030  29.621  26.837  1.00  0.00     0.031 C 
ATOM     63  C   UNL A   1      48.400  27.267  26.384  1.00  0.00     0.031 A 
BRANCH  50  64
ATOM     64  C   UNL A   1      43.722  23.239  26.796  1.00  0.00    -0.014 A 
ATOM     65  C   UNL A   1      43.042  22.563  27.825  1.00  0.00     0.010 A 
ATOM     66  C   UNL A   1      43.915  22.588  25.564  1.00  0.00     0.010 A 
ATOM     67  C   UNL A   1      42.603  21.248  27.643  1.00  0.00     0.020 A 
ATOM     68  C   UNL A   1      43.451  21.285  25.365  1.00  0.00     0.020 A 
ATOM     69  C   UNL A   1      42.813  20.617  26.412  1.00  0.00     0.054 A 
BRANCH  69  70
ATOM     70  S   UNL A   1      42.216  18.918  26.198  1.00  0.00     0.124 S 
ATOM     71  O   UNL A   1      40.832  19.135  25.783  1.00  0.00    -0.237 OA
ATOM     72  O   UNL A   1      43.106  18.394  25.165  1.00  0.00    -0.237 OA
ATOM     73  O   UNL A   1      42.382  18.322  27.521  1.00  0.00    -0.744 OA
ENDBRANCH  69  70
ENDBRANCH  50  64
BRANCH  51  74
ATOM     74  C   UNL A   1      46.591  32.674  28.439  1.00  0.00    -0.014 A 
ATOM     75  C   UNL A   1      46.528  33.653  27.431  1.00  0.00     0.010 A 
ATOM     76  C   UNL A   1      47.067  33.036  29.712  1.00  0.00     0.010 A 
ATOM     77  C   UNL A   1      46.952  34.961  27.686  1.00  0.00     0.020 A 
ATOM     78  C   UNL A   1      47.463  34.349  29.981  1.00  0.00     0.020 A 
ATOM     79  C   UNL A   1      47.414  35.301  28.961  1.00  0.00     0.054 A 
BRANCH  79  80
ATOM     80  S   UNL A   1      47.911  37.017  29.282  1.00  0.00     0.124 S 
ATOM     81  O   UNL A   1      49.306  37.014  28.852  1.00  0.00    -0.237 OA
ATOM     82  O   UNL A   1      46.989  37.775  28.441  1.00  0.00    -0.237 OA
ATOM     83  O   UNL A   1      47.699  37.169  30.720  1.00  0.00    -0.744 OA
ENDBRANCH  79  80
ENDBRANCH  51  74
BRANCH  63  84
ATOM     84  C   UNL A   1      49.789  27.037  25.848  1.00  0.00    -0.014 A 
ATOM     85  C   UNL A   1      50.817  26.539  26.667  1.00  0.00     0.010 A 
ATOM     86  C   UNL A   1      50.052  27.271  24.486  1.00  0.00     0.010 A 
ATOM     87  C   UNL A   1      52.093  26.315  26.142  1.00  0.00     0.020 A 
ATOM     88  C   UNL A   1      51.317  27.018  23.950  1.00  0.00     0.020 A 
ATOM     89  C   UNL A   1      52.334  26.555  24.786  1.00  0.00     0.054 A 
BRANCH  89  90
ATOM     90  S   UNL A   1      53.986  26.216  24.120  1.00  0.00     0.124 S 
ATOM     91  O   UNL A   1      53.731  26.163  22.684  1.00  0.00    -0.237 OA
ATOM     92  O   UNL A   1      54.759  27.366  24.581  1.00  0.00    -0.237 OA
ATOM     93  O   UNL A   1      54.352  24.941  24.734  1.00  0.00    -0.744 OA
ENDBRANCH  89  90
ENDBRANCH  63  84
ENDBRANCH  37  38
ENDBRANCH  29  32
ENDBRANCH  27  28
ENDBRANCH  26  27
ENDBRANCH   1  26
TORSDOF 18
ENDMDL
MODEL 2
REMARK VINA RESULT:     -11.3      2.319      8.683
REMARK SMILES Cc1sc(-c2ccco2)nc1C(=O)N[C@@H](C(=O)NCCCCNC(=O)c1ccc(-c2c3nc(c(-c4ccc(S(=O)(=O)[O-])cc4)c4ccc([nH]4)c(-c4ccc(S(=O)(=O)[O-])cc4)c4nc(c(-c5ccc(S(=O)(=O)[O-])cc5)c5ccc2[nH]5)C=C4)C=C3)cc1)C(C)C
REMARK SMILES IDX 20 1 19 2 18 3 16 4 17 5 15 7 14 8 12 9 13 10 11 12 1 13
REMARK SMILES IDX 2 14 3 15 4 16 10 17 5 18 6 19 9 20 7 21 8 22 86 23 87 24
REMARK SMILES IDX 88 25 21 26 22 27 23 28 24 29 25 31 26 32 27 33 85 34 28 35
REMARK SMILES IDX 84 36 29 37 30 38 31 39 78 40 32 41 83 42 77 43 79 44 33 45
REMARK SMILES IDX 82 46 76 47 75 48 34 50 64 51 45 52 63 53 46 54 49 55 62 56
REMARK SMILES IDX 80 57 47 58 48 59 61 61 81 62 50 63 35 64 36 65 44 66 37 67
REMARK SMILES IDX 43 68 38 69 39 70 40 71 41 72 42 73 65 74 66 75 74 76 67 77
REMARK SMILES IDX 73 78 68 79 69 80 70 81 71 82 72 83 51 84 52 85 60 86 53 87
REMARK SMILES IDX 59 88 54 89 55 90 56 91 57 92 58 93
REMARK H PARENT 18 6 14 11 23 30 79 49 49 60
REMARK Flexibility Score: inf
ROOT
ATOM      1  C   UNL A   1      37.357  20.424  24.964  1.00  0.00     0.023 C 
ENDROOT
BRANCH   1   2
ATOM      2  C   UNL A   1      36.041  21.051  25.411  1.00  0.00     0.116 C 
BRANCH   2   3
ATOM      3  N   UNL A   1      35.581  22.051  24.467  1.00  0.00    -0.354 N 
ATOM      4  C   UNL A   1      34.344  22.263  23.923  1.00  0.00     0.242 C 
ATOM      5  O   UNL A   1      34.246  23.169  23.094  1.00  0.00    -0.273 OA
ATOM      6  H   UNL A   1      36.274  22.684  24.169  1.00  0.00     0.163 HD
BRANCH   4   7
ATOM      7  C   UNL A   1      33.104  21.498  24.462  1.00  0.00     0.174 C 
BRANCH   7   8
ATOM      8  N   UNL A   1      32.781  21.893  25.818  1.00  0.00    -0.339 N 
ATOM      9  C   UNL A   1      32.158  22.978  26.379  1.00  0.00     0.271 C 
ATOM     10  O   UNL A   1      32.091  22.901  27.613  1.00  0.00    -0.267 OA
ATOM     11  H   UNL A   1      33.074  21.233  26.487  1.00  0.00     0.164 HD
BRANCH   9  12
ATOM     12  C   UNL A   1      31.603  24.180  25.679  1.00  0.00     0.142 A 
ATOM     13  C   UNL A   1      30.596  23.660  23.228  1.00  0.00     0.059 C 
ATOM     14  C   UNL A   1      30.947  24.421  24.461  1.00  0.00     0.035 A 
ATOM     15  S   UNL A   1      30.405  26.071  24.404  1.00  0.00    -0.115 S 
ATOM     16  C   UNL A   1      31.337  26.430  25.768  1.00  0.00     0.160 A 
ATOM     17  N   UNL A   1      31.881  25.398  26.356  1.00  0.00    -0.227 NA
BRANCH  16  18
ATOM     18  C   UNL A   1      31.545  27.788  26.160  1.00  0.00     0.162 A 
ATOM     19  C   UNL A   1      31.816  28.282  27.425  1.00  0.00     0.053 A 
ATOM     20  O   UNL A   1      31.601  28.825  25.262  1.00  0.00    -0.462 OA
ATOM     21  C   UNL A   1      32.076  29.667  27.285  1.00  0.00     0.043 A 
ATOM     22  C   UNL A   1      31.910  29.950  25.951  1.00  0.00     0.196 A 
ENDBRANCH  16  18
ENDBRANCH   9  12
ENDBRANCH   7   8
BRANCH   7  23
ATOM     23  C   UNL A   1      33.207  19.961  24.294  1.00  0.00     0.015 C 
ATOM     24  C   UNL A   1      32.852  19.207  25.584  1.00  0.00     0.010 C 
ATOM     25  C   UNL A   1      32.251  19.487  23.187  1.00  0.00     0.010 C 
ENDBRANCH   7  23
ENDBRANCH   4   7
ENDBRANCH   2   3
ENDBRANCH   1   2
BRANCH   1  26
ATOM     26  C   UNL A   1      38.573  21.300  25.268  1.00  0.00     0.023 C 
BRANCH  26  27
ATOM     27  C   UNL A   1      39.385  20.862  26.484  1.00  0.00     0.116 C 
BRANCH  27  28
ATOM     28  N   UNL A   1      40.322  19.789  26.188  1.00  0.00    -0.352 N 
ATOM     29  C   UNL A   1      41.686  19.866  26.038  1.00  0.00     0.251 C 
ATOM     30  H   UNL A   1      39.928  18.893  26.082  1.00  0.00     0.163 HD
ATOM     31  O   UNL A   1      42.325  18.890  25.654  1.00  0.00    -0.269 OA
BRANCH  29  32
ATOM     32  C   UNL A   1      42.370  21.147  26.310  1.00  0.00     0.039 A 
ATOM     33  C   UNL A   1      42.651  22.005  25.244  1.00  0.00     0.014 A 
ATOM     34  C   UNL A   1      42.686  21.521  27.620  1.00  0.00     0.014 A 
ATOM     35  C   UNL A   1      43.190  23.266  25.499  1.00  0.00     0.010 A 
ATOM     36  C   UNL A   1      43.148  22.808  27.877  1.00  0.00     0.010 A 
ATOM     37  C   UNL A   1      43.407  23.695  26.821  1.00  0.00    -0.014 A 
BRANCH  37  38
ATOM     38  C   UNL A   1      43.895  25.066  27.115  1.00  0.00     0.031 A 
ATOM     39  C   UNL A   1      45.346  25.413  26.911  1.00  0.00     0.074 A 
ATOM     40  C   UNL A   1      43.047  25.983  27.623  1.00  0.00     0.049 A 
ATOM     41  N   UNL A   1      45.966  26.538  27.156  1.00  0.00    -0.248 NA
ATOM     42  C   UNL A   1      46.218  24.349  26.387  1.00  0.00     0.031 C 
ATOM     43  C   UNL A   1      41.628  25.761  27.909  1.00  0.00     0.029 A 
ATOM     44  N   UNL A   1      43.257  27.289  27.995  1.00  0.00    -0.354 N 
ATOM     45  C   UNL A   1      47.299  26.314  26.830  1.00  0.00     0.074 A 
ATOM     46  C   UNL A   1      47.408  24.931  26.423  1.00  0.00     0.031 C 
ATOM     47  C   UNL A   1      41.090  26.897  28.381  1.00  0.00     0.029 A 
ATOM     48  C   UNL A   1      42.130  27.915  28.475  1.00  0.00     0.049 A 
ATOM     49  H   UNL A   1      44.132  27.735  27.924  1.00  0.00     0.167 HD
ATOM     50  C   UNL A   1      48.335  27.187  26.846  1.00  0.00     0.031 A 
ATOM     51  C   UNL A   1      41.953  29.166  28.944  1.00  0.00     0.031 A 
ATOM     52  C   UNL A   1      48.223  28.565  27.246  1.00  0.00     0.049 A 
ATOM     53  C   UNL A   1      43.123  30.112  28.968  1.00  0.00     0.074 A 
ATOM     54  C   UNL A   1      49.203  29.542  27.246  1.00  0.00     0.029 A 
ATOM     55  N   UNL A   1      47.063  29.161  27.719  1.00  0.00    -0.354 N 
ATOM     56  N   UNL A   1      44.362  29.900  28.590  1.00  0.00    -0.248 NA
ATOM     57  C   UNL A   1      42.869  31.469  29.469  1.00  0.00     0.031 C 
ATOM     58  C   UNL A   1      48.651  30.714  27.776  1.00  0.00     0.029 A 
ATOM     59  C   UNL A   1      47.310  30.486  28.041  1.00  0.00     0.049 A 
ATOM     60  H   UNL A   1      46.193  28.709  27.812  1.00  0.00     0.167 HD
ATOM     61  C   UNL A   1      45.027  31.107  28.780  1.00  0.00     0.074 A 
ATOM     62  C   UNL A   1      44.050  32.046  29.292  1.00  0.00     0.031 C 
ATOM     63  C   UNL A   1      46.328  31.410  28.551  1.00  0.00     0.031 A 
BRANCH  50  64
ATOM     64  C   UNL A   1      49.687  26.670  26.422  1.00  0.00    -0.014 A 
ATOM     65  C   UNL A   1      50.208  26.954  25.146  1.00  0.00     0.010 A 
ATOM     66  C   UNL A   1      50.465  25.925  27.326  1.00  0.00     0.010 A 
ATOM     67  C   UNL A   1      51.460  26.464  24.766  1.00  0.00     0.020 A 
ATOM     68  C   UNL A   1      51.731  25.459  26.962  1.00  0.00     0.020 A 
ATOM     69  C   UNL A   1      52.213  25.718  25.677  1.00  0.00     0.054 A 
BRANCH  69  70
ATOM     70  S   UNL A   1      53.843  25.111  25.162  1.00  0.00     0.124 S 
ATOM     71  O   UNL A   1      53.712  23.672  25.380  1.00  0.00    -0.237 OA
ATOM     72  O   UNL A   1      53.914  25.531  23.765  1.00  0.00    -0.237 OA
ATOM     73  O   UNL A   1      54.768  25.795  26.063  1.00  0.00    -0.744 OA
ENDBRANCH  69  70
ENDBRANCH  50  64
BRANCH  51  74
ATOM     74  C   UNL A   1      40.610  29.599  29.421  1.00  0.00    -0.014 A 
ATOM     75  C   UNL A   1      40.329  29.671  30.797  1.00  0.00     0.010 A 
ATOM     76  C   UNL A   1      39.608  29.953  28.501  1.00  0.00     0.010 A 
ATOM     77  C   UNL A   1      39.064  30.069  31.242  1.00  0.00     0.020 A 
ATOM     78  C   UNL A   1      38.353  30.381  28.941  1.00  0.00     0.020 A 
ATOM     79  C   UNL A   1      38.085  30.424  30.310  1.00  0.00     0.054 A 
BRANCH  79  80
ATOM     80  S   UNL A   1      36.467  30.986  30.912  1.00  0.00     0.124 S 
ATOM     81  O   UNL A   1      36.796  32.278  31.506  1.00  0.00    -0.237 OA
ATOM     82  O   UNL A   1      35.674  31.034  29.687  1.00  0.00    -0.237 OA
ATOM     83  O   UNL A   1      36.076  29.943  31.859  1.00  0.00    -0.744 OA
ENDBRANCH  79  80
ENDBRANCH  51  74
BRANCH  63  84
ATOM     84  C   UNL A   1      46.770  32.826  28.814  1.00  0.00    -0.014 A 
ATOM     85  C   UNL A   1      46.674  33.819  27.824  1.00  0.00     0.010 A 
ATOM     86  C   UNL A   1      47.237  33.179  30.094  1.00  0.00     0.010 A 
ATOM     87  C   UNL A   1      47.071  35.131  28.098  1.00  0.00     0.020 A 
ATOM     88  C   UNL A   1      47.605  34.495  30.381  1.00  0.00     0.020 A 
ATOM     89  C   UNL A   1      47.533  35.461  29.375  1.00  0.00     0.054 A 
BRANCH  89  90
ATOM     90  S   UNL A   1      48.002  37.179  29.717  1.00  0.00     0.124 S 
ATOM     91  O   UNL A   1      49.261  37.013  30.437  1.00  0.00    -0.237 OA
ATOM     92  O   UNL A   1      48.114  37.752  28.378  1.00  0.00    -0.237 OA
ATOM     93  O   UNL A   1      46.890  37.690  30.516  1.00  0.00    -0.744 OA
ENDBRANCH  89  90
ENDBRANCH  63  84
ENDBRANCH  37  38
ENDBRANCH  29  32
ENDBRANCH  27  28
ENDBRANCH  26  27
ENDBRANCH   1  26
TORSDOF 18
ENDMDL
MODEL 3
REMARK VINA RESULT:     -11.2      6.129     10.566
REMARK SMILES Cc1sc(-c2ccco2)nc1C(=O)N[C@@H](C(=O)NCCCCNC(=O)c1ccc(-c2c3nc(c(-c4ccc(S(=O)(=O)[O-])cc4)c4ccc([nH]4)c(-c4ccc(S(=O)(=O)[O-])cc4)c4nc(c(-c5ccc(S(=O)(=O)[O-])cc5)c5ccc2[nH]5)C=C4)C=C3)cc1)C(C)C
REMARK SMILES IDX 20 1 19 2 18 3 16 4 17 5 15 7 14 8 12 9 13 10 11 12 1 13
REMARK SMILES IDX 2 14 3 15 4 16 10 17 5 18 6 19 9 20 7 21 8 22 86 23 87 24
REMARK SMILES IDX 88 25 21 26 22 27 23 28 24 29 25 31 26 32 27 33 85 34 28 35
REMARK SMILES IDX 84 36 29 37 30 38 31 39 78 40 32 41 83 42 77 43 79 44 33 45
REMARK SMILES IDX 82 46 76 47 75 48 34 50 64 51 45 52 63 53 46 54 49 55 62 56
REMARK SMILES IDX 80 57 47 58 48 59 61 61 81 62 50 63 35 64 36 65 44 66 37 67
REMARK SMILES IDX 43 68 38 69 39 70 40 71 41 72 42 73 65 74 66 75 74 76 67 77
REMARK SMILES IDX 73 78 68 79 69 80 70 81 71 82 72 83 51 84 52 85 60 86 53 87
REMARK SMILES IDX 59 88 54 89 55 90 56 91 57 92 58 93
REMARK H PARENT 18 6 14 11 23 30 79 49 49 60
REMARK Flexibility Score: inf
ROOT
ATOM      1  C   UNL A   1      32.477  29.497  26.957  1.00  0.00     0.023 C 
ENDROOT
BRANCH   1   2
ATOM      2  C   UNL A   1      33.209  28.881  25.770  1.00  0.00     0.116 C 
BRANCH   2   3
ATOM      3  N   UNL A   1      32.508  29.131  24.525  1.00  0.00    -0.354 N 
ATOM      4  C   UNL A   1      32.044  28.266  23.574  1.00  0.00     0.242 C 
ATOM      5  O   UNL A   1      31.522  28.762  22.574  1.00  0.00    -0.273 OA
ATOM      6  H   UNL A   1      32.336  30.081  24.334  1.00  0.00     0.163 HD
BRANCH   4   7
ATOM      7  C   UNL A   1      32.035  26.734  23.836  1.00  0.00     0.174 C 
BRANCH   7   8
ATOM      8  N   UNL A   1      32.489  25.992  22.678  1.00  0.00    -0.339 N 
ATOM      9  C   UNL A   1      33.004  24.735  22.485  1.00  0.00     0.271 C 
ATOM     10  O   UNL A   1      33.259  24.506  21.295  1.00  0.00    -0.267 OA
ATOM     11  H   UNL A   1      32.409  26.504  21.841  1.00  0.00     0.164 HD
BRANCH   9  12
ATOM     12  C   UNL A   1      33.284  23.691  23.519  1.00  0.00     0.142 A 
ATOM     13  C   UNL A   1      34.684  24.593  25.646  1.00  0.00     0.059 C 
ATOM     14  C   UNL A   1      33.903  23.663  24.780  1.00  0.00     0.035 A 
ATOM     15  S   UNL A   1      33.679  22.102  25.509  1.00  0.00    -0.115 S 
ATOM     16  C   UNL A   1      33.118  21.489  24.037  1.00  0.00     0.160 A 
ATOM     17  N   UNL A   1      32.926  22.381  23.101  1.00  0.00    -0.227 NA
BRANCH  16  18
ATOM     18  C   UNL A   1      32.955  20.081  23.858  1.00  0.00     0.162 A 
ATOM     19  C   UNL A   1      32.246  19.419  22.870  1.00  0.00     0.053 A 
ATOM     20  O   UNL A   1      33.598  19.150  24.636  1.00  0.00    -0.462 OA
ATOM     21  C   UNL A   1      32.493  18.035  23.036  1.00  0.00     0.043 A 
ATOM     22  C   UNL A   1      33.304  17.925  24.138  1.00  0.00     0.196 A 
ENDBRANCH  16  18
ENDBRANCH   9  12
ENDBRANCH   7   8
BRANCH   7  23
ATOM     23  C   UNL A   1      30.686  26.213  24.391  1.00  0.00     0.015 C 
ATOM     24  C   UNL A   1      30.633  26.249  25.925  1.00  0.00     0.010 C 
ATOM     25  C   UNL A   1      29.528  27.071  23.855  1.00  0.00     0.010 C 
ENDBRANCH   7  23
ENDBRANCH   4   7
ENDBRANCH   2   3
ENDBRANCH   1   2
BRANCH   1  26
ATOM     26  C   UNL A   1      32.283  31.008  26.826  1.00  0.00     0.023 C 
BRANCH  26  27
ATOM     27  C   UNL A   1      33.365  31.849  27.496  1.00  0.00     0.116 C 
BRANCH  27  28
ATOM     28  N   UNL A   1      32.957  33.226  27.726  1.00  0.00    -0.352 N 
ATOM     29  C   UNL A   1      33.449  34.118  28.649  1.00  0.00     0.251 C 
ATOM     30  H   UNL A   1      32.236  33.562  27.146  1.00  0.00     0.163 HD
ATOM     31  O   UNL A   1      32.905  35.207  28.811  1.00  0.00    -0.269 OA
BRANCH  29  32
ATOM     32  C   UNL A   1      34.618  33.737  29.468  1.00  0.00     0.039 A 
ATOM     33  C   UNL A   1      34.437  32.862  30.541  1.00  0.00     0.014 A 
ATOM     34  C   UNL A   1      35.895  34.204  29.145  1.00  0.00     0.014 A 
ATOM     35  C   UNL A   1      35.548  32.402  31.249  1.00  0.00     0.010 A 
ATOM     36  C   UNL A   1      37.006  33.684  29.801  1.00  0.00     0.010 A 
ATOM     37  C   UNL A   1      36.846  32.778  30.861  1.00  0.00    -0.014 A 
BRANCH  37  38
ATOM     38  C   UNL A   1      38.044  32.229  31.546  1.00  0.00     0.031 A 
ATOM     39  C   UNL A   1      38.466  32.774  32.885  1.00  0.00     0.074 A 
ATOM     40  C   UNL A   1      38.787  31.283  30.939  1.00  0.00     0.049 A 
ATOM     41  N   UNL A   1      39.505  32.456  33.613  1.00  0.00    -0.248 NA
ATOM     42  C   UNL A   1      37.625  33.831  33.470  1.00  0.00     0.031 C 
ATOM     43  C   UNL A   1      38.511  30.702  29.623  1.00  0.00     0.029 A 
ATOM     44  N   UNL A   1      39.932  30.643  31.346  1.00  0.00    -0.354 N 
ATOM     45  C   UNL A   1      39.450  33.280  34.732  1.00  0.00     0.074 A 
ATOM     46  C   UNL A   1      38.308  34.151  34.559  1.00  0.00     0.031 C 
ATOM     47  C   UNL A   1      39.441  29.774  29.346  1.00  0.00     0.029 A 
ATOM     48  C   UNL A   1      40.404  29.722  30.440  1.00  0.00     0.049 A 
ATOM     49  H   UNL A   1      40.374  30.828  32.207  1.00  0.00     0.167 HD
ATOM     50  C   UNL A   1      40.263  33.297  35.815  1.00  0.00     0.031 A 
ATOM     51  C   UNL A   1      41.493  28.929  30.481  1.00  0.00     0.031 A 
ATOM     52  C   UNL A   1      41.396  32.426  35.986  1.00  0.00     0.049 A 
ATOM     53  C   UNL A   1      42.391  28.978  31.687  1.00  0.00     0.074 A 
ATOM     54  C   UNL A   1      42.250  32.330  37.071  1.00  0.00     0.029 A 
ATOM     55  N   UNL A   1      41.836  31.504  35.048  1.00  0.00    -0.354 N 
ATOM     56  N   UNL A   1      42.282  29.716  32.766  1.00  0.00    -0.248 NA
ATOM     57  C   UNL A   1      43.550  28.076  31.688  1.00  0.00     0.031 C 
ATOM     58  C   UNL A   1      43.241  31.392  36.765  1.00  0.00     0.029 A 
ATOM     59  C   UNL A   1      42.966  30.854  35.518  1.00  0.00     0.049 A 
ATOM     60  H   UNL A   1      41.408  31.336  34.177  1.00  0.00     0.167 HD
ATOM     61  C   UNL A   1      43.343  29.347  33.587  1.00  0.00     0.074 A 
ATOM     62  C   UNL A   1      44.071  28.309  32.885  1.00  0.00     0.031 C 
ATOM     63  C   UNL A   1      43.682  29.823  34.809  1.00  0.00     0.031 A 
BRANCH  50  64
ATOM     64  C   UNL A   1      39.957  34.299  36.900  1.00  0.00    -0.014 A 
ATOM     65  C   UNL A   1      39.200  33.940  38.029  1.00  0.00     0.010 A 
ATOM     66  C   UNL A   1      40.467  35.606  36.808  1.00  0.00     0.010 A 
ATOM     67  C   UNL A   1      38.920  34.880  39.024  1.00  0.00     0.020 A 
ATOM     68  C   UNL A   1      40.217  36.542  37.815  1.00  0.00     0.020 A 
ATOM     69  C   UNL A   1      39.430  36.177  38.909  1.00  0.00     0.054 A 
BRANCH  69  70
ATOM     70  S   UNL A   1      39.066  37.371  40.226  1.00  0.00     0.124 S 
ATOM     71  O   UNL A   1      40.400  37.865  40.562  1.00  0.00    -0.237 OA
ATOM     72  O   UNL A   1      38.192  38.330  39.556  1.00  0.00    -0.237 OA
ATOM     73  O   UNL A   1      38.424  36.563  41.259  1.00  0.00    -0.744 OA
ENDBRANCH  69  70
ENDBRANCH  50  64
BRANCH  51  74
ATOM     74  C   UNL A   1      41.788  28.011  29.344  1.00  0.00    -0.014 A 
ATOM     75  C   UNL A   1      41.291  26.696  29.340  1.00  0.00     0.010 A 
ATOM     76  C   UNL A   1      42.559  28.453  28.255  1.00  0.00     0.010 A 
ATOM     77  C   UNL A   1      41.577  25.834  28.276  1.00  0.00     0.020 A 
ATOM     78  C   UNL A   1      42.822  27.606  27.176  1.00  0.00     0.020 A 
ATOM     79  C   UNL A   1      42.339  26.296  27.199  1.00  0.00     0.054 A 
BRANCH  79  80
ATOM     80  S   UNL A   1      42.656  25.175  25.807  1.00  0.00     0.124 S 
ATOM     81  O   UNL A   1      44.044  24.789  26.038  1.00  0.00    -0.237 OA
ATOM     82  O   UNL A   1      41.662  24.126  26.016  1.00  0.00    -0.237 OA
ATOM     83  O   UNL A   1      42.426  26.016  24.634  1.00  0.00    -0.744 OA
ENDBRANCH  79  80
ENDBRANCH  51  74
BRANCH  63  84
ATOM     84  C   UNL A   1      44.874  29.203  35.491  1.00  0.00    -0.014 A 
ATOM     85  C   UNL A   1      46.137  29.820  35.464  1.00  0.00     0.010 A 
ATOM     86  C   UNL A   1      44.711  28.009  36.218  1.00  0.00     0.010 A 
ATOM     87  C   UNL A   1      47.223  29.235  36.121  1.00  0.00     0.020 A 
ATOM     88  C   UNL A   1      45.786  27.438  36.902  1.00  0.00     0.020 A 
ATOM     89  C   UNL A   1      47.040  28.048  36.837  1.00  0.00     0.054 A 
BRANCH  89  90
ATOM     90  S   UNL A   1      48.456  27.332  37.715  1.00  0.00     0.124 S 
ATOM     91  O   UNL A   1      48.401  25.936  37.294  1.00  0.00    -0.237 OA
ATOM     92  O   UNL A   1      49.581  28.104  37.192  1.00  0.00    -0.237 OA
ATOM     93  O   UNL A   1      48.146  27.570  39.124  1.00  0.00    -0.744 OA
ENDBRANCH  89  90
ENDBRANCH  63  84
ENDBRANCH  37  38
ENDBRANCH  29  32
ENDBRANCH  27  28
ENDBRANCH  26  27
ENDBRANCH   1  26
TORSDOF 18
ENDMDL
