MODEL 1
REMARK VINA RESULT:      -9.6      0.000      0.000
REMARK SMILES O=C(NCCCCNC(=O)[C@@H]1C[NH2+]C[C@H]1c1ccncc1)c1ccc(-c2c3nc(c(-c4ccc(S(=O)(=O)[O-])cc4)c4ccc([nH]4)c(-c4ccc(S(=O)(=O)[O-])cc4)c4nc(c(-c5ccc(S(=O)(=O)[O-])cc5)c5ccc2[nH]5)C=C4)C=C3)cc1
REMARK SMILES IDX 4 1 3 2 1 3 2 4 22 6 23 7 81 8 24 9 80 10 25 11 26 12 27 13
REMARK SMILES IDX 74 14 28 15 79 16 73 17 75 18 29 19 78 20 72 21 71 22 30 24
REMARK SMILES IDX 60 25 41 26 59 27 42 28 45 29 58 30 76 31 43 32 44 33 57 35
REMARK SMILES IDX 77 36 46 37 31 38 32 39 40 40 33 41 39 42 34 43 35 44 36 45
REMARK SMILES IDX 37 46 38 47 61 48 62 49 70 50 63 51 69 52 64 53 65 54 66 55
REMARK SMILES IDX 67 56 68 57 47 58 48 59 56 60 49 61 55 62 50 63 51 64 52 65
REMARK SMILES IDX 53 66 54 67 5 68 6 69 7 70 8 71 9 72 10 74 11 75 12 76 15 77
REMARK SMILES IDX 13 78 14 79 16 82 17 83 21 84 18 85 20 86 19 87
REMARK H PARENT 3 5 75 23 45 34 8 73 13 80 13 81
REMARK Flexibility Score: inf
ROOT
ATOM      1  C   UNL A   1      34.368  32.315  28.928  1.00  0.00     0.116 C 
ENDROOT
BRANCH   1   2
ATOM      2  N   UNL A   1      33.801  31.160  28.248  1.00  0.00    -0.352 N 
ATOM      3  O   UNL A   1      33.838  29.170  27.179  1.00  0.00    -0.269 OA
ATOM      4  C   UNL A   1      34.437  30.005  27.852  1.00  0.00     0.251 C 
ATOM      5  H   UNL A   1      32.839  31.211  28.045  1.00  0.00     0.163 HD
BRANCH   4   6
ATOM      6  C   UNL A   1      35.857  29.795  28.215  1.00  0.00     0.039 A 
ATOM      7  C   UNL A   1      36.866  30.026  27.277  1.00  0.00     0.014 A 
ATOM      8  C   UNL A   1      36.179  29.337  29.496  1.00  0.00     0.014 A 
ATOM      9  C   UNL A   1      38.173  29.660  27.570  1.00  0.00     0.010 A 
ATOM     10  C   UNL A   1      37.511  29.048  29.816  1.00  0.00     0.010 A 
ATOM     11  C   UNL A   1      38.514  29.174  28.845  1.00  0.00    -0.014 A 
BRANCH  11  12
ATOM     12  C   UNL A   1      39.941  28.869  29.130  1.00  0.00     0.031 A 
ATOM     13  C   UNL A   1      40.559  27.554  28.740  1.00  0.00     0.074 A 
ATOM     14  C   UNL A   1      40.700  29.836  29.682  1.00  0.00     0.049 A 
ATOM     15  N   UNL A   1      41.811  27.181  28.828  1.00  0.00    -0.248 NA
ATOM     16  C   UNL A   1      39.666  26.524  28.188  1.00  0.00     0.031 C 
ATOM     17  C   UNL A   1      40.206  31.146  30.123  1.00  0.00     0.029 A 
ATOM     18  N   UNL A   1      42.046  29.892  29.930  1.00  0.00    -0.354 N 
ATOM     19  C   UNL A   1      41.858  25.875  28.355  1.00  0.00     0.074 A 
ATOM     20  C   UNL A   1      40.502  25.509  28.003  1.00  0.00     0.031 C 
ATOM     21  C   UNL A   1      41.242  31.896  30.521  1.00  0.00     0.029 A 
ATOM     22  C   UNL A   1      42.464  31.107  30.416  1.00  0.00     0.049 A 
ATOM     23  H   UNL A   1      42.655  29.134  29.773  1.00  0.00     0.167 HD
ATOM     24  C   UNL A   1      42.931  25.058  28.220  1.00  0.00     0.031 A 
ATOM     25  C   UNL A   1      43.694  31.546  30.744  1.00  0.00     0.031 A 
ATOM     26  C   UNL A   1      44.280  25.425  28.572  1.00  0.00     0.049 A 
ATOM     27  C   UNL A   1      44.866  30.627  30.568  1.00  0.00     0.074 A 
ATOM     28  C   UNL A   1      45.434  24.666  28.473  1.00  0.00     0.029 A 
ATOM     29  N   UNL A   1      44.658  26.656  29.087  1.00  0.00    -0.354 N 
ATOM     30  N   UNL A   1      44.884  29.399  30.109  1.00  0.00    -0.248 NA
ATOM     31  C   UNL A   1      46.181  31.153  30.952  1.00  0.00     0.031 C 
ATOM     32  C   UNL A   1      46.504  25.427  28.958  1.00  0.00     0.029 A 
ATOM     33  C   UNL A   1      46.024  26.675  29.318  1.00  0.00     0.049 A 
ATOM     34  H   UNL A   1      44.045  27.407  29.262  1.00  0.00     0.167 HD
ATOM     35  C   UNL A   1      46.214  29.002  30.155  1.00  0.00     0.074 A 
ATOM     36  C   UNL A   1      46.973  30.134  30.648  1.00  0.00     0.031 C 
ATOM     37  C   UNL A   1      46.758  27.803  29.831  1.00  0.00     0.031 A 
BRANCH  24  38
ATOM     38  C   UNL A   1      42.694  23.675  27.676  1.00  0.00    -0.014 A 
ATOM     39  C   UNL A   1      42.782  23.415  26.296  1.00  0.00     0.010 A 
ATOM     40  C   UNL A   1      42.444  22.607  28.558  1.00  0.00     0.010 A 
ATOM     41  C   UNL A   1      42.598  22.119  25.807  1.00  0.00     0.020 A 
ATOM     42  C   UNL A   1      42.279  21.306  28.074  1.00  0.00     0.020 A 
ATOM     43  C   UNL A   1      42.344  21.072  26.699  1.00  0.00     0.054 A 
BRANCH  43  44
ATOM     44  S   UNL A   1      42.143  19.393  26.040  1.00  0.00     0.124 S 
ATOM     45  O   UNL A   1      40.701  19.335  25.803  1.00  0.00    -0.237 OA
ATOM     46  O   UNL A   1      42.975  19.415  24.841  1.00  0.00    -0.237 OA
ATOM     47  O   UNL A   1      42.631  18.537  27.118  1.00  0.00    -0.744 OA
ENDBRANCH  43  44
ENDBRANCH  24  38
BRANCH  25  48
ATOM     48  C   UNL A   1      43.864  32.918  31.288  1.00  0.00    -0.014 A 
ATOM     49  C   UNL A   1      43.996  34.022  30.430  1.00  0.00     0.010 A 
ATOM     50  C   UNL A   1      43.859  33.126  32.680  1.00  0.00     0.010 A 
ATOM     51  C   UNL A   1      44.137  35.310  30.954  1.00  0.00     0.020 A 
ATOM     52  C   UNL A   1      43.971  34.413  33.206  1.00  0.00     0.020 A 
ATOM     53  C   UNL A   1      44.123  35.497  32.340  1.00  0.00     0.054 A 
BRANCH  53  54
ATOM     54  S   UNL A   1      44.245  37.180  33.008  1.00  0.00     0.124 S 
ATOM     55  O   UNL A   1      42.984  37.309  33.731  1.00  0.00    -0.237 OA
ATOM     56  O   UNL A   1      45.447  37.109  33.837  1.00  0.00    -0.237 OA
ATOM     57  O   UNL A   1      44.375  38.009  31.813  1.00  0.00    -0.744 OA
ENDBRANCH  53  54
ENDBRANCH  25  48
BRANCH  37  58
ATOM     58  C   UNL A   1      48.244  27.667  30.007  1.00  0.00    -0.014 A 
ATOM     59  C   UNL A   1      48.784  27.198  31.219  1.00  0.00     0.010 A 
ATOM     60  C   UNL A   1      49.110  28.010  28.955  1.00  0.00     0.010 A 
ATOM     61  C   UNL A   1      50.168  27.120  31.390  1.00  0.00     0.020 A 
ATOM     62  C   UNL A   1      50.493  27.912  29.115  1.00  0.00     0.020 A 
ATOM     63  C   UNL A   1      51.014  27.487  30.340  1.00  0.00     0.054 A 
BRANCH  63  64
ATOM     64  S   UNL A   1      52.808  27.376  30.581  1.00  0.00     0.124 S 
ATOM     65  O   UNL A   1      53.271  27.014  29.244  1.00  0.00    -0.237 OA
ATOM     66  O   UNL A   1      53.160  28.722  31.025  1.00  0.00    -0.237 OA
ATOM     67  O   UNL A   1      52.956  26.334  31.595  1.00  0.00    -0.744 OA
ENDBRANCH  63  64
ENDBRANCH  37  58
ENDBRANCH  11  12
ENDBRANCH   4   6
ENDBRANCH   1   2
BRANCH   1  68
ATOM     68  C   UNL A   1      34.761  33.441  27.980  1.00  0.00     0.023 C 
BRANCH  68  69
ATOM     69  C   UNL A   1      36.028  34.212  28.363  1.00  0.00     0.023 C 
BRANCH  69  70
ATOM     70  C   UNL A   1      37.117  33.366  29.019  1.00  0.00     0.116 C 
BRANCH  70  71
ATOM     71  N   UNL A   1      37.772  34.085  30.099  1.00  0.00    -0.356 N 
ATOM     72  C   UNL A   1      37.419  34.227  31.406  1.00  0.00     0.229 C 
ATOM     73  H   UNL A   1      38.606  34.542  29.844  1.00  0.00     0.163 HD
ATOM     74  O   UNL A   1      38.146  34.909  32.129  1.00  0.00    -0.275 OA
BRANCH  72  75
ATOM     75  C   UNL A   1      36.199  33.510  31.948  1.00  0.00     0.146 C 
ATOM     76  C   UNL A   1      34.962  34.382  31.793  1.00  0.00     0.274 C 
ATOM     77  C   UNL A   1      36.274  33.320  33.473  1.00  0.00     0.092 C 
ATOM     78  N   UNL A   1      33.997  33.782  32.726  1.00  0.00    -0.345 N 
ATOM     79  C   UNL A   1      34.795  33.419  33.913  1.00  0.00     0.269 C 
ATOM     80  H   UNL A   1      33.568  32.952  32.314  1.00  0.00     0.346 HD
ATOM     81  H   UNL A   1      33.235  34.420  32.955  1.00  0.00     0.346 HD
BRANCH  77  82
ATOM     82  C   UNL A   1      37.085  32.105  33.886  1.00  0.00    -0.035 A 
ATOM     83  C   UNL A   1      37.197  31.033  32.985  1.00  0.00     0.024 A 
ATOM     84  C   UNL A   1      37.745  31.976  35.112  1.00  0.00     0.024 A 
ATOM     85  C   UNL A   1      37.922  29.906  33.344  1.00  0.00     0.111 A 
ATOM     86  C   UNL A   1      38.463  30.815  35.375  1.00  0.00     0.111 A 
ATOM     87  N   UNL A   1      38.559  29.774  34.523  1.00  0.00    -0.265 NA
ENDBRANCH  77  82
ENDBRANCH  72  75
ENDBRANCH  70  71
ENDBRANCH  69  70
ENDBRANCH  68  69
ENDBRANCH   1  68
TORSDOF 15
ENDMDL
MODEL 2
REMARK VINA RESULT:      -9.6      4.963     11.274
REMARK SMILES O=C(NCCCCNC(=O)[C@@H]1C[NH2+]C[C@H]1c1ccncc1)c1ccc(-c2c3nc(c(-c4ccc(S(=O)(=O)[O-])cc4)c4ccc([nH]4)c(-c4ccc(S(=O)(=O)[O-])cc4)c4nc(c(-c5ccc(S(=O)(=O)[O-])cc5)c5ccc2[nH]5)C=C4)C=C3)cc1
REMARK SMILES IDX 4 1 3 2 1 3 2 4 22 6 23 7 81 8 24 9 80 10 25 11 26 12 27 13
REMARK SMILES IDX 74 14 28 15 79 16 73 17 75 18 29 19 78 20 72 21 71 22 30 24
REMARK SMILES IDX 60 25 41 26 59 27 42 28 45 29 58 30 76 31 43 32 44 33 57 35
REMARK SMILES IDX 77 36 46 37 31 38 32 39 40 40 33 41 39 42 34 43 35 44 36 45
REMARK SMILES IDX 37 46 38 47 61 48 62 49 70 50 63 51 69 52 64 53 65 54 66 55
REMARK SMILES IDX 67 56 68 57 47 58 48 59 56 60 49 61 55 62 50 63 51 64 52 65
REMARK SMILES IDX 53 66 54 67 5 68 6 69 7 70 8 71 9 72 10 74 11 75 12 76 15 77
REMARK SMILES IDX 13 78 14 79 16 82 17 83 21 84 18 85 20 86 19 87
REMARK H PARENT 3 5 75 23 45 34 8 73 13 80 13 81
REMARK Flexibility Score: inf
ROOT
ATOM      1  C   UNL A   1      32.925  32.604  27.346  1.00  0.00     0.116 C 
ENDROOT
BRANCH   1   2
ATOM      2  N   UNL A   1      32.585  33.982  27.664  1.00  0.00    -0.352 N 
ATOM      3  O   UNL A   1      32.649  35.903  28.850  1.00  0.00    -0.269 OA
ATOM      4  C   UNL A   1      33.132  34.796  28.629  1.00  0.00     0.251 C 
ATOM      5  H   UNL A   1      31.871  34.384  27.118  1.00  0.00     0.163 HD
BRANCH   4   6
ATOM      6  C   UNL A   1      34.285  34.311  29.421  1.00  0.00     0.039 A 
ATOM      7  C   UNL A   1      35.589  34.521  28.970  1.00  0.00     0.014 A 
ATOM      8  C   UNL A   1      34.057  33.614  30.612  1.00  0.00     0.014 A 
ATOM      9  C   UNL A   1      36.651  33.912  29.626  1.00  0.00     0.010 A 
ATOM     10  C   UNL A   1      35.138  33.072  31.318  1.00  0.00     0.010 A 
ATOM     11  C   UNL A   1      36.441  33.187  30.813  1.00  0.00    -0.014 A 
BRANCH  11  12
ATOM     12  C   UNL A   1      37.620  32.620  31.517  1.00  0.00     0.031 A 
ATOM     13  C   UNL A   1      38.065  33.144  32.856  1.00  0.00     0.074 A 
ATOM     14  C   UNL A   1      38.244  31.561  30.964  1.00  0.00     0.049 A 
ATOM     15  N   UNL A   1      39.008  32.687  33.641  1.00  0.00    -0.248 NA
ATOM     16  C   UNL A   1      37.374  34.332  33.381  1.00  0.00     0.031 C 
ATOM     17  C   UNL A   1      37.914  30.978  29.659  1.00  0.00     0.029 A 
ATOM     18  N   UNL A   1      39.250  30.761  31.438  1.00  0.00    -0.354 N 
ATOM     19  C   UNL A   1      39.034  33.531  34.744  1.00  0.00     0.074 A 
ATOM     20  C   UNL A   1      38.027  34.547  34.516  1.00  0.00     0.031 C 
ATOM     21  C   UNL A   1      38.655  29.877  29.469  1.00  0.00     0.029 A 
ATOM     22  C   UNL A   1      39.547  29.706  30.610  1.00  0.00     0.049 A 
ATOM     23  H   UNL A   1      39.714  30.926  32.291  1.00  0.00     0.167 HD
ATOM     24  C   UNL A   1      39.819  33.464  35.847  1.00  0.00     0.031 A 
ATOM     25  C   UNL A   1      40.439  28.706  30.746  1.00  0.00     0.031 A 
ATOM     26  C   UNL A   1      40.822  32.453  36.070  1.00  0.00     0.049 A 
ATOM     27  C   UNL A   1      41.282  28.646  31.985  1.00  0.00     0.074 A 
ATOM     28  C   UNL A   1      41.668  32.302  37.155  1.00  0.00     0.029 A 
ATOM     29  N   UNL A   1      41.111  31.417  35.194  1.00  0.00    -0.354 N 
ATOM     30  N   UNL A   1      41.279  29.453  33.019  1.00  0.00    -0.248 NA
ATOM     31  C   UNL A   1      42.245  27.543  32.076  1.00  0.00     0.031 C 
ATOM     32  C   UNL A   1      42.490  31.194  36.921  1.00  0.00     0.029 A 
ATOM     33  C   UNL A   1      42.127  30.629  35.710  1.00  0.00     0.049 A 
ATOM     34  H   UNL A   1      40.659  31.264  34.333  1.00  0.00     0.167 HD
ATOM     35  C   UNL A   1      42.246  28.956  33.883  1.00  0.00     0.074 A 
ATOM     36  C   UNL A   1      42.783  27.758  33.268  1.00  0.00     0.031 C 
ATOM     37  C   UNL A   1      42.663  29.454  35.073  1.00  0.00     0.031 A 
BRANCH  24  38
ATOM     38  C   UNL A   1      39.636  34.523  36.902  1.00  0.00    -0.014 A 
ATOM     39  C   UNL A   1      38.889  34.264  38.065  1.00  0.00     0.010 A 
ATOM     40  C   UNL A   1      40.271  35.771  36.761  1.00  0.00     0.010 A 
ATOM     41  C   UNL A   1      38.758  35.242  39.055  1.00  0.00     0.020 A 
ATOM     42  C   UNL A   1      40.160  36.744  37.758  1.00  0.00     0.020 A 
ATOM     43  C   UNL A   1      39.392  36.478  38.894  1.00  0.00     0.054 A 
BRANCH  43  44
ATOM     44  S   UNL A   1      39.235  37.717  40.210  1.00  0.00     0.124 S 
ATOM     45  O   UNL A   1      40.578  38.294  40.241  1.00  0.00    -0.237 OA
ATOM     46  O   UNL A   1      38.187  38.598  39.701  1.00  0.00    -0.237 OA
ATOM     47  O   UNL A   1      38.867  36.932  41.385  1.00  0.00    -0.744 OA
ENDBRANCH  43  44
ENDBRANCH  24  38
BRANCH  25  48
ATOM     48  C   UNL A   1      40.582  27.697  29.665  1.00  0.00    -0.014 A 
ATOM     49  C   UNL A   1      39.629  26.679  29.498  1.00  0.00     0.010 A 
ATOM     50  C   UNL A   1      41.668  27.776  28.772  1.00  0.00     0.010 A 
ATOM     51  C   UNL A   1      39.766  25.746  28.466  1.00  0.00     0.020 A 
ATOM     52  C   UNL A   1      41.792  26.863  27.724  1.00  0.00     0.020 A 
ATOM     53  C   UNL A   1      40.847  25.846  27.585  1.00  0.00     0.054 A 
BRANCH  53  54
ATOM     54  S   UNL A   1      40.982  24.667  26.212  1.00  0.00     0.124 S 
ATOM     55  O   UNL A   1      41.166  25.555  25.069  1.00  0.00    -0.237 OA
ATOM     56  O   UNL A   1      42.148  23.869  26.588  1.00  0.00    -0.237 OA
ATOM     57  O   UNL A   1      39.710  23.951  26.255  1.00  0.00    -0.744 OA
ENDBRANCH  53  54
ENDBRANCH  25  48
BRANCH  37  58
ATOM     58  C   UNL A   1      43.755  28.697  35.776  1.00  0.00    -0.014 A 
ATOM     59  C   UNL A   1      43.446  27.666  36.681  1.00  0.00     0.010 A 
ATOM     60  C   UNL A   1      45.101  29.019  35.530  1.00  0.00     0.010 A 
ATOM     61  C   UNL A   1      44.466  27.000  37.365  1.00  0.00     0.020 A 
ATOM     62  C   UNL A   1      46.124  28.339  36.196  1.00  0.00     0.020 A 
ATOM     63  C   UNL A   1      45.798  27.348  37.126  1.00  0.00     0.054 A 
BRANCH  63  64
ATOM     64  S   UNL A   1      47.108  26.470  38.021  1.00  0.00     0.124 S 
ATOM     65  O   UNL A   1      46.766  25.074  37.766  1.00  0.00    -0.237 OA
ATOM     66  O   UNL A   1      48.325  26.949  37.369  1.00  0.00    -0.237 OA
ATOM     67  O   UNL A   1      46.936  26.912  39.404  1.00  0.00    -0.744 OA
ENDBRANCH  63  64
ENDBRANCH  37  58
ENDBRANCH  11  12
ENDBRANCH   4   6
ENDBRANCH   1   2
BRANCH   1  68
ATOM     68  C   UNL A   1      31.780  31.832  26.700  1.00  0.00     0.023 C 
BRANCH  68  69
ATOM     69  C   UNL A   1      31.879  30.307  26.795  1.00  0.00     0.023 C 
BRANCH  69  70
ATOM     70  C   UNL A   1      33.219  29.723  26.350  1.00  0.00     0.116 C 
BRANCH  70  71
ATOM     71  N   UNL A   1      33.317  29.659  24.902  1.00  0.00    -0.356 N 
ATOM     72  C   UNL A   1      32.484  29.094  23.985  1.00  0.00     0.229 C 
ATOM     73  H   UNL A   1      34.114  30.094  24.522  1.00  0.00     0.163 HD
ATOM     74  O   UNL A   1      32.801  29.163  22.797  1.00  0.00    -0.275 OA
BRANCH  72  75
ATOM     75  C   UNL A   1      31.182  28.458  24.429  1.00  0.00     0.146 C 
ATOM     76  C   UNL A   1      31.394  26.985  24.745  1.00  0.00     0.274 C 
ATOM     77  C   UNL A   1      30.152  28.401  23.287  1.00  0.00     0.092 C 
ATOM     78  N   UNL A   1      30.034  26.426  24.717  1.00  0.00    -0.345 N 
ATOM     79  C   UNL A   1      29.374  27.097  23.580  1.00  0.00     0.269 C 
ATOM     80  H   UNL A   1      29.544  26.631  25.588  1.00  0.00     0.346 HD
ATOM     81  H   UNL A   1      30.037  25.412  24.617  1.00  0.00     0.346 HD
BRANCH  77  82
ATOM     82  C   UNL A   1      29.379  29.696  23.111  1.00  0.00    -0.035 A 
ATOM     83  C   UNL A   1      28.418  29.772  22.089  1.00  0.00     0.024 A 
ATOM     84  C   UNL A   1      29.550  30.831  23.907  1.00  0.00     0.024 A 
ATOM     85  C   UNL A   1      27.708  30.948  21.899  1.00  0.00     0.111 A 
ATOM     86  C   UNL A   1      28.778  31.959  23.653  1.00  0.00     0.111 A 
ATOM     87  N   UNL A   1      27.869  32.047  22.661  1.00  0.00    -0.265 NA
ENDBRANCH  77  82
ENDBRANCH  72  75
ENDBRANCH  70  71
ENDBRANCH  69  70
ENDBRANCH  68  69
ENDBRANCH   1  68
TORSDOF 15
ENDMDL
MODEL 3
REMARK VINA RESULT:      -9.6      3.733     10.398
REMARK SMILES O=C(NCCCCNC(=O)[C@@H]1C[NH2+]C[C@H]1c1ccncc1)c1ccc(-c2c3nc(c(-c4ccc(S(=O)(=O)[O-])cc4)c4ccc([nH]4)c(-c4ccc(S(=O)(=O)[O-])cc4)c4nc(c(-c5ccc(S(=O)(=O)[O-])cc5)c5ccc2[nH]5)C=C4)C=C3)cc1
REMARK SMILES IDX 4 1 3 2 1 3 2 4 22 6 23 7 81 8 24 9 80 10 25 11 26 12 27 13
REMARK SMILES IDX 74 14 28 15 79 16 73 17 75 18 29 19 78 20 72 21 71 22 30 24
REMARK SMILES IDX 60 25 41 26 59 27 42 28 45 29 58 30 76 31 43 32 44 33 57 35
REMARK SMILES IDX 77 36 46 37 31 38 32 39 40 40 33 41 39 42 34 43 35 44 36 45
REMARK SMILES IDX 37 46 38 47 61 48 62 49 70 50 63 51 69 52 64 53 65 54 66 55
REMARK SMILES IDX 67 56 68 57 47 58 48 59 56 60 49 61 55 62 50 63 51 64 52 65
REMARK SMILES IDX 53 66 54 67 5 68 6 69 7 70 8 71 9 72 10 74 11 75 12 76 15 77
REMARK SMILES IDX 13 78 14 79 16 82 17 83 21 84 18 85 20 86 19 87
REMARK H PARENT 3 5 75 23 45 34 8 73 13 80 13 81
REMARK Flexibility Score: inf
ROOT
ATOM      1  C   UNL A   1      35.826  31.309  28.608  1.00  0.00     0.116 C 
ENDROOT
BRANCH   1   2
ATOM      2  N   UNL A   1      35.660  30.843  29.976  1.00  0.00    -0.352 N 
ATOM      3  O   UNL A   1      36.157  29.637  31.819  1.00  0.00    -0.269 OA
ATOM      4  C   UNL A   1      36.501  30.040  30.712  1.00  0.00     0.251 C 
ATOM      5  H   UNL A   1      34.841  31.140  30.434  1.00  0.00     0.163 HD
BRANCH   4   6
ATOM      6  C   UNL A   1      37.807  29.638  30.141  1.00  0.00     0.039 A 
ATOM      7  C   UNL A   1      38.830  29.181  30.975  1.00  0.00     0.014 A 
ATOM      8  C   UNL A   1      38.018  29.746  28.764  1.00  0.00     0.014 A 
ATOM      9  C   UNL A   1      40.101  28.976  30.453  1.00  0.00     0.010 A 
ATOM     10  C   UNL A   1      39.279  29.456  28.228  1.00  0.00     0.010 A 
ATOM     11  C   UNL A   1      40.340  29.102  29.074  1.00  0.00    -0.014 A 
BRANCH  11  12
ATOM     12  C   UNL A   1      41.700  28.796  28.558  1.00  0.00     0.031 A 
ATOM     13  C   UNL A   1      42.799  29.824  28.574  1.00  0.00     0.074 A 
ATOM     14  C   UNL A   1      41.955  27.540  28.141  1.00  0.00     0.049 A 
ATOM     15  N   UNL A   1      44.061  29.676  28.256  1.00  0.00    -0.248 NA
ATOM     16  C   UNL A   1      42.443  31.188  28.994  1.00  0.00     0.031 C 
ATOM     17  C   UNL A   1      40.962  26.463  28.060  1.00  0.00     0.029 A 
ATOM     18  N   UNL A   1      43.123  26.941  27.750  1.00  0.00    -0.354 N 
ATOM     19  C   UNL A   1      44.648  30.925  28.425  1.00  0.00     0.074 A 
ATOM     20  C   UNL A   1      43.598  31.826  28.850  1.00  0.00     0.031 C 
ATOM     21  C   UNL A   1      41.576  25.324  27.711  1.00  0.00     0.029 A 
ATOM     22  C   UNL A   1      42.991  25.598  27.493  1.00  0.00     0.049 A 
ATOM     23  H   UNL A   1      43.975  27.427  27.663  1.00  0.00     0.167 HD
ATOM     24  C   UNL A   1      45.943  31.285  28.247  1.00  0.00     0.031 A 
ATOM     25  C   UNL A   1      43.904  24.681  27.121  1.00  0.00     0.031 A 
ATOM     26  C   UNL A   1      46.985  30.385  27.822  1.00  0.00     0.049 A 
ATOM     27  C   UNL A   1      45.333  25.104  26.950  1.00  0.00     0.074 A 
ATOM     28  C   UNL A   1      48.327  30.658  27.613  1.00  0.00     0.029 A 
ATOM     29  N   UNL A   1      46.805  29.038  27.545  1.00  0.00    -0.354 N 
ATOM     30  N   UNL A   1      45.864  26.290  27.125  1.00  0.00    -0.248 NA
ATOM     31  C   UNL A   1      46.283  24.066  26.532  1.00  0.00     0.031 C 
ATOM     32  C   UNL A   1      48.951  29.482  27.179  1.00  0.00     0.029 A 
ATOM     33  C   UNL A   1      48.008  28.469  27.160  1.00  0.00     0.049 A 
ATOM     34  H   UNL A   1      45.949  28.558  27.614  1.00  0.00     0.167 HD
ATOM     35  C   UNL A   1      47.213  26.142  26.833  1.00  0.00     0.074 A 
ATOM     36  C   UNL A   1      47.422  24.744  26.509  1.00  0.00     0.031 C 
ATOM     37  C   UNL A   1      48.191  27.081  26.820  1.00  0.00     0.031 A 
BRANCH  24  38
ATOM     38  C   UNL A   1      46.310  32.723  28.502  1.00  0.00    -0.014 A 
ATOM     39  C   UNL A   1      46.216  33.686  27.482  1.00  0.00     0.010 A 
ATOM     40  C   UNL A   1      46.692  33.131  29.794  1.00  0.00     0.010 A 
ATOM     41  C   UNL A   1      46.522  35.025  27.741  1.00  0.00     0.020 A 
ATOM     42  C   UNL A   1      46.980  34.473  30.061  1.00  0.00     0.020 A 
ATOM     43  C   UNL A   1      46.906  35.410  29.029  1.00  0.00     0.054 A 
BRANCH  43  44
ATOM     44  S   UNL A   1      47.266  37.160  29.347  1.00  0.00     0.124 S 
ATOM     45  O   UNL A   1      46.558  37.816  28.249  1.00  0.00    -0.237 OA
ATOM     46  O   UNL A   1      46.696  37.370  30.675  1.00  0.00    -0.237 OA
ATOM     47  O   UNL A   1      48.723  37.233  29.279  1.00  0.00    -0.744 OA
ENDBRANCH  43  44
ENDBRANCH  24  38
BRANCH  25  48
ATOM     48  C   UNL A   1      43.479  23.279  26.873  1.00  0.00    -0.014 A 
ATOM     49  C   UNL A   1      43.654  22.686  25.612  1.00  0.00     0.010 A 
ATOM     50  C   UNL A   1      42.923  22.520  27.919  1.00  0.00     0.010 A 
ATOM     51  C   UNL A   1      43.265  21.360  25.396  1.00  0.00     0.020 A 
ATOM     52  C   UNL A   1      42.561  21.187  27.715  1.00  0.00     0.020 A 
ATOM     53  C   UNL A   1      42.722  20.620  26.450  1.00  0.00     0.054 A 
BRANCH  53  54
ATOM     54  S   UNL A   1      42.278  18.882  26.175  1.00  0.00     0.124 S 
ATOM     55  O   UNL A   1      42.496  18.303  27.496  1.00  0.00    -0.237 OA
ATOM     56  O   UNL A   1      40.885  18.971  25.744  1.00  0.00    -0.237 OA
ATOM     57  O   UNL A   1      43.214  18.454  25.138  1.00  0.00    -0.744 OA
ENDBRANCH  53  54
ENDBRANCH  25  48
BRANCH  37  58
ATOM     58  C   UNL A   1      49.569  26.616  26.439  1.00  0.00    -0.014 A 
ATOM     59  C   UNL A   1      50.040  26.769  25.122  1.00  0.00     0.010 A 
ATOM     60  C   UNL A   1      50.399  26.020  27.403  1.00  0.00     0.010 A 
ATOM     61  C   UNL A   1      51.303  26.290  24.766  1.00  0.00     0.020 A 
ATOM     62  C   UNL A   1      51.671  25.561  27.055  1.00  0.00     0.020 A 
ATOM     63  C   UNL A   1      52.107  25.680  25.733  1.00  0.00     0.054 A 
BRANCH  63  64
ATOM     64  S   UNL A   1      53.745  25.068  25.252  1.00  0.00     0.124 S 
ATOM     65  O   UNL A   1      53.904  25.645  23.920  1.00  0.00    -0.237 OA
ATOM     66  O   UNL A   1      54.615  25.623  26.286  1.00  0.00    -0.237 OA
ATOM     67  O   UNL A   1      53.593  23.614  25.289  1.00  0.00    -0.744 OA
ENDBRANCH  63  64
ENDBRANCH  37  58
ENDBRANCH  11  12
ENDBRANCH   4   6
ENDBRANCH   1   2
BRANCH   1  68
ATOM     68  C   UNL A   1      34.544  31.239  27.786  1.00  0.00     0.023 C 
BRANCH  68  69
ATOM     69  C   UNL A   1      34.351  29.953  26.977  1.00  0.00     0.023 C 
BRANCH  69  70
ATOM     70  C   UNL A   1      32.999  29.836  26.276  1.00  0.00     0.116 C 
BRANCH  70  71
ATOM     71  N   UNL A   1      33.154  29.694  24.839  1.00  0.00    -0.356 N 
ATOM     72  C   UNL A   1      32.338  29.117  23.915  1.00  0.00     0.229 C 
ATOM     73  H   UNL A   1      33.984  30.079  24.473  1.00  0.00     0.163 HD
ATOM     74  O   UNL A   1      32.707  29.114  22.740  1.00  0.00    -0.275 OA
BRANCH  72  75
ATOM     75  C   UNL A   1      30.993  28.556  24.331  1.00  0.00     0.146 C 
ATOM     76  C   UNL A   1      31.137  27.106  24.764  1.00  0.00     0.274 C 
ATOM     77  C   UNL A   1      30.023  28.446  23.142  1.00  0.00     0.092 C 
ATOM     78  N   UNL A   1      29.762  26.588  24.702  1.00  0.00    -0.345 N 
ATOM     79  C   UNL A   1      29.186  27.193  23.486  1.00  0.00     0.269 C 
ATOM     80  H   UNL A   1      29.235  26.871  25.529  1.00  0.00     0.346 HD
ATOM     81  H   UNL A   1      29.735  25.569  24.676  1.00  0.00     0.346 HD
BRANCH  77  82
ATOM     82  C   UNL A   1      29.305  29.748  22.831  1.00  0.00    -0.035 A 
ATOM     83  C   UNL A   1      29.369  30.792  23.769  1.00  0.00     0.024 A 
ATOM     84  C   UNL A   1      28.582  29.990  21.660  1.00  0.00     0.024 A 
ATOM     85  C   UNL A   1      28.712  31.986  23.515  1.00  0.00     0.111 A 
ATOM     86  C   UNL A   1      27.972  31.227  21.485  1.00  0.00     0.111 A 
ATOM     87  N   UNL A   1      28.012  32.226  22.389  1.00  0.00    -0.265 NA
ENDBRANCH  77  82
ENDBRANCH  72  75
ENDBRANCH  70  71
ENDBRANCH  69  70
ENDBRANCH  68  69
ENDBRANCH   1  68
TORSDOF 15
ENDMDL
