MODEL 1
REMARK VINA RESULT:     -12.5      0.000      0.000
REMARK SMILES [NH3+][C@H]1CN(C(=O)OCC2c3ccccc3-c3ccccc32)C[C@@H]1C(=O)NCCCCNC(=O)c1ccc(-c2c3nc(c(-c4ccc(S(=O)(=O)[O-])cc4)c4ccc([nH]4)c(-c4ccc(S(=O)(=O)[O-])cc4)c4nc(c(-c5ccc(S(=O)(=O)[O-])cc5)c5ccc2[nH]5)C=C4)C=C3)cc1
REMARK SMILES IDX 28 1 27 2 26 3 24 4 25 5 23 7 2 8 3 9 4 10 22 11 1 12 5 16
REMARK SMILES IDX 6 17 7 18 8 19 9 20 10 21 21 22 11 23 15 24 16 25 20 26
REMARK SMILES IDX 12 27 14 28 17 29 19 30 13 31 18 32 29 33 30 34 31 35 32 36
REMARK SMILES IDX 33 38 34 39 35 40 93 41 36 42 92 43 37 44 38 45 39 46 86 47
REMARK SMILES IDX 40 48 91 49 85 50 87 51 41 52 90 53 84 54 83 55 42 57 72 58
REMARK SMILES IDX 53 59 71 60 54 61 57 62 70 63 88 64 55 65 56 66 69 68 89 69
REMARK SMILES IDX 58 70 43 71 44 72 52 73 45 74 51 75 46 76 47 77 48 78 49 79
REMARK SMILES IDX 50 80 73 81 74 82 82 83 75 84 81 85 76 86 77 87 78 88 79 89
REMARK SMILES IDX 80 90 59 91 60 92 68 93 61 94 67 95 62 96 63 97 64 98 65 99
REMARK SMILES IDX 66 100
REMARK H PARENT 26 6 1 13 1 14 1 15 31 37 87 56 57 67
REMARK Flexibility Score: inf
ROOT
ATOM      1  C   UNL A   1      37.928  22.076  25.692  1.00  0.00     0.023 C 
ENDROOT
BRANCH   1   2
ATOM      2  C   UNL A   1      36.694  21.891  24.807  1.00  0.00     0.116 C 
BRANCH   2   3
ATOM      3  N   UNL A   1      35.878  23.094  24.806  1.00  0.00    -0.356 N 
ATOM      4  C   UNL A   1      34.619  23.293  25.296  1.00  0.00     0.231 C 
ATOM      5  O   UNL A   1      34.015  24.317  24.978  1.00  0.00    -0.274 OA
ATOM      6  H   UNL A   1      36.297  23.884  24.393  1.00  0.00     0.163 HD
BRANCH   4   7
ATOM      7  C   UNL A   1      34.044  22.279  26.265  1.00  0.00     0.158 C 
ATOM      8  C   UNL A   1      33.241  21.167  25.568  1.00  0.00     0.215 C 
ATOM      9  C   UNL A   1      31.809  21.739  25.466  1.00  0.00     0.188 C 
ATOM     10  N   UNL A   1      31.762  22.844  26.400  1.00  0.00    -0.301 N 
ATOM     11  C   UNL A   1      33.011  23.000  27.117  1.00  0.00     0.143 C 
BRANCH   8  12
ATOM     12  N   UNL A   1      33.272  19.935  26.383  1.00  0.00    -0.353 N 
ATOM     13  H   UNL A   1      32.317  19.647  26.601  1.00  0.00     0.344 HD
ATOM     14  H   UNL A   1      33.780  20.112  27.250  1.00  0.00     0.344 HD
ATOM     15  H   UNL A   1      33.738  19.193  25.861  1.00  0.00     0.344 HD
ENDBRANCH   8  12
BRANCH  10  16
ATOM     16  C   UNL A   1      30.762  23.778  26.438  1.00  0.00     0.410 C 
ATOM     17  O   UNL A   1      29.883  23.791  27.286  1.00  0.00    -0.224 OA
BRANCH  16  18
ATOM     18  O   UNL A   1      30.806  24.604  25.356  1.00  0.00    -0.448 OA
BRANCH  18  19
ATOM     19  C   UNL A   1      30.498  25.991  25.614  1.00  0.00     0.248 C 
BRANCH  19  20
ATOM     20  C   UNL A   1      31.336  26.946  24.735  1.00  0.00     0.088 C 
ATOM     21  C   UNL A   1      30.512  28.006  23.999  1.00  0.00    -0.029 A 
ATOM     22  C   UNL A   1      32.245  27.830  25.594  1.00  0.00    -0.029 A 
ATOM     23  C   UNL A   1      29.596  27.844  22.973  1.00  0.00     0.005 A 
ATOM     24  C   UNL A   1      30.803  29.291  24.501  1.00  0.00    -0.014 A 
ATOM     25  C   UNL A   1      31.894  29.189  25.443  1.00  0.00    -0.014 A 
ATOM     26  C   UNL A   1      33.303  27.452  26.407  1.00  0.00     0.005 A 
ATOM     27  C   UNL A   1      28.869  28.954  22.541  1.00  0.00     0.000 A 
ATOM     28  C   UNL A   1      30.096  30.400  24.061  1.00  0.00     0.009 A 
ATOM     29  C   UNL A   1      32.602  30.182  26.101  1.00  0.00     0.009 A 
ATOM     30  C   UNL A   1      34.017  28.455  27.071  1.00  0.00     0.000 A 
ATOM     31  C   UNL A   1      29.105  30.220  23.094  1.00  0.00     0.001 A 
ATOM     32  C   UNL A   1      33.671  29.808  26.917  1.00  0.00     0.001 A 
ENDBRANCH  19  20
ENDBRANCH  18  19
ENDBRANCH  16  18
ENDBRANCH  10  16
ENDBRANCH   4   7
ENDBRANCH   2   3
ENDBRANCH   1   2
BRANCH   1  33
ATOM     33  C   UNL A   1      38.148  23.517  26.168  1.00  0.00     0.023 C 
BRANCH  33  34
ATOM     34  C   UNL A   1      39.470  23.766  26.886  1.00  0.00     0.116 C 
BRANCH  34  35
ATOM     35  N   UNL A   1      40.496  24.301  26.004  1.00  0.00    -0.352 N 
ATOM     36  C   UNL A   1      41.108  25.531  26.029  1.00  0.00     0.251 C 
ATOM     37  H   UNL A   1      40.794  23.695  25.287  1.00  0.00     0.163 HD
ATOM     38  O   UNL A   1      41.843  25.865  25.104  1.00  0.00    -0.269 OA
BRANCH  36  39
ATOM     39  C   UNL A   1      40.854  26.461  27.152  1.00  0.00     0.039 A 
ATOM     40  C   UNL A   1      39.961  26.078  28.157  1.00  0.00     0.014 A 
ATOM     41  C   UNL A   1      41.501  27.697  27.225  1.00  0.00     0.014 A 
ATOM     42  C   UNL A   1      39.773  26.904  29.267  1.00  0.00     0.010 A 
ATOM     43  C   UNL A   1      41.373  28.481  28.369  1.00  0.00     0.010 A 
ATOM     44  C   UNL A   1      40.506  28.094  29.403  1.00  0.00    -0.014 A 
BRANCH  44  45
ATOM     45  C   UNL A   1      40.393  28.934  30.625  1.00  0.00     0.031 A 
ATOM     46  C   UNL A   1      39.363  30.029  30.705  1.00  0.00     0.074 A 
ATOM     47  C   UNL A   1      41.257  28.749  31.644  1.00  0.00     0.049 A 
ATOM     48  N   UNL A   1      39.144  30.886  31.669  1.00  0.00    -0.248 NA
ATOM     49  C   UNL A   1      38.476  30.197  29.541  1.00  0.00     0.031 C 
ATOM     50  C   UNL A   1      42.327  27.748  31.676  1.00  0.00     0.029 A 
ATOM     51  N   UNL A   1      41.377  29.398  32.848  1.00  0.00    -0.354 N 
ATOM     52  C   UNL A   1      38.109  31.701  31.225  1.00  0.00     0.074 A 
ATOM     53  C   UNL A   1      37.780  31.270  29.884  1.00  0.00     0.031 C 
ATOM     54  C   UNL A   1      42.971  27.829  32.852  1.00  0.00     0.029 A 
ATOM     55  C   UNL A   1      42.397  28.916  33.637  1.00  0.00     0.049 A 
ATOM     56  H   UNL A   1      40.790  30.139  33.122  1.00  0.00     0.167 HD
ATOM     57  C   UNL A   1      37.477  32.706  31.880  1.00  0.00     0.031 A 
ATOM     58  C   UNL A   1      42.830  29.310  34.851  1.00  0.00     0.031 A 
ATOM     59  C   UNL A   1      37.809  33.133  33.213  1.00  0.00     0.049 A 
ATOM     60  C   UNL A   1      42.131  30.447  35.545  1.00  0.00     0.074 A 
ATOM     61  C   UNL A   1      37.193  34.104  33.983  1.00  0.00     0.029 A 
ATOM     62  N   UNL A   1      38.851  32.624  33.974  1.00  0.00    -0.354 N 
ATOM     63  N   UNL A   1      41.107  31.157  35.138  1.00  0.00    -0.248 NA
ATOM     64  C   UNL A   1      42.642  30.830  36.870  1.00  0.00     0.031 C 
ATOM     65  C   UNL A   1      37.903  34.230  35.180  1.00  0.00     0.029 A 
ATOM     66  C   UNL A   1      38.916  33.285  35.191  1.00  0.00     0.049 A 
ATOM     67  H   UNL A   1      39.455  31.900  33.692  1.00  0.00     0.167 HD
ATOM     68  C   UNL A   1      40.832  32.052  36.167  1.00  0.00     0.074 A 
ATOM     69  C   UNL A   1      41.787  31.780  37.223  1.00  0.00     0.031 C 
ATOM     70  C   UNL A   1      39.875  33.010  36.232  1.00  0.00     0.031 A 
BRANCH  57  71
ATOM     71  C   UNL A   1      36.368  33.423  31.153  1.00  0.00    -0.014 A 
ATOM     72  C   UNL A   1      35.090  33.563  31.725  1.00  0.00     0.010 A 
ATOM     73  C   UNL A   1      36.618  34.006  29.896  1.00  0.00     0.010 A 
ATOM     74  C   UNL A   1      34.073  34.230  31.037  1.00  0.00     0.020 A 
ATOM     75  C   UNL A   1      35.613  34.702  29.218  1.00  0.00     0.020 A 
ATOM     76  C   UNL A   1      34.341  34.794  29.786  1.00  0.00     0.054 A 
BRANCH  76  77
ATOM     77  S   UNL A   1      33.006  35.671  28.927  1.00  0.00     0.124 S 
ATOM     78  O   UNL A   1      33.748  36.661  28.149  1.00  0.00    -0.237 OA
ATOM     79  O   UNL A   1      32.374  34.608  28.150  1.00  0.00    -0.237 OA
ATOM     80  O   UNL A   1      32.193  36.216  30.011  1.00  0.00    -0.744 OA
ENDBRANCH  76  77
ENDBRANCH  57  71
BRANCH  58  81
ATOM     81  C   UNL A   1      43.981  28.613  35.491  1.00  0.00    -0.014 A 
ATOM     82  C   UNL A   1      43.769  27.516  36.345  1.00  0.00     0.010 A 
ATOM     83  C   UNL A   1      45.298  29.037  35.240  1.00  0.00     0.010 A 
ATOM     84  C   UNL A   1      44.851  26.867  36.949  1.00  0.00     0.020 A 
ATOM     85  C   UNL A   1      46.385  28.370  35.815  1.00  0.00     0.020 A 
ATOM     86  C   UNL A   1      46.152  27.295  36.675  1.00  0.00     0.054 A 
BRANCH  86  87
ATOM     87  S   UNL A   1      47.542  26.402  37.426  1.00  0.00     0.124 S 
ATOM     88  O   UNL A   1      47.552  25.159  36.664  1.00  0.00    -0.237 OA
ATOM     89  O   UNL A   1      48.664  27.306  37.179  1.00  0.00    -0.237 OA
ATOM     90  O   UNL A   1      47.152  26.276  38.828  1.00  0.00    -0.744 OA
ENDBRANCH  86  87
ENDBRANCH  58  81
BRANCH  70  91
ATOM     91  C   UNL A   1      39.785  33.819  37.501  1.00  0.00    -0.014 A 
ATOM     92  C   UNL A   1      40.504  35.017  37.659  1.00  0.00     0.010 A 
ATOM     93  C   UNL A   1      38.922  33.400  38.530  1.00  0.00     0.010 A 
ATOM     94  C   UNL A   1      40.389  35.761  38.836  1.00  0.00     0.020 A 
ATOM     95  C   UNL A   1      38.777  34.158  39.694  1.00  0.00     0.020 A 
ATOM     96  C   UNL A   1      39.524  35.328  39.846  1.00  0.00     0.054 A 
BRANCH  96  97
ATOM     97  S   UNL A   1      39.358  36.337  41.345  1.00  0.00     0.124 S 
ATOM     98  O   UNL A   1      40.720  36.326  41.871  1.00  0.00    -0.237 OA
ATOM     99  O   UNL A   1      38.899  37.620  40.816  1.00  0.00    -0.237 OA
ATOM    100  O   UNL A   1      38.374  35.611  42.145  1.00  0.00    -0.744 OA
ENDBRANCH  96  97
ENDBRANCH  70  91
ENDBRANCH  44  45
ENDBRANCH  36  39
ENDBRANCH  34  35
ENDBRANCH  33  34
ENDBRANCH   1  33
TORSDOF 19
ENDMDL
MODEL 2
REMARK VINA RESULT:     -12.5      4.766     11.818
REMARK SMILES [NH3+][C@H]1CN(C(=O)OCC2c3ccccc3-c3ccccc32)C[C@@H]1C(=O)NCCCCNC(=O)c1ccc(-c2c3nc(c(-c4ccc(S(=O)(=O)[O-])cc4)c4ccc([nH]4)c(-c4ccc(S(=O)(=O)[O-])cc4)c4nc(c(-c5ccc(S(=O)(=O)[O-])cc5)c5ccc2[nH]5)C=C4)C=C3)cc1
REMARK SMILES IDX 28 1 27 2 26 3 24 4 25 5 23 7 2 8 3 9 4 10 22 11 1 12 5 16
REMARK SMILES IDX 6 17 7 18 8 19 9 20 10 21 21 22 11 23 15 24 16 25 20 26
REMARK SMILES IDX 12 27 14 28 17 29 19 30 13 31 18 32 29 33 30 34 31 35 32 36
REMARK SMILES IDX 33 38 34 39 35 40 93 41 36 42 92 43 37 44 38 45 39 46 86 47
REMARK SMILES IDX 40 48 91 49 85 50 87 51 41 52 90 53 84 54 83 55 42 57 72 58
REMARK SMILES IDX 53 59 71 60 54 61 57 62 70 63 88 64 55 65 56 66 69 68 89 69
REMARK SMILES IDX 58 70 43 71 44 72 52 73 45 74 51 75 46 76 47 77 48 78 49 79
REMARK SMILES IDX 50 80 73 81 74 82 82 83 75 84 81 85 76 86 77 87 78 88 79 89
REMARK SMILES IDX 80 90 59 91 60 92 68 93 61 94 67 95 62 96 63 97 64 98 65 99
REMARK SMILES IDX 66 100
REMARK H PARENT 26 6 1 13 1 14 1 15 31 37 87 56 57 67
REMARK Flexibility Score: inf
ROOT
ATOM      1  C   UNL A   1      33.916  35.120  28.775  1.00  0.00     0.023 C 
ENDROOT
BRANCH   1   2
ATOM      2  C   UNL A   1      33.363  35.646  30.101  1.00  0.00     0.116 C 
BRANCH   2   3
ATOM      3  N   UNL A   1      33.304  34.581  31.089  1.00  0.00    -0.356 N 
ATOM      4  C   UNL A   1      34.320  33.919  31.717  1.00  0.00     0.231 C 
ATOM      5  O   UNL A   1      34.061  32.887  32.336  1.00  0.00    -0.274 OA
ATOM      6  H   UNL A   1      32.397  34.297  31.346  1.00  0.00     0.163 HD
BRANCH   4   7
ATOM      7  C   UNL A   1      35.712  34.518  31.684  1.00  0.00     0.158 C 
ATOM      8  C   UNL A   1      36.708  33.684  30.859  1.00  0.00     0.215 C 
ATOM      9  C   UNL A   1      37.275  32.661  31.868  1.00  0.00     0.188 C 
ATOM     10  N   UNL A   1      36.948  33.182  33.179  1.00  0.00    -0.301 N 
ATOM     11  C   UNL A   1      36.266  34.457  33.100  1.00  0.00     0.143 C 
BRANCH   8  12
ATOM     12  N   UNL A   1      37.772  34.556  30.320  1.00  0.00    -0.353 N 
ATOM     13  H   UNL A   1      37.564  35.528  30.550  1.00  0.00     0.344 HD
ATOM     14  H   UNL A   1      37.820  34.449  29.306  1.00  0.00     0.344 HD
ATOM     15  H   UNL A   1      38.668  34.295  30.732  1.00  0.00     0.344 HD
ENDBRANCH   8  12
BRANCH  10  16
ATOM     16  C   UNL A   1      37.044  32.462  34.340  1.00  0.00     0.410 C 
ATOM     17  O   UNL A   1      36.889  32.948  35.449  1.00  0.00    -0.224 OA
BRANCH  16  18
ATOM     18  O   UNL A   1      37.446  31.182  34.104  1.00  0.00    -0.448 OA
BRANCH  18  19
ATOM     19  C   UNL A   1      38.580  30.730  34.876  1.00  0.00     0.248 C 
BRANCH  19  20
ATOM     20  C   UNL A   1      39.919  31.237  34.295  1.00  0.00     0.088 C 
ATOM     21  C   UNL A   1      40.741  32.089  35.265  1.00  0.00    -0.029 A 
ATOM     22  C   UNL A   1      40.884  30.075  34.040  1.00  0.00    -0.029 A 
ATOM     23  C   UNL A   1      40.466  33.351  35.768  1.00  0.00     0.005 A 
ATOM     24  C   UNL A   1      41.924  31.415  35.631  1.00  0.00    -0.014 A 
ATOM     25  C   UNL A   1      42.034  30.206  34.849  1.00  0.00    -0.014 A 
ATOM     26  C   UNL A   1      40.755  29.020  33.148  1.00  0.00     0.005 A 
ATOM     27  C   UNL A   1      41.309  33.881  36.745  1.00  0.00     0.000 A 
ATOM     28  C   UNL A   1      42.775  31.948  36.587  1.00  0.00     0.009 A 
ATOM     29  C   UNL A   1      43.067  29.286  34.767  1.00  0.00     0.009 A 
ATOM     30  C   UNL A   1      41.798  28.093  33.067  1.00  0.00     0.000 A 
ATOM     31  C   UNL A   1      42.447  33.177  37.164  1.00  0.00     0.001 A 
ATOM     32  C   UNL A   1      42.944  28.225  33.867  1.00  0.00     0.001 A 
ENDBRANCH  19  20
ENDBRANCH  18  19
ENDBRANCH  16  18
ENDBRANCH  10  16
ENDBRANCH   4   7
ENDBRANCH   2   3
ENDBRANCH   1   2
BRANCH   1  33
ATOM     33  C   UNL A   1      33.349  33.759  28.354  1.00  0.00     0.023 C 
BRANCH  33  34
ATOM     34  C   UNL A   1      34.372  32.631  28.264  1.00  0.00     0.116 C 
BRANCH  34  35
ATOM     35  N   UNL A   1      33.769  31.350  27.933  1.00  0.00    -0.352 N 
ATOM     36  C   UNL A   1      34.364  30.118  27.805  1.00  0.00     0.251 C 
ATOM     37  H   UNL A   1      32.796  31.369  27.777  1.00  0.00     0.163 HD
ATOM     38  O   UNL A   1      33.717  29.172  27.364  1.00  0.00    -0.269 OA
BRANCH  36  39
ATOM     39  C   UNL A   1      35.788  29.942  28.169  1.00  0.00     0.039 A 
ATOM     40  C   UNL A   1      36.113  29.645  29.495  1.00  0.00     0.014 A 
ATOM     41  C   UNL A   1      36.796  30.053  27.208  1.00  0.00     0.014 A 
ATOM     42  C   UNL A   1      37.443  29.393  29.841  1.00  0.00     0.010 A 
ATOM     43  C   UNL A   1      38.108  29.723  27.538  1.00  0.00     0.010 A 
ATOM     44  C   UNL A   1      38.446  29.389  28.859  1.00  0.00    -0.014 A 
BRANCH  44  45
ATOM     45  C   UNL A   1      39.849  29.023  29.191  1.00  0.00     0.031 A 
ATOM     46  C   UNL A   1      40.765  30.025  29.843  1.00  0.00     0.074 A 
ATOM     47  C   UNL A   1      40.318  27.804  28.855  1.00  0.00     0.049 A 
ATOM     48  N   UNL A   1      42.026  29.899  30.168  1.00  0.00    -0.248 NA
ATOM     49  C   UNL A   1      40.195  31.348  30.150  1.00  0.00     0.031 C 
ATOM     50  C   UNL A   1      39.544  26.755  28.185  1.00  0.00     0.029 A 
ATOM     51  N   UNL A   1      41.559  27.241  29.025  1.00  0.00    -0.354 N 
ATOM     52  C   UNL A   1      42.404  31.126  30.703  1.00  0.00     0.074 A 
ATOM     53  C   UNL A   1      41.254  31.998  30.609  1.00  0.00     0.031 C 
ATOM     54  C   UNL A   1      40.318  25.668  28.032  1.00  0.00     0.029 A 
ATOM     55  C   UNL A   1      41.654  25.955  28.544  1.00  0.00     0.049 A 
ATOM     56  H   UNL A   1      42.311  27.713  29.450  1.00  0.00     0.167 HD
ATOM     57  C   UNL A   1      43.595  31.488  31.240  1.00  0.00     0.031 A 
ATOM     58  C   UNL A   1      42.699  25.105  28.508  1.00  0.00     0.031 A 
ATOM     59  C   UNL A   1      44.737  30.618  31.329  1.00  0.00     0.049 A 
ATOM     60  C   UNL A   1      44.019  25.541  29.083  1.00  0.00     0.074 A 
ATOM     61  C   UNL A   1      45.970  30.874  31.904  1.00  0.00     0.029 A 
ATOM     62  N   UNL A   1      44.794  29.327  30.825  1.00  0.00    -0.354 N 
ATOM     63  N   UNL A   1      44.335  26.681  29.650  1.00  0.00    -0.248 NA
ATOM     64  C   UNL A   1      45.122  24.572  29.023  1.00  0.00     0.031 C 
ATOM     65  C   UNL A   1      46.793  29.765  31.687  1.00  0.00     0.029 A 
ATOM     66  C   UNL A   1      46.051  28.787  31.045  1.00  0.00     0.049 A 
ATOM     67  H   UNL A   1      44.051  28.863  30.377  1.00  0.00     0.167 HD
ATOM     68  C   UNL A   1      45.665  26.555  30.040  1.00  0.00     0.074 A 
ATOM     69  C   UNL A   1      46.086  25.222  29.660  1.00  0.00     0.031 C 
ATOM     70  C   UNL A   1      46.463  27.461  30.657  1.00  0.00     0.031 A 
BRANCH  57  71
ATOM     71  C   UNL A   1      43.725  32.898  31.760  1.00  0.00    -0.014 A 
ATOM     72  C   UNL A   1      43.356  33.227  33.078  1.00  0.00     0.010 A 
ATOM     73  C   UNL A   1      44.264  33.901  30.934  1.00  0.00     0.010 A 
ATOM     74  C   UNL A   1      43.482  34.538  33.544  1.00  0.00     0.020 A 
ATOM     75  C   UNL A   1      44.423  35.208  31.406  1.00  0.00     0.020 A 
ATOM     76  C   UNL A   1      44.013  35.521  32.704  1.00  0.00     0.054 A 
BRANCH  76  77
ATOM     77  S   UNL A   1      44.183  37.210  33.344  1.00  0.00     0.124 S 
ATOM     78  O   UNL A   1      45.397  37.105  34.150  1.00  0.00    -0.237 OA
ATOM     79  O   UNL A   1      44.305  38.003  32.125  1.00  0.00    -0.237 OA
ATOM     80  O   UNL A   1      42.951  37.420  34.101  1.00  0.00    -0.744 OA
ENDBRANCH  76  77
ENDBRANCH  57  71
BRANCH  58  81
ATOM     81  C   UNL A   1      42.534  23.750  27.912  1.00  0.00    -0.014 A 
ATOM     82  C   UNL A   1      42.773  23.536  26.542  1.00  0.00     0.010 A 
ATOM     83  C   UNL A   1      42.148  22.661  28.713  1.00  0.00     0.010 A 
ATOM     84  C   UNL A   1      42.613  22.264  25.984  1.00  0.00     0.020 A 
ATOM     85  C   UNL A   1      42.018  21.381  28.166  1.00  0.00     0.020 A 
ATOM     86  C   UNL A   1      42.242  21.194  26.800  1.00  0.00     0.054 A 
BRANCH  86  87
ATOM     87  S   UNL A   1      42.095  19.542  26.064  1.00  0.00     0.124 S 
ATOM     88  O   UNL A   1      43.016  19.628  24.936  1.00  0.00    -0.237 OA
ATOM     89  O   UNL A   1      42.514  18.672  27.161  1.00  0.00    -0.237 OA
ATOM     90  O   UNL A   1      40.679  19.448  25.712  1.00  0.00    -0.744 OA
ENDBRANCH  86  87
ENDBRANCH  58  81
BRANCH  70  91
ATOM     91  C   UNL A   1      47.868  27.034  30.995  1.00  0.00    -0.014 A 
ATOM     92  C   UNL A   1      48.932  27.240  30.098  1.00  0.00     0.010 A 
ATOM     93  C   UNL A   1      48.136  26.468  32.255  1.00  0.00     0.010 A 
ATOM     94  C   UNL A   1      50.231  26.855  30.442  1.00  0.00     0.020 A 
ATOM     95  C   UNL A   1      49.438  26.114  32.616  1.00  0.00     0.020 A 
ATOM     96  C   UNL A   1      50.476  26.296  31.700  1.00  0.00     0.054 A 
BRANCH  96  97
ATOM     97  S   UNL A   1      52.179  25.848  32.138  1.00  0.00     0.124 S 
ATOM     98  O   UNL A   1      52.152  24.393  32.014  1.00  0.00    -0.237 OA
ATOM     99  O   UNL A   1      52.964  26.551  31.126  1.00  0.00    -0.237 OA
ATOM    100  O   UNL A   1      52.331  26.354  33.501  1.00  0.00    -0.744 OA
ENDBRANCH  96  97
ENDBRANCH  70  91
ENDBRANCH  44  45
ENDBRANCH  36  39
ENDBRANCH  34  35
ENDBRANCH  33  34
ENDBRANCH   1  33
TORSDOF 19
ENDMDL
MODEL 3
REMARK VINA RESULT:     -12.4      0.434      7.915
REMARK SMILES [NH3+][C@H]1CN(C(=O)OCC2c3ccccc3-c3ccccc32)C[C@@H]1C(=O)NCCCCNC(=O)c1ccc(-c2c3nc(c(-c4ccc(S(=O)(=O)[O-])cc4)c4ccc([nH]4)c(-c4ccc(S(=O)(=O)[O-])cc4)c4nc(c(-c5ccc(S(=O)(=O)[O-])cc5)c5ccc2[nH]5)C=C4)C=C3)cc1
REMARK SMILES IDX 28 1 27 2 26 3 24 4 25 5 23 7 2 8 3 9 4 10 22 11 1 12 5 16
REMARK SMILES IDX 6 17 7 18 8 19 9 20 10 21 21 22 11 23 15 24 16 25 20 26
REMARK SMILES IDX 12 27 14 28 17 29 19 30 13 31 18 32 29 33 30 34 31 35 32 36
REMARK SMILES IDX 33 38 34 39 35 40 93 41 36 42 92 43 37 44 38 45 39 46 86 47
REMARK SMILES IDX 40 48 91 49 85 50 87 51 41 52 90 53 84 54 83 55 42 57 72 58
REMARK SMILES IDX 53 59 71 60 54 61 57 62 70 63 88 64 55 65 56 66 69 68 89 69
REMARK SMILES IDX 58 70 43 71 44 72 52 73 45 74 51 75 46 76 47 77 48 78 49 79
REMARK SMILES IDX 50 80 73 81 74 82 82 83 75 84 81 85 76 86 77 87 78 88 79 89
REMARK SMILES IDX 80 90 59 91 60 92 68 93 61 94 67 95 62 96 63 97 64 98 65 99
REMARK SMILES IDX 66 100
REMARK H PARENT 26 6 1 13 1 14 1 15 31 37 87 56 57 67
REMARK Flexibility Score: inf
ROOT
ATOM      1  C   UNL A   1      38.017  22.029  25.716  1.00  0.00     0.023 C 
ENDROOT
BRANCH   1   2
ATOM      2  C   UNL A   1      36.829  21.875  24.764  1.00  0.00     0.116 C 
BRANCH   2   3
ATOM      3  N   UNL A   1      36.008  23.074  24.772  1.00  0.00    -0.356 N 
ATOM      4  C   UNL A   1      34.745  23.263  25.259  1.00  0.00     0.231 C 
ATOM      5  O   UNL A   1      34.138  24.286  24.948  1.00  0.00    -0.274 OA
ATOM      6  H   UNL A   1      36.424  23.870  24.368  1.00  0.00     0.163 HD
BRANCH   4   7
ATOM      7  C   UNL A   1      34.173  22.236  26.216  1.00  0.00     0.158 C 
ATOM      8  C   UNL A   1      33.363  21.137  25.507  1.00  0.00     0.215 C 
ATOM      9  C   UNL A   1      31.933  21.713  25.420  1.00  0.00     0.188 C 
ATOM     10  N   UNL A   1      31.892  22.805  26.370  1.00  0.00    -0.301 N 
ATOM     11  C   UNL A   1      33.145  22.949  27.083  1.00  0.00     0.143 C 
BRANCH   8  12
ATOM     12  N   UNL A   1      33.394  19.893  26.305  1.00  0.00    -0.353 N 
ATOM     13  H   UNL A   1      32.718  19.229  25.927  1.00  0.00     0.344 HD
ATOM     14  H   UNL A   1      33.158  20.104  27.276  1.00  0.00     0.344 HD
ATOM     15  H   UNL A   1      34.328  19.485  26.265  1.00  0.00     0.344 HD
ENDBRANCH   8  12
BRANCH  10  16
ATOM     16  C   UNL A   1      30.895  23.742  26.426  1.00  0.00     0.410 C 
ATOM     17  O   UNL A   1      30.025  23.750  27.282  1.00  0.00    -0.224 OA
BRANCH  16  18
ATOM     18  O   UNL A   1      30.930  24.576  25.349  1.00  0.00    -0.448 OA
BRANCH  18  19
ATOM     19  C   UNL A   1      30.607  25.958  25.617  1.00  0.00     0.248 C 
BRANCH  19  20
ATOM     20  C   UNL A   1      31.409  26.927  24.719  1.00  0.00     0.088 C 
ATOM     21  C   UNL A   1      30.550  27.971  24.000  1.00  0.00    -0.029 A 
ATOM     22  C   UNL A   1      32.320  27.829  25.558  1.00  0.00    -0.029 A 
ATOM     23  C   UNL A   1      29.615  27.789  22.994  1.00  0.00     0.005 A 
ATOM     24  C   UNL A   1      30.827  29.262  24.494  1.00  0.00    -0.014 A 
ATOM     25  C   UNL A   1      31.939  29.182  25.413  1.00  0.00    -0.014 A 
ATOM     26  C   UNL A   1      33.402  27.473  26.349  1.00  0.00     0.005 A 
ATOM     27  C   UNL A   1      28.858  28.884  22.576  1.00  0.00     0.000 A 
ATOM     28  C   UNL A   1      30.090  30.356  24.068  1.00  0.00     0.009 A 
ATOM     29  C   UNL A   1      32.643  30.189  26.054  1.00  0.00     0.009 A 
ATOM     30  C   UNL A   1      34.110  28.490  26.996  1.00  0.00     0.000 A 
ATOM     31  C   UNL A   1      29.082  30.156  23.122  1.00  0.00     0.001 A 
ATOM     32  C   UNL A   1      33.736  29.836  26.848  1.00  0.00     0.001 A 
ENDBRANCH  19  20
ENDBRANCH  18  19
ENDBRANCH  16  18
ENDBRANCH  10  16
ENDBRANCH   4   7
ENDBRANCH   2   3
ENDBRANCH   1   2
BRANCH   1  33
ATOM     33  C   UNL A   1      38.206  23.451  26.259  1.00  0.00     0.023 C 
BRANCH  33  34
ATOM     34  C   UNL A   1      39.539  23.706  26.953  1.00  0.00     0.116 C 
BRANCH  34  35
ATOM     35  N   UNL A   1      40.563  24.192  26.041  1.00  0.00    -0.352 N 
ATOM     36  C   UNL A   1      41.175  25.422  25.998  1.00  0.00     0.251 C 
ATOM     37  H   UNL A   1      40.860  23.547  25.358  1.00  0.00     0.163 HD
ATOM     38  O   UNL A   1      41.908  25.705  25.055  1.00  0.00    -0.269 OA
BRANCH  36  39
ATOM     39  C   UNL A   1      40.923  26.411  27.070  1.00  0.00     0.039 A 
ATOM     40  C   UNL A   1      40.124  26.042  28.155  1.00  0.00     0.014 A 
ATOM     41  C   UNL A   1      41.482  27.691  27.014  1.00  0.00     0.014 A 
ATOM     42  C   UNL A   1      39.944  26.933  29.216  1.00  0.00     0.010 A 
ATOM     43  C   UNL A   1      41.367  28.546  28.108  1.00  0.00     0.010 A 
ATOM     44  C   UNL A   1      40.596  28.176  29.221  1.00  0.00    -0.014 A 
BRANCH  44  45
ATOM     45  C   UNL A   1      40.497  29.094  30.388  1.00  0.00     0.031 A 
ATOM     46  C   UNL A   1      41.399  28.911  31.580  1.00  0.00     0.074 A 
ATOM     47  C   UNL A   1      39.555  30.058  30.401  1.00  0.00     0.049 A 
ATOM     48  N   UNL A   1      41.430  29.585  32.701  1.00  0.00    -0.248 NA
ATOM     49  C   UNL A   1      42.380  27.815  31.512  1.00  0.00     0.031 C 
ATOM     50  C   UNL A   1      38.593  30.316  29.325  1.00  0.00     0.029 A 
ATOM     51  N   UNL A   1      39.246  31.000  31.351  1.00  0.00    -0.354 N 
ATOM     52  C   UNL A   1      42.419  28.988  33.475  1.00  0.00     0.074 A 
ATOM     53  C   UNL A   1      42.927  27.866  32.717  1.00  0.00     0.031 C 
ATOM     54  C   UNL A   1      37.826  31.365  29.663  1.00  0.00     0.029 A 
ATOM     55  C   UNL A   1      38.204  31.824  30.995  1.00  0.00     0.049 A 
ATOM     56  H   UNL A   1      39.726  31.077  32.207  1.00  0.00     0.167 HD
ATOM     57  C   UNL A   1      42.876  29.353  34.698  1.00  0.00     0.031 A 
ATOM     58  C   UNL A   1      37.610  32.830  31.667  1.00  0.00     0.031 A 
ATOM     59  C   UNL A   1      42.366  30.469  35.450  1.00  0.00     0.049 A 
ATOM     60  C   UNL A   1      38.116  33.196  33.036  1.00  0.00     0.074 A 
ATOM     61  C   UNL A   1      42.800  30.951  36.672  1.00  0.00     0.029 A 
ATOM     62  N   UNL A   1      41.307  31.274  35.057  1.00  0.00    -0.354 N 
ATOM     63  N   UNL A   1      39.101  32.666  33.721  1.00  0.00    -0.248 NA
ATOM     64  C   UNL A   1      37.435  34.305  33.720  1.00  0.00     0.031 C 
ATOM     65  C   UNL A   1      41.960  32.003  37.051  1.00  0.00     0.029 A 
ATOM     66  C   UNL A   1      41.051  32.227  36.030  1.00  0.00     0.049 A 
ATOM     67  H   UNL A   1      40.811  31.181  34.212  1.00  0.00     0.167 HD
ATOM     68  C   UNL A   1      39.177  33.394  34.903  1.00  0.00     0.074 A 
ATOM     69  C   UNL A   1      38.150  34.414  34.832  1.00  0.00     0.031 C 
ATOM     70  C   UNL A   1      40.021  33.234  35.952  1.00  0.00     0.031 A 
BRANCH  57  71
ATOM     71  C   UNL A   1      43.977  28.522  35.307  1.00  0.00    -0.014 A 
ATOM     72  C   UNL A   1      45.333  28.834  35.092  1.00  0.00     0.010 A 
ATOM     73  C   UNL A   1      43.654  27.436  36.143  1.00  0.00     0.010 A 
ATOM     74  C   UNL A   1      46.341  28.053  35.662  1.00  0.00     0.020 A 
ATOM     75  C   UNL A   1      44.659  26.671  36.742  1.00  0.00     0.020 A 
ATOM     76  C   UNL A   1      45.997  26.975  36.483  1.00  0.00     0.054 A 
BRANCH  76  77
ATOM     77  S   UNL A   1      47.328  25.991  37.225  1.00  0.00     0.124 S 
ATOM     78  O   UNL A   1      48.122  27.019  37.896  1.00  0.00    -0.237 OA
ATOM     79  O   UNL A   1      46.601  25.084  38.108  1.00  0.00    -0.237 OA
ATOM     80  O   UNL A   1      47.974  25.358  36.078  1.00  0.00    -0.744 OA
ENDBRANCH  76  77
ENDBRANCH  57  71
BRANCH  58  81
ATOM     81  C   UNL A   1      36.474  33.569  31.048  1.00  0.00    -0.014 A 
ATOM     82  C   UNL A   1      36.556  34.026  29.721  1.00  0.00     0.010 A 
ATOM     83  C   UNL A   1      35.297  33.809  31.780  1.00  0.00     0.010 A 
ATOM     84  C   UNL A   1      35.490  34.724  29.143  1.00  0.00     0.020 A 
ATOM     85  C   UNL A   1      34.216  34.477  31.196  1.00  0.00     0.020 A 
ATOM     86  C   UNL A   1      34.325  34.940  29.883  1.00  0.00     0.054 A 
BRANCH  86  87
ATOM     87  S   UNL A   1      32.935  35.798  29.093  1.00  0.00     0.124 S 
ATOM     88  O   UNL A   1      32.374  34.752  28.245  1.00  0.00    -0.237 OA
ATOM     89  O   UNL A   1      32.118  36.190  30.240  1.00  0.00    -0.237 OA
ATOM     90  O   UNL A   1      33.573  36.906  28.385  1.00  0.00    -0.744 OA
ENDBRANCH  86  87
ENDBRANCH  58  81
BRANCH  70  91
ATOM     91  C   UNL A   1      39.898  34.203  37.100  1.00  0.00    -0.014 A 
ATOM     92  C   UNL A   1      39.061  33.935  38.198  1.00  0.00     0.010 A 
ATOM     93  C   UNL A   1      40.676  35.375  37.103  1.00  0.00     0.010 A 
ATOM     94  C   UNL A   1      38.979  34.839  39.260  1.00  0.00     0.020 A 
ATOM     95  C   UNL A   1      40.623  36.265  38.179  1.00  0.00     0.020 A 
ATOM     96  C   UNL A   1      39.762  35.997  39.246  1.00  0.00     0.054 A 
BRANCH  96  97
ATOM     97  S   UNL A   1      39.671  37.131  40.659  1.00  0.00     0.124 S 
ATOM     98  O   UNL A   1      38.324  37.677  40.524  1.00  0.00    -0.237 OA
ATOM     99  O   UNL A   1      39.876  36.238  41.798  1.00  0.00    -0.237 OA
ATOM    100  O   UNL A   1      40.755  38.079  40.414  1.00  0.00    -0.744 OA
ENDBRANCH  96  97
ENDBRANCH  70  91
ENDBRANCH  44  45
ENDBRANCH  36  39
ENDBRANCH  34  35
ENDBRANCH  33  34
ENDBRANCH   1  33
TORSDOF 19
ENDMDL
